MODEL 1
REMARK VINA RESULT:     0.193      0.000      0.000
REMARK INTER + INTRA:           0.198
REMARK INTER:                   0.198
REMARK INTRA:                   0.000
REMARK UNBOUND:                 0.000
REMARK SMILES C=C1[C@H](O)C[C@]23C[C@H]1C(C)(C)[C@H]2CC[C@@H]3C
REMARK SMILES IDX 16 1 15 2 14 3 13 4 12 5 6 6 7 7 8 8 9 9 10 10 11 11 2 12
REMARK SMILES IDX 1 13 3 14 5 15 4 16
REMARK H PARENT 4 17
REMARK Flexibility Score: inf
ROOT
ATOM      1  C   UNL     1     -19.118 -14.361  13.836  1.00  0.00     0.008 C 
ATOM      2  C   UNL     1     -18.387 -15.238  12.808  1.00  0.00    -0.008 C 
ATOM      3  C   UNL     1     -19.106 -16.566  12.588  1.00  0.00     0.004 C 
ATOM      4  C   UNL     1     -18.594 -17.062  11.249  1.00  0.00     0.005 C 
ATOM      5  C   UNL     1     -18.475 -15.791  10.393  1.00  0.00     0.002 C 
ATOM      6  C   UNL     1     -18.201 -14.632  11.382  1.00  0.00    -0.020 C 
ATOM      7  C   UNL     1     -16.756 -14.212  11.092  1.00  0.00     0.016 C 
ATOM      8  C   UNL     1     -16.700 -14.328   9.576  1.00  0.00     0.023 C 
ATOM      9  C   UNL     1     -17.357 -15.714   9.296  1.00  0.00    -0.025 C 
ATOM     10  C   UNL     1     -17.965 -15.821   7.875  1.00  0.00     0.012 C 
ATOM     11  C   UNL     1     -16.274 -16.821   9.403  1.00  0.00     0.012 C 
ATOM     12  C   UNL     1     -17.520 -13.172   9.005  1.00  0.00    -0.045 C 
ATOM     13  C   UNL     1     -17.119 -12.569   7.875  1.00  0.00     0.011 C 
ATOM     14  C   UNL     1     -18.883 -12.825   9.619  1.00  0.00     0.140 C 
ATOM     15  C   UNL     1     -19.108 -13.407  11.051  1.00  0.00     0.044 C 
ENDROOT
BRANCH  14  16
ATOM     16  O   UNL     1     -19.088 -11.434   9.632  1.00  0.00    -0.389 OA
ATOM     17  H   UNL     1     -19.712 -11.220   8.890  1.00  0.00     0.211 HD
ENDBRANCH  14  16
TORSDOF 1
ENDMDL
MODEL 2
REMARK VINA RESULT:     0.703      2.063      3.442
REMARK INTER + INTRA:           0.724
REMARK INTER:                   0.724
REMARK INTRA:                   0.000
REMARK UNBOUND:                 0.000
REMARK SMILES C=C1[C@H](O)C[C@]23C[C@H]1C(C)(C)[C@H]2CC[C@@H]3C
REMARK SMILES IDX 16 1 15 2 14 3 13 4 12 5 6 6 7 7 8 8 9 9 10 10 11 11 2 12
REMARK SMILES IDX 1 13 3 14 5 15 4 16
REMARK H PARENT 4 17
REMARK Flexibility Score: inf
ROOT
ATOM      1  C   UNL     1     -18.942 -15.609  13.513  1.00  0.00     0.008 C 
ATOM      2  C   UNL     1     -19.125 -14.643  12.334  1.00  0.00    -0.008 C 
ATOM      3  C   UNL     1     -19.094 -13.186  12.790  1.00  0.00     0.004 C 
ATOM      4  C   UNL     1     -18.774 -12.398  11.533  1.00  0.00     0.005 C 
ATOM      5  C   UNL     1     -17.759 -13.274  10.783  1.00  0.00     0.002 C 
ATOM      6  C   UNL     1     -18.071 -14.735  11.187  1.00  0.00    -0.020 C 
ATOM      7  C   UNL     1     -18.627 -15.377   9.911  1.00  0.00     0.016 C 
ATOM      8  C   UNL     1     -17.742 -14.755   8.843  1.00  0.00     0.023 C 
ATOM      9  C   UNL     1     -17.736 -13.242   9.215  1.00  0.00    -0.025 C 
ATOM     10  C   UNL     1     -16.483 -12.493   8.694  1.00  0.00     0.012 C 
ATOM     11  C   UNL     1     -18.968 -12.554   8.569  1.00  0.00     0.012 C 
ATOM     12  C   UNL     1     -16.359 -15.390   8.977  1.00  0.00    -0.045 C 
ATOM     13  C   UNL     1     -15.633 -15.639   7.876  1.00  0.00     0.011 C 
ATOM     14  C   UNL     1     -15.734 -15.575  10.366  1.00  0.00     0.140 C 
ATOM     15  C   UNL     1     -16.756 -15.495  11.545  1.00  0.00     0.044 C 
ENDROOT
BRANCH  14  16
ATOM     16  O   UNL     1     -15.017 -16.782  10.439  1.00  0.00    -0.389 OA
ATOM     17  H   UNL     1     -14.877 -17.100   9.508  1.00  0.00     0.211 HD
ENDBRANCH  14  16
TORSDOF 1
ENDMDL
