MODEL 1
REMARK VINA RESULT:    -6.992      0.000      0.000
REMARK INTER + INTRA:          -8.661
REMARK INTER:                  -8.422
REMARK INTRA:                  -0.239
REMARK UNBOUND:                -0.239
REMARK SMILES O=c1c(O)c(-c2ccc(O)c(O)c2)oc2cc(O)cc(O)c12
REMARK SMILES IDX 5 1 3 2 2 3 1 4 22 5 20 6 19 7 17 8 16 9 15 10 14 11 6 12
REMARK SMILES IDX 7 13 8 14 9 15 13 16 11 17 10 18 12 20 4 22 21 24 18 26
REMARK H PARENT 10 19 12 21 4 23 21 25 18 27
REMARK Flexibility Score: inf
ROOT
ATOM      1  C   UNL     1       5.024   5.541   1.372  1.00  0.00     0.180 A 
ATOM      2  C   UNL     1       5.050   4.640   2.450  1.00  0.00     0.208 A 
ATOM      3  C   UNL     1       4.490   3.363   2.284  1.00  0.00     0.238 A 
ATOM      4  O   UNL     1       4.566   2.541   3.235  1.00  0.00    -0.285 OA
ATOM      5  C   UNL     1       3.898   3.008   1.048  1.00  0.00     0.111 A 
ATOM      6  C   UNL     1       3.266   1.756   0.782  1.00  0.00     0.134 A 
ATOM      7  C   UNL     1       2.830   1.466  -0.517  1.00  0.00     0.093 A 
ATOM      8  C   UNL     1       2.943   2.404  -1.542  1.00  0.00     0.123 A 
ATOM      9  C   UNL     1       3.505   3.654  -1.279  1.00  0.00     0.094 A 
ATOM     10  C   UNL     1       3.982   3.960  -0.001  1.00  0.00     0.146 A 
ATOM     11  O   UNL     1       4.520   5.156   0.205  1.00  0.00    -0.452 OA
ENDROOT
BRANCH   1  12
ATOM     12  C   UNL     1       5.571   6.913   1.478  1.00  0.00     0.025 A 
ATOM     13  C   UNL     1       6.789   7.264   0.871  1.00  0.00     0.016 A 
ATOM     14  C   UNL     1       7.298   8.558   1.005  1.00  0.00     0.051 A 
ATOM     15  C   UNL     1       6.609   9.516   1.755  1.00  0.00     0.157 A 
ATOM     16  C   UNL     1       4.891   7.871   2.248  1.00  0.00     0.062 A 
ATOM     17  C   UNL     1       5.400   9.171   2.383  1.00  0.00     0.158 A 
BRANCH  15  18
ATOM     18  O   UNL     1       7.140  10.800   1.868  1.00  0.00    -0.504 OA
ATOM     19  H   UNL     1       8.136  10.965   1.953  1.00  0.00     0.293 HD
ENDBRANCH  15  18
BRANCH  17  20
ATOM     20  O   UNL     1       4.710  10.119   3.138  1.00  0.00    -0.504 OA
ATOM     21  H   UNL     1       4.985  11.094   3.147  1.00  0.00     0.293 HD
ENDBRANCH  17  20
ENDBRANCH   1  12
BRANCH   2  22
ATOM     22  O   UNL     1       5.660   5.002   3.655  1.00  0.00    -0.502 OA
ATOM     23  H   UNL     1       6.662   5.129   3.740  1.00  0.00     0.293 HD
ENDBRANCH   2  22
BRANCH   6  24
ATOM     24  O   UNL     1       3.021   0.784   1.755  1.00  0.00    -0.507 OA
ATOM     25  H   UNL     1       3.593   0.630   2.571  1.00  0.00     0.293 HD
ENDBRANCH   6  24
BRANCH   8  26
ATOM     26  O   UNL     1       2.483   2.087  -2.818  1.00  0.00    -0.508 OA
ATOM     27  H   UNL     1       2.268   1.133  -3.083  1.00  0.00     0.293 HD
ENDBRANCH   8  26
TORSDOF 6
ENDMDL
MODEL 2
REMARK VINA RESULT:    -6.991      1.500      2.322
REMARK INTER + INTRA:          -8.660
REMARK INTER:                  -8.343
REMARK INTRA:                  -0.317
REMARK UNBOUND:                -0.239
REMARK SMILES O=c1c(O)c(-c2ccc(O)c(O)c2)oc2cc(O)cc(O)c12
REMARK SMILES IDX 5 1 3 2 2 3 1 4 22 5 20 6 19 7 17 8 16 9 15 10 14 11 6 12
REMARK SMILES IDX 7 13 8 14 9 15 13 16 11 17 10 18 12 20 4 22 21 24 18 26
REMARK H PARENT 10 19 12 21 4 23 21 25 18 27
REMARK Flexibility Score: inf
ROOT
ATOM      1  C   UNL     1       4.921   6.963   2.423  1.00  0.00     0.180 A 
ATOM      2  C   UNL     1       5.485   5.894   3.139  1.00  0.00     0.208 A 
ATOM      3  C   UNL     1       5.298   4.584   2.667  1.00  0.00     0.238 A 
ATOM      4  O   UNL     1       5.852   3.636   3.283  1.00  0.00    -0.285 OA
ATOM      5  C   UNL     1       4.537   4.360   1.496  1.00  0.00     0.111 A 
ATOM      6  C   UNL     1       4.249   3.072   0.951  1.00  0.00     0.134 A 
ATOM      7  C   UNL     1       3.596   2.976  -0.285  1.00  0.00     0.093 A 
ATOM      8  C   UNL     1       3.163   4.115  -0.961  1.00  0.00     0.123 A 
ATOM      9  C   UNL     1       3.386   5.377  -0.409  1.00  0.00     0.094 A 
ATOM     10  C   UNL     1       4.067   5.507   0.805  1.00  0.00     0.146 A 
ATOM     11  O   UNL     1       4.268   6.725   1.291  1.00  0.00    -0.452 OA
ENDROOT
BRANCH   1  12
ATOM     12  C   UNL     1       5.054   8.369   2.871  1.00  0.00     0.025 A 
ATOM     13  C   UNL     1       4.218   8.902   3.867  1.00  0.00     0.016 A 
ATOM     14  C   UNL     1       4.345  10.237   4.256  1.00  0.00     0.051 A 
ATOM     15  C   UNL     1       5.297  11.064   3.651  1.00  0.00     0.157 A 
ATOM     16  C   UNL     1       5.995   9.207   2.249  1.00  0.00     0.062 A 
ATOM     17  C   UNL     1       6.125  10.548   2.639  1.00  0.00     0.158 A 
BRANCH  15  18
ATOM     18  O   UNL     1       5.403  12.392   4.062  1.00  0.00    -0.504 OA
ATOM     19  H   UNL     1       5.813  12.648   4.952  1.00  0.00     0.293 HD
ENDBRANCH  15  18
BRANCH  17  20
ATOM     20  O   UNL     1       7.072  11.367   2.026  1.00  0.00    -0.504 OA
ATOM     21  H   UNL     1       7.683  11.968   2.565  1.00  0.00     0.293 HD
ENDBRANCH  17  20
ENDBRANCH   1  12
BRANCH   2  22
ATOM     22  O   UNL     1       6.254   6.140   4.281  1.00  0.00    -0.502 OA
ATOM     23  H   UNL     1       5.841   6.254   5.199  1.00  0.00     0.293 HD
ENDBRANCH   2  22
BRANCH   6  24
ATOM     24  O   UNL     1       4.556   1.868   1.590  1.00  0.00    -0.507 OA
ATOM     25  H   UNL     1       4.321   0.953   1.236  1.00  0.00     0.293 HD
ENDBRANCH   6  24
BRANCH   8  26
ATOM     26  O   UNL     1       2.502   3.981  -2.181  1.00  0.00    -0.508 OA
ATOM     27  H   UNL     1       2.743   4.555  -2.980  1.00  0.00     0.293 HD
ENDBRANCH   8  26
TORSDOF 6
ENDMDL
MODEL 3
REMARK VINA RESULT:    -6.858      2.079      7.335
REMARK INTER + INTRA:          -8.500
REMARK INTER:                  -8.186
REMARK INTRA:                  -0.314
REMARK UNBOUND:                -0.239
REMARK SMILES O=c1c(O)c(-c2ccc(O)c(O)c2)oc2cc(O)cc(O)c12
REMARK SMILES IDX 5 1 3 2 2 3 1 4 22 5 20 6 19 7 17 8 16 9 15 10 14 11 6 12
REMARK SMILES IDX 7 13 8 14 9 15 13 16 11 17 10 18 12 20 4 22 21 24 18 26
REMARK H PARENT 10 19 12 21 4 23 21 25 18 27
REMARK Flexibility Score: inf
ROOT
ATOM      1  C   UNL     1       4.761   7.050   1.670  1.00  0.00     0.180 A 
ATOM      2  C   UNL     1       5.825   7.860   1.238  1.00  0.00     0.208 A 
ATOM      3  C   UNL     1       6.077   9.068   1.908  1.00  0.00     0.238 A 
ATOM      4  O   UNL     1       7.065   9.762   1.551  1.00  0.00    -0.285 OA
ATOM      5  C   UNL     1       5.253   9.459   2.990  1.00  0.00     0.111 A 
ATOM      6  C   UNL     1       5.391  10.682   3.714  1.00  0.00     0.134 A 
ATOM      7  C   UNL     1       4.601  10.904   4.849  1.00  0.00     0.093 A 
ATOM      8  C   UNL     1       3.636   9.982   5.247  1.00  0.00     0.123 A 
ATOM      9  C   UNL     1       3.450   8.811   4.511  1.00  0.00     0.094 A 
ATOM     10  C   UNL     1       4.247   8.543   3.395  1.00  0.00     0.146 A 
ATOM     11  O   UNL     1       4.047   7.413   2.729  1.00  0.00    -0.452 OA
ENDROOT
BRANCH   1  12
ATOM     12  C   UNL     1       4.418   5.775   0.999  1.00  0.00     0.025 A 
ATOM     13  C   UNL     1       5.075   4.576   1.327  1.00  0.00     0.016 A 
ATOM     14  C   UNL     1       4.753   3.390   0.663  1.00  0.00     0.051 A 
ATOM     15  C   UNL     1       3.781   3.383  -0.343  1.00  0.00     0.157 A 
ATOM     16  C   UNL     1       3.458   5.769  -0.027  1.00  0.00     0.062 A 
ATOM     17  C   UNL     1       3.132   4.579  -0.693  1.00  0.00     0.158 A 
BRANCH  15  18
ATOM     18  O   UNL     1       3.478   2.183  -0.985  1.00  0.00    -0.504 OA
ATOM     19  H   UNL     1       2.883   2.147  -1.804  1.00  0.00     0.293 HD
ENDBRANCH  15  18
BRANCH  17  20
ATOM     20  O   UNL     1       2.168   4.582  -1.700  1.00  0.00    -0.504 OA
ATOM     21  H   UNL     1       2.422   4.644  -2.679  1.00  0.00     0.293 HD
ENDBRANCH  17  20
ENDBRANCH   1  12
BRANCH   2  22
ATOM     22  O   UNL     1       6.642   7.444   0.182  1.00  0.00    -0.502 OA
ATOM     23  H   UNL     1       6.597   7.864  -0.738  1.00  0.00     0.293 HD
ENDBRANCH   2  22
BRANCH   6  24
ATOM     24  O   UNL     1       6.262  11.711   3.347  1.00  0.00    -0.507 OA
ATOM     25  H   UNL     1       6.950  11.648   2.612  1.00  0.00     0.293 HD
ENDBRANCH   6  24
BRANCH   8  26
ATOM     26  O   UNL     1       2.856  10.244   6.372  1.00  0.00    -0.508 OA
ATOM     27  H   UNL     1       2.708  11.189   6.706  1.00  0.00     0.293 HD
ENDBRANCH   8  26
TORSDOF 6
ENDMDL
MODEL 4
REMARK VINA RESULT:    -6.822      4.201      7.013
REMARK INTER + INTRA:          -8.456
REMARK INTER:                  -8.123
REMARK INTRA:                  -0.333
REMARK UNBOUND:                -0.239
REMARK SMILES O=c1c(O)c(-c2ccc(O)c(O)c2)oc2cc(O)cc(O)c12
REMARK SMILES IDX 5 1 3 2 2 3 1 4 22 5 20 6 19 7 17 8 16 9 15 10 14 11 6 12
REMARK SMILES IDX 7 13 8 14 9 15 13 16 11 17 10 18 12 20 4 22 21 24 18 26
REMARK H PARENT 10 19 12 21 4 23 21 25 18 27
REMARK Flexibility Score: inf
ROOT
ATOM      1  C   UNL     1       3.954   9.672   5.212  1.00  0.00     0.180 A 
ATOM      2  C   UNL     1       4.858  10.539   4.575  1.00  0.00     0.208 A 
ATOM      3  C   UNL     1       5.443  10.143   3.362  1.00  0.00     0.238 A 
ATOM      4  O   UNL     1       6.210  10.946   2.770  1.00  0.00    -0.285 OA
ATOM      5  C   UNL     1       5.129   8.878   2.809  1.00  0.00     0.111 A 
ATOM      6  C   UNL     1       5.694   8.357   1.606  1.00  0.00     0.134 A 
ATOM      7  C   UNL     1       5.212   7.149   1.084  1.00  0.00     0.093 A 
ATOM      8  C   UNL     1       4.236   6.414   1.753  1.00  0.00     0.123 A 
ATOM      9  C   UNL     1       3.719   6.884   2.961  1.00  0.00     0.094 A 
ATOM     10  C   UNL     1       4.154   8.103   3.489  1.00  0.00     0.146 A 
ATOM     11  O   UNL     1       3.629   8.521   4.635  1.00  0.00    -0.452 OA
ENDROOT
BRANCH   1  12
ATOM     12  C   UNL     1       3.316  10.009   6.505  1.00  0.00     0.025 A 
ATOM     13  C   UNL     1       3.939   9.710   7.729  1.00  0.00     0.016 A 
ATOM     14  C   UNL     1       3.308  10.015   8.937  1.00  0.00     0.051 A 
ATOM     15  C   UNL     1       2.042  10.610   8.944  1.00  0.00     0.157 A 
ATOM     16  C   UNL     1       2.036  10.589   6.515  1.00  0.00     0.062 A 
ATOM     17  C   UNL     1       1.400  10.896   7.727  1.00  0.00     0.158 A 
BRANCH  15  18
ATOM     18  O   UNL     1       1.438  10.906  10.165  1.00  0.00    -0.504 OA
ATOM     19  H   UNL     1       0.547  10.506  10.435  1.00  0.00     0.293 HD
ENDBRANCH  15  18
BRANCH  17  20
ATOM     20  O   UNL     1       0.136  11.484   7.725  1.00  0.00    -0.504 OA
ATOM     21  H   UNL     1       0.013  12.481   7.857  1.00  0.00     0.293 HD
ENDBRANCH  17  20
ENDBRANCH   1  12
BRANCH   2  22
ATOM     22  O   UNL     1       5.136  11.794   5.127  1.00  0.00    -0.502 OA
ATOM     23  H   UNL     1       4.704  12.645   4.789  1.00  0.00     0.293 HD
ENDBRANCH   2  22
BRANCH   6  24
ATOM     24  O   UNL     1       6.739   8.967   0.907  1.00  0.00    -0.507 OA
ATOM     25  H   UNL     1       7.700   8.988   1.212  1.00  0.00     0.293 HD
ENDBRANCH   6  24
BRANCH   8  26
ATOM     26  O   UNL     1       3.792   5.209   1.213  1.00  0.00    -0.508 OA
ATOM     27  H   UNL     1       4.173   4.843   0.348  1.00  0.00     0.293 HD
ENDBRANCH   8  26
TORSDOF 6
ENDMDL
MODEL 5
REMARK VINA RESULT:    -6.821      4.716      8.363
REMARK INTER + INTRA:          -8.455
REMARK INTER:                  -8.152
REMARK INTRA:                  -0.303
REMARK UNBOUND:                -0.239
REMARK SMILES O=c1c(O)c(-c2ccc(O)c(O)c2)oc2cc(O)cc(O)c12
REMARK SMILES IDX 5 1 3 2 2 3 1 4 22 5 20 6 19 7 17 8 16 9 15 10 14 11 6 12
REMARK SMILES IDX 7 13 8 14 9 15 13 16 11 17 10 18 12 20 4 22 21 24 18 26
REMARK H PARENT 10 19 12 21 4 23 21 25 18 27
REMARK Flexibility Score: inf
ROOT
ATOM      1  C   UNL     1       4.184  10.791   5.820  1.00  0.00     0.180 A 
ATOM      2  C   UNL     1       4.679  11.950   5.199  1.00  0.00     0.208 A 
ATOM      3  C   UNL     1       5.451  11.821   4.033  1.00  0.00     0.238 A 
ATOM      4  O   UNL     1       5.846  12.866   3.452  1.00  0.00    -0.285 OA
ATOM      5  C   UNL     1       5.731  10.536   3.512  1.00  0.00     0.111 A 
ATOM      6  C   UNL     1       6.537  10.286   2.360  1.00  0.00     0.134 A 
ATOM      7  C   UNL     1       6.639   8.981   1.860  1.00  0.00     0.093 A 
ATOM      8  C   UNL     1       6.021   7.912   2.504  1.00  0.00     0.123 A 
ATOM      9  C   UNL     1       5.280   8.136   3.666  1.00  0.00     0.094 A 
ATOM     10  C   UNL     1       5.130   9.431   4.169  1.00  0.00     0.146 A 
ATOM     11  O   UNL     1       4.409   9.603   5.270  1.00  0.00    -0.452 OA
ENDROOT
BRANCH   1  12
ATOM     12  C   UNL     1       3.384  10.844   7.065  1.00  0.00     0.025 A 
ATOM     13  C   UNL     1       3.969  10.607   8.322  1.00  0.00     0.016 A 
ATOM     14  C   UNL     1       3.190  10.638   9.481  1.00  0.00     0.051 A 
ATOM     15  C   UNL     1       1.817  10.893   9.405  1.00  0.00     0.157 A 
ATOM     16  C   UNL     1       2.001  11.080   6.990  1.00  0.00     0.062 A 
ATOM     17  C   UNL     1       1.217  11.113   8.152  1.00  0.00     0.158 A 
BRANCH  15  18
ATOM     18  O   UNL     1       1.065  10.921  10.579  1.00  0.00    -0.504 OA
ATOM     19  H   UNL     1       1.441  11.279  11.449  1.00  0.00     0.293 HD
ENDBRANCH  15  18
BRANCH  17  20
ATOM     20  O   UNL     1      -0.152  11.361   8.067  1.00  0.00    -0.504 OA
ATOM     21  H   UNL     1      -0.579  11.694   7.211  1.00  0.00     0.293 HD
ENDBRANCH  17  20
ENDBRANCH   1  12
BRANCH   2  22
ATOM     22  O   UNL     1       4.371  13.212   5.718  1.00  0.00    -0.502 OA
ATOM     23  H   UNL     1       5.047  13.966   5.751  1.00  0.00     0.293 HD
ENDBRANCH   2  22
BRANCH   6  24
ATOM     24  O   UNL     1       7.271  11.270   1.693  1.00  0.00    -0.507 OA
ATOM     25  H   UNL     1       7.126  11.544   0.733  1.00  0.00     0.293 HD
ENDBRANCH   6  24
BRANCH   8  26
ATOM     26  O   UNL     1       6.157   6.625   1.987  1.00  0.00    -0.508 OA
ATOM     27  H   UNL     1       6.848   5.979   2.350  1.00  0.00     0.293 HD
ENDBRANCH   8  26
TORSDOF 6
ENDMDL
MODEL 6
REMARK VINA RESULT:    -6.784      1.498      6.703
REMARK INTER + INTRA:          -8.411
REMARK INTER:                  -8.305
REMARK INTRA:                  -0.105
REMARK UNBOUND:                -0.239
REMARK SMILES O=c1c(O)c(-c2ccc(O)c(O)c2)oc2cc(O)cc(O)c12
REMARK SMILES IDX 5 1 3 2 2 3 1 4 22 5 20 6 19 7 17 8 16 9 15 10 14 11 6 12
REMARK SMILES IDX 7 13 8 14 9 15 13 16 11 17 10 18 12 20 4 22 21 24 18 26
REMARK H PARENT 10 19 12 21 4 23 21 25 18 27
REMARK Flexibility Score: inf
ROOT
ATOM      1  C   UNL     1       4.792   5.267   1.264  1.00  0.00     0.180 A 
ATOM      2  C   UNL     1       4.852   4.810   2.592  1.00  0.00     0.208 A 
ATOM      3  C   UNL     1       5.419   5.638   3.573  1.00  0.00     0.238 A 
ATOM      4  O   UNL     1       5.420   5.245   4.769  1.00  0.00    -0.285 OA
ATOM      5  C   UNL     1       5.934   6.907   3.212  1.00  0.00     0.111 A 
ATOM      6  C   UNL     1       6.568   7.811   4.116  1.00  0.00     0.134 A 
ATOM      7  C   UNL     1       6.922   9.093   3.675  1.00  0.00     0.093 A 
ATOM      8  C   UNL     1       6.726   9.478   2.351  1.00  0.00     0.123 A 
ATOM      9  C   UNL     1       6.163   8.581   1.443  1.00  0.00     0.094 A 
ATOM     10  C   UNL     1       5.766   7.308   1.861  1.00  0.00     0.146 A 
ATOM     11  O   UNL     1       5.223   6.488   0.969  1.00  0.00    -0.452 OA
ENDROOT
BRANCH   1  12
ATOM     12  C   UNL     1       4.231   4.441   0.170  1.00  0.00     0.025 A 
ATOM     13  C   UNL     1       3.101   4.856  -0.555  1.00  0.00     0.016 A 
ATOM     14  C   UNL     1       2.574   4.049  -1.566  1.00  0.00     0.051 A 
ATOM     15  C   UNL     1       3.157   2.813  -1.861  1.00  0.00     0.157 A 
ATOM     16  C   UNL     1       4.803   3.190  -0.114  1.00  0.00     0.062 A 
ATOM     17  C   UNL     1       4.276   2.378  -1.130  1.00  0.00     0.158 A 
BRANCH  15  18
ATOM     18  O   UNL     1       2.612   2.031  -2.878  1.00  0.00    -0.504 OA
ATOM     19  H   UNL     1       2.532   1.024  -2.798  1.00  0.00     0.293 HD
ENDBRANCH  15  18
BRANCH  17  20
ATOM     20  O   UNL     1       4.860   1.144  -1.414  1.00  0.00    -0.504 OA
ATOM     21  H   UNL     1       5.853   0.985  -1.290  1.00  0.00     0.293 HD
ENDBRANCH  17  20
ENDBRANCH   1  12
BRANCH   2  22
ATOM     22  O   UNL     1       4.316   3.563   2.931  1.00  0.00    -0.502 OA
ATOM     23  H   UNL     1       4.896   2.781   3.211  1.00  0.00     0.293 HD
ENDBRANCH   2  22
BRANCH   6  24
ATOM     24  O   UNL     1       6.892   7.494   5.438  1.00  0.00    -0.507 OA
ATOM     25  H   UNL     1       6.590   8.017   6.246  1.00  0.00     0.293 HD
ENDBRANCH   6  24
BRANCH   8  26
ATOM     26  O   UNL     1       7.105  10.756   1.943  1.00  0.00    -0.508 OA
ATOM     27  H   UNL     1       7.423  10.938   0.998  1.00  0.00     0.293 HD
ENDBRANCH   8  26
TORSDOF 6
ENDMDL
MODEL 7
REMARK VINA RESULT:    -6.712      2.715      7.733
REMARK INTER + INTRA:          -8.324
REMARK INTER:                  -8.020
REMARK INTRA:                  -0.304
REMARK UNBOUND:                -0.239
REMARK SMILES O=c1c(O)c(-c2ccc(O)c(O)c2)oc2cc(O)cc(O)c12
REMARK SMILES IDX 5 1 3 2 2 3 1 4 22 5 20 6 19 7 17 8 16 9 15 10 14 11 6 12
REMARK SMILES IDX 7 13 8 14 9 15 13 16 11 17 10 18 12 20 4 22 21 24 18 26
REMARK H PARENT 10 19 12 21 4 23 21 25 18 27
REMARK Flexibility Score: inf
ROOT
ATOM      1  C   UNL     1       4.541   7.957   2.898  1.00  0.00     0.180 A 
ATOM      2  C   UNL     1       5.452   8.972   2.561  1.00  0.00     0.208 A 
ATOM      3  C   UNL     1       5.314  10.236   3.156  1.00  0.00     0.238 A 
ATOM      4  O   UNL     1       6.166  11.125   2.892  1.00  0.00    -0.285 OA
ATOM      5  C   UNL     1       4.257  10.474   4.067  1.00  0.00     0.111 A 
ATOM      6  C   UNL     1       3.998  11.728   4.698  1.00  0.00     0.134 A 
ATOM      7  C   UNL     1       3.004  11.813   5.681  1.00  0.00     0.093 A 
ATOM      8  C   UNL     1       2.218  10.710   6.009  1.00  0.00     0.123 A 
ATOM      9  C   UNL     1       2.423   9.494   5.356  1.00  0.00     0.094 A 
ATOM     10  C   UNL     1       3.431   9.368   4.396  1.00  0.00     0.146 A 
ATOM     11  O   UNL     1       3.601   8.192   3.806  1.00  0.00    -0.452 OA
ENDROOT
BRANCH   1  12
ATOM     12  C   UNL     1       4.608   6.606   2.294  1.00  0.00     0.025 A 
ATOM     13  C   UNL     1       5.257   5.544   2.946  1.00  0.00     0.016 A 
ATOM     14  C   UNL     1       5.329   4.284   2.347  1.00  0.00     0.051 A 
ATOM     15  C   UNL     1       4.766   4.068   1.085  1.00  0.00     0.157 A 
ATOM     16  C   UNL     1       4.062   6.391   1.018  1.00  0.00     0.062 A 
ATOM     17  C   UNL     1       4.132   5.127   0.414  1.00  0.00     0.158 A 
BRANCH  15  18
ATOM     18  O   UNL     1       4.851   2.799   0.513  1.00  0.00    -0.504 OA
ATOM     19  H   UNL     1       5.445   2.074   0.897  1.00  0.00     0.293 HD
ENDBRANCH  15  18
BRANCH  17  20
ATOM     20  O   UNL     1       3.574   4.921  -0.847  1.00  0.00    -0.504 OA
ATOM     21  H   UNL     1       4.016   5.276  -1.688  1.00  0.00     0.293 HD
ENDBRANCH  17  20
ENDBRANCH   1  12
BRANCH   2  22
ATOM     22  O   UNL     1       6.503   8.709   1.676  1.00  0.00    -0.502 OA
ATOM     23  H   UNL     1       7.475   8.751   1.958  1.00  0.00     0.293 HD
ENDBRANCH   2  22
BRANCH   6  24
ATOM     24  O   UNL     1       4.664  12.915   4.378  1.00  0.00    -0.507 OA
ATOM     25  H   UNL     1       5.185  13.476   5.035  1.00  0.00     0.293 HD
ENDBRANCH   6  24
BRANCH   8  26
ATOM     26  O   UNL     1       1.227  10.836   6.981  1.00  0.00    -0.508 OA
ATOM     27  H   UNL     1       0.274  11.075   6.738  1.00  0.00     0.293 HD
ENDBRANCH   8  26
TORSDOF 6
ENDMDL
MODEL 8
REMARK VINA RESULT:    -6.574      2.125      6.853
REMARK INTER + INTRA:          -8.158
REMARK INTER:                  -7.963
REMARK INTRA:                  -0.196
REMARK UNBOUND:                -0.239
REMARK SMILES O=c1c(O)c(-c2ccc(O)c(O)c2)oc2cc(O)cc(O)c12
REMARK SMILES IDX 5 1 3 2 2 3 1 4 22 5 20 6 19 7 17 8 16 9 15 10 14 11 6 12
REMARK SMILES IDX 7 13 8 14 9 15 13 16 11 17 10 18 12 20 4 22 21 24 18 26
REMARK H PARENT 10 19 12 21 4 23 21 25 18 27
REMARK Flexibility Score: inf
ROOT
ATOM      1  C   UNL     1       4.921   5.115   0.986  1.00  0.00     0.180 A 
ATOM      2  C   UNL     1       5.034   6.482   0.681  1.00  0.00     0.208 A 
ATOM      3  C   UNL     1       5.790   7.308   1.528  1.00  0.00     0.238 A 
ATOM      4  O   UNL     1       5.932   8.521   1.220  1.00  0.00    -0.285 OA
ATOM      5  C   UNL     1       6.409   6.761   2.677  1.00  0.00     0.111 A 
ATOM      6  C   UNL     1       7.164   7.513   3.627  1.00  0.00     0.134 A 
ATOM      7  C   UNL     1       7.841   6.845   4.655  1.00  0.00     0.093 A 
ATOM      8  C   UNL     1       7.737   5.464   4.807  1.00  0.00     0.123 A 
ATOM      9  C   UNL     1       6.952   4.725   3.920  1.00  0.00     0.094 A 
ATOM     10  C   UNL     1       6.295   5.359   2.862  1.00  0.00     0.146 A 
ATOM     11  O   UNL     1       5.568   4.619   2.034  1.00  0.00    -0.452 OA
ENDROOT
BRANCH   1  12
ATOM     12  C   UNL     1       4.121   4.186   0.155  1.00  0.00     0.025 A 
ATOM     13  C   UNL     1       4.734   3.193  -0.630  1.00  0.00     0.016 A 
ATOM     14  C   UNL     1       3.962   2.344  -1.426  1.00  0.00     0.051 A 
ATOM     15  C   UNL     1       2.570   2.478  -1.461  1.00  0.00     0.157 A 
ATOM     16  C   UNL     1       2.725   4.332   0.101  1.00  0.00     0.062 A 
ATOM     17  C   UNL     1       1.947   3.479  -0.696  1.00  0.00     0.158 A 
BRANCH  15  18
ATOM     18  O   UNL     1       1.825   1.614  -2.262  1.00  0.00    -0.504 OA
ATOM     19  H   UNL     1       1.000   1.922  -2.763  1.00  0.00     0.293 HD
ENDBRANCH  15  18
BRANCH  17  20
ATOM     20  O   UNL     1       0.561   3.624  -0.731  1.00  0.00    -0.504 OA
ATOM     21  H   UNL     1       0.093   4.377  -0.240  1.00  0.00     0.293 HD
ENDBRANCH  17  20
ENDBRANCH   1  12
BRANCH   2  22
ATOM     22  O   UNL     1       4.433   6.998  -0.472  1.00  0.00    -0.502 OA
ATOM     23  H   UNL     1       4.860   6.923  -1.387  1.00  0.00     0.293 HD
ENDBRANCH   2  22
BRANCH   6  24
ATOM     24  O   UNL     1       7.258   8.908   3.620  1.00  0.00    -0.507 OA
ATOM     25  H   UNL     1       6.631   9.524   3.126  1.00  0.00     0.293 HD
ENDBRANCH   6  24
BRANCH   8  26
ATOM     26  O   UNL     1       8.411   4.834   5.852  1.00  0.00    -0.508 OA
ATOM     27  H   UNL     1       7.915   4.310   6.563  1.00  0.00     0.293 HD
ENDBRANCH   8  26
TORSDOF 6
ENDMDL
MODEL 9
REMARK VINA RESULT:    -6.435      7.126     10.496
REMARK INTER + INTRA:          -7.990
REMARK INTER:                  -7.659
REMARK INTRA:                  -0.331
REMARK UNBOUND:                -0.239
REMARK SMILES O=c1c(O)c(-c2ccc(O)c(O)c2)oc2cc(O)cc(O)c12
REMARK SMILES IDX 5 1 3 2 2 3 1 4 22 5 20 6 19 7 17 8 16 9 15 10 14 11 6 12
REMARK SMILES IDX 7 13 8 14 9 15 13 16 11 17 10 18 12 20 4 22 21 24 18 26
REMARK H PARENT 10 19 12 21 4 23 21 25 18 27
REMARK Flexibility Score: inf
ROOT
ATOM      1  C   UNL     1       3.579  11.317   7.107  1.00  0.00     0.180 A 
ATOM      2  C   UNL     1       2.175  11.293   7.108  1.00  0.00     0.208 A 
ATOM      3  C   UNL     1       1.495  11.247   8.336  1.00  0.00     0.238 A 
ATOM      4  O   UNL     1       0.236  11.281   8.332  1.00  0.00    -0.285 OA
ATOM      5  C   UNL     1       2.228  11.209   9.546  1.00  0.00     0.111 A 
ATOM      6  C   UNL     1       1.644  11.120  10.845  1.00  0.00     0.134 A 
ATOM      7  C   UNL     1       2.462  11.221  11.978  1.00  0.00     0.093 A 
ATOM      8  C   UNL     1       3.845  11.341  11.859  1.00  0.00     0.123 A 
ATOM      9  C   UNL     1       4.433  11.369  10.594  1.00  0.00     0.094 A 
ATOM     10  C   UNL     1       3.640  11.307   9.445  1.00  0.00     0.146 A 
ATOM     11  O   UNL     1       4.238  11.347   8.260  1.00  0.00    -0.452 OA
ENDROOT
BRANCH   1  12
ATOM     12  C   UNL     1       4.366  11.340   5.852  1.00  0.00     0.025 A 
ATOM     13  C   UNL     1       4.780  10.152   5.225  1.00  0.00     0.016 A 
ATOM     14  C   UNL     1       5.542  10.199   4.056  1.00  0.00     0.051 A 
ATOM     15  C   UNL     1       5.915  11.427   3.501  1.00  0.00     0.157 A 
ATOM     16  C   UNL     1       4.759  12.573   5.305  1.00  0.00     0.062 A 
ATOM     17  C   UNL     1       5.524  12.622   4.130  1.00  0.00     0.158 A 
BRANCH  15  18
ATOM     18  O   UNL     1       6.673  11.443   2.332  1.00  0.00    -0.504 OA
ATOM     19  H   UNL     1       6.472  10.829   1.552  1.00  0.00     0.293 HD
ENDBRANCH  15  18
BRANCH  17  20
ATOM     20  O   UNL     1       5.897  13.851   3.588  1.00  0.00    -0.504 OA
ATOM     21  H   UNL     1       5.416  14.709   3.835  1.00  0.00     0.293 HD
ENDBRANCH  17  20
ENDBRANCH   1  12
BRANCH   2  22
ATOM     22  O   UNL     1       1.469  11.355   5.902  1.00  0.00    -0.502 OA
ATOM     23  H   UNL     1       0.696  10.735   5.692  1.00  0.00     0.293 HD
ENDBRANCH   2  22
BRANCH   6  24
ATOM     24  O   UNL     1       0.282  10.908  11.075  1.00  0.00    -0.507 OA
ATOM     25  H   UNL     1      -0.288  11.458  11.699  1.00  0.00     0.293 HD
ENDBRANCH   6  24
BRANCH   8  26
ATOM     26  O   UNL     1       4.630  11.423  13.008  1.00  0.00    -0.508 OA
ATOM     27  H   UNL     1       5.641  11.464  12.958  1.00  0.00     0.293 HD
ENDBRANCH   8  26
TORSDOF 6
ENDMDL
