MODEL 1
REMARK VINA RESULT:    18.349      0.000      0.000
REMARK INTER + INTRA:          46.641
REMARK INTER:                  48.383
REMARK INTRA:                  -1.742
REMARK UNBOUND:                -1.742
REMARK SMILES CCCCCCCCCCCCCCCCCCCCCCCCCCCCCC(=O)[O-]
REMARK SMILES IDX 16 1 17 2 18 3 19 4 20 5 21 6 22 7 23 8 24 9 25 10 26 11
REMARK SMILES IDX 27 12 28 13 29 14 30 15 31 16 32 17 15 18 14 19 13 20 12 21
REMARK SMILES IDX 11 22 10 23 9 24 8 25 7 26 6 27 5 28 4 29 3 30 2 31 1 32
REMARK H PARENT
REMARK Flexibility Score: inf
ROOT
ATOM      1  C   UNL     1      24.910 -22.146  24.342  1.00  0.00     0.000 C 
ENDROOT
BRANCH   1   2
ATOM      2  C   UNL     1      23.869 -21.457  23.450  1.00  0.00     0.000 C 
BRANCH   2   3
ATOM      3  C   UNL     1      22.999 -20.489  24.262  1.00  0.00     0.000 C 
BRANCH   3   4
ATOM      4  C   UNL     1      21.731 -21.188  24.779  1.00  0.00     0.000 C 
BRANCH   4   5
ATOM      5  C   UNL     1      21.236 -20.628  26.126  1.00  0.00     0.000 C 
BRANCH   5   6
ATOM      6  C   UNL     1      20.342 -19.377  26.029  1.00  0.00     0.000 C 
BRANCH   6   7
ATOM      7  C   UNL     1      18.966 -19.562  26.698  1.00  0.00     0.000 C 
BRANCH   7   8
ATOM      8  C   UNL     1      17.810 -19.031  25.823  1.00  0.00     0.000 C 
BRANCH   8   9
ATOM      9  C   UNL     1      18.094 -19.080  24.312  1.00  0.00     0.000 C 
BRANCH   9  10
ATOM     10  C   UNL     1      16.927 -19.666  23.501  1.00  0.00     0.000 C 
BRANCH  10  11
ATOM     11  C   UNL     1      17.400 -20.557  22.339  1.00  0.00     0.000 C 
BRANCH  11  12
ATOM     12  C   UNL     1      16.608 -21.873  22.238  1.00  0.00     0.000 C 
BRANCH  12  13
ATOM     13  C   UNL     1      17.496 -23.079  21.883  1.00  0.00     0.006 C 
BRANCH  13  14
ATOM     14  C   UNL     1      17.305 -23.606  20.452  1.00  0.00     0.053 C 
BRANCH  14  15
ATOM     15  C   UNL     1      18.438 -23.220  19.550  1.00  0.00     0.041 C 
ATOM     16  O   UNL     1      19.318 -24.068  19.239  1.00  0.00    -0.550 OA
ATOM     17  O   UNL     1      18.526 -21.925  19.054  1.00  0.00    -0.550 OA
ENDBRANCH  14  15
ENDBRANCH  13  14
ENDBRANCH  12  13
ENDBRANCH  11  12
ENDBRANCH  10  11
ENDBRANCH   9  10
ENDBRANCH   8   9
ENDBRANCH   7   8
ENDBRANCH   6   7
ENDBRANCH   5   6
ENDBRANCH   4   5
ENDBRANCH   3   4
ENDBRANCH   2   3
ENDBRANCH   1   2
BRANCH   1  18
ATOM     18  C   UNL     1      24.812 -21.722  25.818  1.00  0.00     0.000 C 
BRANCH  18  19
ATOM     19  C   UNL     1      25.781 -22.480  26.749  1.00  0.00     0.000 C 
BRANCH  19  20
ATOM     20  C   UNL     1      26.907 -23.200  25.982  1.00  0.00     0.000 C 
BRANCH  20  21
ATOM     21  C   UNL     1      28.291 -22.638  26.349  1.00  0.00     0.000 C 
BRANCH  21  22
ATOM     22  C   UNL     1      28.197 -21.277  27.068  1.00  0.00     0.000 C 
BRANCH  22  23
ATOM     23  C   UNL     1      28.792 -20.127  26.241  1.00  0.00     0.000 C 
BRANCH  23  24
ATOM     24  C   UNL     1      29.223 -18.953  27.136  1.00  0.00    -0.000 C 
BRANCH  24  25
ATOM     25  C   UNL     1      28.774 -17.585  26.595  1.00  0.00    -0.000 C 
BRANCH  25  26
ATOM     26  C   UNL     1      29.793 -16.442  26.779  1.00  0.00    -0.000 C 
BRANCH  26  27
ATOM     27  C   UNL     1      30.572 -16.038  25.511  1.00  0.00    -0.000 C 
BRANCH  27  28
ATOM     28  C   UNL     1      31.924 -16.750  25.316  1.00  0.00    -0.000 C 
BRANCH  28  29
ATOM     29  C   UNL     1      33.107 -15.777  25.215  1.00  0.00    -0.000 C 
BRANCH  29  30
ATOM     30  C   UNL     1      34.430 -16.505  25.480  1.00  0.00    -0.000 C 
BRANCH  30  31
ATOM     31  C   UNL     1      35.180 -15.878  26.660  1.00  0.00    -0.003 C 
ATOM     32  C   UNL     1      34.460 -14.630  27.168  1.00  0.00     0.004 C 
ENDBRANCH  30  31
ENDBRANCH  29  30
ENDBRANCH  28  29
ENDBRANCH  27  28
ENDBRANCH  26  27
ENDBRANCH  25  26
ENDBRANCH  24  25
ENDBRANCH  23  24
ENDBRANCH  22  23
ENDBRANCH  21  22
ENDBRANCH  20  21
ENDBRANCH  19  20
ENDBRANCH  18  19
ENDBRANCH   1  18
TORSDOF 28
ENDMDL
MODEL 2
REMARK VINA RESULT:    18.479      5.488     12.069
REMARK INTER + INTRA:          46.984
REMARK INTER:                  49.604
REMARK INTRA:                  -2.620
REMARK UNBOUND:                -1.742
REMARK SMILES CCCCCCCCCCCCCCCCCCCCCCCCCCCCCC(=O)[O-]
REMARK SMILES IDX 16 1 17 2 18 3 19 4 20 5 21 6 22 7 23 8 24 9 25 10 26 11
REMARK SMILES IDX 27 12 28 13 29 14 30 15 31 16 32 17 15 18 14 19 13 20 12 21
REMARK SMILES IDX 11 22 10 23 9 24 8 25 7 26 6 27 5 28 4 29 3 30 2 31 1 32
REMARK H PARENT
REMARK Flexibility Score: inf
ROOT
ATOM      1  C   UNL     1      18.077 -19.451  23.708  1.00  0.00     0.000 C 
ENDROOT
BRANCH   1   2
ATOM      2  C   UNL     1      17.363 -18.945  24.968  1.00  0.00     0.000 C 
BRANCH   2   3
ATOM      3  C   UNL     1      18.369 -18.433  26.006  1.00  0.00     0.000 C 
BRANCH   3   4
ATOM      4  C   UNL     1      19.132 -19.598  26.656  1.00  0.00     0.000 C 
BRANCH   4   5
ATOM      5  C   UNL     1      20.610 -19.270  26.944  1.00  0.00     0.000 C 
BRANCH   5   6
ATOM      6  C   UNL     1      21.579 -20.463  26.848  1.00  0.00     0.000 C 
BRANCH   6   7
ATOM      7  C   UNL     1      21.211 -21.455  25.729  1.00  0.00     0.000 C 
BRANCH   7   8
ATOM      8  C   UNL     1      21.805 -21.049  24.363  1.00  0.00     0.000 C 
BRANCH   8   9
ATOM      9  C   UNL     1      23.069 -20.178  24.464  1.00  0.00     0.000 C 
BRANCH   9  10
ATOM     10  C   UNL     1      24.165 -20.594  23.469  1.00  0.00     0.000 C 
BRANCH  10  11
ATOM     11  C   UNL     1      23.885 -21.957  22.812  1.00  0.00     0.000 C 
BRANCH  11  12
ATOM     12  C   UNL     1      24.639 -23.112  23.494  1.00  0.00     0.000 C 
BRANCH  12  13
ATOM     13  C   UNL     1      26.041 -22.705  23.983  1.00  0.00     0.006 C 
BRANCH  13  14
ATOM     14  C   UNL     1      26.680 -23.696  24.968  1.00  0.00     0.053 C 
BRANCH  14  15
ATOM     15  C   UNL     1      26.738 -23.150  26.363  1.00  0.00     0.041 C 
ATOM     16  O   UNL     1      25.948 -22.233  26.718  1.00  0.00    -0.550 OA
ATOM     17  O   UNL     1      27.664 -23.649  27.271  1.00  0.00    -0.550 OA
ENDBRANCH  14  15
ENDBRANCH  13  14
ENDBRANCH  12  13
ENDBRANCH  11  12
ENDBRANCH  10  11
ENDBRANCH   9  10
ENDBRANCH   8   9
ENDBRANCH   7   8
ENDBRANCH   6   7
ENDBRANCH   5   6
ENDBRANCH   4   5
ENDBRANCH   3   4
ENDBRANCH   2   3
ENDBRANCH   1   2
BRANCH   1  18
ATOM     18  C   UNL     1      17.105 -19.880  22.596  1.00  0.00     0.000 C 
BRANCH  18  19
ATOM     19  C   UNL     1      17.436 -21.252  21.974  1.00  0.00     0.000 C 
BRANCH  19  20
ATOM     20  C   UNL     1      16.206 -22.174  21.869  1.00  0.00     0.000 C 
BRANCH  20  21
ATOM     21  C   UNL     1      16.587 -23.652  22.062  1.00  0.00     0.000 C 
BRANCH  21  22
ATOM     22  C   UNL     1      17.938 -23.997  21.401  1.00  0.00     0.000 C 
BRANCH  22  23
ATOM     23  C   UNL     1      17.781 -24.478  19.951  1.00  0.00     0.000 C 
BRANCH  23  24
ATOM     24  C   UNL     1      18.748 -23.745  19.005  1.00  0.00    -0.000 C 
BRANCH  24  25
ATOM     25  C   UNL     1      18.132 -22.489  18.367  1.00  0.00    -0.000 C 
BRANCH  25  26
ATOM     26  C   UNL     1      18.970 -21.202  18.513  1.00  0.00    -0.000 C 
BRANCH  26  27
ATOM     27  C   UNL     1      18.682 -20.101  17.472  1.00  0.00    -0.000 C 
BRANCH  27  28
ATOM     28  C   UNL     1      17.789 -20.529  16.293  1.00  0.00    -0.000 C 
BRANCH  28  29
ATOM     29  C   UNL     1      17.548 -19.400  15.281  1.00  0.00    -0.000 C 
BRANCH  29  30
ATOM     30  C   UNL     1      17.413 -19.966  13.862  1.00  0.00    -0.000 C 
BRANCH  30  31
ATOM     31  C   UNL     1      18.323 -21.184  13.664  1.00  0.00    -0.003 C 
ATOM     32  C   UNL     1      17.949 -21.949  12.395  1.00  0.00     0.004 C 
ENDBRANCH  30  31
ENDBRANCH  29  30
ENDBRANCH  28  29
ENDBRANCH  27  28
ENDBRANCH  26  27
ENDBRANCH  25  26
ENDBRANCH  24  25
ENDBRANCH  23  24
ENDBRANCH  22  23
ENDBRANCH  21  22
ENDBRANCH  20  21
ENDBRANCH  19  20
ENDBRANCH  18  19
ENDBRANCH   1  18
TORSDOF 28
ENDMDL
MODEL 3
REMARK VINA RESULT:    18.609      4.917     13.370
REMARK INTER + INTRA:          47.327
REMARK INTER:                  48.854
REMARK INTRA:                  -1.527
REMARK UNBOUND:                -1.742
REMARK SMILES CCCCCCCCCCCCCCCCCCCCCCCCCCCCCC(=O)[O-]
REMARK SMILES IDX 16 1 17 2 18 3 19 4 20 5 21 6 22 7 23 8 24 9 25 10 26 11
REMARK SMILES IDX 27 12 28 13 29 14 30 15 31 16 32 17 15 18 14 19 13 20 12 21
REMARK SMILES IDX 11 22 10 23 9 24 8 25 7 26 6 27 5 28 4 29 3 30 2 31 1 32
REMARK H PARENT
REMARK Flexibility Score: inf
ROOT
ATOM      1  C   UNL     1      22.332 -20.861  24.257  1.00  0.00     0.000 C 
ENDROOT
BRANCH   1   2
ATOM      2  C   UNL     1      23.847 -20.652  24.146  1.00  0.00     0.000 C 
BRANCH   2   3
ATOM      3  C   UNL     1      24.606 -21.957  24.416  1.00  0.00     0.000 C 
BRANCH   3   4
ATOM      4  C   UNL     1      25.251 -21.942  25.812  1.00  0.00     0.000 C 
BRANCH   4   5
ATOM      5  C   UNL     1      26.383 -22.974  25.969  1.00  0.00     0.000 C 
BRANCH   5   6
ATOM      6  C   UNL     1      27.733 -22.403  26.442  1.00  0.00     0.000 C 
BRANCH   6   7
ATOM      7  C   UNL     1      27.611 -21.005  27.077  1.00  0.00     0.000 C 
BRANCH   7   8
ATOM      8  C   UNL     1      28.477 -19.951  26.352  1.00  0.00     0.000 C 
BRANCH   8   9
ATOM      9  C   UNL     1      28.819 -18.723  27.213  1.00  0.00     0.000 C 
BRANCH   9  10
ATOM     10  C   UNL     1      30.147 -18.060  26.812  1.00  0.00     0.000 C 
BRANCH  10  11
ATOM     11  C   UNL     1      29.966 -16.960  25.753  1.00  0.00     0.000 C 
BRANCH  11  12
ATOM     12  C   UNL     1      31.194 -16.808  24.837  1.00  0.00     0.000 C 
BRANCH  12  13
ATOM     13  C   UNL     1      32.345 -16.032  25.504  1.00  0.00     0.006 C 
BRANCH  13  14
ATOM     14  C   UNL     1      33.742 -16.613  25.230  1.00  0.00     0.053 C 
BRANCH  14  15
ATOM     15  C   UNL     1      34.786 -16.020  26.127  1.00  0.00     0.041 C 
ATOM     16  O   UNL     1      34.458 -15.196  27.024  1.00  0.00    -0.550 OA
ATOM     17  O   UNL     1      36.121 -16.374  25.974  1.00  0.00    -0.550 OA
ENDBRANCH  14  15
ENDBRANCH  13  14
ENDBRANCH  12  13
ENDBRANCH  11  12
ENDBRANCH  10  11
ENDBRANCH   9  10
ENDBRANCH   8   9
ENDBRANCH   7   8
ENDBRANCH   6   7
ENDBRANCH   5   6
ENDBRANCH   4   5
ENDBRANCH   3   4
ENDBRANCH   2   3
ENDBRANCH   1   2
BRANCH   1  18
ATOM     18  C   UNL     1      21.916 -21.564  25.561  1.00  0.00     0.000 C 
BRANCH  18  19
ATOM     19  C   UNL     1      20.897 -20.767  26.401  1.00  0.00     0.000 C 
BRANCH  19  20
ATOM     20  C   UNL     1      20.067 -19.781  25.557  1.00  0.00     0.000 C 
BRANCH  20  21
ATOM     21  C   UNL     1      18.805 -19.317  26.306  1.00  0.00     0.000 C 
BRANCH  21  22
ATOM     22  C   UNL     1      17.795 -18.621  25.370  1.00  0.00     0.000 C 
BRANCH  22  23
ATOM     23  C   UNL     1      17.989 -19.008  23.897  1.00  0.00     0.000 C 
BRANCH  23  24
ATOM     24  C   UNL     1      16.733 -19.685  23.320  1.00  0.00    -0.000 C 
BRANCH  24  25
ATOM     25  C   UNL     1      17.057 -20.852  22.373  1.00  0.00    -0.000 C 
BRANCH  25  26
ATOM     26  C   UNL     1      16.313 -22.168  22.678  1.00  0.00    -0.000 C 
BRANCH  26  27
ATOM     27  C   UNL     1      16.644 -23.350  21.744  1.00  0.00    -0.000 C 
BRANCH  27  28
ATOM     28  C   UNL     1      18.118 -23.454  21.314  1.00  0.00    -0.000 C 
BRANCH  28  29
ATOM     29  C   UNL     1      18.315 -24.278  20.034  1.00  0.00    -0.000 C 
BRANCH  29  30
ATOM     30  C   UNL     1      18.295 -23.370  18.798  1.00  0.00    -0.000 C 
BRANCH  30  31
ATOM     31  C   UNL     1      18.294 -21.890  19.199  1.00  0.00    -0.003 C 
ATOM     32  C   UNL     1      19.151 -21.061  18.244  1.00  0.00     0.004 C 
ENDBRANCH  30  31
ENDBRANCH  29  30
ENDBRANCH  28  29
ENDBRANCH  27  28
ENDBRANCH  26  27
ENDBRANCH  25  26
ENDBRANCH  24  25
ENDBRANCH  23  24
ENDBRANCH  22  23
ENDBRANCH  21  22
ENDBRANCH  20  21
ENDBRANCH  19  20
ENDBRANCH  18  19
ENDBRANCH   1  18
TORSDOF 28
ENDMDL
MODEL 4
REMARK VINA RESULT:    18.964      5.337     12.589
REMARK INTER + INTRA:          48.263
REMARK INTER:                  49.690
REMARK INTRA:                  -1.427
REMARK UNBOUND:                -1.742
REMARK SMILES CCCCCCCCCCCCCCCCCCCCCCCCCCCCCC(=O)[O-]
REMARK SMILES IDX 16 1 17 2 18 3 19 4 20 5 21 6 22 7 23 8 24 9 25 10 26 11
REMARK SMILES IDX 27 12 28 13 29 14 30 15 31 16 32 17 15 18 14 19 13 20 12 21
REMARK SMILES IDX 11 22 10 23 9 24 8 25 7 26 6 27 5 28 4 29 3 30 2 31 1 32
REMARK H PARENT
REMARK Flexibility Score: inf
ROOT
ATOM      1  C   UNL     1      18.102 -19.558  22.570  1.00  0.00     0.000 C 
ENDROOT
BRANCH   1   2
ATOM      2  C   UNL     1      17.036 -19.237  23.625  1.00  0.00     0.000 C 
BRANCH   2   3
ATOM      3  C   UNL     1      17.677 -18.714  24.917  1.00  0.00     0.000 C 
BRANCH   3   4
ATOM      4  C   UNL     1      17.922 -19.858  25.913  1.00  0.00     0.000 C 
BRANCH   4   5
ATOM      5  C   UNL     1      18.781 -19.437  27.121  1.00  0.00     0.000 C 
BRANCH   5   6
ATOM      6  C   UNL     1      20.238 -19.060  26.793  1.00  0.00     0.000 C 
BRANCH   6   7
ATOM      7  C   UNL     1      21.156 -20.285  26.613  1.00  0.00     0.000 C 
BRANCH   7   8
ATOM      8  C   UNL     1      21.350 -20.663  25.129  1.00  0.00     0.000 C 
BRANCH   8   9
ATOM      9  C   UNL     1      22.616 -21.493  24.855  1.00  0.00     0.000 C 
BRANCH   9  10
ATOM     10  C   UNL     1      23.521 -20.869  23.780  1.00  0.00     0.000 C 
BRANCH  10  11
ATOM     11  C   UNL     1      24.414 -21.908  23.080  1.00  0.00     0.000 C 
BRANCH  11  12
ATOM     12  C   UNL     1      25.547 -22.425  23.985  1.00  0.00     0.000 C 
BRANCH  12  13
ATOM     13  C   UNL     1      25.137 -22.507  25.467  1.00  0.00     0.006 C 
BRANCH  13  14
ATOM     14  C   UNL     1      26.207 -22.002  26.448  1.00  0.00     0.053 C 
BRANCH  14  15
ATOM     15  C   UNL     1      27.356 -22.955  26.573  1.00  0.00     0.041 C 
ATOM     16  O   UNL     1      27.199 -24.066  27.149  1.00  0.00    -0.550 OA
ATOM     17  O   UNL     1      28.602 -22.620  26.057  1.00  0.00    -0.550 OA
ENDBRANCH  14  15
ENDBRANCH  13  14
ENDBRANCH  12  13
ENDBRANCH  11  12
ENDBRANCH  10  11
ENDBRANCH   9  10
ENDBRANCH   8   9
ENDBRANCH   7   8
ENDBRANCH   6   7
ENDBRANCH   5   6
ENDBRANCH   4   5
ENDBRANCH   3   4
ENDBRANCH   2   3
ENDBRANCH   1   2
BRANCH   1  18
ATOM     18  C   UNL     1      18.078 -21.028  22.118  1.00  0.00     0.000 C 
BRANCH  18  19
ATOM     19  C   UNL     1      16.770 -21.767  22.470  1.00  0.00     0.000 C 
BRANCH  19  20
ATOM     20  C   UNL     1      16.721 -23.198  21.903  1.00  0.00     0.000 C 
BRANCH  20  21
ATOM     21  C   UNL     1      18.069 -23.612  21.288  1.00  0.00     0.000 C 
BRANCH  21  22
ATOM     22  C   UNL     1      17.906 -24.213  19.877  1.00  0.00     0.000 C 
BRANCH  22  23
ATOM     23  C   UNL     1      18.685 -23.434  18.807  1.00  0.00     0.000 C 
BRANCH  23  24
ATOM     24  C   UNL     1      17.818 -22.340  18.162  1.00  0.00    -0.000 C 
BRANCH  24  25
ATOM     25  C   UNL     1      18.593 -21.041  17.882  1.00  0.00    -0.000 C 
BRANCH  25  26
ATOM     26  C   UNL     1      17.970 -20.126  16.809  1.00  0.00    -0.000 C 
BRANCH  26  27
ATOM     27  C   UNL     1      17.917 -20.714  15.384  1.00  0.00    -0.000 C 
BRANCH  27  28
ATOM     28  C   UNL     1      17.841 -19.678  14.248  1.00  0.00    -0.000 C 
BRANCH  28  29
ATOM     29  C   UNL     1      17.655 -20.316  12.864  1.00  0.00    -0.000 C 
BRANCH  29  30
ATOM     30  C   UNL     1      18.130 -21.774  12.873  1.00  0.00    -0.000 C 
BRANCH  30  31
ATOM     31  C   UNL     1      18.303 -22.308  11.446  1.00  0.00    -0.003 C 
ATOM     32  C   UNL     1      16.986 -22.247  10.673  1.00  0.00     0.004 C 
ENDBRANCH  30  31
ENDBRANCH  29  30
ENDBRANCH  28  29
ENDBRANCH  27  28
ENDBRANCH  26  27
ENDBRANCH  25  26
ENDBRANCH  24  25
ENDBRANCH  23  24
ENDBRANCH  22  23
ENDBRANCH  21  22
ENDBRANCH  20  21
ENDBRANCH  19  20
ENDBRANCH  18  19
ENDBRANCH   1  18
TORSDOF 28
ENDMDL
MODEL 5
REMARK VINA RESULT:    19.259      3.801     12.358
REMARK INTER + INTRA:          49.042
REMARK INTER:                  51.156
REMARK INTRA:                  -2.113
REMARK UNBOUND:                -1.742
REMARK SMILES CCCCCCCCCCCCCCCCCCCCCCCCCCCCCC(=O)[O-]
REMARK SMILES IDX 16 1 17 2 18 3 19 4 20 5 21 6 22 7 23 8 24 9 25 10 26 11
REMARK SMILES IDX 27 12 28 13 29 14 30 15 31 16 32 17 15 18 14 19 13 20 12 21
REMARK SMILES IDX 11 22 10 23 9 24 8 25 7 26 6 27 5 28 4 29 3 30 2 31 1 32
REMARK H PARENT
REMARK Flexibility Score: inf
ROOT
ATOM      1  C   UNL     1      21.988 -20.626  24.329  1.00  0.00     0.000 C 
ENDROOT
BRANCH   1   2
ATOM      2  C   UNL     1      23.360 -20.232  23.767  1.00  0.00     0.000 C 
BRANCH   2   3
ATOM      3  C   UNL     1      24.136 -21.466  23.290  1.00  0.00     0.000 C 
BRANCH   3   4
ATOM      4  C   UNL     1      24.890 -22.128  24.454  1.00  0.00     0.000 C 
BRANCH   4   5
ATOM      5  C   UNL     1      25.908 -23.189  23.993  1.00  0.00     0.000 C 
BRANCH   5   6
ATOM      6  C   UNL     1      26.774 -23.799  25.111  1.00  0.00     0.000 C 
BRANCH   6   7
ATOM      7  C   UNL     1      26.387 -23.302  26.517  1.00  0.00     0.000 C 
BRANCH   7   8
ATOM      8  C   UNL     1      27.600 -22.758  27.304  1.00  0.00     0.000 C 
BRANCH   8   9
ATOM      9  C   UNL     1      28.358 -21.630  26.584  1.00  0.00     0.000 C 
BRANCH   9  10
ATOM     10  C   UNL     1      27.681 -20.258  26.739  1.00  0.00     0.000 C 
BRANCH  10  11
ATOM     11  C   UNL     1      28.691 -19.099  26.785  1.00  0.00     0.000 C 
BRANCH  11  12
ATOM     12  C   UNL     1      28.013 -17.718  26.760  1.00  0.00     0.000 C 
BRANCH  12  13
ATOM     13  C   UNL     1      28.982 -16.583  26.379  1.00  0.00     0.006 C 
BRANCH  13  14
ATOM     14  C   UNL     1      30.458 -17.007  26.316  1.00  0.00     0.053 C 
BRANCH  14  15
ATOM     15  C   UNL     1      31.026 -16.875  24.935  1.00  0.00     0.041 C 
ATOM     16  O   UNL     1      30.755 -17.734  24.054  1.00  0.00    -0.550 OA
ATOM     17  O   UNL     1      31.855 -15.804  24.621  1.00  0.00    -0.550 OA
ENDBRANCH  14  15
ENDBRANCH  13  14
ENDBRANCH  12  13
ENDBRANCH  11  12
ENDBRANCH  10  11
ENDBRANCH   9  10
ENDBRANCH   8   9
ENDBRANCH   7   8
ENDBRANCH   6   7
ENDBRANCH   5   6
ENDBRANCH   4   5
ENDBRANCH   3   4
ENDBRANCH   2   3
ENDBRANCH   1   2
BRANCH   1  18
ATOM     18  C   UNL     1      22.079 -21.361  25.677  1.00  0.00     0.000 C 
BRANCH  18  19
ATOM     19  C   UNL     1      21.085 -20.845  26.737  1.00  0.00     0.000 C 
BRANCH  19  20
ATOM     20  C   UNL     1      20.416 -19.517  26.334  1.00  0.00     0.000 C 
BRANCH  20  21
ATOM     21  C   UNL     1      18.915 -19.513  26.671  1.00  0.00     0.000 C 
BRANCH  21  22
ATOM     22  C   UNL     1      18.091 -18.695  25.655  1.00  0.00     0.000 C 
BRANCH  22  23
ATOM     23  C   UNL     1      18.334 -19.134  24.204  1.00  0.00     0.000 C 
BRANCH  23  24
ATOM     24  C   UNL     1      17.016 -19.470  23.487  1.00  0.00    -0.000 C 
BRANCH  24  25
ATOM     25  C   UNL     1      17.169 -20.574  22.428  1.00  0.00    -0.000 C 
BRANCH  25  26
ATOM     26  C   UNL     1      16.099 -21.683  22.478  1.00  0.00    -0.000 C 
BRANCH  26  27
ATOM     27  C   UNL     1      16.470 -22.997  21.760  1.00  0.00    -0.000 C 
BRANCH  27  28
ATOM     28  C   UNL     1      17.836 -23.593  22.146  1.00  0.00    -0.000 C 
BRANCH  28  29
ATOM     29  C   UNL     1      18.464 -24.432  21.025  1.00  0.00    -0.000 C 
BRANCH  29  30
ATOM     30  C   UNL     1      17.830 -24.087  19.671  1.00  0.00    -0.000 C 
BRANCH  30  31
ATOM     31  C   UNL     1      18.799 -23.285  18.795  1.00  0.00    -0.003 C 
ATOM     32  C   UNL     1      18.657 -21.785  19.050  1.00  0.00     0.004 C 
ENDBRANCH  30  31
ENDBRANCH  29  30
ENDBRANCH  28  29
ENDBRANCH  27  28
ENDBRANCH  26  27
ENDBRANCH  25  26
ENDBRANCH  24  25
ENDBRANCH  23  24
ENDBRANCH  22  23
ENDBRANCH  21  22
ENDBRANCH  20  21
ENDBRANCH  19  20
ENDBRANCH  18  19
ENDBRANCH   1  18
TORSDOF 28
ENDMDL
MODEL 6
REMARK VINA RESULT:    19.335      5.344      9.149
REMARK INTER + INTRA:          49.243
REMARK INTER:                  50.571
REMARK INTRA:                  -1.329
REMARK UNBOUND:                -1.742
REMARK SMILES CCCCCCCCCCCCCCCCCCCCCCCCCCCCCC(=O)[O-]
REMARK SMILES IDX 16 1 17 2 18 3 19 4 20 5 21 6 22 7 23 8 24 9 25 10 26 11
REMARK SMILES IDX 27 12 28 13 29 14 30 15 31 16 32 17 15 18 14 19 13 20 12 21
REMARK SMILES IDX 11 22 10 23 9 24 8 25 7 26 6 27 5 28 4 29 3 30 2 31 1 32
REMARK H PARENT
REMARK Flexibility Score: inf
ROOT
ATOM      1  C   UNL     1      16.081 -21.534  22.339  1.00  0.00     0.000 C 
ENDROOT
BRANCH   1   2
ATOM      2  C   UNL     1      16.391 -22.967  21.889  1.00  0.00     0.000 C 
BRANCH   2   3
ATOM      3  C   UNL     1      17.837 -23.350  22.224  1.00  0.00     0.000 C 
BRANCH   3   4
ATOM      4  C   UNL     1      18.340 -24.470  21.298  1.00  0.00     0.000 C 
BRANCH   4   5
ATOM      5  C   UNL     1      17.847 -24.324  19.846  1.00  0.00     0.000 C 
BRANCH   5   6
ATOM      6  C   UNL     1      18.823 -23.614  18.888  1.00  0.00     0.000 C 
BRANCH   6   7
ATOM      7  C   UNL     1      18.431 -22.152  18.597  1.00  0.00     0.000 C 
BRANCH   7   8
ATOM      8  C   UNL     1      18.063 -21.925  17.115  1.00  0.00     0.000 C 
BRANCH   8   9
ATOM      9  C   UNL     1      18.531 -20.571  16.554  1.00  0.00     0.000 C 
BRANCH   9  10
ATOM     10  C   UNL     1      17.387 -19.747  15.943  1.00  0.00     0.000 C 
BRANCH  10  11
ATOM     11  C   UNL     1      17.497 -19.619  14.414  1.00  0.00     0.000 C 
BRANCH  11  12
ATOM     12  C   UNL     1      17.322 -20.966  13.691  1.00  0.00     0.000 C 
BRANCH  12  13
ATOM     13  C   UNL     1      18.144 -21.057  12.392  1.00  0.00     0.006 C 
BRANCH  13  14
ATOM     14  C   UNL     1      18.639 -22.473  12.054  1.00  0.00     0.053 C 
BRANCH  14  15
ATOM     15  C   UNL     1      18.547 -22.770  10.588  1.00  0.00     0.041 C 
ATOM     16  O   UNL     1      17.687 -22.184   9.875  1.00  0.00    -0.550 OA
ATOM     17  O   UNL     1      19.408 -23.692  10.006  1.00  0.00    -0.550 OA
ENDBRANCH  14  15
ENDBRANCH  13  14
ENDBRANCH  12  13
ENDBRANCH  11  12
ENDBRANCH  10  11
ENDBRANCH   9  10
ENDBRANCH   8   9
ENDBRANCH   7   8
ENDBRANCH   6   7
ENDBRANCH   5   6
ENDBRANCH   4   5
ENDBRANCH   3   4
ENDBRANCH   2   3
ENDBRANCH   1   2
BRANCH   1  18
ATOM     18  C   UNL     1      17.344 -20.723  22.676  1.00  0.00     0.000 C 
BRANCH  18  19
ATOM     19  C   UNL     1      17.056 -19.269  23.105  1.00  0.00     0.000 C 
BRANCH  19  20
ATOM     20  C   UNL     1      18.145 -18.690  24.027  1.00  0.00     0.000 C 
BRANCH  20  21
ATOM     21  C   UNL     1      17.728 -18.753  25.507  1.00  0.00     0.000 C 
BRANCH  21  22
ATOM     22  C   UNL     1      18.541 -19.799  26.299  1.00  0.00     0.000 C 
BRANCH  22  23
ATOM     23  C   UNL     1      19.600 -19.160  27.209  1.00  0.00     0.000 C 
BRANCH  23  24
ATOM     24  C   UNL     1      21.009 -19.689  26.892  1.00  0.00    -0.000 C 
BRANCH  24  25
ATOM     25  C   UNL     1      21.023 -20.730  25.761  1.00  0.00    -0.000 C 
BRANCH  25  26
ATOM     26  C   UNL     1      22.327 -21.544  25.638  1.00  0.00    -0.000 C 
BRANCH  26  27
ATOM     27  C   UNL     1      23.562 -20.753  25.161  1.00  0.00    -0.000 C 
BRANCH  27  28
ATOM     28  C   UNL     1      23.731 -20.656  23.634  1.00  0.00    -0.000 C 
BRANCH  28  29
ATOM     29  C   UNL     1      24.129 -21.991  22.987  1.00  0.00    -0.000 C 
BRANCH  29  30
ATOM     30  C   UNL     1      24.744 -22.933  24.029  1.00  0.00    -0.000 C 
BRANCH  30  31
ATOM     31  C   UNL     1      26.015 -22.330  24.638  1.00  0.00    -0.003 C 
ATOM     32  C   UNL     1      26.261 -22.871  26.045  1.00  0.00     0.004 C 
ENDBRANCH  30  31
ENDBRANCH  29  30
ENDBRANCH  28  29
ENDBRANCH  27  28
ENDBRANCH  26  27
ENDBRANCH  25  26
ENDBRANCH  24  25
ENDBRANCH  23  24
ENDBRANCH  22  23
ENDBRANCH  21  22
ENDBRANCH  20  21
ENDBRANCH  19  20
ENDBRANCH  18  19
ENDBRANCH   1  18
TORSDOF 28
ENDMDL
MODEL 7
REMARK VINA RESULT:    19.351      4.702      7.306
REMARK INTER + INTRA:          49.284
REMARK INTER:                  51.230
REMARK INTRA:                  -1.945
REMARK UNBOUND:                -1.742
REMARK SMILES CCCCCCCCCCCCCCCCCCCCCCCCCCCCCC(=O)[O-]
REMARK SMILES IDX 16 1 17 2 18 3 19 4 20 5 21 6 22 7 23 8 24 9 25 10 26 11
REMARK SMILES IDX 27 12 28 13 29 14 30 15 31 16 32 17 15 18 14 19 13 20 12 21
REMARK SMILES IDX 11 22 10 23 9 24 8 25 7 26 6 27 5 28 4 29 3 30 2 31 1 32
REMARK H PARENT
REMARK Flexibility Score: inf
ROOT
ATOM      1  C   UNL     1      18.913 -19.541  25.709  1.00  0.00     0.000 C 
ENDROOT
BRANCH   1   2
ATOM      2  C   UNL     1      17.752 -18.543  25.621  1.00  0.00     0.000 C 
BRANCH   2   3
ATOM      3  C   UNL     1      17.045 -18.638  24.263  1.00  0.00     0.000 C 
BRANCH   3   4
ATOM      4  C   UNL     1      17.704 -19.700  23.370  1.00  0.00     0.000 C 
BRANCH   4   5
ATOM      5  C   UNL     1      16.741 -20.830  22.958  1.00  0.00     0.000 C 
BRANCH   5   6
ATOM      6  C   UNL     1      17.138 -21.600  21.684  1.00  0.00     0.000 C 
BRANCH   6   7
ATOM      7  C   UNL     1      16.696 -23.076  21.705  1.00  0.00     0.000 C 
BRANCH   7   8
ATOM      8  C   UNL     1      17.884 -24.049  21.551  1.00  0.00     0.000 C 
BRANCH   8   9
ATOM      9  C   UNL     1      18.213 -24.409  20.092  1.00  0.00     0.000 C 
BRANCH   9  10
ATOM     10  C   UNL     1      18.876 -23.253  19.324  1.00  0.00     0.000 C 
BRANCH  10  11
ATOM     11  C   UNL     1      18.105 -22.867  18.050  1.00  0.00     0.000 C 
BRANCH  11  12
ATOM     12  C   UNL     1      18.131 -21.353  17.775  1.00  0.00     0.000 C 
BRANCH  12  13
ATOM     13  C   UNL     1      17.495 -20.980  16.423  1.00  0.00     0.006 C 
BRANCH  13  14
ATOM     14  C   UNL     1      18.354 -20.045  15.557  1.00  0.00     0.053 C 
BRANCH  14  15
ATOM     15  C   UNL     1      17.828 -19.928  14.158  1.00  0.00     0.041 C 
ATOM     16  O   UNL     1      17.398 -18.821  13.733  1.00  0.00    -0.550 OA
ATOM     17  O   UNL     1      17.811 -21.038  13.323  1.00  0.00    -0.550 OA
ENDBRANCH  14  15
ENDBRANCH  13  14
ENDBRANCH  12  13
ENDBRANCH  11  12
ENDBRANCH  10  11
ENDBRANCH   9  10
ENDBRANCH   8   9
ENDBRANCH   7   8
ENDBRANCH   6   7
ENDBRANCH   5   6
ENDBRANCH   4   5
ENDBRANCH   3   4
ENDBRANCH   2   3
ENDBRANCH   1   2
BRANCH   1  18
ATOM     18  C   UNL     1      19.783 -19.343  26.963  1.00  0.00     0.000 C 
BRANCH  18  19
ATOM     19  C   UNL     1      21.176 -19.996  26.865  1.00  0.00     0.000 C 
BRANCH  19  20
ATOM     20  C   UNL     1      21.333 -20.887  25.618  1.00  0.00     0.000 C 
BRANCH  20  21
ATOM     21  C   UNL     1      22.813 -21.103  25.257  1.00  0.00     0.000 C 
BRANCH  21  22
ATOM     22  C   UNL     1      23.283 -20.157  24.133  1.00  0.00     0.000 C 
BRANCH  22  23
ATOM     23  C   UNL     1      24.174 -20.862  23.100  1.00  0.00     0.000 C 
BRANCH  23  24
ATOM     24  C   UNL     1      23.799 -22.346  22.950  1.00  0.00    -0.000 C 
BRANCH  24  25
ATOM     25  C   UNL     1      24.833 -23.296  23.576  1.00  0.00    -0.000 C 
BRANCH  25  26
ATOM     26  C   UNL     1      26.063 -22.605  24.200  1.00  0.00    -0.000 C 
BRANCH  26  27
ATOM     27  C   UNL     1      26.865 -23.458  25.204  1.00  0.00    -0.000 C 
BRANCH  27  28
ATOM     28  C   UNL     1      27.394 -22.699  26.435  1.00  0.00    -0.000 C 
BRANCH  28  29
ATOM     29  C   UNL     1      26.536 -22.916  27.689  1.00  0.00    -0.000 C 
BRANCH  29  30
ATOM     30  C   UNL     1      25.044 -22.899  27.333  1.00  0.00    -0.000 C 
BRANCH  30  31
ATOM     31  C   UNL     1      24.175 -22.827  28.594  1.00  0.00    -0.003 C 
ATOM     32  C   UNL     1      23.596 -21.426  28.784  1.00  0.00     0.004 C 
ENDBRANCH  30  31
ENDBRANCH  29  30
ENDBRANCH  28  29
ENDBRANCH  27  28
ENDBRANCH  26  27
ENDBRANCH  25  26
ENDBRANCH  24  25
ENDBRANCH  23  24
ENDBRANCH  22  23
ENDBRANCH  21  22
ENDBRANCH  20  21
ENDBRANCH  19  20
ENDBRANCH  18  19
ENDBRANCH   1  18
TORSDOF 28
ENDMDL
MODEL 8
REMARK VINA RESULT:    19.491      5.049     12.490
REMARK INTER + INTRA:          49.654
REMARK INTER:                  50.909
REMARK INTRA:                  -1.255
REMARK UNBOUND:                -1.742
REMARK SMILES CCCCCCCCCCCCCCCCCCCCCCCCCCCCCC(=O)[O-]
REMARK SMILES IDX 16 1 17 2 18 3 19 4 20 5 21 6 22 7 23 8 24 9 25 10 26 11
REMARK SMILES IDX 27 12 28 13 29 14 30 15 31 16 32 17 15 18 14 19 13 20 12 21
REMARK SMILES IDX 11 22 10 23 9 24 8 25 7 26 6 27 5 28 4 29 3 30 2 31 1 32
REMARK H PARENT
REMARK Flexibility Score: inf
ROOT
ATOM      1  C   UNL     1      17.358 -19.210  22.837  1.00  0.00     0.000 C 
ENDROOT
BRANCH   1   2
ATOM      2  C   UNL     1      17.120 -19.203  24.352  1.00  0.00     0.000 C 
BRANCH   2   3
ATOM      3  C   UNL     1      18.416 -18.900  25.114  1.00  0.00     0.000 C 
BRANCH   3   4
ATOM      4  C   UNL     1      18.435 -19.610  26.477  1.00  0.00     0.000 C 
BRANCH   4   5
ATOM      5  C   UNL     1      19.826 -19.620  27.137  1.00  0.00     0.000 C 
BRANCH   5   6
ATOM      6  C   UNL     1      20.990 -20.022  26.211  1.00  0.00     0.000 C 
BRANCH   6   7
ATOM      7  C   UNL     1      22.240 -20.495  26.978  1.00  0.00     0.000 C 
BRANCH   7   8
ATOM      8  C   UNL     1      22.348 -22.034  27.038  1.00  0.00     0.000 C 
BRANCH   8   9
ATOM      9  C   UNL     1      23.753 -22.549  27.397  1.00  0.00     0.000 C 
BRANCH   9  10
ATOM     10  C   UNL     1      24.878 -21.722  26.753  1.00  0.00     0.000 C 
BRANCH  10  11
ATOM     11  C   UNL     1      26.128 -22.562  26.441  1.00  0.00     0.000 C 
BRANCH  11  12
ATOM     12  C   UNL     1      25.999 -23.355  25.128  1.00  0.00     0.000 C 
BRANCH  12  13
ATOM     13  C   UNL     1      25.786 -22.449  23.901  1.00  0.00     0.006 C 
BRANCH  13  14
ATOM     14  C   UNL     1      24.324 -22.345  23.437  1.00  0.00     0.053 C 
BRANCH  14  15
ATOM     15  C   UNL     1      23.719 -21.014  23.766  1.00  0.00     0.041 C 
ATOM     16  O   UNL     1      24.456 -20.051  24.112  1.00  0.00    -0.550 OA
ATOM     17  O   UNL     1      22.343 -20.835  23.693  1.00  0.00    -0.550 OA
ENDBRANCH  14  15
ENDBRANCH  13  14
ENDBRANCH  12  13
ENDBRANCH  11  12
ENDBRANCH  10  11
ENDBRANCH   9  10
ENDBRANCH   8   9
ENDBRANCH   7   8
ENDBRANCH   6   7
ENDBRANCH   5   6
ENDBRANCH   4   5
ENDBRANCH   3   4
ENDBRANCH   2   3
ENDBRANCH   1   2
BRANCH   1  18
ATOM     18  C   UNL     1      17.559 -20.624  22.266  1.00  0.00     0.000 C 
BRANCH  18  19
ATOM     19  C   UNL     1      16.377 -21.579  22.534  1.00  0.00     0.000 C 
BRANCH  19  20
ATOM     20  C   UNL     1      16.418 -22.843  21.655  1.00  0.00     0.000 C 
BRANCH  20  21
ATOM     21  C   UNL     1      17.862 -23.298  21.381  1.00  0.00     0.000 C 
BRANCH  21  22
ATOM     22  C   UNL     1      17.972 -24.154  20.103  1.00  0.00     0.000 C 
BRANCH  22  23
ATOM     23  C   UNL     1      18.733 -23.441  18.976  1.00  0.00     0.000 C 
BRANCH  23  24
ATOM     24  C   UNL     1      17.828 -22.456  18.218  1.00  0.00    -0.000 C 
BRANCH  24  25
ATOM     25  C   UNL     1      18.612 -21.346  17.499  1.00  0.00    -0.000 C 
BRANCH  25  26
ATOM     26  C   UNL     1      17.747 -20.330  16.725  1.00  0.00    -0.000 C 
BRANCH  26  27
ATOM     27  C   UNL     1      17.329 -20.761  15.304  1.00  0.00    -0.000 C 
BRANCH  27  28
ATOM     28  C   UNL     1      18.427 -20.638  14.232  1.00  0.00    -0.000 C 
BRANCH  28  29
ATOM     29  C   UNL     1      17.868 -20.571  12.804  1.00  0.00    -0.000 C 
BRANCH  29  30
ATOM     30  C   UNL     1      17.691 -21.981  12.226  1.00  0.00    -0.000 C 
BRANCH  30  31
ATOM     31  C   UNL     1      17.644 -21.948  10.694  1.00  0.00    -0.003 C 
ATOM     32  C   UNL     1      18.692 -22.883  10.092  1.00  0.00     0.004 C 
ENDBRANCH  30  31
ENDBRANCH  29  30
ENDBRANCH  28  29
ENDBRANCH  27  28
ENDBRANCH  26  27
ENDBRANCH  25  26
ENDBRANCH  24  25
ENDBRANCH  23  24
ENDBRANCH  22  23
ENDBRANCH  21  22
ENDBRANCH  20  21
ENDBRANCH  19  20
ENDBRANCH  18  19
ENDBRANCH   1  18
TORSDOF 28
ENDMDL
MODEL 9
REMARK VINA RESULT:    19.549      0.917      2.133
REMARK INTER + INTRA:          49.805
REMARK INTER:                  51.639
REMARK INTRA:                  -1.834
REMARK UNBOUND:                -1.742
REMARK SMILES CCCCCCCCCCCCCCCCCCCCCCCCCCCCCC(=O)[O-]
REMARK SMILES IDX 16 1 17 2 18 3 19 4 20 5 21 6 22 7 23 8 24 9 25 10 26 11
REMARK SMILES IDX 27 12 28 13 29 14 30 15 31 16 32 17 15 18 14 19 13 20 12 21
REMARK SMILES IDX 11 22 10 23 9 24 8 25 7 26 6 27 5 28 4 29 3 30 2 31 1 32
REMARK H PARENT
REMARK Flexibility Score: inf
ROOT
ATOM      1  C   UNL     1      22.963 -20.305  24.226  1.00  0.00     0.000 C 
ENDROOT
BRANCH   1   2
ATOM      2  C   UNL     1      21.819 -21.250  24.615  1.00  0.00     0.000 C 
BRANCH   2   3
ATOM      3  C   UNL     1      21.572 -21.225  26.128  1.00  0.00     0.000 C 
BRANCH   3   4
ATOM      4  C   UNL     1      21.094 -19.838  26.586  1.00  0.00     0.000 C 
BRANCH   4   5
ATOM      5  C   UNL     1      19.560 -19.709  26.634  1.00  0.00     0.000 C 
BRANCH   5   6
ATOM      6  C   UNL     1      18.976 -18.514  25.857  1.00  0.00     0.000 C 
BRANCH   6   7
ATOM      7  C   UNL     1      17.438 -18.546  25.762  1.00  0.00     0.000 C 
BRANCH   7   8
ATOM      8  C   UNL     1      16.940 -19.338  24.533  1.00  0.00     0.000 C 
BRANCH   8   9
ATOM      9  C   UNL     1      18.065 -19.986  23.708  1.00  0.00     0.000 C 
BRANCH   9  10
ATOM     10  C   UNL     1      17.757 -20.026  22.202  1.00  0.00     0.000 C 
BRANCH  10  11
ATOM     11  C   UNL     1      16.500 -20.848  21.875  1.00  0.00     0.000 C 
BRANCH  11  12
ATOM     12  C   UNL     1      16.624 -22.321  22.303  1.00  0.00     0.000 C 
BRANCH  12  13
ATOM     13  C   UNL     1      17.976 -22.945  21.912  1.00  0.00     0.006 C 
BRANCH  13  14
ATOM     14  C   UNL     1      17.866 -24.151  20.964  1.00  0.00     0.053 C 
BRANCH  14  15
ATOM     15  C   UNL     1      18.156 -23.780  19.541  1.00  0.00     0.041 C 
ATOM     16  O   UNL     1      17.988 -24.624  18.619  1.00  0.00    -0.550 OA
ATOM     17  O   UNL     1      18.614 -22.505  19.231  1.00  0.00    -0.550 OA
ENDBRANCH  14  15
ENDBRANCH  13  14
ENDBRANCH  12  13
ENDBRANCH  11  12
ENDBRANCH  10  11
ENDBRANCH   9  10
ENDBRANCH   8   9
ENDBRANCH   7   8
ENDBRANCH   6   7
ENDBRANCH   5   6
ENDBRANCH   4   5
ENDBRANCH   3   4
ENDBRANCH   2   3
ENDBRANCH   1   2
BRANCH   1  18
ATOM     18  C   UNL     1      23.992 -20.960  23.288  1.00  0.00     0.000 C 
BRANCH  18  19
ATOM     19  C   UNL     1      24.262 -22.446  23.600  1.00  0.00     0.000 C 
BRANCH  19  20
ATOM     20  C   UNL     1      25.758 -22.807  23.545  1.00  0.00     0.000 C 
BRANCH  20  21
ATOM     21  C   UNL     1      26.273 -23.302  24.908  1.00  0.00     0.000 C 
BRANCH  21  22
ATOM     22  C   UNL     1      26.127 -22.232  26.010  1.00  0.00     0.000 C 
BRANCH  22  23
ATOM     23  C   UNL     1      27.068 -22.475  27.199  1.00  0.00     0.000 C 
BRANCH  23  24
ATOM     24  C   UNL     1      28.343 -21.622  27.094  1.00  0.00    -0.000 C 
BRANCH  24  25
ATOM     25  C   UNL     1      28.083 -20.214  26.533  1.00  0.00    -0.000 C 
BRANCH  25  26
ATOM     26  C   UNL     1      29.029 -19.115  27.059  1.00  0.00    -0.000 C 
BRANCH  26  27
ATOM     27  C   UNL     1      29.001 -17.786  26.277  1.00  0.00    -0.000 C 
BRANCH  27  28
ATOM     28  C   UNL     1      30.166 -17.579  25.292  1.00  0.00    -0.000 C 
BRANCH  28  29
ATOM     29  C   UNL     1      31.039 -16.365  25.639  1.00  0.00    -0.000 C 
BRANCH  29  30
ATOM     30  C   UNL     1      32.509 -16.643  25.302  1.00  0.00    -0.000 C 
BRANCH  30  31
ATOM     31  C   UNL     1      33.443 -15.727  26.102  1.00  0.00    -0.003 C 
ATOM     32  C   UNL     1      34.907 -16.090  25.862  1.00  0.00     0.004 C 
ENDBRANCH  30  31
ENDBRANCH  29  30
ENDBRANCH  28  29
ENDBRANCH  27  28
ENDBRANCH  26  27
ENDBRANCH  25  26
ENDBRANCH  24  25
ENDBRANCH  23  24
ENDBRANCH  22  23
ENDBRANCH  21  22
ENDBRANCH  20  21
ENDBRANCH  19  20
ENDBRANCH  18  19
ENDBRANCH   1  18
TORSDOF 28
ENDMDL
