MODEL 1
REMARK VINA RESULT:    -5.538      0.000      0.000
REMARK INTER + INTRA:         -13.329
REMARK INTER:                 -10.719
REMARK INTRA:                  -2.611
REMARK UNBOUND:                -2.611
REMARK SMILES CCCCCCCCCCCCCCCCCC(=O)[O-]
REMARK SMILES IDX 10 1 11 2 12 3 13 4 14 5 15 6 16 7 17 8 18 9 19 10 20 11
REMARK SMILES IDX 9 12 8 13 7 14 6 15 5 16 4 17 3 18 2 19 1 20
REMARK H PARENT
REMARK Flexibility Score: inf
ROOT
ATOM      1  C   UNL     1      53.974  14.060  -0.051  1.00  0.00     0.000 C 
ENDROOT
BRANCH   1   2
ATOM      2  C   UNL     1      53.908  14.559   1.403  1.00  0.00     0.000 C 
BRANCH   2   3
ATOM      3  C   UNL     1      52.687  15.457   1.676  1.00  0.00     0.000 C 
BRANCH   3   4
ATOM      4  C   UNL     1      53.011  16.904   2.095  1.00  0.00     0.000 C 
BRANCH   4   5
ATOM      5  C   UNL     1      54.485  17.102   2.486  1.00  0.00     0.000 C 
BRANCH   5   6
ATOM      6  C   UNL     1      55.307  17.809   1.393  1.00  0.00     0.000 C 
BRANCH   6   7
ATOM      7  C   UNL     1      56.709  17.224   1.143  1.00  0.00     0.006 C 
BRANCH   7   8
ATOM      8  C   UNL     1      56.772  16.328  -0.101  1.00  0.00     0.053 C 
BRANCH   8   9
ATOM      9  C   UNL     1      57.857  15.309   0.044  1.00  0.00     0.041 C 
ATOM     10  O   UNL     1      57.614  14.197   0.585  1.00  0.00    -0.550 OA
ATOM     11  O   UNL     1      59.150  15.606  -0.369  1.00  0.00    -0.550 OA
ENDBRANCH   8   9
ENDBRANCH   7   8
ENDBRANCH   6   7
ENDBRANCH   5   6
ENDBRANCH   4   5
ENDBRANCH   3   4
ENDBRANCH   2   3
ENDBRANCH   1   2
BRANCH   1  12
ATOM     12  C   UNL     1      52.974  14.779  -0.970  1.00  0.00     0.000 C 
BRANCH  12  13
ATOM     13  C   UNL     1      53.642  15.829  -1.873  1.00  0.00    -0.000 C 
BRANCH  13  14
ATOM     14  C   UNL     1      53.172  17.244  -1.506  1.00  0.00    -0.000 C 
BRANCH  14  15
ATOM     15  C   UNL     1      51.685  17.487  -1.817  1.00  0.00    -0.000 C 
BRANCH  15  16
ATOM     16  C   UNL     1      51.064  18.720  -1.136  1.00  0.00    -0.000 C 
BRANCH  16  17
ATOM     17  C   UNL     1      50.280  18.371   0.140  1.00  0.00    -0.000 C 
BRANCH  17  18
ATOM     18  C   UNL     1      50.502  19.386   1.277  1.00  0.00    -0.000 C 
BRANCH  18  19
ATOM     19  C   UNL     1      49.919  18.975   2.641  1.00  0.00    -0.003 C 
ATOM     20  C   UNL     1      49.034  17.731   2.564  1.00  0.00     0.004 C 
ENDBRANCH  18  19
ENDBRANCH  17  18
ENDBRANCH  16  17
ENDBRANCH  15  16
ENDBRANCH  14  15
ENDBRANCH  13  14
ENDBRANCH  12  13
ENDBRANCH   1  12
TORSDOF 16
ENDMDL
MODEL 2
REMARK VINA RESULT:    -5.486      3.175      6.056
REMARK INTER + INTRA:         -13.228
REMARK INTER:                 -10.515
REMARK INTRA:                  -2.713
REMARK UNBOUND:                -2.611
REMARK SMILES CCCCCCCCCCCCCCCCCC(=O)[O-]
REMARK SMILES IDX 10 1 11 2 12 3 13 4 14 5 15 6 16 7 17 8 18 9 19 10 20 11
REMARK SMILES IDX 9 12 8 13 7 14 6 15 5 16 4 17 3 18 2 19 1 20
REMARK H PARENT
REMARK Flexibility Score: inf
ROOT
ATOM      1  C   UNL     1      56.225  17.198   0.542  1.00  0.00     0.000 C 
ENDROOT
BRANCH   1   2
ATOM      2  C   UNL     1      55.201  17.873   1.472  1.00  0.00     0.000 C 
BRANCH   2   3
ATOM      3  C   UNL     1      54.605  16.906   2.511  1.00  0.00     0.000 C 
BRANCH   3   4
ATOM      4  C   UNL     1      53.106  16.590   2.338  1.00  0.00     0.000 C 
BRANCH   4   5
ATOM      5  C   UNL     1      52.241  17.852   2.181  1.00  0.00     0.000 C 
BRANCH   5   6
ATOM      6  C   UNL     1      51.141  17.697   1.116  1.00  0.00     0.000 C 
BRANCH   6   7
ATOM      7  C   UNL     1      50.572  19.017   0.563  1.00  0.00     0.006 C 
BRANCH   7   8
ATOM      8  C   UNL     1      49.701  18.820  -0.685  1.00  0.00     0.053 C 
BRANCH   8   9
ATOM      9  C   UNL     1      50.415  19.313  -1.903  1.00  0.00     0.041 C 
ATOM     10  O   UNL     1      50.927  20.464  -1.915  1.00  0.00    -0.550 OA
ATOM     11  O   UNL     1      50.468  18.524  -3.045  1.00  0.00    -0.550 OA
ENDBRANCH   8   9
ENDBRANCH   7   8
ENDBRANCH   6   7
ENDBRANCH   5   6
ENDBRANCH   4   5
ENDBRANCH   3   4
ENDBRANCH   2   3
ENDBRANCH   1   2
BRANCH   1  12
ATOM     12  C   UNL     1      55.751  17.139  -0.918  1.00  0.00     0.000 C 
BRANCH  12  13
ATOM     13  C   UNL     1      54.440  17.906  -1.152  1.00  0.00    -0.000 C 
BRANCH  13  14
ATOM     14  C   UNL     1      53.284  16.938  -1.446  1.00  0.00    -0.000 C 
BRANCH  14  15
ATOM     15  C   UNL     1      53.759  15.507  -1.758  1.00  0.00    -0.000 C 
BRANCH  15  16
ATOM     16  C   UNL     1      53.095  14.397  -0.923  1.00  0.00    -0.000 C 
BRANCH  16  17
ATOM     17  C   UNL     1      54.086  13.314  -0.467  1.00  0.00    -0.000 C 
BRANCH  17  18
ATOM     18  C   UNL     1      55.133  13.840   0.532  1.00  0.00    -0.000 C 
BRANCH  18  19
ATOM     19  C   UNL     1      56.429  13.015   0.613  1.00  0.00    -0.003 C 
ATOM     20  C   UNL     1      57.643  13.748   0.045  1.00  0.00     0.004 C 
ENDBRANCH  18  19
ENDBRANCH  17  18
ENDBRANCH  16  17
ENDBRANCH  15  16
ENDBRANCH  14  15
ENDBRANCH  13  14
ENDBRANCH  12  13
ENDBRANCH   1  12
TORSDOF 16
ENDMDL
MODEL 3
REMARK VINA RESULT:    -5.418      3.391      6.597
REMARK INTER + INTRA:         -13.097
REMARK INTER:                 -10.169
REMARK INTRA:                  -2.928
REMARK UNBOUND:                -2.611
REMARK SMILES CCCCCCCCCCCCCCCCCC(=O)[O-]
REMARK SMILES IDX 10 1 11 2 12 3 13 4 14 5 15 6 16 7 17 8 18 9 19 10 20 11
REMARK SMILES IDX 9 12 8 13 7 14 6 15 5 16 4 17 3 18 2 19 1 20
REMARK H PARENT
REMARK Flexibility Score: inf
ROOT
ATOM      1  C   UNL     1      56.081  17.108   0.444  1.00  0.00     0.000 C 
ENDROOT
BRANCH   1   2
ATOM      2  C   UNL     1      55.566  17.291  -0.994  1.00  0.00     0.000 C 
BRANCH   2   3
ATOM      3  C   UNL     1      54.154  17.901  -1.054  1.00  0.00     0.000 C 
BRANCH   3   4
ATOM      4  C   UNL     1      53.124  17.106  -1.879  1.00  0.00     0.000 C 
BRANCH   4   5
ATOM      5  C   UNL     1      51.669  17.423  -1.494  1.00  0.00     0.000 C 
BRANCH   5   6
ATOM      6  C   UNL     1      51.469  18.886  -1.059  1.00  0.00     0.000 C 
BRANCH   6   7
ATOM      7  C   UNL     1      50.145  19.178  -0.327  1.00  0.00     0.006 C 
BRANCH   7   8
ATOM      8  C   UNL     1      50.308  19.264   1.196  1.00  0.00     0.053 C 
BRANCH   8   9
ATOM      9  C   UNL     1      49.094  18.724   1.882  1.00  0.00     0.041 C 
ATOM     10  O   UNL     1      48.048  19.422   1.962  1.00  0.00    -0.550 OA
ATOM     11  O   UNL     1      49.134  17.472   2.482  1.00  0.00    -0.550 OA
ENDBRANCH   8   9
ENDBRANCH   7   8
ENDBRANCH   6   7
ENDBRANCH   5   6
ENDBRANCH   4   5
ENDBRANCH   3   4
ENDBRANCH   2   3
ENDBRANCH   1   2
BRANCH   1  12
ATOM     12  C   UNL     1      55.330  17.983   1.460  1.00  0.00     0.000 C 
BRANCH  12  13
ATOM     13  C   UNL     1      54.670  17.165   2.581  1.00  0.00    -0.000 C 
BRANCH  13  14
ATOM     14  C   UNL     1      53.139  17.269   2.505  1.00  0.00    -0.000 C 
BRANCH  14  15
ATOM     15  C   UNL     1      52.491  16.096   1.747  1.00  0.00    -0.000 C 
BRANCH  15  16
ATOM     16  C   UNL     1      53.404  14.877   1.519  1.00  0.00    -0.000 C 
BRANCH  16  17
ATOM     17  C   UNL     1      53.156  14.185   0.169  1.00  0.00    -0.000 C 
BRANCH  17  18
ATOM     18  C   UNL     1      54.457  13.882  -0.597  1.00  0.00    -0.000 C 
BRANCH  18  19
ATOM     19  C   UNL     1      55.637  13.424   0.279  1.00  0.00    -0.003 C 
ATOM     20  C   UNL     1      56.153  12.033  -0.089  1.00  0.00     0.004 C 
ENDBRANCH  18  19
ENDBRANCH  17  18
ENDBRANCH  16  17
ENDBRANCH  15  16
ENDBRANCH  14  15
ENDBRANCH  13  14
ENDBRANCH  12  13
ENDBRANCH   1  12
TORSDOF 16
ENDMDL
MODEL 4
REMARK VINA RESULT:    -5.401      3.668      6.780
REMARK INTER + INTRA:         -13.063
REMARK INTER:                 -10.724
REMARK INTRA:                  -2.339
REMARK UNBOUND:                -2.611
REMARK SMILES CCCCCCCCCCCCCCCCCC(=O)[O-]
REMARK SMILES IDX 10 1 11 2 12 3 13 4 14 5 15 6 16 7 17 8 18 9 19 10 20 11
REMARK SMILES IDX 9 12 8 13 7 14 6 15 5 16 4 17 3 18 2 19 1 20
REMARK H PARENT
REMARK Flexibility Score: inf
ROOT
ATOM      1  C   UNL     1      54.213  14.086   0.141  1.00  0.00     0.000 C 
ENDROOT
BRANCH   1   2
ATOM      2  C   UNL     1      53.155  14.529  -0.885  1.00  0.00     0.000 C 
BRANCH   2   3
ATOM      3  C   UNL     1      53.617  15.715  -1.752  1.00  0.00     0.000 C 
BRANCH   3   4
ATOM      4  C   UNL     1      52.522  16.739  -2.109  1.00  0.00     0.000 C 
BRANCH   4   5
ATOM      5  C   UNL     1      52.529  17.972  -1.190  1.00  0.00     0.000 C 
BRANCH   5   6
ATOM      6  C   UNL     1      51.211  18.152  -0.415  1.00  0.00     0.000 C 
BRANCH   6   7
ATOM      7  C   UNL     1      50.585  19.556  -0.500  1.00  0.00     0.006 C 
BRANCH   7   8
ATOM      8  C   UNL     1      50.055  19.894  -1.899  1.00  0.00     0.053 C 
BRANCH   8   9
ATOM      9  C   UNL     1      48.673  19.350  -2.079  1.00  0.00     0.041 C 
ATOM     10  O   UNL     1      48.496  18.256  -2.680  1.00  0.00    -0.550 OA
ATOM     11  O   UNL     1      47.576  20.076  -1.632  1.00  0.00    -0.550 OA
ENDBRANCH   8   9
ENDBRANCH   7   8
ENDBRANCH   6   7
ENDBRANCH   5   6
ENDBRANCH   4   5
ENDBRANCH   3   4
ENDBRANCH   2   3
ENDBRANCH   1   2
BRANCH   1  12
ATOM     12  C   UNL     1      53.875  14.533   1.572  1.00  0.00     0.000 C 
BRANCH  12  13
ATOM     13  C   UNL     1      52.673  15.489   1.631  1.00  0.00    -0.000 C 
BRANCH  13  14
ATOM     14  C   UNL     1      53.056  16.808   2.320  1.00  0.00    -0.000 C 
BRANCH  14  15
ATOM     15  C   UNL     1      54.577  17.015   2.423  1.00  0.00    -0.000 C 
BRANCH  15  16
ATOM     16  C   UNL     1      55.220  17.763   1.241  1.00  0.00    -0.000 C 
BRANCH  16  17
ATOM     17  C   UNL     1      56.711  17.433   1.060  1.00  0.00    -0.000 C 
BRANCH  17  18
ATOM     18  C   UNL     1      56.950  16.230   0.129  1.00  0.00    -0.000 C 
BRANCH  18  19
ATOM     19  C   UNL     1      58.173  15.364   0.483  1.00  0.00    -0.003 C 
ATOM     20  C   UNL     1      57.927  13.869   0.284  1.00  0.00     0.004 C 
ENDBRANCH  18  19
ENDBRANCH  17  18
ENDBRANCH  16  17
ENDBRANCH  15  16
ENDBRANCH  14  15
ENDBRANCH  13  14
ENDBRANCH  12  13
ENDBRANCH   1  12
TORSDOF 16
ENDMDL
MODEL 5
REMARK VINA RESULT:    -5.373      4.378      7.190
REMARK INTER + INTRA:         -13.010
REMARK INTER:                 -10.718
REMARK INTRA:                  -2.292
REMARK UNBOUND:                -2.611
REMARK SMILES CCCCCCCCCCCCCCCCCC(=O)[O-]
REMARK SMILES IDX 10 1 11 2 12 3 13 4 14 5 15 6 16 7 17 8 18 9 19 10 20 11
REMARK SMILES IDX 9 12 8 13 7 14 6 15 5 16 4 17 3 18 2 19 1 20
REMARK H PARENT
REMARK Flexibility Score: inf
ROOT
ATOM      1  C   UNL     1      54.562  17.103   2.574  1.00  0.00     0.000 C 
ENDROOT
BRANCH   1   2
ATOM      2  C   UNL     1      53.101  17.432   2.928  1.00  0.00     0.000 C 
BRANCH   2   3
ATOM      3  C   UNL     1      52.133  17.217   1.750  1.00  0.00     0.000 C 
BRANCH   3   4
ATOM      4  C   UNL     1      50.842  18.058   1.791  1.00  0.00     0.000 C 
BRANCH   4   5
ATOM      5  C   UNL     1      50.668  18.827   3.111  1.00  0.00     0.000 C 
BRANCH   5   6
ATOM      6  C   UNL     1      49.727  20.038   2.981  1.00  0.00     0.000 C 
BRANCH   6   7
ATOM      7  C   UNL     1      48.725  19.969   1.813  1.00  0.00     0.006 C 
BRANCH   7   8
ATOM      8  C   UNL     1      47.474  20.825   2.045  1.00  0.00     0.053 C 
BRANCH   8   9
ATOM      9  C   UNL     1      46.452  20.057   2.821  1.00  0.00     0.041 C 
ATOM     10  O   UNL     1      45.560  20.666   3.471  1.00  0.00    -0.550 OA
ATOM     11  O   UNL     1      46.515  18.670   2.871  1.00  0.00    -0.550 OA
ENDBRANCH   8   9
ENDBRANCH   7   8
ENDBRANCH   6   7
ENDBRANCH   5   6
ENDBRANCH   4   5
ENDBRANCH   3   4
ENDBRANCH   2   3
ENDBRANCH   1   2
BRANCH   1  12
ATOM     12  C   UNL     1      55.086  17.930   1.389  1.00  0.00     0.000 C 
BRANCH  12  13
ATOM     13  C   UNL     1      56.073  17.150   0.507  1.00  0.00    -0.000 C 
BRANCH  13  14
ATOM     14  C   UNL     1      55.627  17.170  -0.963  1.00  0.00    -0.000 C 
BRANCH  14  15
ATOM     15  C   UNL     1      54.223  17.769  -1.160  1.00  0.00    -0.000 C 
BRANCH  15  16
ATOM     16  C   UNL     1      53.183  16.817  -1.779  1.00  0.00    -0.000 C 
BRANCH  16  17
ATOM     17  C   UNL     1      53.617  15.342  -1.736  1.00  0.00    -0.000 C 
BRANCH  17  18
ATOM     18  C   UNL     1      52.999  14.569  -0.557  1.00  0.00    -0.000 C 
BRANCH  18  19
ATOM     19  C   UNL     1      54.007  14.051   0.484  1.00  0.00    -0.003 C 
ATOM     20  C   UNL     1      55.276  13.477  -0.146  1.00  0.00     0.004 C 
ENDBRANCH  18  19
ENDBRANCH  17  18
ENDBRANCH  16  17
ENDBRANCH  15  16
ENDBRANCH  14  15
ENDBRANCH  13  14
ENDBRANCH  12  13
ENDBRANCH   1  12
TORSDOF 16
ENDMDL
MODEL 6
REMARK VINA RESULT:    -5.369      3.237      6.726
REMARK INTER + INTRA:         -13.002
REMARK INTER:                 -10.635
REMARK INTRA:                  -2.367
REMARK UNBOUND:                -2.611
REMARK SMILES CCCCCCCCCCCCCCCCCC(=O)[O-]
REMARK SMILES IDX 10 1 11 2 12 3 13 4 14 5 15 6 16 7 17 8 18 9 19 10 20 11
REMARK SMILES IDX 9 12 8 13 7 14 6 15 5 16 4 17 3 18 2 19 1 20
REMARK H PARENT
REMARK Flexibility Score: inf
ROOT
ATOM      1  C   UNL     1      52.746  15.425   1.650  1.00  0.00     0.000 C 
ENDROOT
BRANCH   1   2
ATOM      2  C   UNL     1      53.925  14.486   1.340  1.00  0.00     0.000 C 
BRANCH   2   3
ATOM      3  C   UNL     1      54.085  14.198  -0.164  1.00  0.00     0.000 C 
BRANCH   3   4
ATOM      4  C   UNL     1      53.007  14.817  -1.075  1.00  0.00     0.000 C 
BRANCH   4   5
ATOM      5  C   UNL     1      53.461  16.127  -1.740  1.00  0.00     0.000 C 
BRANCH   5   6
ATOM      6  C   UNL     1      52.286  16.981  -2.249  1.00  0.00     0.000 C 
BRANCH   6   7
ATOM      7  C   UNL     1      51.807  18.082  -1.284  1.00  0.00     0.006 C 
BRANCH   7   8
ATOM      8  C   UNL     1      50.297  18.338  -1.368  1.00  0.00     0.053 C 
BRANCH   8   9
ATOM      9  C   UNL     1      49.792  18.908  -0.081  1.00  0.00     0.041 C 
ATOM     10  O   UNL     1      50.348  18.605   1.008  1.00  0.00    -0.550 OA
ATOM     11  O   UNL     1      48.673  19.732  -0.077  1.00  0.00    -0.550 OA
ENDBRANCH   8   9
ENDBRANCH   7   8
ENDBRANCH   6   7
ENDBRANCH   5   6
ENDBRANCH   4   5
ENDBRANCH   3   4
ENDBRANCH   2   3
ENDBRANCH   1   2
BRANCH   1  12
ATOM     12  C   UNL     1      53.199  16.858   1.974  1.00  0.00     0.000 C 
BRANCH  12  13
ATOM     13  C   UNL     1      54.673  16.936   2.402  1.00  0.00    -0.000 C 
BRANCH  13  14
ATOM     14  C   UNL     1      55.451  17.915   1.509  1.00  0.00    -0.000 C 
BRANCH  14  15
ATOM     15  C   UNL     1      56.187  17.220   0.350  1.00  0.00    -0.000 C 
BRANCH  15  16
ATOM     16  C   UNL     1      57.461  16.451   0.748  1.00  0.00    -0.000 C 
BRANCH  16  17
ATOM     17  C   UNL     1      57.725  15.225  -0.141  1.00  0.00    -0.000 C 
BRANCH  17  18
ATOM     18  C   UNL     1      58.218  14.002   0.654  1.00  0.00    -0.000 C 
BRANCH  18  19
ATOM     19  C   UNL     1      57.216  12.838   0.749  1.00  0.00    -0.003 C 
ATOM     20  C   UNL     1      57.091  12.048  -0.553  1.00  0.00     0.004 C 
ENDBRANCH  18  19
ENDBRANCH  17  18
ENDBRANCH  16  17
ENDBRANCH  15  16
ENDBRANCH  14  15
ENDBRANCH  13  14
ENDBRANCH  12  13
ENDBRANCH   1  12
TORSDOF 16
ENDMDL
MODEL 7
REMARK VINA RESULT:    -5.350      4.170      6.678
REMARK INTER + INTRA:         -12.964
REMARK INTER:                 -10.615
REMARK INTRA:                  -2.349
REMARK UNBOUND:                -2.611
REMARK SMILES CCCCCCCCCCCCCCCCCC(=O)[O-]
REMARK SMILES IDX 10 1 11 2 12 3 13 4 14 5 15 6 16 7 17 8 18 9 19 10 20 11
REMARK SMILES IDX 9 12 8 13 7 14 6 15 5 16 4 17 3 18 2 19 1 20
REMARK H PARENT
REMARK Flexibility Score: inf
ROOT
ATOM      1  C   UNL     1      54.753  17.200   2.549  1.00  0.00     0.000 C 
ENDROOT
BRANCH   1   2
ATOM      2  C   UNL     1      53.300  16.761   2.302  1.00  0.00     0.000 C 
BRANCH   2   3
ATOM      3  C   UNL     1      52.276  17.872   2.603  1.00  0.00     0.000 C 
BRANCH   3   4
ATOM      4  C   UNL     1      51.119  17.998   1.593  1.00  0.00     0.000 C 
BRANCH   4   5
ATOM      5  C   UNL     1      50.291  19.279   1.785  1.00  0.00     0.000 C 
BRANCH   5   6
ATOM      6  C   UNL     1      49.302  19.533   0.633  1.00  0.00     0.000 C 
BRANCH   6   7
ATOM      7  C   UNL     1      49.870  19.314  -0.781  1.00  0.00     0.006 C 
BRANCH   7   8
ATOM      8  C   UNL     1      49.570  20.477  -1.735  1.00  0.00     0.053 C 
BRANCH   8   9
ATOM      9  C   UNL     1      48.108  20.790  -1.735  1.00  0.00     0.041 C 
ATOM     10  O   UNL     1      47.288  19.985  -2.252  1.00  0.00    -0.550 OA
ATOM     11  O   UNL     1      47.654  21.994  -1.211  1.00  0.00    -0.550 OA
ENDBRANCH   8   9
ENDBRANCH   7   8
ENDBRANCH   6   7
ENDBRANCH   5   6
ENDBRANCH   4   5
ENDBRANCH   3   4
ENDBRANCH   2   3
ENDBRANCH   1   2
BRANCH   1  12
ATOM     12  C   UNL     1      55.369  17.923   1.340  1.00  0.00     0.000 C 
BRANCH  12  13
ATOM     13  C   UNL     1      55.983  16.956   0.316  1.00  0.00    -0.000 C 
BRANCH  13  14
ATOM     14  C   UNL     1      55.482  17.270  -1.102  1.00  0.00    -0.000 C 
BRANCH  14  15
ATOM     15  C   UNL     1      54.088  17.922  -1.119  1.00  0.00    -0.000 C 
BRANCH  15  16
ATOM     16  C   UNL     1      52.916  16.961  -1.391  1.00  0.00    -0.000 C 
BRANCH  16  17
ATOM     17  C   UNL     1      53.374  15.580  -1.889  1.00  0.00    -0.000 C 
BRANCH  17  18
ATOM     18  C   UNL     1      53.147  14.464  -0.853  1.00  0.00    -0.000 C 
BRANCH  18  19
ATOM     19  C   UNL     1      54.401  13.649  -0.487  1.00  0.00    -0.003 C 
ATOM     20  C   UNL     1      54.735  13.701   1.004  1.00  0.00     0.004 C 
ENDBRANCH  18  19
ENDBRANCH  17  18
ENDBRANCH  16  17
ENDBRANCH  15  16
ENDBRANCH  14  15
ENDBRANCH  13  14
ENDBRANCH  12  13
ENDBRANCH   1  12
TORSDOF 16
ENDMDL
MODEL 8
REMARK VINA RESULT:    -5.334      3.451      5.926
REMARK INTER + INTRA:         -12.934
REMARK INTER:                 -10.323
REMARK INTRA:                  -2.610
REMARK UNBOUND:                -2.611
REMARK SMILES CCCCCCCCCCCCCCCCCC(=O)[O-]
REMARK SMILES IDX 10 1 11 2 12 3 13 4 14 5 15 6 16 7 17 8 18 9 19 10 20 11
REMARK SMILES IDX 9 12 8 13 7 14 6 15 5 16 4 17 3 18 2 19 1 20
REMARK H PARENT
REMARK Flexibility Score: inf
ROOT
ATOM      1  C   UNL     1      54.254  14.295   1.059  1.00  0.00     0.000 C 
ENDROOT
BRANCH   1   2
ATOM      2  C   UNL     1      53.081  15.149   1.571  1.00  0.00     0.000 C 
BRANCH   2   3
ATOM      3  C   UNL     1      53.523  16.255   2.547  1.00  0.00     0.000 C 
BRANCH   3   4
ATOM      4  C   UNL     1      52.898  17.642   2.302  1.00  0.00     0.000 C 
BRANCH   4   5
ATOM      5  C   UNL     1      51.459  17.567   1.765  1.00  0.00     0.000 C 
BRANCH   5   6
ATOM      6  C   UNL     1      50.644  18.842   2.048  1.00  0.00     0.000 C 
BRANCH   6   7
ATOM      7  C   UNL     1      49.797  19.356   0.869  1.00  0.00     0.006 C 
BRANCH   7   8
ATOM      8  C   UNL     1      50.366  18.954  -0.498  1.00  0.00     0.053 C 
BRANCH   8   9
ATOM      9  C   UNL     1      49.671  19.701  -1.592  1.00  0.00     0.041 C 
ATOM     10  O   UNL     1      48.702  19.174  -2.202  1.00  0.00    -0.550 OA
ATOM     11  O   UNL     1      50.126  20.956  -1.976  1.00  0.00    -0.550 OA
ENDBRANCH   8   9
ENDBRANCH   7   8
ENDBRANCH   6   7
ENDBRANCH   5   6
ENDBRANCH   4   5
ENDBRANCH   3   4
ENDBRANCH   2   3
ENDBRANCH   1   2
BRANCH   1  12
ATOM     12  C   UNL     1      54.010  13.738  -0.352  1.00  0.00     0.000 C 
BRANCH  12  13
ATOM     13  C   UNL     1      52.949  14.531  -1.132  1.00  0.00    -0.000 C 
BRANCH  13  14
ATOM     14  C   UNL     1      53.601  15.640  -1.971  1.00  0.00    -0.000 C 
BRANCH  14  15
ATOM     15  C   UNL     1      53.227  17.055  -1.495  1.00  0.00    -0.000 C 
BRANCH  15  16
ATOM     16  C   UNL     1      54.410  17.930  -1.040  1.00  0.00    -0.000 C 
BRANCH  16  17
ATOM     17  C   UNL     1      55.714  17.134  -0.869  1.00  0.00    -0.000 C 
BRANCH  17  18
ATOM     18  C   UNL     1      56.262  17.182   0.569  1.00  0.00    -0.000 C 
BRANCH  18  19
ATOM     19  C   UNL     1      57.644  16.532   0.763  1.00  0.00    -0.003 C 
ATOM     20  C   UNL     1      57.703  15.091   0.258  1.00  0.00     0.004 C 
ENDBRANCH  18  19
ENDBRANCH  17  18
ENDBRANCH  16  17
ENDBRANCH  15  16
ENDBRANCH  14  15
ENDBRANCH  13  14
ENDBRANCH  12  13
ENDBRANCH   1  12
TORSDOF 16
ENDMDL
MODEL 9
REMARK VINA RESULT:    -5.326      3.137      6.705
REMARK INTER + INTRA:         -12.919
REMARK INTER:                 -10.598
REMARK INTRA:                  -2.321
REMARK UNBOUND:                -2.611
REMARK SMILES CCCCCCCCCCCCCCCCCC(=O)[O-]
REMARK SMILES IDX 10 1 11 2 12 3 13 4 14 5 15 6 16 7 17 8 18 9 19 10 20 11
REMARK SMILES IDX 9 12 8 13 7 14 6 15 5 16 4 17 3 18 2 19 1 20
REMARK H PARENT
REMARK Flexibility Score: inf
ROOT
ATOM      1  C   UNL     1      54.109  17.008  -1.175  1.00  0.00     0.000 C 
ENDROOT
BRANCH   1   2
ATOM      2  C   UNL     1      55.639  17.078  -1.035  1.00  0.00     0.000 C 
BRANCH   2   3
ATOM      3  C   UNL     1      56.106  17.171   0.429  1.00  0.00     0.000 C 
BRANCH   3   4
ATOM      4  C   UNL     1      55.155  17.924   1.381  1.00  0.00     0.000 C 
BRANCH   4   5
ATOM      5  C   UNL     1      54.482  17.002   2.411  1.00  0.00     0.000 C 
BRANCH   5   6
ATOM      6  C   UNL     1      53.073  17.475   2.810  1.00  0.00     0.000 C 
BRANCH   6   7
ATOM      7  C   UNL     1      52.038  17.491   1.669  1.00  0.00     0.006 C 
BRANCH   7   8
ATOM      8  C   UNL     1      50.901  18.494   1.904  1.00  0.00     0.053 C 
BRANCH   8   9
ATOM      9  C   UNL     1      50.343  18.966   0.599  1.00  0.00     0.041 C 
ATOM     10  O   UNL     1      49.174  19.435   0.542  1.00  0.00    -0.550 OA
ATOM     11  O   UNL     1      51.092  18.840  -0.564  1.00  0.00    -0.550 OA
ENDBRANCH   8   9
ENDBRANCH   7   8
ENDBRANCH   6   7
ENDBRANCH   5   6
ENDBRANCH   4   5
ENDBRANCH   3   4
ENDBRANCH   2   3
ENDBRANCH   1   2
BRANCH   1  12
ATOM     12  C   UNL     1      53.618  15.628  -1.640  1.00  0.00     0.000 C 
BRANCH  12  13
ATOM     13  C   UNL     1      53.287  14.687  -0.472  1.00  0.00    -0.000 C 
BRANCH  13  14
ATOM     14  C   UNL     1      54.278  13.515  -0.415  1.00  0.00    -0.000 C 
BRANCH  14  15
ATOM     15  C   UNL     1      55.372  13.700   0.651  1.00  0.00    -0.000 C 
BRANCH  15  16
ATOM     16  C   UNL     1      56.666  12.901   0.411  1.00  0.00    -0.000 C 
BRANCH  16  17
ATOM     17  C   UNL     1      57.807  13.761  -0.156  1.00  0.00    -0.000 C 
BRANCH  17  18
ATOM     18  C   UNL     1      58.606  14.494   0.938  1.00  0.00    -0.000 C 
BRANCH  18  19
ATOM     19  C   UNL     1      59.484  15.654   0.437  1.00  0.00    -0.003 C 
ATOM     20  C   UNL     1      59.935  15.481  -1.013  1.00  0.00     0.004 C 
ENDBRANCH  18  19
ENDBRANCH  17  18
ENDBRANCH  16  17
ENDBRANCH  15  16
ENDBRANCH  14  15
ENDBRANCH  13  14
ENDBRANCH  12  13
ENDBRANCH   1  12
TORSDOF 16
ENDMDL
