MODEL 1
REMARK VINA RESULT:    -2.003      0.000      0.000
REMARK INTER + INTRA:          -4.045
REMARK INTER:                  -3.643
REMARK INTRA:                  -0.401
REMARK UNBOUND:                -0.401
REMARK SMILES CCCCCCCCCCCCCC[C@@H](C)C(=O)[O-]
REMARK SMILES IDX 9 1 10 2 11 3 12 4 13 5 14 6 15 7 16 8 17 9 18 10 19 11 8 12
REMARK SMILES IDX 7 13 6 14 5 15 4 16 3 17 2 18 1 19
REMARK H PARENT
REMARK Flexibility Score: inf
ROOT
ATOM      1  C   UNL     1      -1.445 -23.121  15.670  1.00  0.00     0.000 C 
ENDROOT
BRANCH   1   2
ATOM      2  C   UNL     1      -0.228 -22.207  15.850  1.00  0.00     0.000 C 
BRANCH   2   3
ATOM      3  C   UNL     1       1.072 -22.945  15.490  1.00  0.00     0.000 C 
BRANCH   3   4
ATOM      4  C   UNL     1       1.692 -22.440  14.177  1.00  0.00     0.000 C 
BRANCH   4   5
ATOM      5  C   UNL     1       3.031 -23.125  13.858  1.00  0.00     0.001 C 
BRANCH   5   6
ATOM      6  C   UNL     1       4.122 -22.882  14.924  1.00  0.00     0.009 C 
BRANCH   6   7
ATOM      7  C   UNL     1       5.598 -23.066  14.484  1.00  0.00     0.032 C 
ATOM      8  C   UNL     1       5.841 -22.698  13.013  1.00  0.00     0.014 C 
BRANCH   7   9
ATOM      9  C   UNL     1       6.572 -22.379  15.407  1.00  0.00     0.044 C 
ATOM     10  O   UNL     1       6.211 -22.054  16.568  1.00  0.00    -0.550 OA
ATOM     11  O   UNL     1       7.851 -22.050  14.974  1.00  0.00    -0.550 OA
ENDBRANCH   7   9
ENDBRANCH   6   7
ENDBRANCH   5   6
ENDBRANCH   4   5
ENDBRANCH   3   4
ENDBRANCH   2   3
ENDBRANCH   1   2
BRANCH   1  12
ATOM     12  C   UNL     1      -2.753 -22.323  15.774  1.00  0.00     0.000 C 
BRANCH  12  13
ATOM     13  C   UNL     1      -3.888 -23.114  16.450  1.00  0.00    -0.000 C 
BRANCH  13  14
ATOM     14  C   UNL     1      -5.177 -22.311  16.707  1.00  0.00    -0.000 C 
BRANCH  14  15
ATOM     15  C   UNL     1      -6.439 -23.023  16.197  1.00  0.00    -0.000 C 
BRANCH  15  16
ATOM     16  C   UNL     1      -7.596 -22.869  17.191  1.00  0.00    -0.000 C 
BRANCH  16  17
ATOM     17  C   UNL     1      -8.410 -21.604  16.897  1.00  0.00    -0.000 C 
BRANCH  17  18
ATOM     18  C   UNL     1      -9.896 -21.822  17.205  1.00  0.00    -0.003 C 
ATOM     19  C   UNL     1     -10.764 -20.789  16.493  1.00  0.00     0.004 C 
ENDBRANCH  17  18
ENDBRANCH  16  17
ENDBRANCH  15  16
ENDBRANCH  14  15
ENDBRANCH  13  14
ENDBRANCH  12  13
ENDBRANCH   1  12
TORSDOF 14
ENDMDL
MODEL 2
REMARK VINA RESULT:    -1.752      1.966      2.912
REMARK INTER + INTRA:          -3.587
REMARK INTER:                  -3.163
REMARK INTRA:                  -0.423
REMARK UNBOUND:                -0.401
REMARK SMILES CCCCCCCCCCCCCC[C@@H](C)C(=O)[O-]
REMARK SMILES IDX 9 1 10 2 11 3 12 4 13 5 14 6 15 7 16 8 17 9 18 10 19 11 8 12
REMARK SMILES IDX 7 13 6 14 5 15 4 16 3 17 2 18 1 19
REMARK H PARENT
REMARK Flexibility Score: inf
ROOT
ATOM      1  C   UNL     1       0.433 -22.975  15.082  1.00  0.00     0.000 C 
ENDROOT
BRANCH   1   2
ATOM      2  C   UNL     1       1.908 -22.623  15.305  1.00  0.00     0.000 C 
BRANCH   2   3
ATOM      3  C   UNL     1       2.754 -22.999  14.078  1.00  0.00     0.000 C 
BRANCH   3   4
ATOM      4  C   UNL     1       4.251 -23.125  14.410  1.00  0.00     0.000 C 
BRANCH   4   5
ATOM      5  C   UNL     1       5.142 -22.395  13.392  1.00  0.00     0.001 C 
BRANCH   5   6
ATOM      6  C   UNL     1       6.646 -22.714  13.542  1.00  0.00     0.009 C 
BRANCH   6   7
ATOM      7  C   UNL     1       7.526 -21.662  14.266  1.00  0.00     0.032 C 
ATOM      8  C   UNL     1       8.364 -22.258  15.407  1.00  0.00     0.014 C 
BRANCH   7   9
ATOM      9  C   UNL     1       8.365 -20.849  13.314  1.00  0.00     0.044 C 
ATOM     10  O   UNL     1       8.830 -19.738  13.681  1.00  0.00    -0.550 OA
ATOM     11  O   UNL     1       8.590 -21.285  12.013  1.00  0.00    -0.550 OA
ENDBRANCH   7   9
ENDBRANCH   6   7
ENDBRANCH   5   6
ENDBRANCH   4   5
ENDBRANCH   3   4
ENDBRANCH   2   3
ENDBRANCH   1   2
BRANCH   1  12
ATOM     12  C   UNL     1      -0.426 -22.525  16.273  1.00  0.00     0.000 C 
BRANCH  12  13
ATOM     13  C   UNL     1      -1.907 -22.926  16.132  1.00  0.00    -0.000 C 
BRANCH  13  14
ATOM     14  C   UNL     1      -2.846 -21.795  15.676  1.00  0.00    -0.000 C 
BRANCH  14  15
ATOM     15  C   UNL     1      -4.323 -22.216  15.651  1.00  0.00    -0.000 C 
BRANCH  15  16
ATOM     16  C   UNL     1      -4.724 -22.895  16.966  1.00  0.00    -0.000 C 
BRANCH  16  17
ATOM     17  C   UNL     1      -6.243 -22.858  17.165  1.00  0.00    -0.000 C 
BRANCH  17  18
ATOM     18  C   UNL     1      -6.601 -22.710  18.648  1.00  0.00    -0.003 C 
ATOM     19  C   UNL     1      -8.074 -23.022  18.894  1.00  0.00     0.004 C 
ENDBRANCH  17  18
ENDBRANCH  16  17
ENDBRANCH  15  16
ENDBRANCH  14  15
ENDBRANCH  13  14
ENDBRANCH  12  13
ENDBRANCH   1  12
TORSDOF 14
ENDMDL
MODEL 3
REMARK VINA RESULT:    -1.683      4.667     11.831
REMARK INTER + INTRA:          -3.463
REMARK INTER:                  -2.972
REMARK INTRA:                  -0.490
REMARK UNBOUND:                -0.401
REMARK SMILES CCCCCCCCCCCCCC[C@@H](C)C(=O)[O-]
REMARK SMILES IDX 9 1 10 2 11 3 12 4 13 5 14 6 15 7 16 8 17 9 18 10 19 11 8 12
REMARK SMILES IDX 7 13 6 14 5 15 4 16 3 17 2 18 1 19
REMARK H PARENT
REMARK Flexibility Score: inf
ROOT
ATOM      1  C   UNL     1       1.977 -23.098  15.404  1.00  0.00     0.000 C 
ENDROOT
BRANCH   1   2
ATOM      2  C   UNL     1       0.597 -22.498  15.114  1.00  0.00     0.000 C 
BRANCH   2   3
ATOM      3  C   UNL     1      -0.311 -22.585  16.351  1.00  0.00     0.000 C 
BRANCH   3   4
ATOM      4  C   UNL     1      -1.621 -21.798  16.177  1.00  0.00     0.000 C 
BRANCH   4   5
ATOM      5  C   UNL     1      -2.777 -22.682  15.682  1.00  0.00     0.001 C 
BRANCH   5   6
ATOM      6  C   UNL     1      -3.760 -23.101  16.797  1.00  0.00     0.009 C 
BRANCH   6   7
ATOM      7  C   UNL     1      -4.972 -22.169  17.062  1.00  0.00     0.032 C 
ATOM      8  C   UNL     1      -5.671 -21.706  15.776  1.00  0.00     0.014 C 
BRANCH   7   9
ATOM      9  C   UNL     1      -5.945 -22.747  18.058  1.00  0.00     0.044 C 
ATOM     10  O   UNL     1      -5.536 -23.125  19.186  1.00  0.00    -0.550 OA
ATOM     11  O   UNL     1      -7.284 -22.918  17.727  1.00  0.00    -0.550 OA
ENDBRANCH   7   9
ENDBRANCH   6   7
ENDBRANCH   5   6
ENDBRANCH   4   5
ENDBRANCH   3   4
ENDBRANCH   2   3
ENDBRANCH   1   2
BRANCH   1  12
ATOM     12  C   UNL     1       2.886 -23.013  14.169  1.00  0.00     0.000 C 
BRANCH  12  13
ATOM     13  C   UNL     1       4.369 -22.802  14.526  1.00  0.00    -0.000 C 
BRANCH  13  14
ATOM     14  C   UNL     1       5.327 -22.750  13.322  1.00  0.00    -0.000 C 
BRANCH  14  15
ATOM     15  C   UNL     1       6.802 -22.893  13.724  1.00  0.00    -0.000 C 
BRANCH  15  16
ATOM     16  C   UNL     1       7.703 -22.979  12.486  1.00  0.00    -0.000 C 
BRANCH  16  17
ATOM     17  C   UNL     1       7.912 -21.595  11.859  1.00  0.00    -0.000 C 
BRANCH  17  18
ATOM     18  C   UNL     1       8.582 -20.638  12.851  1.00  0.00    -0.003 C 
ATOM     19  C   UNL     1       8.662 -19.223  12.284  1.00  0.00     0.004 C 
ENDBRANCH  17  18
ENDBRANCH  16  17
ENDBRANCH  15  16
ENDBRANCH  14  15
ENDBRANCH  13  14
ENDBRANCH  12  13
ENDBRANCH   1  12
TORSDOF 14
ENDMDL
MODEL 4
REMARK VINA RESULT:    -1.674      5.175     12.006
REMARK INTER + INTRA:          -3.446
REMARK INTER:                  -3.047
REMARK INTRA:                  -0.399
REMARK UNBOUND:                -0.401
REMARK SMILES CCCCCCCCCCCCCC[C@@H](C)C(=O)[O-]
REMARK SMILES IDX 9 1 10 2 11 3 12 4 13 5 14 6 15 7 16 8 17 9 18 10 19 11 8 12
REMARK SMILES IDX 7 13 6 14 5 15 4 16 3 17 2 18 1 19
REMARK H PARENT
REMARK Flexibility Score: inf
ROOT
ATOM      1  C   UNL     1       0.212 -23.125  15.485  1.00  0.00     0.000 C 
ENDROOT
BRANCH   1   2
ATOM      2  C   UNL     1      -0.910 -22.152  15.867  1.00  0.00     0.000 C 
BRANCH   2   3
ATOM      3  C   UNL     1      -2.139 -22.911  16.392  1.00  0.00     0.000 C 
BRANCH   3   4
ATOM      4  C   UNL     1      -3.462 -22.228  16.008  1.00  0.00     0.000 C 
BRANCH   4   5
ATOM      5  C   UNL     1      -4.573 -22.475  17.041  1.00  0.00     0.001 C 
BRANCH   5   6
ATOM      6  C   UNL     1      -5.961 -22.731  16.413  1.00  0.00     0.009 C 
BRANCH   6   7
ATOM      7  C   UNL     1      -7.136 -23.028  17.381  1.00  0.00     0.032 C 
ATOM      8  C   UNL     1      -6.699 -23.125  18.850  1.00  0.00     0.014 C 
BRANCH   7   9
ATOM      9  C   UNL     1      -8.296 -22.084  17.198  1.00  0.00     0.044 C 
ATOM     10  O   UNL     1      -8.531 -21.594  16.063  1.00  0.00    -0.550 OA
ATOM     11  O   UNL     1      -9.083 -21.705  18.279  1.00  0.00    -0.550 OA
ENDBRANCH   7   9
ENDBRANCH   6   7
ENDBRANCH   5   6
ENDBRANCH   4   5
ENDBRANCH   3   4
ENDBRANCH   2   3
ENDBRANCH   1   2
BRANCH   1  12
ATOM     12  C   UNL     1       1.432 -22.369  14.938  1.00  0.00     0.000 C 
BRANCH  12  13
ATOM     13  C   UNL     1       2.753 -22.799  15.604  1.00  0.00    -0.000 C 
BRANCH  13  14
ATOM     14  C   UNL     1       3.961 -22.891  14.653  1.00  0.00    -0.000 C 
BRANCH  14  15
ATOM     15  C   UNL     1       5.303 -22.670  15.365  1.00  0.00    -0.000 C 
BRANCH  15  16
ATOM     16  C   UNL     1       6.474 -23.122  14.485  1.00  0.00    -0.000 C 
BRANCH  16  17
ATOM     17  C   UNL     1       6.443 -22.421  13.122  1.00  0.00    -0.000 C 
BRANCH  17  18
ATOM     18  C   UNL     1       7.472 -21.287  13.063  1.00  0.00    -0.003 C 
ATOM     19  C   UNL     1       7.852 -20.961  11.622  1.00  0.00     0.004 C 
ENDBRANCH  17  18
ENDBRANCH  16  17
ENDBRANCH  15  16
ENDBRANCH  14  15
ENDBRANCH  13  14
ENDBRANCH  12  13
ENDBRANCH   1  12
TORSDOF 14
ENDMDL
MODEL 5
REMARK VINA RESULT:    -1.660      5.216     11.764
REMARK INTER + INTRA:          -3.420
REMARK INTER:                  -2.971
REMARK INTRA:                  -0.449
REMARK UNBOUND:                -0.401
REMARK SMILES CCCCCCCCCCCCCC[C@@H](C)C(=O)[O-]
REMARK SMILES IDX 9 1 10 2 11 3 12 4 13 5 14 6 15 7 16 8 17 9 18 10 19 11 8 12
REMARK SMILES IDX 7 13 6 14 5 15 4 16 3 17 2 18 1 19
REMARK H PARENT
REMARK Flexibility Score: inf
ROOT
ATOM      1  C   UNL     1       0.247 -22.385  15.201  1.00  0.00     0.000 C 
ENDROOT
BRANCH   1   2
ATOM      2  C   UNL     1      -0.809 -22.777  16.241  1.00  0.00     0.000 C 
BRANCH   2   3
ATOM      3  C   UNL     1      -2.095 -21.958  16.054  1.00  0.00     0.000 C 
BRANCH   3   4
ATOM      4  C   UNL     1      -3.323 -22.843  15.780  1.00  0.00     0.000 C 
BRANCH   4   5
ATOM      5  C   UNL     1      -4.258 -22.943  16.996  1.00  0.00     0.001 C 
BRANCH   5   6
ATOM      6  C   UNL     1      -5.753 -22.779  16.645  1.00  0.00     0.009 C 
BRANCH   6   7
ATOM      7  C   UNL     1      -6.780 -23.005  17.785  1.00  0.00     0.032 C 
ATOM      8  C   UNL     1      -6.133 -23.081  19.175  1.00  0.00     0.014 C 
BRANCH   7   9
ATOM      9  C   UNL     1      -7.922 -22.022  17.746  1.00  0.00     0.044 C 
ATOM     10  O   UNL     1      -8.335 -21.499  18.814  1.00  0.00    -0.550 OA
ATOM     11  O   UNL     1      -8.561 -21.722  16.549  1.00  0.00    -0.550 OA
ENDBRANCH   7   9
ENDBRANCH   6   7
ENDBRANCH   5   6
ENDBRANCH   4   5
ENDBRANCH   3   4
ENDBRANCH   2   3
ENDBRANCH   1   2
BRANCH   1  12
ATOM     12  C   UNL     1       1.569 -23.125  15.452  1.00  0.00     0.000 C 
BRANCH  12  13
ATOM     13  C   UNL     1       2.784 -22.415  14.825  1.00  0.00    -0.000 C 
BRANCH  13  14
ATOM     14  C   UNL     1       3.361 -23.098  13.572  1.00  0.00    -0.000 C 
BRANCH  14  15
ATOM     15  C   UNL     1       4.841 -22.765  13.335  1.00  0.00    -0.000 C 
BRANCH  15  16
ATOM     16  C   UNL     1       5.622 -22.762  14.654  1.00  0.00    -0.000 C 
BRANCH  16  17
ATOM     17  C   UNL     1       7.095 -22.405  14.422  1.00  0.00    -0.000 C 
BRANCH  17  18
ATOM     18  C   UNL     1       7.722 -21.805  15.686  1.00  0.00    -0.003 C 
ATOM     19  C   UNL     1       7.695 -22.802  16.840  1.00  0.00     0.004 C 
ENDBRANCH  17  18
ENDBRANCH  16  17
ENDBRANCH  15  16
ENDBRANCH  14  15
ENDBRANCH  13  14
ENDBRANCH  12  13
ENDBRANCH   1  12
TORSDOF 14
ENDMDL
MODEL 6
REMARK VINA RESULT:    -0.766      2.055      4.331
REMARK INTER + INTRA:          -1.794
REMARK INTER:                  -1.890
REMARK INTRA:                   0.096
REMARK UNBOUND:                -0.401
REMARK SMILES CCCCCCCCCCCCCC[C@@H](C)C(=O)[O-]
REMARK SMILES IDX 9 1 10 2 11 3 12 4 13 5 14 6 15 7 16 8 17 9 18 10 19 11 8 12
REMARK SMILES IDX 7 13 6 14 5 15 4 16 3 17 2 18 1 19
REMARK H PARENT
REMARK Flexibility Score: inf
ROOT
ATOM      1  C   UNL     1       2.622 -22.715  15.988  1.00  0.00     0.000 C 
ENDROOT
BRANCH   1   2
ATOM      2  C   UNL     1       3.463 -23.113  14.769  1.00  0.00     0.000 C 
BRANCH   2   3
ATOM      3  C   UNL     1       4.964 -22.981  15.070  1.00  0.00     0.000 C 
BRANCH   3   4
ATOM      4  C   UNL     1       5.710 -22.165  14.001  1.00  0.00     0.000 C 
BRANCH   4   5
ATOM      5  C   UNL     1       7.219 -22.458  13.985  1.00  0.00     0.001 C 
BRANCH   5   6
ATOM      6  C   UNL     1       7.829 -22.499  12.567  1.00  0.00     0.009 C 
BRANCH   6   7
ATOM      7  C   UNL     1       8.751 -21.321  12.156  1.00  0.00     0.032 C 
ATOM      8  C   UNL     1       8.762 -21.062  10.642  1.00  0.00     0.014 C 
BRANCH   7   9
ATOM      9  C   UNL     1       8.478 -20.064  12.942  1.00  0.00     0.044 C 
ATOM     10  O   UNL     1       8.558 -20.082  14.198  1.00  0.00    -0.550 OA
ATOM     11  O   UNL     1       8.087 -18.895  12.301  1.00  0.00    -0.550 OA
ENDBRANCH   7   9
ENDBRANCH   6   7
ENDBRANCH   5   6
ENDBRANCH   4   5
ENDBRANCH   3   4
ENDBRANCH   2   3
ENDBRANCH   1   2
BRANCH   1  12
ATOM     12  C   UNL     1       1.189 -22.350  15.573  1.00  0.00     0.000 C 
BRANCH  12  13
ATOM     13  C   UNL     1       0.547 -21.295  16.493  1.00  0.00    -0.000 C 
BRANCH  13  14
ATOM     14  C   UNL     1      -0.965 -21.469  16.726  1.00  0.00    -0.000 C 
BRANCH  14  15
ATOM     15  C   UNL     1      -1.538 -22.718  16.040  1.00  0.00    -0.000 C 
BRANCH  15  16
ATOM     16  C   UNL     1      -2.995 -22.495  15.620  1.00  0.00    -0.000 C 
BRANCH  16  17
ATOM     17  C   UNL     1      -3.962 -23.125  16.629  1.00  0.00    -0.000 C 
BRANCH  17  18
ATOM     18  C   UNL     1      -5.160 -22.205  16.893  1.00  0.00    -0.003 C 
ATOM     19  C   UNL     1      -6.447 -22.801  16.332  1.00  0.00     0.004 C 
ENDBRANCH  17  18
ENDBRANCH  16  17
ENDBRANCH  15  16
ENDBRANCH  14  15
ENDBRANCH  13  14
ENDBRANCH  12  13
ENDBRANCH   1  12
TORSDOF 14
ENDMDL
MODEL 7
REMARK VINA RESULT:    -0.141      1.864      3.448
REMARK INTER + INTRA:          -0.658
REMARK INTER:                  -1.164
REMARK INTRA:                   0.506
REMARK UNBOUND:                -0.401
REMARK SMILES CCCCCCCCCCCCCC[C@@H](C)C(=O)[O-]
REMARK SMILES IDX 9 1 10 2 11 3 12 4 13 5 14 6 15 7 16 8 17 9 18 10 19 11 8 12
REMARK SMILES IDX 7 13 6 14 5 15 4 16 3 17 2 18 1 19
REMARK H PARENT
REMARK Flexibility Score: inf
ROOT
ATOM      1  C   UNL     1      -4.528 -21.826  16.730  1.00  0.00     0.000 C 
ENDROOT
BRANCH   1   2
ATOM      2  C   UNL     1      -3.469 -22.914  16.940  1.00  0.00     0.000 C 
BRANCH   2   3
ATOM      3  C   UNL     1      -2.544 -23.024  15.717  1.00  0.00     0.000 C 
BRANCH   3   4
ATOM      4  C   UNL     1      -1.469 -21.925  15.691  1.00  0.00     0.000 C 
BRANCH   4   5
ATOM      5  C   UNL     1      -0.083 -22.450  16.098  1.00  0.00     0.001 C 
BRANCH   5   6
ATOM      6  C   UNL     1       0.690 -23.125  14.944  1.00  0.00     0.009 C 
BRANCH   6   7
ATOM      7  C   UNL     1       2.239 -23.089  15.009  1.00  0.00     0.032 C 
ATOM      8  C   UNL     1       2.891 -22.728  13.666  1.00  0.00     0.014 C 
BRANCH   7   9
ATOM      9  C   UNL     1       2.756 -22.232  16.136  1.00  0.00     0.044 C 
ATOM     10  O   UNL     1       3.917 -22.422  16.585  1.00  0.00    -0.550 OA
ATOM     11  O   UNL     1       1.948 -21.266  16.724  1.00  0.00    -0.550 OA
ENDBRANCH   7   9
ENDBRANCH   6   7
ENDBRANCH   5   6
ENDBRANCH   4   5
ENDBRANCH   3   4
ENDBRANCH   2   3
ENDBRANCH   1   2
BRANCH   1  12
ATOM     12  C   UNL     1      -5.887 -22.442  16.365  1.00  0.00     0.000 C 
BRANCH  12  13
ATOM     13  C   UNL     1      -6.593 -23.096  17.567  1.00  0.00    -0.000 C 
BRANCH  13  14
ATOM     14  C   UNL     1      -8.128 -22.967  17.569  1.00  0.00    -0.000 C 
BRANCH  14  15
ATOM     15  C   UNL     1      -8.612 -21.569  17.154  1.00  0.00    -0.000 C 
BRANCH  15  16
ATOM     16  C   UNL     1     -10.118 -21.573  16.865  1.00  0.00    -0.000 C 
BRANCH  16  17
ATOM     17  C   UNL     1     -10.556 -20.260  16.205  1.00  0.00    -0.000 C 
BRANCH  17  18
ATOM     18  C   UNL     1     -10.715 -20.433  14.690  1.00  0.00    -0.003 C 
ATOM     19  C   UNL     1      -9.395 -20.186  13.965  1.00  0.00     0.004 C 
ENDBRANCH  17  18
ENDBRANCH  16  17
ENDBRANCH  15  16
ENDBRANCH  14  15
ENDBRANCH  13  14
ENDBRANCH  12  13
ENDBRANCH   1  12
TORSDOF 14
ENDMDL
