MODEL 1
REMARK VINA RESULT:    -5.576      0.000      0.000
REMARK INTER + INTRA:          -7.497
REMARK INTER:                  -7.042
REMARK INTRA:                  -0.455
REMARK UNBOUND:                -0.455
REMARK SMILES CC(C)=CCCC(C)=CCO
REMARK SMILES IDX 7 1 9 2 8 3 6 4 5 5 4 6 1 7 2 8 3 9 10 10 11 11
REMARK H PARENT 11 12
REMARK Flexibility Score: inf
ROOT
ATOM      1  C   UNL     1      13.723  22.515  22.594  1.00  0.00    -0.075 C 
ATOM      2  C   UNL     1      14.424  22.938  21.519  1.00  0.00    -0.000 C 
ATOM      3  C   UNL     1      12.221  22.636  22.564  1.00  0.00     0.039 C 
ENDROOT
BRANCH   1   4
ATOM      4  C   UNL     1      14.377  21.865  23.797  1.00  0.00     0.034 C 
BRANCH   4   5
ATOM      5  C   UNL     1      13.420  21.853  24.994  1.00  0.00     0.032 C 
BRANCH   5   6
ATOM      6  C   UNL     1      14.056  22.483  26.210  1.00  0.00    -0.028 C 
ATOM      7  C   UNL     1      14.696  24.335  27.696  1.00  0.00     0.039 C 
ATOM      8  C   UNL     1      14.030  23.810  26.450  1.00  0.00    -0.080 C 
ATOM      9  C   UNL     1      13.353  24.772  25.502  1.00  0.00     0.039 C 
ENDBRANCH   5   6
ENDBRANCH   4   5
ENDBRANCH   1   4
BRANCH   2  10
ATOM     10  C   UNL     1      15.925  22.873  21.399  1.00  0.00     0.183 C 
BRANCH  10  11
ATOM     11  O   UNL     1      16.299  22.498  20.101  1.00  0.00    -0.392 OA
ATOM     12  H   UNL     1      16.596  21.551  20.154  1.00  0.00     0.210 HD
ENDBRANCH  10  11
ENDBRANCH   2  10
TORSDOF 5
ENDMDL
MODEL 2
REMARK VINA RESULT:    -5.113      1.863      4.561
REMARK INTER + INTRA:          -6.912
REMARK INTER:                  -6.505
REMARK INTRA:                  -0.407
REMARK UNBOUND:                -0.455
REMARK SMILES CC(C)=CCCC(C)=CCO
REMARK SMILES IDX 7 1 9 2 8 3 6 4 5 5 4 6 1 7 2 8 3 9 10 10 11 11
REMARK H PARENT 11 12
REMARK Flexibility Score: inf
ROOT
ATOM      1  C   UNL     1      14.177  22.507  23.347  1.00  0.00    -0.075 C 
ATOM      2  C   UNL     1      15.199  22.195  22.519  1.00  0.00    -0.000 C 
ATOM      3  C   UNL     1      14.063  21.769  24.655  1.00  0.00     0.039 C 
ENDROOT
BRANCH   1   4
ATOM      4  C   UNL     1      13.184  23.613  23.046  1.00  0.00     0.034 C 
BRANCH   4   5
ATOM      5  C   UNL     1      11.759  23.055  22.966  1.00  0.00     0.032 C 
BRANCH   5   6
ATOM      6  C   UNL     1      11.331  22.849  21.533  1.00  0.00    -0.028 C 
ATOM      7  C   UNL     1      10.183  21.709  19.681  1.00  0.00     0.039 C 
ATOM      8  C   UNL     1      10.553  21.820  21.138  1.00  0.00    -0.080 C 
ATOM      9  C   UNL     1      10.051  20.786  22.118  1.00  0.00     0.039 C 
ENDBRANCH   5   6
ENDBRANCH   4   5
ENDBRANCH   1   4
BRANCH   2  10
ATOM     10  C   UNL     1      15.448  22.852  21.186  1.00  0.00     0.183 C 
BRANCH  10  11
ATOM     11  O   UNL     1      16.460  22.180  20.488  1.00  0.00    -0.392 OA
ATOM     12  H   UNL     1      16.503  21.261  20.863  1.00  0.00     0.210 HD
ENDBRANCH  10  11
ENDBRANCH   2  10
TORSDOF 5
ENDMDL
MODEL 3
REMARK VINA RESULT:    -4.983      1.878      2.991
REMARK INTER + INTRA:          -6.749
REMARK INTER:                  -6.526
REMARK INTRA:                  -0.223
REMARK UNBOUND:                -0.455
REMARK SMILES CC(C)=CCCC(C)=CCO
REMARK SMILES IDX 7 1 9 2 8 3 6 4 5 5 4 6 1 7 2 8 3 9 10 10 11 11
REMARK H PARENT 11 12
REMARK Flexibility Score: inf
ROOT
ATOM      1  C   UNL     1      14.236  22.569  23.435  1.00  0.00    -0.075 C 
ATOM      2  C   UNL     1      15.136  22.320  22.458  1.00  0.00    -0.000 C 
ATOM      3  C   UNL     1      14.365  21.822  24.737  1.00  0.00     0.039 C 
ENDROOT
BRANCH   1   4
ATOM      4  C   UNL     1      13.147  23.616  23.301  1.00  0.00     0.034 C 
BRANCH   4   5
ATOM      5  C   UNL     1      13.038  24.451  24.581  1.00  0.00     0.032 C 
BRANCH   5   6
ATOM      6  C   UNL     1      12.268  25.727  24.339  1.00  0.00    -0.028 C 
ATOM      7  C   UNL     1      10.642  27.495  24.866  1.00  0.00     0.039 C 
ATOM      8  C   UNL     1      11.354  26.211  25.206  1.00  0.00    -0.080 C 
ATOM      9  C   UNL     1      11.034  25.497  26.498  1.00  0.00     0.039 C 
ENDBRANCH   5   6
ENDBRANCH   4   5
ENDBRANCH   1   4
BRANCH   2  10
ATOM     10  C   UNL     1      15.141  22.993  21.110  1.00  0.00     0.183 C 
BRANCH  10  11
ATOM     11  O   UNL     1      16.250  22.582  20.358  1.00  0.00    -0.392 OA
ATOM     12  H   UNL     1      15.896  22.231  19.499  1.00  0.00     0.210 HD
ENDBRANCH  10  11
ENDBRANCH   2  10
TORSDOF 5
ENDMDL
MODEL 4
REMARK VINA RESULT:    -4.974      6.825      9.034
REMARK INTER + INTRA:          -6.737
REMARK INTER:                  -5.884
REMARK INTRA:                  -0.853
REMARK UNBOUND:                -0.455
REMARK SMILES CC(C)=CCCC(C)=CCO
REMARK SMILES IDX 7 1 9 2 8 3 6 4 5 5 4 6 1 7 2 8 3 9 10 10 11 11
REMARK H PARENT 11 12
REMARK Flexibility Score: inf
ROOT
ATOM      1  C   UNL     1       7.968  19.737  18.492  1.00  0.00    -0.075 C 
ATOM      2  C   UNL     1       9.222  19.771  18.996  1.00  0.00    -0.000 C 
ATOM      3  C   UNL     1       7.627  18.663  17.492  1.00  0.00     0.039 C 
ENDROOT
BRANCH   1   4
ATOM      4  C   UNL     1       6.877  20.688  18.941  1.00  0.00     0.034 C 
BRANCH   4   5
ATOM      5  C   UNL     1       6.571  21.716  17.846  1.00  0.00     0.032 C 
BRANCH   5   6
ATOM      6  C   UNL     1       7.386  22.974  18.032  1.00  0.00    -0.028 C 
ATOM      7  C   UNL     1       9.173  24.580  17.513  1.00  0.00     0.039 C 
ATOM      8  C   UNL     1       8.427  23.299  17.239  1.00  0.00    -0.080 C 
ATOM      9  C   UNL     1       8.857  22.413  16.093  1.00  0.00     0.039 C 
ENDBRANCH   5   6
ENDBRANCH   4   5
ENDBRANCH   1   4
BRANCH   2  10
ATOM     10  C   UNL     1       9.708  20.775  20.008  1.00  0.00     0.183 C 
BRANCH  10  11
ATOM     11  O   UNL     1      10.647  21.641  19.431  1.00  0.00    -0.392 OA
ATOM     12  H   UNL     1      10.995  21.183  18.621  1.00  0.00     0.210 HD
ENDBRANCH  10  11
ENDBRANCH   2  10
TORSDOF 5
ENDMDL
MODEL 5
REMARK VINA RESULT:    -4.925      1.501      2.392
REMARK INTER + INTRA:          -6.675
REMARK INTER:                  -6.277
REMARK INTRA:                  -0.398
REMARK UNBOUND:                -0.455
REMARK SMILES CC(C)=CCCC(C)=CCO
REMARK SMILES IDX 7 1 9 2 8 3 6 4 5 5 4 6 1 7 2 8 3 9 10 10 11 11
REMARK H PARENT 11 12
REMARK Flexibility Score: inf
ROOT
ATOM      1  C   UNL     1      11.697  22.809  21.290  1.00  0.00    -0.075 C 
ATOM      2  C   UNL     1      12.849  22.948  20.596  1.00  0.00    -0.000 C 
ATOM      3  C   UNL     1      10.475  22.318  20.558  1.00  0.00     0.039 C 
ENDROOT
BRANCH   1   4
ATOM      4  C   UNL     1      11.601  23.060  22.782  1.00  0.00     0.034 C 
BRANCH   4   5
ATOM      5  C   UNL     1      11.904  21.779  23.566  1.00  0.00     0.032 C 
BRANCH   5   6
ATOM      6  C   UNL     1      12.376  22.093  24.967  1.00  0.00    -0.028 C 
ATOM      7  C   UNL     1      14.035  22.378  26.759  1.00  0.00     0.039 C 
ATOM      8  C   UNL     1      13.673  22.044  25.334  1.00  0.00    -0.080 C 
ATOM      9  C   UNL     1      14.759  21.664  24.355  1.00  0.00     0.039 C 
ENDBRANCH   5   6
ENDBRANCH   4   5
ENDBRANCH   1   4
BRANCH   2  10
ATOM     10  C   UNL     1      14.152  23.418  21.191  1.00  0.00     0.183 C 
BRANCH  10  11
ATOM     11  O   UNL     1      15.236  22.813  20.541  1.00  0.00    -0.392 OA
ATOM     12  H   UNL     1      15.928  22.649  21.235  1.00  0.00     0.210 HD
ENDBRANCH  10  11
ENDBRANCH   2  10
TORSDOF 5
ENDMDL
MODEL 6
REMARK VINA RESULT:    -4.890      3.163      5.220
REMARK INTER + INTRA:          -6.631
REMARK INTER:                  -6.059
REMARK INTRA:                  -0.572
REMARK UNBOUND:                -0.455
REMARK SMILES CC(C)=CCCC(C)=CCO
REMARK SMILES IDX 7 1 9 2 8 3 6 4 5 5 4 6 1 7 2 8 3 9 10 10 11 11
REMARK H PARENT 11 12
REMARK Flexibility Score: inf
ROOT
ATOM      1  C   UNL     1      12.904  23.822  25.918  1.00  0.00    -0.075 C 
ATOM      2  C   UNL     1      11.773  23.814  26.658  1.00  0.00    -0.000 C 
ATOM      3  C   UNL     1      13.212  25.044  25.092  1.00  0.00     0.039 C 
ENDROOT
BRANCH   1   4
ATOM      4  C   UNL     1      13.906  22.684  25.937  1.00  0.00     0.034 C 
BRANCH   4   5
ATOM      5  C   UNL     1      13.698  21.759  24.733  1.00  0.00     0.032 C 
BRANCH   5   6
ATOM      6  C   UNL     1      14.793  21.939  23.709  1.00  0.00    -0.028 C 
ATOM      7  C   UNL     1      15.744  22.611  21.543  1.00  0.00     0.039 C 
ATOM      8  C   UNL     1      14.579  22.477  22.490  1.00  0.00    -0.080 C 
ATOM      9  C   UNL     1      13.208  22.942  22.060  1.00  0.00     0.039 C 
ENDBRANCH   5   6
ENDBRANCH   4   5
ENDBRANCH   1   4
BRANCH   2  10
ATOM     10  C   UNL     1      11.337  22.671  27.538  1.00  0.00     0.183 C 
BRANCH  10  11
ATOM     11  O   UNL     1       9.976  22.395  27.348  1.00  0.00    -0.392 OA
ATOM     12  H   UNL     1       9.836  21.452  27.626  1.00  0.00     0.210 HD
ENDBRANCH  10  11
ENDBRANCH   2  10
TORSDOF 5
ENDMDL
MODEL 7
REMARK VINA RESULT:    -4.886      3.089      6.001
REMARK INTER + INTRA:          -6.626
REMARK INTER:                  -6.370
REMARK INTRA:                  -0.256
REMARK UNBOUND:                -0.455
REMARK SMILES CC(C)=CCCC(C)=CCO
REMARK SMILES IDX 7 1 9 2 8 3 6 4 5 5 4 6 1 7 2 8 3 9 10 10 11 11
REMARK H PARENT 11 12
REMARK Flexibility Score: inf
ROOT
ATOM      1  C   UNL     1      13.081  22.558  22.195  1.00  0.00    -0.075 C 
ATOM      2  C   UNL     1      14.419  22.655  22.365  1.00  0.00    -0.000 C 
ATOM      3  C   UNL     1      12.239  22.128  23.368  1.00  0.00     0.039 C 
ENDROOT
BRANCH   1   4
ATOM      4  C   UNL     1      12.388  22.929  20.899  1.00  0.00     0.034 C 
BRANCH   4   5
ATOM      5  C   UNL     1      10.978  22.331  20.848  1.00  0.00     0.032 C 
BRANCH   5   6
ATOM      6  C   UNL     1      10.316  22.603  19.518  1.00  0.00    -0.028 C 
ATOM      7  C   UNL     1       9.048  22.030  17.490  1.00  0.00     0.039 C 
ATOM      8  C   UNL     1       9.676  21.651  18.807  1.00  0.00    -0.080 C 
ATOM      9  C   UNL     1       9.577  20.227  19.301  1.00  0.00     0.039 C 
ENDBRANCH   5   6
ENDBRANCH   4   5
ENDBRANCH   1   4
BRANCH   2  10
ATOM     10  C   UNL     1      15.386  23.080  21.291  1.00  0.00     0.183 C 
BRANCH  10  11
ATOM     11  O   UNL     1      16.291  22.049  21.007  1.00  0.00    -0.392 OA
ATOM     12  H   UNL     1      17.177  22.477  20.869  1.00  0.00     0.210 HD
ENDBRANCH  10  11
ENDBRANCH   2  10
TORSDOF 5
ENDMDL
MODEL 8
REMARK VINA RESULT:    -4.792      2.100      4.854
REMARK INTER + INTRA:          -6.507
REMARK INTER:                  -6.221
REMARK INTRA:                  -0.285
REMARK UNBOUND:                -0.455
REMARK SMILES CC(C)=CCCC(C)=CCO
REMARK SMILES IDX 7 1 9 2 8 3 6 4 5 5 4 6 1 7 2 8 3 9 10 10 11 11
REMARK H PARENT 11 12
REMARK Flexibility Score: inf
ROOT
ATOM      1  C   UNL     1      13.774  22.958  26.818  1.00  0.00    -0.075 C 
ATOM      2  C   UNL     1      13.499  24.280  26.742  1.00  0.00    -0.000 C 
ATOM      3  C   UNL     1      14.548  22.455  28.008  1.00  0.00     0.039 C 
ENDROOT
BRANCH   1   4
ATOM      4  C   UNL     1      13.278  21.956  25.795  1.00  0.00     0.034 C 
BRANCH   4   5
ATOM      5  C   UNL     1      14.273  21.828  24.637  1.00  0.00     0.032 C 
BRANCH   5   6
ATOM      6  C   UNL     1      13.706  22.403  23.361  1.00  0.00    -0.028 C 
ATOM      7  C   UNL     1      13.758  23.103  21.004  1.00  0.00     0.039 C 
ATOM      8  C   UNL     1      14.422  22.514  22.222  1.00  0.00    -0.080 C 
ATOM      9  C   UNL     1      15.862  22.064  22.146  1.00  0.00     0.039 C 
ENDBRANCH   5   6
ENDBRANCH   4   5
ENDBRANCH   1   4
BRANCH   2  10
ATOM     10  C   UNL     1      12.728  24.928  25.621  1.00  0.00     0.183 C 
BRANCH  10  11
ATOM     11  O   UNL     1      13.603  25.531  24.707  1.00  0.00    -0.392 OA
ATOM     12  H   UNL     1      13.673  24.914  23.931  1.00  0.00     0.210 HD
ENDBRANCH  10  11
ENDBRANCH   2  10
TORSDOF 5
ENDMDL
MODEL 9
REMARK VINA RESULT:    -4.726      3.252      5.059
REMARK INTER + INTRA:          -6.424
REMARK INTER:                  -6.067
REMARK INTRA:                  -0.356
REMARK UNBOUND:                -0.455
REMARK SMILES CC(C)=CCCC(C)=CCO
REMARK SMILES IDX 7 1 9 2 8 3 6 4 5 5 4 6 1 7 2 8 3 9 10 10 11 11
REMARK H PARENT 11 12
REMARK Flexibility Score: inf
ROOT
ATOM      1  C   UNL     1       9.930  21.548  21.019  1.00  0.00    -0.075 C 
ATOM      2  C   UNL     1       9.735  21.467  19.684  1.00  0.00    -0.000 C 
ATOM      3  C   UNL     1       9.832  20.287  21.837  1.00  0.00     0.039 C 
ENDROOT
BRANCH   1   4
ATOM      4  C   UNL     1      10.310  22.840  21.716  1.00  0.00     0.034 C 
BRANCH   4   5
ATOM      5  C   UNL     1      11.578  22.650  22.554  1.00  0.00     0.032 C 
BRANCH   5   6
ATOM      6  C   UNL     1      12.819  22.939  21.743  1.00  0.00    -0.028 C 
ATOM      7  C   UNL     1      15.237  23.026  21.305  1.00  0.00     0.039 C 
ATOM      8  C   UNL     1      14.067  22.701  22.198  1.00  0.00    -0.080 C 
ATOM      9  C   UNL     1      14.312  22.120  23.571  1.00  0.00     0.039 C 
ENDBRANCH   5   6
ENDBRANCH   4   5
ENDBRANCH   1   4
BRANCH   2  10
ATOM     10  C   UNL     1       9.810  22.636  18.737  1.00  0.00     0.183 C 
BRANCH  10  11
ATOM     11  O   UNL     1       9.569  22.220  17.421  1.00  0.00    -0.392 OA
ATOM     12  H   UNL     1       9.552  21.227  17.435  1.00  0.00     0.210 HD
ENDBRANCH  10  11
ENDBRANCH   2  10
TORSDOF 5
ENDMDL
