MODEL 1
REMARK VINA RESULT:    -6.201      0.000      0.000
REMARK INTER + INTRA:          -7.900
REMARK INTER:                  -7.470
REMARK INTRA:                  -0.430
REMARK UNBOUND:                -0.430
REMARK SMILES O=c1c(O)c(-c2ccc(O)cc2O)oc2cc(O)cc(O)c12
REMARK SMILES IDX 5 1 3 2 2 3 1 4 22 5 20 6 19 7 17 8 16 9 15 10 14 11 6 12
REMARK SMILES IDX 8 13 7 14 9 15 11 16 12 17 10 18 13 20 4 22 21 24 18 26
REMARK H PARENT 10 19 13 21 4 23 21 25 18 27
REMARK Flexibility Score: inf
ROOT
ATOM      1  C   UNL     1      17.642 -14.604  24.779  1.00  0.00     0.184 A 
ATOM      2  C   UNL     1      18.500 -13.504  24.973  1.00  0.00     0.208 A 
ATOM      3  C   UNL     1      18.205 -12.585  25.992  1.00  0.00     0.238 A 
ATOM      4  O   UNL     1      18.962 -11.592  26.168  1.00  0.00    -0.285 OA
ATOM      5  C   UNL     1      17.071 -12.787  26.806  1.00  0.00     0.111 A 
ATOM      6  C   UNL     1      16.707 -11.910  27.856  1.00  0.00     0.134 A 
ATOM      7  C   UNL     1      15.568 -12.185  28.627  1.00  0.00     0.093 A 
ATOM      8  C   UNL     1      14.789 -13.316  28.371  1.00  0.00     0.123 A 
ATOM      9  C   UNL     1      15.145 -14.187  27.335  1.00  0.00     0.094 A 
ATOM     10  C   UNL     1      16.275 -13.929  26.554  1.00  0.00     0.146 A 
ATOM     11  O   UNL     1      16.588 -14.769  25.574  1.00  0.00    -0.451 OA
ENDROOT
BRANCH   1  12
ATOM     12  C   UNL     1      17.882 -15.603  23.712  1.00  0.00     0.063 A 
ATOM     13  C   UNL     1      19.127 -17.506  22.844  1.00  0.00     0.047 A 
ATOM     14  C   UNL     1      18.882 -16.580  23.862  1.00  0.00     0.020 A 
ATOM     15  C   UNL     1      18.385 -17.462  21.659  1.00  0.00     0.119 A 
ATOM     16  C   UNL     1      17.397 -16.486  21.496  1.00  0.00     0.093 A 
ATOM     17  C   UNL     1      17.143 -15.554  22.512  1.00  0.00     0.130 A 
BRANCH  15  18
ATOM     18  O   UNL     1      18.621 -18.378  20.638  1.00  0.00    -0.508 OA
ATOM     19  H   UNL     1      19.523 -18.439  20.179  1.00  0.00     0.293 HD
ENDBRANCH  15  18
BRANCH  17  20
ATOM     20  O   UNL     1      16.151 -14.589  22.338  1.00  0.00    -0.507 OA
ATOM     21  H   UNL     1      16.274 -13.635  22.658  1.00  0.00     0.293 HD
ENDBRANCH  17  20
ENDBRANCH   1  12
BRANCH   2  22
ATOM     22  O   UNL     1      19.637 -13.352  24.176  1.00  0.00    -0.502 OA
ATOM     23  H   UNL     1      19.607 -12.898  23.271  1.00  0.00     0.293 HD
ENDBRANCH   2  22
BRANCH   6  24
ATOM     24  O   UNL     1      17.464 -10.773  28.138  1.00  0.00    -0.507 OA
ATOM     25  H   UNL     1      18.260 -10.508  27.570  1.00  0.00     0.293 HD
ENDBRANCH   6  24
BRANCH   8  26
ATOM     26  O   UNL     1      13.664 -13.567  29.152  1.00  0.00    -0.508 OA
ATOM     27  H   UNL     1      13.427 -14.504  29.457  1.00  0.00     0.293 HD
ENDBRANCH   8  26
TORSDOF 6
ENDMDL
MODEL 2
REMARK VINA RESULT:    -6.187      1.382      3.083
REMARK INTER + INTRA:          -7.883
REMARK INTER:                  -7.415
REMARK INTRA:                  -0.468
REMARK UNBOUND:                -0.430
REMARK SMILES O=c1c(O)c(-c2ccc(O)cc2O)oc2cc(O)cc(O)c12
REMARK SMILES IDX 5 1 3 2 2 3 1 4 22 5 20 6 19 7 17 8 16 9 15 10 14 11 6 12
REMARK SMILES IDX 8 13 7 14 9 15 11 16 12 17 10 18 13 20 4 22 21 24 18 26
REMARK H PARENT 10 19 13 21 4 23 21 25 18 27
REMARK Flexibility Score: inf
ROOT
ATOM      1  C   UNL     1      17.821 -14.300  25.009  1.00  0.00     0.184 A 
ATOM      2  C   UNL     1      16.886 -14.477  26.047  1.00  0.00     0.208 A 
ATOM      3  C   UNL     1      16.728 -13.459  26.999  1.00  0.00     0.238 A 
ATOM      4  O   UNL     1      15.899 -13.612  27.938  1.00  0.00    -0.285 OA
ATOM      5  C   UNL     1      17.492 -12.279  26.892  1.00  0.00     0.111 A 
ATOM      6  C   UNL     1      17.391 -11.205  27.807  1.00  0.00     0.134 A 
ATOM      7  C   UNL     1      18.181 -10.060  27.626  1.00  0.00     0.093 A 
ATOM      8  C   UNL     1      19.068  -9.969  26.551  1.00  0.00     0.123 A 
ATOM      9  C   UNL     1      19.173 -11.027  25.642  1.00  0.00     0.094 A 
ATOM     10  C   UNL     1      18.394 -12.177  25.806  1.00  0.00     0.146 A 
ATOM     11  O   UNL     1      18.516 -13.169  24.932  1.00  0.00    -0.451 OA
ENDROOT
BRANCH   1  12
ATOM     12  C   UNL     1      18.052 -15.340  23.981  1.00  0.00     0.063 A 
ATOM     13  C   UNL     1      19.147 -17.393  23.264  1.00  0.00     0.047 A 
ATOM     14  C   UNL     1      18.906 -16.425  24.244  1.00  0.00     0.020 A 
ATOM     15  C   UNL     1      18.546 -17.284  22.005  1.00  0.00     0.119 A 
ATOM     16  C   UNL     1      17.706 -16.201  21.730  1.00  0.00     0.093 A 
ATOM     17  C   UNL     1      17.458 -15.227  22.707  1.00  0.00     0.130 A 
BRANCH  15  18
ATOM     18  O   UNL     1      18.779 -18.241  21.021  1.00  0.00    -0.508 OA
ATOM     19  H   UNL     1      19.710 -18.598  20.840  1.00  0.00     0.293 HD
ENDBRANCH  15  18
BRANCH  17  20
ATOM     20  O   UNL     1      16.612 -14.155  22.420  1.00  0.00    -0.507 OA
ATOM     21  H   UNL     1      16.354 -13.921  21.468  1.00  0.00     0.293 HD
ENDBRANCH  17  20
ENDBRANCH   1  12
BRANCH   2  22
ATOM     22  O   UNL     1      16.113 -15.641  26.106  1.00  0.00    -0.502 OA
ATOM     23  H   UNL     1      16.058 -16.293  25.333  1.00  0.00     0.293 HD
ENDBRANCH   2  22
BRANCH   6  24
ATOM     24  O   UNL     1      16.514 -11.265  28.891  1.00  0.00    -0.507 OA
ATOM     25  H   UNL     1      16.840 -11.169  29.846  1.00  0.00     0.293 HD
ENDBRANCH   6  24
BRANCH   8  26
ATOM     26  O   UNL     1      19.840  -8.820  26.394  1.00  0.00    -0.508 OA
ATOM     27  H   UNL     1      19.422  -7.897  26.385  1.00  0.00     0.293 HD
ENDBRANCH   8  26
TORSDOF 6
ENDMDL
MODEL 3
REMARK VINA RESULT:    -6.044      2.470      4.197
REMARK INTER + INTRA:          -7.710
REMARK INTER:                  -7.275
REMARK INTRA:                  -0.435
REMARK UNBOUND:                -0.430
REMARK SMILES O=c1c(O)c(-c2ccc(O)cc2O)oc2cc(O)cc(O)c12
REMARK SMILES IDX 5 1 3 2 2 3 1 4 22 5 20 6 19 7 17 8 16 9 15 10 14 11 6 12
REMARK SMILES IDX 8 13 7 14 9 15 11 16 12 17 10 18 13 20 4 22 21 24 18 26
REMARK H PARENT 10 19 13 21 4 23 21 25 18 27
REMARK Flexibility Score: inf
ROOT
ATOM      1  C   UNL     1      19.474 -13.929  24.446  1.00  0.00     0.184 A 
ATOM      2  C   UNL     1      18.357 -13.225  24.935  1.00  0.00     0.208 A 
ATOM      3  C   UNL     1      18.562 -12.166  25.833  1.00  0.00     0.238 A 
ATOM      4  O   UNL     1      17.567 -11.534  26.284  1.00  0.00    -0.285 OA
ATOM      5  C   UNL     1      19.874 -11.819  26.215  1.00  0.00     0.111 A 
ATOM      6  C   UNL     1      20.167 -10.764  27.111  1.00  0.00     0.134 A 
ATOM      7  C   UNL     1      21.501 -10.475  27.434  1.00  0.00     0.093 A 
ATOM      8  C   UNL     1      22.546 -11.220  26.881  1.00  0.00     0.123 A 
ATOM      9  C   UNL     1      22.263 -12.264  25.994  1.00  0.00     0.094 A 
ATOM     10  C   UNL     1      20.940 -12.567  25.660  1.00  0.00     0.146 A 
ATOM     11  O   UNL     1      20.699 -13.567  24.819  1.00  0.00    -0.451 OA
ENDROOT
BRANCH   1  12
ATOM     12  C   UNL     1      19.331 -15.068  23.511  1.00  0.00     0.063 A 
ATOM     13  C   UNL     1      19.023 -17.450  23.119  1.00  0.00     0.047 A 
ATOM     14  C   UNL     1      19.131 -16.371  24.000  1.00  0.00     0.020 A 
ATOM     15  C   UNL     1      19.124 -17.245  21.738  1.00  0.00     0.119 A 
ATOM     16  C   UNL     1      19.337 -15.955  21.244  1.00  0.00     0.093 A 
ATOM     17  C   UNL     1      19.445 -14.866  22.120  1.00  0.00     0.130 A 
BRANCH  15  18
ATOM     18  O   UNL     1      19.019 -18.313  20.851  1.00  0.00    -0.508 OA
ATOM     19  H   UNL     1      19.357 -19.238  21.093  1.00  0.00     0.293 HD
ENDBRANCH  15  18
BRANCH  17  20
ATOM     20  O   UNL     1      19.651 -13.583  21.612  1.00  0.00    -0.507 OA
ATOM     21  H   UNL     1      20.205 -12.896  22.112  1.00  0.00     0.293 HD
ENDBRANCH  17  20
ENDBRANCH   1  12
BRANCH   2  22
ATOM     22  O   UNL     1      17.070 -13.565  24.509  1.00  0.00    -0.502 OA
ATOM     23  H   UNL     1      16.885 -14.392  23.953  1.00  0.00     0.293 HD
ENDBRANCH   2  22
BRANCH   6  24
ATOM     24  O   UNL     1      19.147 -10.001  27.681  1.00  0.00    -0.507 OA
ATOM     25  H   UNL     1      19.229  -9.612  28.612  1.00  0.00     0.293 HD
ENDBRANCH   6  24
BRANCH   8  26
ATOM     26  O   UNL     1      23.862 -10.912  27.217  1.00  0.00    -0.508 OA
ATOM     27  H   UNL     1      24.364 -11.436  27.925  1.00  0.00     0.293 HD
ENDBRANCH   8  26
TORSDOF 6
ENDMDL
MODEL 4
REMARK VINA RESULT:    -6.009      4.836      7.731
REMARK INTER + INTRA:          -7.668
REMARK INTER:                  -7.195
REMARK INTRA:                  -0.473
REMARK UNBOUND:                -0.430
REMARK SMILES O=c1c(O)c(-c2ccc(O)cc2O)oc2cc(O)cc(O)c12
REMARK SMILES IDX 5 1 3 2 2 3 1 4 22 5 20 6 19 7 17 8 16 9 15 10 14 11 6 12
REMARK SMILES IDX 8 13 7 14 9 15 11 16 12 17 10 18 13 20 4 22 21 24 18 26
REMARK H PARENT 10 19 13 21 4 23 21 25 18 27
REMARK Flexibility Score: inf
ROOT
ATOM      1  C   UNL     1      12.962 -12.957  24.412  1.00  0.00     0.184 A 
ATOM      2  C   UNL     1      11.599 -12.709  24.660  1.00  0.00     0.208 A 
ATOM      3  C   UNL     1      10.731 -12.540  23.570  1.00  0.00     0.238 A 
ATOM      4  O   UNL     1       9.509 -12.308  23.781  1.00  0.00    -0.285 OA
ATOM      5  C   UNL     1      11.235 -12.635  22.257  1.00  0.00     0.111 A 
ATOM      6  C   UNL     1      10.426 -12.480  21.105  1.00  0.00     0.134 A 
ATOM      7  C   UNL     1      11.002 -12.598  19.831  1.00  0.00     0.093 A 
ATOM      8  C   UNL     1      12.366 -12.866  19.687  1.00  0.00     0.123 A 
ATOM      9  C   UNL     1      13.169 -13.021  20.821  1.00  0.00     0.094 A 
ATOM     10  C   UNL     1      12.614 -12.906  22.099  1.00  0.00     0.146 A 
ATOM     11  O   UNL     1      13.400 -13.052  23.160  1.00  0.00    -0.451 OA
ENDROOT
BRANCH   1  12
ATOM     12  C   UNL     1      13.938 -13.128  25.514  1.00  0.00     0.063 A 
ATOM     13  C   UNL     1      15.422 -12.167  27.187  1.00  0.00     0.047 A 
ATOM     14  C   UNL     1      14.481 -12.007  26.165  1.00  0.00     0.020 A 
ATOM     15  C   UNL     1      15.841 -13.448  27.563  1.00  0.00     0.119 A 
ATOM     16  C   UNL     1      15.316 -14.567  26.912  1.00  0.00     0.093 A 
ATOM     17  C   UNL     1      14.371 -14.417  25.888  1.00  0.00     0.130 A 
BRANCH  15  18
ATOM     18  O   UNL     1      16.778 -13.618  28.578  1.00  0.00    -0.508 OA
ATOM     19  H   UNL     1      17.098 -14.539  28.855  1.00  0.00     0.293 HD
ENDBRANCH  15  18
BRANCH  17  20
ATOM     20  O   UNL     1      13.851 -15.544  25.251  1.00  0.00    -0.507 OA
ATOM     21  H   UNL     1      13.249 -15.466  24.438  1.00  0.00     0.293 HD
ENDBRANCH  17  20
ENDBRANCH   1  12
BRANCH   2  22
ATOM     22  O   UNL     1      11.120 -12.659  25.972  1.00  0.00    -0.502 OA
ATOM     23  H   UNL     1      11.718 -12.429  26.758  1.00  0.00     0.293 HD
ENDBRANCH   2  22
BRANCH   6  24
ATOM     24  O   UNL     1       9.062 -12.212  21.215  1.00  0.00    -0.507 OA
ATOM     25  H   UNL     1       8.510 -12.562  21.989  1.00  0.00     0.293 HD
ENDBRANCH   6  24
BRANCH   8  26
ATOM     26  O   UNL     1      12.912 -12.980  18.410  1.00  0.00    -0.508 OA
ATOM     27  H   UNL     1      13.914 -13.017  18.264  1.00  0.00     0.293 HD
ENDBRANCH   8  26
TORSDOF 6
ENDMDL
MODEL 5
REMARK VINA RESULT:    -5.957      4.670      6.311
REMARK INTER + INTRA:          -7.606
REMARK INTER:                  -7.173
REMARK INTRA:                  -0.434
REMARK UNBOUND:                -0.430
REMARK SMILES O=c1c(O)c(-c2ccc(O)cc2O)oc2cc(O)cc(O)c12
REMARK SMILES IDX 5 1 3 2 2 3 1 4 22 5 20 6 19 7 17 8 16 9 15 10 14 11 6 12
REMARK SMILES IDX 8 13 7 14 9 15 11 16 12 17 10 18 13 20 4 22 21 24 18 26
REMARK H PARENT 10 19 13 21 4 23 21 25 18 27
REMARK Flexibility Score: inf
ROOT
ATOM      1  C   UNL     1      13.853 -13.396  24.068  1.00  0.00     0.184 A 
ATOM      2  C   UNL     1      13.065 -13.103  25.198  1.00  0.00     0.208 A 
ATOM      3  C   UNL     1      11.728 -12.719  25.012  1.00  0.00     0.238 A 
ATOM      4  O   UNL     1      11.016 -12.447  26.017  1.00  0.00    -0.285 OA
ATOM      5  C   UNL     1      11.198 -12.649  23.707  1.00  0.00     0.111 A 
ATOM      6  C   UNL     1       9.861 -12.274  23.434  1.00  0.00     0.134 A 
ATOM      7  C   UNL     1       9.406 -12.236  22.107  1.00  0.00     0.093 A 
ATOM      8  C   UNL     1      10.261 -12.564  21.052  1.00  0.00     0.123 A 
ATOM      9  C   UNL     1      11.583 -12.935  21.315  1.00  0.00     0.094 A 
ATOM     10  C   UNL     1      12.055 -12.978  22.630  1.00  0.00     0.146 A 
ATOM     11  O   UNL     1      13.316 -13.330  22.853  1.00  0.00    -0.451 OA
ENDROOT
BRANCH   1  12
ATOM     12  C   UNL     1      15.275 -13.790  24.189  1.00  0.00     0.063 A 
ATOM     13  C   UNL     1      16.965 -15.443  24.768  1.00  0.00     0.047 A 
ATOM     14  C   UNL     1      15.623 -15.080  24.628  1.00  0.00     0.020 A 
ATOM     15  C   UNL     1      17.978 -14.521  24.483  1.00  0.00     0.119 A 
ATOM     16  C   UNL     1      17.641 -13.231  24.060  1.00  0.00     0.093 A 
ATOM     17  C   UNL     1      16.297 -12.858  23.914  1.00  0.00     0.130 A 
BRANCH  15  18
ATOM     18  O   UNL     1      19.318 -14.872  24.621  1.00  0.00    -0.508 OA
ATOM     19  H   UNL     1      19.715 -15.103  25.524  1.00  0.00     0.293 HD
ENDBRANCH  15  18
BRANCH  17  20
ATOM     20  O   UNL     1      15.977 -11.570  23.485  1.00  0.00    -0.507 OA
ATOM     21  H   UNL     1      15.388 -10.957  24.038  1.00  0.00     0.293 HD
ENDBRANCH  17  20
ENDBRANCH   1  12
BRANCH   2  22
ATOM     22  O   UNL     1      13.605 -13.221  26.481  1.00  0.00    -0.502 OA
ATOM     23  H   UNL     1      14.250 -13.961  26.732  1.00  0.00     0.293 HD
ENDBRANCH   2  22
BRANCH   6  24
ATOM     24  O   UNL     1       8.983 -11.941  24.466  1.00  0.00    -0.507 OA
ATOM     25  H   UNL     1       9.096 -12.310  25.403  1.00  0.00     0.293 HD
ENDBRANCH   6  24
BRANCH   8  26
ATOM     26  O   UNL     1       9.784 -12.519  19.744  1.00  0.00    -0.508 OA
ATOM     27  H   UNL     1      10.394 -12.299  18.964  1.00  0.00     0.293 HD
ENDBRANCH   8  26
TORSDOF 6
ENDMDL
MODEL 6
REMARK VINA RESULT:    -5.897      3.440      7.570
REMARK INTER + INTRA:          -7.534
REMARK INTER:                  -7.054
REMARK INTRA:                  -0.480
REMARK UNBOUND:                -0.430
REMARK SMILES O=c1c(O)c(-c2ccc(O)cc2O)oc2cc(O)cc(O)c12
REMARK SMILES IDX 5 1 3 2 2 3 1 4 22 5 20 6 19 7 17 8 16 9 15 10 14 11 6 12
REMARK SMILES IDX 8 13 7 14 9 15 11 16 12 17 10 18 13 20 4 22 21 24 18 26
REMARK H PARENT 10 19 13 21 4 23 21 25 18 27
REMARK Flexibility Score: inf
ROOT
ATOM      1  C   UNL     1      19.148 -11.149  27.674  1.00  0.00     0.184 A 
ATOM      2  C   UNL     1      20.529 -10.974  27.883  1.00  0.00     0.208 A 
ATOM      3  C   UNL     1      21.425 -11.414  26.896  1.00  0.00     0.238 A 
ATOM      4  O   UNL     1      22.666 -11.270  27.078  1.00  0.00    -0.285 OA
ATOM      5  C   UNL     1      20.929 -12.004  25.716  1.00  0.00     0.111 A 
ATOM      6  C   UNL     1      21.765 -12.469  24.673  1.00  0.00     0.134 A 
ATOM      7  C   UNL     1      21.192 -13.038  23.525  1.00  0.00     0.093 A 
ATOM      8  C   UNL     1      19.805 -13.150  23.401  1.00  0.00     0.123 A 
ATOM      9  C   UNL     1      18.974 -12.692  24.428  1.00  0.00     0.094 A 
ATOM     10  C   UNL     1      19.526 -12.123  25.580  1.00  0.00     0.146 A 
ATOM     11  O   UNL     1      18.714 -11.700  26.543  1.00  0.00    -0.451 OA
ENDROOT
BRANCH   1  12
ATOM     12  C   UNL     1      18.146 -10.726  28.680  1.00  0.00     0.063 A 
ATOM     13  C   UNL     1      16.935 -11.131  30.752  1.00  0.00     0.047 A 
ATOM     14  C   UNL     1      17.899 -11.516  29.816  1.00  0.00     0.020 A 
ATOM     15  C   UNL     1      16.197  -9.958  30.559  1.00  0.00     0.119 A 
ATOM     16  C   UNL     1      16.426  -9.174  29.426  1.00  0.00     0.093 A 
ATOM     17  C   UNL     1      17.392  -9.551  28.483  1.00  0.00     0.130 A 
BRANCH  15  18
ATOM     18  O   UNL     1      15.233  -9.566  31.485  1.00  0.00    -0.508 OA
ATOM     19  H   UNL     1      15.122  -8.596  31.756  1.00  0.00     0.293 HD
ENDBRANCH  15  18
BRANCH  17  20
ATOM     20  O   UNL     1      17.614  -8.755  27.359  1.00  0.00    -0.507 OA
ATOM     21  H   UNL     1      18.253  -9.038  26.624  1.00  0.00     0.293 HD
ENDBRANCH  17  20
ENDBRANCH   1  12
BRANCH   2  22
ATOM     22  O   UNL     1      20.991 -10.350  29.045  1.00  0.00    -0.502 OA
ATOM     23  H   UNL     1      20.738  -9.398  29.285  1.00  0.00     0.293 HD
ENDBRANCH   2  22
BRANCH   6  24
ATOM     24  O   UNL     1      23.153 -12.372  24.766  1.00  0.00    -0.507 OA
ATOM     25  H   UNL     1      23.732 -13.179  24.966  1.00  0.00     0.293 HD
ENDBRANCH   6  24
BRANCH   8  26
ATOM     26  O   UNL     1      19.263 -13.718  22.250  1.00  0.00    -0.508 OA
ATOM     27  H   UNL     1      19.326 -14.713  22.069  1.00  0.00     0.293 HD
ENDBRANCH   8  26
TORSDOF 6
ENDMDL
MODEL 7
REMARK VINA RESULT:    -5.841      3.702      5.586
REMARK INTER + INTRA:          -7.466
REMARK INTER:                  -7.083
REMARK INTRA:                  -0.383
REMARK UNBOUND:                -0.430
REMARK SMILES O=c1c(O)c(-c2ccc(O)cc2O)oc2cc(O)cc(O)c12
REMARK SMILES IDX 5 1 3 2 2 3 1 4 22 5 20 6 19 7 17 8 16 9 15 10 14 11 6 12
REMARK SMILES IDX 8 13 7 14 9 15 11 16 12 17 10 18 13 20 4 22 21 24 18 26
REMARK H PARENT 10 19 13 21 4 23 21 25 18 27
REMARK Flexibility Score: inf
ROOT
ATOM      1  C   UNL     1      16.204 -12.347  27.312  1.00  0.00     0.184 A 
ATOM      2  C   UNL     1      16.036 -12.342  28.710  1.00  0.00     0.208 A 
ATOM      3  C   UNL     1      17.096 -11.902  29.519  1.00  0.00     0.238 A 
ATOM      4  O   UNL     1      16.959 -11.902  30.773  1.00  0.00    -0.285 OA
ATOM      5  C   UNL     1      18.294 -11.463  28.920  1.00  0.00     0.111 A 
ATOM      6  C   UNL     1      19.407 -11.002  29.663  1.00  0.00     0.134 A 
ATOM      7  C   UNL     1      20.562 -10.573  28.992  1.00  0.00     0.093 A 
ATOM      8  C   UNL     1      20.626 -10.597  27.597  1.00  0.00     0.123 A 
ATOM      9  C   UNL     1      19.529 -11.051  26.856  1.00  0.00     0.094 A 
ATOM     10  C   UNL     1      18.370 -11.483  27.507  1.00  0.00     0.146 A 
ATOM     11  O   UNL     1      17.344 -11.915  26.781  1.00  0.00    -0.451 OA
ENDROOT
BRANCH   1  12
ATOM     12  C   UNL     1      15.136 -12.814  26.399  1.00  0.00     0.063 A 
ATOM     13  C   UNL     1      13.213 -12.341  24.983  1.00  0.00     0.047 A 
ATOM     14  C   UNL     1      14.239 -11.898  25.823  1.00  0.00     0.020 A 
ATOM     15  C   UNL     1      13.063 -13.706  24.715  1.00  0.00     0.119 A 
ATOM     16  C   UNL     1      13.942 -14.626  25.295  1.00  0.00     0.093 A 
ATOM     17  C   UNL     1      14.975 -14.190  26.137  1.00  0.00     0.130 A 
BRANCH  15  18
ATOM     18  O   UNL     1      12.045 -14.159  23.881  1.00  0.00    -0.508 OA
ATOM     19  H   UNL     1      11.069 -14.063  24.136  1.00  0.00     0.293 HD
ENDBRANCH  15  18
BRANCH  17  20
ATOM     20  O   UNL     1      15.848 -15.119  26.703  1.00  0.00    -0.507 OA
ATOM     21  H   UNL     1      16.489 -15.662  26.135  1.00  0.00     0.293 HD
ENDBRANCH  17  20
ENDBRANCH   1  12
BRANCH   2  22
ATOM     22  O   UNL     1      14.823 -12.745  29.274  1.00  0.00    -0.502 OA
ATOM     23  H   UNL     1      13.953 -12.258  29.092  1.00  0.00     0.293 HD
ENDBRANCH   2  22
BRANCH   6  24
ATOM     24  O   UNL     1      19.375 -10.965  31.057  1.00  0.00    -0.507 OA
ATOM     25  H   UNL     1      18.531 -11.175  31.577  1.00  0.00     0.293 HD
ENDBRANCH   6  24
BRANCH   8  26
ATOM     26  O   UNL     1      21.784 -10.165  26.955  1.00  0.00    -0.508 OA
ATOM     27  H   UNL     1      22.673 -10.634  27.092  1.00  0.00     0.293 HD
ENDBRANCH   8  26
TORSDOF 6
ENDMDL
MODEL 8
REMARK VINA RESULT:    -5.792      1.464      2.962
REMARK INTER + INTRA:          -7.407
REMARK INTER:                  -6.927
REMARK INTRA:                  -0.480
REMARK UNBOUND:                -0.430
REMARK SMILES O=c1c(O)c(-c2ccc(O)cc2O)oc2cc(O)cc(O)c12
REMARK SMILES IDX 5 1 3 2 2 3 1 4 22 5 20 6 19 7 17 8 16 9 15 10 14 11 6 12
REMARK SMILES IDX 8 13 7 14 9 15 11 16 12 17 10 18 13 20 4 22 21 24 18 26
REMARK H PARENT 10 19 13 21 4 23 21 25 18 27
REMARK Flexibility Score: inf
ROOT
ATOM      1  C   UNL     1      17.067 -14.505  25.618  1.00  0.00     0.184 A 
ATOM      2  C   UNL     1      15.833 -14.972  26.110  1.00  0.00     0.208 A 
ATOM      3  C   UNL     1      15.271 -14.348  27.234  1.00  0.00     0.238 A 
ATOM      4  O   UNL     1      14.170 -14.765  27.688  1.00  0.00    -0.285 OA
ATOM      5  C   UNL     1      15.939 -13.262  27.836  1.00  0.00     0.111 A 
ATOM      6  C   UNL     1      15.437 -12.576  28.967  1.00  0.00     0.134 A 
ATOM      7  C   UNL     1      16.158 -11.498  29.503  1.00  0.00     0.093 A 
ATOM      8  C   UNL     1      17.367 -11.094  28.931  1.00  0.00     0.123 A 
ATOM      9  C   UNL     1      17.867 -11.768  27.812  1.00  0.00     0.094 A 
ATOM     10  C   UNL     1      17.164 -12.845  27.264  1.00  0.00     0.146 A 
ATOM     11  O   UNL     1      17.664 -13.471  26.204  1.00  0.00    -0.451 OA
ENDROOT
BRANCH   1  12
ATOM     12  C   UNL     1      17.728 -15.128  24.448  1.00  0.00     0.063 A 
ATOM     13  C   UNL     1      19.088 -16.905  23.491  1.00  0.00     0.047 A 
ATOM     14  C   UNL     1      18.441 -16.331  24.589  1.00  0.00     0.020 A 
ATOM     15  C   UNL     1      19.040 -16.280  22.240  1.00  0.00     0.119 A 
ATOM     16  C   UNL     1      18.344 -15.077  22.094  1.00  0.00     0.093 A 
ATOM     17  C   UNL     1      17.691 -14.494  23.189  1.00  0.00     0.130 A 
BRANCH  15  18
ATOM     18  O   UNL     1      19.681 -16.843  21.140  1.00  0.00    -0.508 OA
ATOM     19  H   UNL     1      20.152 -16.269  20.450  1.00  0.00     0.293 HD
ENDBRANCH  15  18
BRANCH  17  20
ATOM     20  O   UNL     1      16.996 -13.296  23.026  1.00  0.00    -0.507 OA
ATOM     21  H   UNL     1      15.983 -13.270  22.985  1.00  0.00     0.293 HD
ENDBRANCH  17  20
ENDBRANCH   1  12
BRANCH   2  22
ATOM     22  O   UNL     1      15.175 -16.025  25.469  1.00  0.00    -0.502 OA
ATOM     23  H   UNL     1      14.544 -15.875  24.691  1.00  0.00     0.293 HD
ENDBRANCH   2  22
BRANCH   6  24
ATOM     24  O   UNL     1      14.233 -12.954  29.562  1.00  0.00    -0.507 OA
ATOM     25  H   UNL     1      14.189 -13.268  30.524  1.00  0.00     0.293 HD
ENDBRANCH   6  24
BRANCH   8  26
ATOM     26  O   UNL     1      18.062 -10.021  29.482  1.00  0.00    -0.508 OA
ATOM     27  H   UNL     1      17.856  -9.064  29.218  1.00  0.00     0.293 HD
ENDBRANCH   8  26
TORSDOF 6
ENDMDL
MODEL 9
REMARK VINA RESULT:    -5.672      2.853      7.300
REMARK INTER + INTRA:          -7.262
REMARK INTER:                  -6.789
REMARK INTRA:                  -0.473
REMARK UNBOUND:                -0.430
REMARK SMILES O=c1c(O)c(-c2ccc(O)cc2O)oc2cc(O)cc(O)c12
REMARK SMILES IDX 5 1 3 2 2 3 1 4 22 5 20 6 19 7 17 8 16 9 15 10 14 11 6 12
REMARK SMILES IDX 8 13 7 14 9 15 11 16 12 17 10 18 13 20 4 22 21 24 18 26
REMARK H PARENT 10 19 13 21 4 23 21 25 18 27
REMARK Flexibility Score: inf
ROOT
ATOM      1  C   UNL     1      18.077 -11.120  28.192  1.00  0.00     0.184 A 
ATOM      2  C   UNL     1      18.779 -11.031  26.975  1.00  0.00     0.208 A 
ATOM      3  C   UNL     1      18.502 -11.961  25.962  1.00  0.00     0.238 A 
ATOM      4  O   UNL     1      19.131 -11.895  24.871  1.00  0.00    -0.285 OA
ATOM      5  C   UNL     1      17.522 -12.952  26.175  1.00  0.00     0.111 A 
ATOM      6  C   UNL     1      17.180 -13.924  25.204  1.00  0.00     0.134 A 
ATOM      7  C   UNL     1      16.187 -14.873  25.489  1.00  0.00     0.093 A 
ATOM      8  C   UNL     1      15.530 -14.869  26.722  1.00  0.00     0.123 A 
ATOM      9  C   UNL     1      15.863 -13.910  27.685  1.00  0.00     0.094 A 
ATOM     10  C   UNL     1      16.850 -12.957  27.420  1.00  0.00     0.146 A 
ATOM     11  O   UNL     1      17.151 -12.061  28.354  1.00  0.00    -0.451 OA
ENDROOT
BRANCH   1  12
ATOM     12  C   UNL     1      18.331 -10.184  29.311  1.00  0.00     0.063 A 
ATOM     13  C   UNL     1      19.647  -9.515  31.246  1.00  0.00     0.047 A 
ATOM     14  C   UNL     1      19.422 -10.383  30.174  1.00  0.00     0.020 A 
ATOM     15  C   UNL     1      18.778  -8.443  31.477  1.00  0.00     0.119 A 
ATOM     16  C   UNL     1      17.682  -8.245  30.633  1.00  0.00     0.093 A 
ATOM     17  C   UNL     1      17.450  -9.109  29.554  1.00  0.00     0.130 A 
BRANCH  15  18
ATOM     18  O   UNL     1      18.992  -7.573  32.543  1.00  0.00    -0.508 OA
ATOM     19  H   UNL     1      18.221  -7.124  33.024  1.00  0.00     0.293 HD
ENDBRANCH  15  18
BRANCH  17  20
ATOM     20  O   UNL     1      16.356  -8.895  28.715  1.00  0.00    -0.507 OA
ATOM     21  H   UNL     1      15.683  -8.159  28.897  1.00  0.00     0.293 HD
ENDBRANCH  17  20
ENDBRANCH   1  12
BRANCH   2  22
ATOM     22  O   UNL     1      19.716 -10.014  26.778  1.00  0.00    -0.502 OA
ATOM     23  H   UNL     1      20.289  -9.651  27.531  1.00  0.00     0.293 HD
ENDBRANCH   2  22
BRANCH   6  24
ATOM     24  O   UNL     1      17.817 -13.955  23.963  1.00  0.00    -0.507 OA
ATOM     25  H   UNL     1      17.434 -14.472  23.180  1.00  0.00     0.293 HD
ENDBRANCH   6  24
BRANCH   8  26
ATOM     26  O   UNL     1      14.547 -15.821  26.980  1.00  0.00    -0.508 OA
ATOM     27  H   UNL     1      13.611 -15.554  27.264  1.00  0.00     0.293 HD
ENDBRANCH   8  26
TORSDOF 6
ENDMDL
