MODEL 1
REMARK VINA RESULT:    -7.631      0.000      0.000
REMARK INTER + INTRA:          -9.398
REMARK INTER:                  -9.192
REMARK INTRA:                  -0.206
REMARK UNBOUND:                -0.206
REMARK SMILES O=c1c(O)c(-c2ccc(O)c(O)c2)oc2cc(O)cc(O)c12
REMARK SMILES IDX 5 1 3 2 2 3 1 4 22 5 20 6 19 7 17 8 16 9 15 10 14 11 6 12
REMARK SMILES IDX 7 13 8 14 9 15 13 16 11 17 10 18 12 20 4 22 21 24 18 26
REMARK H PARENT 10 19 12 21 4 23 21 25 18 27
REMARK Flexibility Score: inf
ROOT
ATOM      1  C   UNL     1     -11.259 -66.181 -32.890  1.00  0.00     0.180 A 
ATOM      2  C   UNL     1     -10.647 -66.859 -31.820  1.00  0.00     0.208 A 
ATOM      3  C   UNL     1      -9.269 -66.693 -31.609  1.00  0.00     0.238 A 
ATOM      4  O   UNL     1      -8.738 -67.259 -30.618  1.00  0.00    -0.285 OA
ATOM      5  C   UNL     1      -8.518 -65.865 -32.476  1.00  0.00     0.111 A 
ATOM      6  C   UNL     1      -7.108 -65.657 -32.379  1.00  0.00     0.134 A 
ATOM      7  C   UNL     1      -6.491 -64.714 -33.211  1.00  0.00     0.093 A 
ATOM      8  C   UNL     1      -7.218 -64.023 -34.179  1.00  0.00     0.123 A 
ATOM      9  C   UNL     1      -8.585 -64.262 -34.322  1.00  0.00     0.094 A 
ATOM     10  C   UNL     1      -9.236 -65.169 -33.483  1.00  0.00     0.146 A 
ATOM     11  O   UNL     1     -10.540 -65.360 -33.646  1.00  0.00    -0.452 OA
ENDROOT
BRANCH   1  12
ATOM     12  C   UNL     1     -12.701 -66.326 -33.191  1.00  0.00     0.025 A 
ATOM     13  C   UNL     1     -13.685 -65.807 -32.332  1.00  0.00     0.016 A 
ATOM     14  C   UNL     1     -15.040 -65.977 -32.624  1.00  0.00     0.051 A 
ATOM     15  C   UNL     1     -15.433 -66.678 -33.772  1.00  0.00     0.157 A 
ATOM     16  C   UNL     1     -13.101 -67.046 -34.329  1.00  0.00     0.062 A 
ATOM     17  C   UNL     1     -14.457 -67.218 -34.627  1.00  0.00     0.158 A 
BRANCH  15  18
ATOM     18  O   UNL     1     -16.786 -66.844 -34.062  1.00  0.00    -0.504 OA
ATOM     19  H   UNL     1     -17.343 -67.557 -33.606  1.00  0.00     0.293 HD
ENDBRANCH  15  18
BRANCH  17  20
ATOM     20  O   UNL     1     -14.816 -67.927 -35.773  1.00  0.00    -0.504 OA
ATOM     21  H   UNL     1     -15.075 -68.906 -35.741  1.00  0.00     0.293 HD
ENDBRANCH  17  20
ENDBRANCH   1  12
BRANCH   2  22
ATOM     22  O   UNL     1     -11.412 -67.654 -30.963  1.00  0.00    -0.502 OA
ATOM     23  H   UNL     1     -12.232 -68.160 -31.277  1.00  0.00     0.293 HD
ENDBRANCH   2  22
BRANCH   6  24
ATOM     24  O   UNL     1      -6.273 -66.364 -31.509  1.00  0.00    -0.507 OA
ATOM     25  H   UNL     1      -5.270 -66.425 -31.599  1.00  0.00     0.293 HD
ENDBRANCH   6  24
BRANCH   8  26
ATOM     26  O   UNL     1      -6.568 -63.104 -35.000  1.00  0.00    -0.508 OA
ATOM     27  H   UNL     1      -5.567 -63.148 -35.158  1.00  0.00     0.293 HD
ENDBRANCH   8  26
TORSDOF 6
ENDMDL
MODEL 2
REMARK VINA RESULT:    -7.284      1.543      3.569
REMARK INTER + INTRA:          -8.980
REMARK INTER:                  -8.797
REMARK INTRA:                  -0.183
REMARK UNBOUND:                -0.206
REMARK SMILES O=c1c(O)c(-c2ccc(O)c(O)c2)oc2cc(O)cc(O)c12
REMARK SMILES IDX 5 1 3 2 2 3 1 4 22 5 20 6 19 7 17 8 16 9 15 10 14 11 6 12
REMARK SMILES IDX 7 13 8 14 9 15 13 16 11 17 10 18 12 20 4 22 21 24 18 26
REMARK H PARENT 10 19 12 21 4 23 21 25 18 27
REMARK Flexibility Score: inf
ROOT
ATOM      1  C   UNL     1     -11.128 -66.627 -33.268  1.00  0.00     0.180 A 
ATOM      2  C   UNL     1     -10.158 -65.739 -33.766  1.00  0.00     0.208 A 
ATOM      3  C   UNL     1      -8.982 -65.532 -33.029  1.00  0.00     0.238 A 
ATOM      4  O   UNL     1      -8.095 -64.777 -33.506  1.00  0.00    -0.285 OA
ATOM      5  C   UNL     1      -8.796 -66.202 -31.796  1.00  0.00     0.111 A 
ATOM      6  C   UNL     1      -7.660 -66.037 -30.947  1.00  0.00     0.134 A 
ATOM      7  C   UNL     1      -7.520 -66.849 -29.815  1.00  0.00     0.093 A 
ATOM      8  C   UNL     1      -8.504 -67.772 -29.466  1.00  0.00     0.123 A 
ATOM      9  C   UNL     1      -9.646 -67.901 -30.256  1.00  0.00     0.094 A 
ATOM     10  C   UNL     1      -9.798 -67.131 -31.412  1.00  0.00     0.146 A 
ATOM     11  O   UNL     1     -10.895 -67.291 -32.142  1.00  0.00    -0.452 OA
ENDROOT
BRANCH   1  12
ATOM     12  C   UNL     1     -12.405 -66.878 -33.975  1.00  0.00     0.025 A 
ATOM     13  C   UNL     1     -12.436 -67.532 -35.219  1.00  0.00     0.016 A 
ATOM     14  C   UNL     1     -13.650 -67.735 -35.879  1.00  0.00     0.051 A 
ATOM     15  C   UNL     1     -14.848 -67.277 -35.315  1.00  0.00     0.157 A 
ATOM     16  C   UNL     1     -13.605 -66.402 -33.424  1.00  0.00     0.062 A 
ATOM     17  C   UNL     1     -14.824 -66.604 -34.082  1.00  0.00     0.158 A 
BRANCH  15  18
ATOM     18  O   UNL     1     -16.058 -67.484 -35.976  1.00  0.00    -0.504 OA
ATOM     19  H   UNL     1     -16.636 -68.293 -35.784  1.00  0.00     0.293 HD
ENDBRANCH  15  18
BRANCH  17  20
ATOM     20  O   UNL     1     -15.997 -66.130 -33.497  1.00  0.00    -0.504 OA
ATOM     21  H   UNL     1     -16.032 -65.825 -32.531  1.00  0.00     0.293 HD
ENDBRANCH  17  20
ENDBRANCH   1  12
BRANCH   2  22
ATOM     22  O   UNL     1     -10.354 -65.104 -34.996  1.00  0.00    -0.502 OA
ATOM     23  H   UNL     1     -10.727 -65.588 -35.804  1.00  0.00     0.293 HD
ENDBRANCH   2  22
BRANCH   6  24
ATOM     24  O   UNL     1      -6.664 -65.078 -31.154  1.00  0.00    -0.507 OA
ATOM     25  H   UNL     1      -6.770 -64.253 -31.725  1.00  0.00     0.293 HD
ENDBRANCH   6  24
BRANCH   8  26
ATOM     26  O   UNL     1      -8.339 -68.553 -28.324  1.00  0.00    -0.508 OA
ATOM     27  H   UNL     1      -7.510 -69.119 -28.184  1.00  0.00     0.293 HD
ENDBRANCH   8  26
TORSDOF 6
ENDMDL
MODEL 3
REMARK VINA RESULT:    -7.123      6.728      8.381
REMARK INTER + INTRA:          -8.787
REMARK INTER:                  -8.598
REMARK INTRA:                  -0.189
REMARK UNBOUND:                -0.206
REMARK SMILES O=c1c(O)c(-c2ccc(O)c(O)c2)oc2cc(O)cc(O)c12
REMARK SMILES IDX 5 1 3 2 2 3 1 4 22 5 20 6 19 7 17 8 16 9 15 10 14 11 6 12
REMARK SMILES IDX 7 13 8 14 9 15 13 16 11 17 10 18 12 20 4 22 21 24 18 26
REMARK H PARENT 10 19 12 21 4 23 21 25 18 27
REMARK Flexibility Score: inf
ROOT
ATOM      1  C   UNL     1     -10.495 -66.661 -25.222  1.00  0.00     0.180 A 
ATOM      2  C   UNL     1     -10.655 -67.791 -26.044  1.00  0.00     0.208 A 
ATOM      3  C   UNL     1      -9.771 -67.985 -27.117  1.00  0.00     0.238 A 
ATOM      4  O   UNL     1      -9.887 -69.025 -27.815  1.00  0.00    -0.285 OA
ATOM      5  C   UNL     1      -8.748 -67.039 -27.365  1.00  0.00     0.111 A 
ATOM      6  C   UNL     1      -7.821 -67.114 -28.449  1.00  0.00     0.134 A 
ATOM      7  C   UNL     1      -6.768 -66.192 -28.522  1.00  0.00     0.093 A 
ATOM      8  C   UNL     1      -6.648 -65.162 -27.591  1.00  0.00     0.123 A 
ATOM      9  C   UNL     1      -7.582 -65.045 -26.562  1.00  0.00     0.094 A 
ATOM     10  C   UNL     1      -8.622 -65.969 -26.441  1.00  0.00     0.146 A 
ATOM     11  O   UNL     1      -9.485 -65.827 -25.442  1.00  0.00    -0.452 OA
ENDROOT
BRANCH   1  12
ATOM     12  C   UNL     1     -11.402 -66.377 -24.088  1.00  0.00     0.025 A 
ATOM     13  C   UNL     1     -10.962 -66.473 -22.756  1.00  0.00     0.016 A 
ATOM     14  C   UNL     1     -11.844 -66.224 -21.702  1.00  0.00     0.051 A 
ATOM     15  C   UNL     1     -13.179 -65.887 -21.960  1.00  0.00     0.157 A 
ATOM     16  C   UNL     1     -12.747 -66.060 -24.341  1.00  0.00     0.062 A 
ATOM     17  C   UNL     1     -13.633 -65.808 -23.287  1.00  0.00     0.158 A 
BRANCH  15  18
ATOM     18  O   UNL     1     -14.055 -65.638 -20.905  1.00  0.00    -0.504 OA
ATOM     19  H   UNL     1     -14.133 -66.271 -20.118  1.00  0.00     0.293 HD
ENDBRANCH  15  18
BRANCH  17  20
ATOM     20  O   UNL     1     -14.957 -65.483 -23.578  1.00  0.00    -0.504 OA
ATOM     21  H   UNL     1     -15.450 -64.745 -23.089  1.00  0.00     0.293 HD
ENDBRANCH  17  20
ENDBRANCH   1  12
BRANCH   2  22
ATOM     22  O   UNL     1     -11.659 -68.724 -25.767  1.00  0.00    -0.502 OA
ATOM     23  H   UNL     1     -12.177 -69.199 -26.497  1.00  0.00     0.293 HD
ENDBRANCH   2  22
BRANCH   6  24
ATOM     24  O   UNL     1      -7.906 -68.048 -29.486  1.00  0.00    -0.507 OA
ATOM     25  H   UNL     1      -7.697 -67.853 -30.453  1.00  0.00     0.293 HD
ENDBRANCH   6  24
BRANCH   8  26
ATOM     26  O   UNL     1      -5.597 -64.255 -27.703  1.00  0.00    -0.508 OA
ATOM     27  H   UNL     1      -4.899 -64.158 -26.974  1.00  0.00     0.293 HD
ENDBRANCH   8  26
TORSDOF 6
ENDMDL
MODEL 4
REMARK VINA RESULT:    -7.108      4.095      7.068
REMARK INTER + INTRA:          -8.769
REMARK INTER:                  -8.772
REMARK INTRA:                   0.004
REMARK UNBOUND:                -0.206
REMARK SMILES O=c1c(O)c(-c2ccc(O)c(O)c2)oc2cc(O)cc(O)c12
REMARK SMILES IDX 5 1 3 2 2 3 1 4 22 5 20 6 19 7 17 8 16 9 15 10 14 11 6 12
REMARK SMILES IDX 7 13 8 14 9 15 13 16 11 17 10 18 12 20 4 22 21 24 18 26
REMARK H PARENT 10 19 12 21 4 23 21 25 18 27
REMARK Flexibility Score: inf
ROOT
ATOM      1  C   UNL     1      -7.986 -66.648 -30.344  1.00  0.00     0.180 A 
ATOM      2  C   UNL     1      -9.027 -67.589 -30.435  1.00  0.00     0.208 A 
ATOM      3  C   UNL     1      -9.494 -68.203 -29.262  1.00  0.00     0.238 A 
ATOM      4  O   UNL     1     -10.462 -69.003 -29.344  1.00  0.00    -0.285 OA
ATOM      5  C   UNL     1      -8.905 -67.881 -28.016  1.00  0.00     0.111 A 
ATOM      6  C   UNL     1      -9.273 -68.472 -26.769  1.00  0.00     0.134 A 
ATOM      7  C   UNL     1      -8.714 -67.984 -25.581  1.00  0.00     0.093 A 
ATOM      8  C   UNL     1      -7.754 -66.973 -25.601  1.00  0.00     0.123 A 
ATOM      9  C   UNL     1      -7.344 -66.429 -26.818  1.00  0.00     0.094 A 
ATOM     10  C   UNL     1      -7.910 -66.870 -28.017  1.00  0.00     0.146 A 
ATOM     11  O   UNL     1      -7.499 -66.319 -29.153  1.00  0.00    -0.452 OA
ENDROOT
BRANCH   1  12
ATOM     12  C   UNL     1      -7.423 -65.977 -31.538  1.00  0.00     0.025 A 
ATOM     13  C   UNL     1      -6.039 -65.956 -31.782  1.00  0.00     0.016 A 
ATOM     14  C   UNL     1      -5.530 -65.295 -32.902  1.00  0.00     0.051 A 
ATOM     15  C   UNL     1      -6.392 -64.637 -33.788  1.00  0.00     0.157 A 
ATOM     16  C   UNL     1      -8.281 -65.297 -32.417  1.00  0.00     0.062 A 
ATOM     17  C   UNL     1      -7.775 -64.636 -33.542  1.00  0.00     0.158 A 
BRANCH  15  18
ATOM     18  O   UNL     1      -5.880 -63.981 -34.907  1.00  0.00    -0.504 OA
ATOM     19  H   UNL     1      -6.416 -63.894 -35.763  1.00  0.00     0.293 HD
ENDBRANCH  15  18
BRANCH  17  20
ATOM     20  O   UNL     1      -8.660 -63.984 -34.400  1.00  0.00    -0.504 OA
ATOM     21  H   UNL     1      -9.500 -64.431 -34.749  1.00  0.00     0.293 HD
ENDBRANCH  17  20
ENDBRANCH   1  12
BRANCH   2  22
ATOM     22  O   UNL     1      -9.608 -67.875 -31.673  1.00  0.00    -0.502 OA
ATOM     23  H   UNL     1     -10.206 -68.680 -31.820  1.00  0.00     0.293 HD
ENDBRANCH   2  22
BRANCH   6  24
ATOM     24  O   UNL     1     -10.154 -69.551 -26.646  1.00  0.00    -0.507 OA
ATOM     25  H   UNL     1     -11.159 -69.474 -26.640  1.00  0.00     0.293 HD
ENDBRANCH   6  24
BRANCH   8  26
ATOM     26  O   UNL     1      -7.207 -66.522 -24.401  1.00  0.00    -0.508 OA
ATOM     27  H   UNL     1      -7.735 -66.546 -23.536  1.00  0.00     0.293 HD
ENDBRANCH   8  26
TORSDOF 6
ENDMDL
MODEL 5
REMARK VINA RESULT:    -7.088      4.114      6.743
REMARK INTER + INTRA:          -8.744
REMARK INTER:                  -8.780
REMARK INTRA:                   0.036
REMARK UNBOUND:                -0.206
REMARK SMILES O=c1c(O)c(-c2ccc(O)c(O)c2)oc2cc(O)cc(O)c12
REMARK SMILES IDX 5 1 3 2 2 3 1 4 22 5 20 6 19 7 17 8 16 9 15 10 14 11 6 12
REMARK SMILES IDX 7 13 8 14 9 15 13 16 11 17 10 18 12 20 4 22 21 24 18 26
REMARK H PARENT 10 19 12 21 4 23 21 25 18 27
REMARK Flexibility Score: inf
ROOT
ATOM      1  C   UNL     1      -7.014 -65.531 -31.928  1.00  0.00     0.180 A 
ATOM      2  C   UNL     1      -6.121 -65.301 -30.866  1.00  0.00     0.208 A 
ATOM      3  C   UNL     1      -6.395 -65.865 -29.610  1.00  0.00     0.238 A 
ATOM      4  O   UNL     1      -5.565 -65.700 -28.679  1.00  0.00    -0.285 OA
ATOM      5  C   UNL     1      -7.567 -66.639 -29.427  1.00  0.00     0.111 A 
ATOM      6  C   UNL     1      -7.965 -67.224 -28.187  1.00  0.00     0.134 A 
ATOM      7  C   UNL     1      -9.074 -68.078 -28.151  1.00  0.00     0.093 A 
ATOM      8  C   UNL     1      -9.837 -68.314 -29.294  1.00  0.00     0.123 A 
ATOM      9  C   UNL     1      -9.492 -67.700 -30.498  1.00  0.00     0.094 A 
ATOM     10  C   UNL     1      -8.369 -66.872 -30.573  1.00  0.00     0.146 A 
ATOM     11  O   UNL     1      -8.070 -66.315 -31.741  1.00  0.00    -0.452 OA
ENDROOT
BRANCH   1  12
ATOM     12  C   UNL     1      -6.806 -64.949 -33.273  1.00  0.00     0.025 A 
ATOM     13  C   UNL     1      -5.566 -65.044 -33.927  1.00  0.00     0.016 A 
ATOM     14  C   UNL     1      -5.385 -64.466 -35.186  1.00  0.00     0.051 A 
ATOM     15  C   UNL     1      -6.435 -63.774 -35.804  1.00  0.00     0.157 A 
ATOM     16  C   UNL     1      -7.848 -64.236 -33.887  1.00  0.00     0.062 A 
ATOM     17  C   UNL     1      -7.672 -63.656 -35.148  1.00  0.00     0.158 A 
BRANCH  15  18
ATOM     18  O   UNL     1      -6.252 -63.200 -37.061  1.00  0.00    -0.504 OA
ATOM     19  H   UNL     1      -5.642 -62.401 -37.196  1.00  0.00     0.293 HD
ENDBRANCH  15  18
BRANCH  17  20
ATOM     20  O   UNL     1      -8.734 -62.968 -35.733  1.00  0.00    -0.504 OA
ATOM     21  H   UNL     1      -9.503 -63.448 -36.185  1.00  0.00     0.293 HD
ENDBRANCH  17  20
ENDBRANCH   1  12
BRANCH   2  22
ATOM     22  O   UNL     1      -4.959 -64.552 -31.076  1.00  0.00    -0.502 OA
ATOM     23  H   UNL     1      -4.432 -64.142 -30.314  1.00  0.00     0.293 HD
ENDBRANCH   2  22
BRANCH   6  24
ATOM     24  O   UNL     1      -7.326 -66.979 -26.967  1.00  0.00    -0.507 OA
ATOM     25  H   UNL     1      -7.738 -66.480 -26.194  1.00  0.00     0.293 HD
ENDBRANCH   6  24
BRANCH   8  26
ATOM     26  O   UNL     1     -10.944 -69.158 -29.218  1.00  0.00    -0.508 OA
ATOM     27  H   UNL     1     -11.851 -68.875 -29.570  1.00  0.00     0.293 HD
ENDBRANCH   8  26
TORSDOF 6
ENDMDL
MODEL 6
REMARK VINA RESULT:    -6.940      4.466      9.090
REMARK INTER + INTRA:          -8.566
REMARK INTER:                  -8.243
REMARK INTRA:                  -0.323
REMARK UNBOUND:                -0.206
REMARK SMILES O=c1c(O)c(-c2ccc(O)c(O)c2)oc2cc(O)cc(O)c12
REMARK SMILES IDX 5 1 3 2 2 3 1 4 22 5 20 6 19 7 17 8 16 9 15 10 14 11 6 12
REMARK SMILES IDX 7 13 8 14 9 15 13 16 11 17 10 18 12 20 4 22 21 24 18 26
REMARK H PARENT 10 19 12 21 4 23 21 25 18 27
REMARK Flexibility Score: inf
ROOT
ATOM      1  C   UNL     1      -5.357 -63.980 -36.395  1.00  0.00     0.180 A 
ATOM      2  C   UNL     1      -6.670 -63.497 -36.534  1.00  0.00     0.208 A 
ATOM      3  C   UNL     1      -7.580 -63.686 -35.482  1.00  0.00     0.238 A 
ATOM      4  O   UNL     1      -8.738 -63.204 -35.592  1.00  0.00    -0.285 OA
ATOM      5  C   UNL     1      -7.172 -64.367 -34.311  1.00  0.00     0.111 A 
ATOM      6  C   UNL     1      -8.023 -64.650 -33.200  1.00  0.00     0.134 A 
ATOM      7  C   UNL     1      -7.478 -65.215 -32.040  1.00  0.00     0.093 A 
ATOM      8  C   UNL     1      -6.131 -65.568 -31.975  1.00  0.00     0.123 A 
ATOM      9  C   UNL     1      -5.304 -65.351 -33.077  1.00  0.00     0.094 A 
ATOM     10  C   UNL     1      -5.809 -64.755 -34.235  1.00  0.00     0.146 A 
ATOM     11  O   UNL     1      -4.986 -64.557 -35.258  1.00  0.00    -0.452 OA
ENDROOT
BRANCH   1  12
ATOM     12  C   UNL     1      -4.348 -63.842 -37.469  1.00  0.00     0.025 A 
ATOM     13  C   UNL     1      -4.289 -64.751 -38.540  1.00  0.00     0.016 A 
ATOM     14  C   UNL     1      -3.312 -64.614 -39.529  1.00  0.00     0.051 A 
ATOM     15  C   UNL     1      -2.374 -63.576 -39.458  1.00  0.00     0.157 A 
ATOM     16  C   UNL     1      -3.392 -62.816 -37.392  1.00  0.00     0.062 A 
ATOM     17  C   UNL     1      -2.412 -62.675 -38.382  1.00  0.00     0.158 A 
BRANCH  15  18
ATOM     18  O   UNL     1      -1.402 -63.442 -40.449  1.00  0.00    -0.504 OA
ATOM     19  H   UNL     1      -0.484 -63.065 -40.244  1.00  0.00     0.293 HD
ENDBRANCH  15  18
BRANCH  17  20
ATOM     20  O   UNL     1      -1.488 -61.636 -38.278  1.00  0.00    -0.504 OA
ATOM     21  H   UNL     1      -1.699 -60.775 -37.787  1.00  0.00     0.293 HD
ENDBRANCH  17  20
ENDBRANCH   1  12
BRANCH   2  22
ATOM     22  O   UNL     1      -7.045 -62.807 -37.691  1.00  0.00    -0.502 OA
ATOM     23  H   UNL     1      -7.779 -62.109 -37.693  1.00  0.00     0.293 HD
ENDBRANCH   2  22
BRANCH   6  24
ATOM     24  O   UNL     1      -9.402 -64.422 -33.195  1.00  0.00    -0.507 OA
ATOM     25  H   UNL     1      -9.841 -63.547 -33.436  1.00  0.00     0.293 HD
ENDBRANCH   6  24
BRANCH   8  26
ATOM     26  O   UNL     1      -5.627 -66.143 -30.810  1.00  0.00    -0.508 OA
ATOM     27  H   UNL     1      -5.402 -67.130 -30.760  1.00  0.00     0.293 HD
ENDBRANCH   8  26
TORSDOF 6
ENDMDL
MODEL 7
REMARK VINA RESULT:    -6.908      3.989      5.986
REMARK INTER + INTRA:          -8.528
REMARK INTER:                  -8.640
REMARK INTRA:                   0.112
REMARK UNBOUND:                -0.206
REMARK SMILES O=c1c(O)c(-c2ccc(O)c(O)c2)oc2cc(O)cc(O)c12
REMARK SMILES IDX 5 1 3 2 2 3 1 4 22 5 20 6 19 7 17 8 16 9 15 10 14 11 6 12
REMARK SMILES IDX 7 13 8 14 9 15 13 16 11 17 10 18 12 20 4 22 21 24 18 26
REMARK H PARENT 10 19 12 21 4 23 21 25 18 27
REMARK Flexibility Score: inf
ROOT
ATOM      1  C   UNL     1      -7.338 -65.018 -33.082  1.00  0.00     0.180 A 
ATOM      2  C   UNL     1      -8.399 -64.410 -33.776  1.00  0.00     0.208 A 
ATOM      3  C   UNL     1      -8.132 -63.751 -34.986  1.00  0.00     0.238 A 
ATOM      4  O   UNL     1      -9.094 -63.256 -35.630  1.00  0.00    -0.285 OA
ATOM      5  C   UNL     1      -6.807 -63.693 -35.479  1.00  0.00     0.111 A 
ATOM      6  C   UNL     1      -6.416 -63.016 -36.674  1.00  0.00     0.134 A 
ATOM      7  C   UNL     1      -5.098 -63.135 -37.135  1.00  0.00     0.093 A 
ATOM      8  C   UNL     1      -4.144 -63.848 -36.411  1.00  0.00     0.123 A 
ATOM      9  C   UNL     1      -4.502 -64.464 -35.211  1.00  0.00     0.094 A 
ATOM     10  C   UNL     1      -5.816 -64.394 -34.744  1.00  0.00     0.146 A 
ATOM     11  O   UNL     1      -6.117 -65.002 -33.603  1.00  0.00    -0.452 OA
ENDROOT
BRANCH   1  12
ATOM     12  C   UNL     1      -7.537 -65.709 -31.788  1.00  0.00     0.025 A 
ATOM     13  C   UNL     1      -6.648 -65.525 -30.715  1.00  0.00     0.016 A 
ATOM     14  C   UNL     1      -6.842 -66.208 -29.512  1.00  0.00     0.051 A 
ATOM     15  C   UNL     1      -7.918 -67.093 -29.366  1.00  0.00     0.157 A 
ATOM     16  C   UNL     1      -8.602 -66.614 -31.644  1.00  0.00     0.062 A 
ATOM     17  C   UNL     1      -8.801 -67.299 -30.440  1.00  0.00     0.158 A 
BRANCH  15  18
ATOM     18  O   UNL     1      -8.110 -67.771 -28.164  1.00  0.00    -0.504 OA
ATOM     19  H   UNL     1      -7.328 -68.088 -27.603  1.00  0.00     0.293 HD
ENDBRANCH  15  18
BRANCH  17  20
ATOM     20  O   UNL     1      -9.877 -68.178 -30.330  1.00  0.00    -0.504 OA
ATOM     21  H   UNL     1     -10.527 -68.331 -31.092  1.00  0.00     0.293 HD
ENDBRANCH  17  20
ENDBRANCH   1  12
BRANCH   2  22
ATOM     22  O   UNL     1      -9.704 -64.499 -33.282  1.00  0.00    -0.502 OA
ATOM     23  H   UNL     1      -9.953 -65.107 -32.511  1.00  0.00     0.293 HD
ENDBRANCH   2  22
BRANCH   6  24
ATOM     24  O   UNL     1      -7.268 -62.200 -37.424  1.00  0.00    -0.507 OA
ATOM     25  H   UNL     1      -7.212 -62.076 -38.423  1.00  0.00     0.293 HD
ENDBRANCH   6  24
BRANCH   8  26
ATOM     26  O   UNL     1      -2.839 -63.932 -36.891  1.00  0.00    -0.508 OA
ATOM     27  H   UNL     1      -2.389 -64.826 -37.051  1.00  0.00     0.293 HD
ENDBRANCH   8  26
TORSDOF 6
ENDMDL
MODEL 8
REMARK VINA RESULT:    -6.809      4.685      6.614
REMARK INTER + INTRA:          -8.409
REMARK INTER:                  -8.358
REMARK INTRA:                  -0.051
REMARK UNBOUND:                -0.206
REMARK SMILES O=c1c(O)c(-c2ccc(O)c(O)c2)oc2cc(O)cc(O)c12
REMARK SMILES IDX 5 1 3 2 2 3 1 4 22 5 20 6 19 7 17 8 16 9 15 10 14 11 6 12
REMARK SMILES IDX 7 13 8 14 9 15 13 16 11 17 10 18 12 20 4 22 21 24 18 26
REMARK H PARENT 10 19 12 21 4 23 21 25 18 27
REMARK Flexibility Score: inf
ROOT
ATOM      1  C   UNL     1      -6.587 -65.525 -31.761  1.00  0.00     0.180 A 
ATOM      2  C   UNL     1      -5.237 -65.509 -32.155  1.00  0.00     0.208 A 
ATOM      3  C   UNL     1      -4.908 -65.048 -33.439  1.00  0.00     0.238 A 
ATOM      4  O   UNL     1      -3.694 -64.986 -33.766  1.00  0.00    -0.285 OA
ATOM      5  C   UNL     1      -5.932 -64.625 -34.320  1.00  0.00     0.111 A 
ATOM      6  C   UNL     1      -5.716 -64.178 -35.659  1.00  0.00     0.134 A 
ATOM      7  C   UNL     1      -6.789 -63.659 -36.395  1.00  0.00     0.093 A 
ATOM      8  C   UNL     1      -8.079 -63.634 -35.866  1.00  0.00     0.123 A 
ATOM      9  C   UNL     1      -8.311 -64.123 -34.581  1.00  0.00     0.094 A 
ATOM     10  C   UNL     1      -7.255 -64.613 -33.808  1.00  0.00     0.146 A 
ATOM     11  O   UNL     1      -7.518 -65.060 -32.586  1.00  0.00    -0.452 OA
ENDROOT
BRANCH   1  12
ATOM     12  C   UNL     1      -7.014 -66.020 -30.432  1.00  0.00     0.025 A 
ATOM     13  C   UNL     1      -7.969 -67.043 -30.305  1.00  0.00     0.016 A 
ATOM     14  C   UNL     1      -8.375 -67.476 -29.040  1.00  0.00     0.051 A 
ATOM     15  C   UNL     1      -7.843 -66.886 -27.886  1.00  0.00     0.157 A 
ATOM     16  C   UNL     1      -6.500 -65.417 -29.273  1.00  0.00     0.062 A 
ATOM     17  C   UNL     1      -6.903 -65.849 -28.004  1.00  0.00     0.158 A 
BRANCH  15  18
ATOM     18  O   UNL     1      -8.249 -67.322 -26.626  1.00  0.00    -0.504 OA
ATOM     19  H   UNL     1      -8.530 -66.670 -25.903  1.00  0.00     0.293 HD
ENDBRANCH  15  18
BRANCH  17  20
ATOM     20  O   UNL     1      -6.360 -65.236 -26.875  1.00  0.00    -0.504 OA
ATOM     21  H   UNL     1      -5.362 -65.105 -26.761  1.00  0.00     0.293 HD
ENDBRANCH  17  20
ENDBRANCH   1  12
BRANCH   2  22
ATOM     22  O   UNL     1      -4.240 -65.910 -31.261  1.00  0.00    -0.502 OA
ATOM     23  H   UNL     1      -3.984 -66.883 -31.133  1.00  0.00     0.293 HD
ENDBRANCH   2  22
BRANCH   6  24
ATOM     24  O   UNL     1      -4.484 -64.246 -36.316  1.00  0.00    -0.507 OA
ATOM     25  H   UNL     1      -4.369 -64.369 -37.310  1.00  0.00     0.293 HD
ENDBRANCH   6  24
BRANCH   8  26
ATOM     26  O   UNL     1      -9.125 -63.125 -36.633  1.00  0.00    -0.508 OA
ATOM     27  H   UNL     1      -9.960 -63.670 -36.819  1.00  0.00     0.293 HD
ENDBRANCH   8  26
TORSDOF 6
ENDMDL
MODEL 9
REMARK VINA RESULT:    -6.498     10.238     12.355
REMARK INTER + INTRA:          -8.033
REMARK INTER:                  -7.761
REMARK INTRA:                  -0.272
REMARK UNBOUND:                -0.206
REMARK SMILES O=c1c(O)c(-c2ccc(O)c(O)c2)oc2cc(O)cc(O)c12
REMARK SMILES IDX 5 1 3 2 2 3 1 4 22 5 20 6 19 7 17 8 16 9 15 10 14 11 6 12
REMARK SMILES IDX 7 13 8 14 9 15 13 16 11 17 10 18 12 20 4 22 21 24 18 26
REMARK H PARENT 10 19 12 21 4 23 21 25 18 27
REMARK Flexibility Score: inf
ROOT
ATOM      1  C   UNL     1      -4.481 -57.140 -35.947  1.00  0.00     0.180 A 
ATOM      2  C   UNL     1      -3.532 -58.176 -36.004  1.00  0.00     0.208 A 
ATOM      3  C   UNL     1      -2.717 -58.291 -37.141  1.00  0.00     0.238 A 
ATOM      4  O   UNL     1      -1.833 -59.187 -37.163  1.00  0.00    -0.285 OA
ATOM      5  C   UNL     1      -2.871 -57.380 -38.213  1.00  0.00     0.111 A 
ATOM      6  C   UNL     1      -2.126 -57.428 -39.431  1.00  0.00     0.134 A 
ATOM      7  C   UNL     1      -2.270 -56.397 -40.368  1.00  0.00     0.093 A 
ATOM      8  C   UNL     1      -3.177 -55.359 -40.163  1.00  0.00     0.123 A 
ATOM      9  C   UNL     1      -3.952 -55.334 -39.004  1.00  0.00     0.094 A 
ATOM     10  C   UNL     1      -3.806 -56.327 -38.033  1.00  0.00     0.146 A 
ATOM     11  O   UNL     1      -4.556 -56.262 -36.940  1.00  0.00    -0.452 OA
ENDROOT
BRANCH   1  12
ATOM     12  C   UNL     1      -5.392 -56.970 -34.793  1.00  0.00     0.025 A 
ATOM     13  C   UNL     1      -6.747 -57.336 -34.869  1.00  0.00     0.016 A 
ATOM     14  C   UNL     1      -7.594 -57.142 -33.775  1.00  0.00     0.051 A 
ATOM     15  C   UNL     1      -7.104 -56.570 -32.594  1.00  0.00     0.157 A 
ATOM     16  C   UNL     1      -4.912 -56.376 -33.614  1.00  0.00     0.062 A 
ATOM     17  C   UNL     1      -5.756 -56.182 -32.515  1.00  0.00     0.158 A 
BRANCH  15  18
ATOM     18  O   UNL     1      -7.952 -56.381 -31.504  1.00  0.00    -0.504 OA
ATOM     19  H   UNL     1      -8.262 -55.456 -31.227  1.00  0.00     0.293 HD
ENDBRANCH  15  18
BRANCH  17  20
ATOM     20  O   UNL     1      -5.240 -55.603 -31.357  1.00  0.00    -0.504 OA
ATOM     21  H   UNL     1      -5.414 -54.635 -31.115  1.00  0.00     0.293 HD
ENDBRANCH  17  20
ENDBRANCH   1  12
BRANCH   2  22
ATOM     22  O   UNL     1      -3.382 -59.051 -34.924  1.00  0.00    -0.502 OA
ATOM     23  H   UNL     1      -4.025 -59.064 -34.142  1.00  0.00     0.293 HD
ENDBRANCH   2  22
BRANCH   6  24
ATOM     24  O   UNL     1      -1.261 -58.470 -39.776  1.00  0.00    -0.507 OA
ATOM     25  H   UNL     1      -0.261 -58.381 -39.864  1.00  0.00     0.293 HD
ENDBRANCH   6  24
BRANCH   8  26
ATOM     26  O   UNL     1      -3.304 -54.358 -41.125  1.00  0.00    -0.508 OA
ATOM     27  H   UNL     1      -2.919 -53.432 -40.981  1.00  0.00     0.293 HD
ENDBRANCH   8  26
TORSDOF 6
ENDMDL
