MODEL 1
REMARK VINA RESULT:    -3.880      0.000      0.000
REMARK INTER + INTRA:          -4.741
REMARK INTER:                  -4.674
REMARK INTRA:                  -0.066
REMARK UNBOUND:                -0.066
REMARK SMILES CC[C@@H](C)[C@H]([NH3+])C(=O)[O-]
REMARK SMILES IDX 3 1 4 2 5 3 6 4 7 8 8 9 9 10 2 11 1 12
REMARK H PARENT 6 5 6 6 6 7
REMARK Flexibility Score: inf
ROOT
ATOM      1  C   UNL     1       8.817   5.598 -35.567  1.00  0.00     0.050 C 
ATOM      2  C   UNL     1       8.947   6.876 -34.718  1.00  0.00     0.014 C 
ENDROOT
BRANCH   1   3
ATOM      3  C   UNL     1       9.067   4.333 -34.687  1.00  0.00     0.230 C 
BRANCH   3   4
ATOM      4  N   UNL     1       8.922   4.620 -33.253  1.00  0.00    -0.350 N 
ATOM      5  H   UNL     1       9.412   5.503 -32.982  1.00  0.00     0.345 HD
ATOM      6  H   UNL     1       9.332   3.834 -32.697  1.00  0.00     0.345 HD
ATOM      7  H   UNL     1       7.909   4.698 -33.002  1.00  0.00     0.345 HD
ENDBRANCH   3   4
BRANCH   3   8
ATOM      8  C   UNL     1      10.398   3.679 -34.975  1.00  0.00     0.099 C 
ATOM      9  O   UNL     1      10.647   2.516 -34.560  1.00  0.00    -0.544 OA
ATOM     10  O   UNL     1      11.374   4.378 -35.674  1.00  0.00    -0.544 OA
ENDBRANCH   3   8
ENDBRANCH   1   3
BRANCH   1  11
ATOM     11  C   UNL     1       7.459   5.561 -36.316  1.00  0.00     0.006 C 
ATOM     12  C   UNL     1       6.998   6.943 -36.783  1.00  0.00     0.004 C 
ENDBRANCH   1  11
TORSDOF 4
ENDMDL
MODEL 2
REMARK VINA RESULT:    -3.697      1.941      2.639
REMARK INTER + INTRA:          -4.520
REMARK INTER:                  -4.409
REMARK INTRA:                  -0.111
REMARK UNBOUND:                -0.066
REMARK SMILES CC[C@@H](C)[C@H]([NH3+])C(=O)[O-]
REMARK SMILES IDX 3 1 4 2 5 3 6 4 7 8 8 9 9 10 2 11 1 12
REMARK H PARENT 6 5 6 6 6 7
REMARK Flexibility Score: inf
ROOT
ATOM      1  C   UNL     1       9.811   6.268 -35.315  1.00  0.00     0.050 C 
ATOM      2  C   UNL     1       8.756   7.379 -35.160  1.00  0.00     0.014 C 
ENDROOT
BRANCH   1   3
ATOM      3  C   UNL     1       9.117   4.889 -35.549  1.00  0.00     0.230 C 
BRANCH   3   4
ATOM      4  N   UNL     1       7.656   5.017 -35.660  1.00  0.00    -0.350 N 
ATOM      5  H   UNL     1       7.289   5.798 -35.070  1.00  0.00     0.345 HD
ATOM      6  H   UNL     1       7.204   4.128 -35.345  1.00  0.00     0.345 HD
ATOM      7  H   UNL     1       7.384   5.182 -36.656  1.00  0.00     0.345 HD
ENDBRANCH   3   4
BRANCH   3   8
ATOM      8  C   UNL     1       9.491   3.866 -34.502  1.00  0.00     0.099 C 
ATOM      9  O   UNL     1       8.864   3.802 -33.411  1.00  0.00    -0.544 OA
ATOM     10  O   UNL     1      10.560   3.008 -34.726  1.00  0.00    -0.544 OA
ENDBRANCH   3   8
ENDBRANCH   1   3
BRANCH   1  11
ATOM     11  C   UNL     1      10.842   6.625 -36.418  1.00  0.00     0.006 C 
ATOM     12  C   UNL     1      12.268   6.204 -36.059  1.00  0.00     0.004 C 
ENDBRANCH   1  11
TORSDOF 4
ENDMDL
MODEL 3
REMARK VINA RESULT:    -3.689      2.597      3.050
REMARK INTER + INTRA:          -4.511
REMARK INTER:                  -4.435
REMARK INTRA:                  -0.075
REMARK UNBOUND:                -0.066
REMARK SMILES CC[C@@H](C)[C@H]([NH3+])C(=O)[O-]
REMARK SMILES IDX 3 1 4 2 5 3 6 4 7 8 8 9 9 10 2 11 1 12
REMARK H PARENT 6 5 6 6 6 7
REMARK Flexibility Score: inf
ROOT
ATOM      1  C   UNL     1       9.898   5.631 -35.494  1.00  0.00     0.050 C 
ATOM      2  C   UNL     1       9.300   4.513 -34.619  1.00  0.00     0.014 C 
ENDROOT
BRANCH   1   3
ATOM      3  C   UNL     1      11.146   5.104 -36.271  1.00  0.00     0.230 C 
BRANCH   3   4
ATOM      4  N   UNL     1      11.955   4.184 -35.457  1.00  0.00    -0.350 N 
ATOM      5  H   UNL     1      11.423   3.322 -35.202  1.00  0.00     0.345 HD
ATOM      6  H   UNL     1      12.244   4.664 -34.574  1.00  0.00     0.345 HD
ATOM      7  H   UNL     1      12.822   3.913 -35.975  1.00  0.00     0.345 HD
ENDBRANCH   3   4
BRANCH   3   8
ATOM      8  C   UNL     1      11.996   6.220 -36.829  1.00  0.00     0.099 C 
ATOM      9  O   UNL     1      12.546   6.109 -37.958  1.00  0.00    -0.544 OA
ATOM     10  O   UNL     1      12.205   7.370 -36.079  1.00  0.00    -0.544 OA
ENDBRANCH   3   8
ENDBRANCH   1   3
BRANCH   1  11
ATOM     11  C   UNL     1       8.821   6.252 -36.422  1.00  0.00     0.006 C 
ATOM     12  C   UNL     1       7.487   5.504 -36.369  1.00  0.00     0.004 C 
ENDBRANCH   1  11
TORSDOF 4
ENDMDL
MODEL 4
REMARK VINA RESULT:    -3.670      7.434      8.809
REMARK INTER + INTRA:          -4.487
REMARK INTER:                  -4.421
REMARK INTRA:                  -0.066
REMARK UNBOUND:                -0.066
REMARK SMILES CC[C@@H](C)[C@H]([NH3+])C(=O)[O-]
REMARK SMILES IDX 3 1 4 2 5 3 6 4 7 8 8 9 9 10 2 11 1 12
REMARK H PARENT 6 5 6 6 6 7
REMARK Flexibility Score: inf
ROOT
ATOM      1  C   UNL     1      12.366  -2.215 -35.036  1.00  0.00     0.050 C 
ATOM      2  C   UNL     1      13.317  -2.109 -36.242  1.00  0.00     0.014 C 
ENDROOT
BRANCH   1   3
ATOM      3  C   UNL     1      12.660  -3.516 -34.224  1.00  0.00     0.230 C 
BRANCH   3   4
ATOM      4  N   UNL     1      13.280  -4.558 -35.057  1.00  0.00    -0.350 N 
ATOM      5  H   UNL     1      12.574  -5.239 -35.416  1.00  0.00     0.345 HD
ATOM      6  H   UNL     1      13.983  -5.084 -34.489  1.00  0.00     0.345 HD
ATOM      7  H   UNL     1      13.780  -4.122 -35.866  1.00  0.00     0.345 HD
ENDBRANCH   3   4
BRANCH   3   8
ATOM      8  C   UNL     1      11.436  -4.048 -33.517  1.00  0.00     0.099 C 
ATOM      9  O   UNL     1      10.530  -4.645 -34.158  1.00  0.00    -0.544 OA
ATOM     10  O   UNL     1      11.287  -3.848 -32.150  1.00  0.00    -0.544 OA
ENDBRANCH   3   8
ENDBRANCH   1   3
BRANCH   1  11
ATOM     11  C   UNL     1      12.420  -0.931 -34.167  1.00  0.00     0.006 C 
ATOM     12  C   UNL     1      12.347   0.353 -34.997  1.00  0.00     0.004 C 
ENDBRANCH   1  11
TORSDOF 4
ENDMDL
MODEL 5
REMARK VINA RESULT:    -3.616      2.807      4.068
REMARK INTER + INTRA:          -4.422
REMARK INTER:                  -4.349
REMARK INTRA:                  -0.073
REMARK UNBOUND:                -0.066
REMARK SMILES CC[C@@H](C)[C@H]([NH3+])C(=O)[O-]
REMARK SMILES IDX 3 1 4 2 5 3 6 4 7 8 8 9 9 10 2 11 1 12
REMARK H PARENT 6 5 6 6 6 7
REMARK Flexibility Score: inf
ROOT
ATOM      1  C   UNL     1       9.501   4.588 -35.269  1.00  0.00     0.050 C 
ATOM      2  C   UNL     1       8.881   4.586 -33.859  1.00  0.00     0.014 C 
ENDROOT
BRANCH   1   3
ATOM      3  C   UNL     1       9.666   6.051 -35.788  1.00  0.00     0.230 C 
BRANCH   3   4
ATOM      4  N   UNL     1      10.740   6.769 -35.084  1.00  0.00    -0.350 N 
ATOM      5  H   UNL     1      11.173   6.183 -34.335  1.00  0.00     0.345 HD
ATOM      6  H   UNL     1      10.348   7.631 -34.640  1.00  0.00     0.345 HD
ATOM      7  H   UNL     1      11.480   7.063 -35.761  1.00  0.00     0.345 HD
ENDBRANCH   3   4
BRANCH   3   8
ATOM      8  C   UNL     1       8.375   6.832 -35.742  1.00  0.00     0.099 C 
ATOM      9  O   UNL     1       8.310   7.935 -35.135  1.00  0.00    -0.544 OA
ATOM     10  O   UNL     1       7.235   6.318 -36.345  1.00  0.00    -0.544 OA
ENDBRANCH   3   8
ENDBRANCH   1   3
BRANCH   1  11
ATOM     11  C   UNL     1      10.824   3.778 -35.298  1.00  0.00     0.006 C 
ATOM     12  C   UNL     1      10.698   2.407 -34.629  1.00  0.00     0.004 C 
ENDBRANCH   1  11
TORSDOF 4
ENDMDL
MODEL 6
REMARK VINA RESULT:    -3.586      2.107      3.136
REMARK INTER + INTRA:          -4.386
REMARK INTER:                  -4.325
REMARK INTRA:                  -0.061
REMARK UNBOUND:                -0.066
REMARK SMILES CC[C@@H](C)[C@H]([NH3+])C(=O)[O-]
REMARK SMILES IDX 3 1 4 2 5 3 6 4 7 8 8 9 9 10 2 11 1 12
REMARK H PARENT 6 5 6 6 6 7
REMARK Flexibility Score: inf
ROOT
ATOM      1  C   UNL     1       8.979   5.196 -35.727  1.00  0.00     0.050 C 
ATOM      2  C   UNL     1       7.680   5.562 -36.468  1.00  0.00     0.014 C 
ENDROOT
BRANCH   1   3
ATOM      3  C   UNL     1      10.193   5.952 -36.354  1.00  0.00     0.230 C 
BRANCH   3   4
ATOM      4  N   UNL     1      10.036   6.143 -37.804  1.00  0.00    -0.350 N 
ATOM      5  H   UNL     1       9.186   6.706 -38.031  1.00  0.00     0.345 HD
ATOM      6  H   UNL     1       9.946   5.210 -38.269  1.00  0.00     0.345 HD
ATOM      7  H   UNL     1      10.880   6.619 -38.197  1.00  0.00     0.345 HD
ENDBRANCH   3   4
BRANCH   3   8
ATOM      8  C   UNL     1      11.514   5.293 -36.036  1.00  0.00     0.099 C 
ATOM      9  O   UNL     1      12.600   5.909 -36.210  1.00  0.00    -0.544 OA
ATOM     10  O   UNL     1      11.539   3.981 -35.580  1.00  0.00    -0.544 OA
ENDBRANCH   3   8
ENDBRANCH   1   3
BRANCH   1  11
ATOM     11  C   UNL     1       8.837   5.431 -34.201  1.00  0.00     0.006 C 
ATOM     12  C   UNL     1       8.513   4.151 -33.428  1.00  0.00     0.004 C 
ENDBRANCH   1  11
TORSDOF 4
ENDMDL
MODEL 7
REMARK VINA RESULT:    -3.527      2.246      2.743
REMARK INTER + INTRA:          -4.316
REMARK INTER:                  -4.208
REMARK INTRA:                  -0.107
REMARK UNBOUND:                -0.066
REMARK SMILES CC[C@@H](C)[C@H]([NH3+])C(=O)[O-]
REMARK SMILES IDX 3 1 4 2 5 3 6 4 7 8 8 9 9 10 2 11 1 12
REMARK H PARENT 6 5 6 6 6 7
REMARK Flexibility Score: inf
ROOT
ATOM      1  C   UNL     1       8.108   7.003 -36.351  1.00  0.00     0.050 C 
ATOM      2  C   UNL     1       6.705   7.380 -36.864  1.00  0.00     0.014 C 
ENDROOT
BRANCH   1   3
ATOM      3  C   UNL     1       8.259   5.451 -36.275  1.00  0.00     0.230 C 
BRANCH   3   4
ATOM      4  N   UNL     1       6.964   4.764 -36.381  1.00  0.00    -0.350 N 
ATOM      5  H   UNL     1       6.283   5.305 -36.960  1.00  0.00     0.345 HD
ATOM      6  H   UNL     1       6.556   4.640 -35.426  1.00  0.00     0.345 HD
ATOM      7  H   UNL     1       7.093   3.814 -36.802  1.00  0.00     0.345 HD
ENDBRANCH   3   4
BRANCH   3   8
ATOM      8  C   UNL     1       9.010   5.001 -35.045  1.00  0.00     0.099 C 
ATOM      9  O   UNL     1       9.659   3.921 -35.045  1.00  0.00    -0.544 OA
ATOM     10  O   UNL     1       8.958   5.765 -33.886  1.00  0.00    -0.544 OA
ENDBRANCH   3   8
ENDBRANCH   1   3
BRANCH   1  11
ATOM     11  C   UNL     1       9.214   7.682 -37.200  1.00  0.00     0.006 C 
ATOM     12  C   UNL     1       9.935   6.703 -38.130  1.00  0.00     0.004 C 
ENDBRANCH   1  11
TORSDOF 4
ENDMDL
MODEL 8
REMARK VINA RESULT:    -3.510      2.825      3.906
REMARK INTER + INTRA:          -4.295
REMARK INTER:                  -4.154
REMARK INTRA:                  -0.141
REMARK UNBOUND:                -0.066
REMARK SMILES CC[C@@H](C)[C@H]([NH3+])C(=O)[O-]
REMARK SMILES IDX 3 1 4 2 5 3 6 4 7 8 8 9 9 10 2 11 1 12
REMARK H PARENT 6 5 6 6 6 7
REMARK Flexibility Score: inf
ROOT
ATOM      1  C   UNL     1      10.730   5.484 -36.106  1.00  0.00     0.050 C 
ATOM      2  C   UNL     1      10.867   4.131 -35.383  1.00  0.00     0.014 C 
ENDROOT
BRANCH   1   3
ATOM      3  C   UNL     1       9.621   6.352 -35.430  1.00  0.00     0.230 C 
BRANCH   3   4
ATOM      4  N   UNL     1       9.312   5.889 -34.068  1.00  0.00    -0.350 N 
ATOM      5  H   UNL     1       8.516   6.421 -33.649  1.00  0.00     0.345 HD
ATOM      6  H   UNL     1      10.151   6.019 -33.458  1.00  0.00     0.345 HD
ATOM      7  H   UNL     1       9.076   4.870 -34.080  1.00  0.00     0.345 HD
ENDBRANCH   3   4
BRANCH   3   8
ATOM      8  C   UNL     1       8.368   6.447 -36.266  1.00  0.00     0.099 C 
ATOM      9  O   UNL     1       8.205   7.398 -37.077  1.00  0.00    -0.544 OA
ATOM     10  O   UNL     1       7.365   5.497 -36.117  1.00  0.00    -0.544 OA
ENDBRANCH   3   8
ENDBRANCH   1   3
BRANCH   1  11
ATOM     11  C   UNL     1      12.098   6.209 -36.200  1.00  0.00     0.006 C 
ATOM     12  C   UNL     1      11.959   7.712 -36.452  1.00  0.00     0.004 C 
ENDBRANCH   1  11
TORSDOF 4
ENDMDL
MODEL 9
REMARK VINA RESULT:    -3.442      8.599      9.589
REMARK INTER + INTRA:          -4.213
REMARK INTER:                  -4.085
REMARK INTRA:                  -0.128
REMARK UNBOUND:                -0.066
REMARK SMILES CC[C@@H](C)[C@H]([NH3+])C(=O)[O-]
REMARK SMILES IDX 3 1 4 2 5 3 6 4 7 8 8 9 9 10 2 11 1 12
REMARK H PARENT 6 5 6 6 6 7
REMARK Flexibility Score: inf
ROOT
ATOM      1  C   UNL     1      11.573  -4.104 -33.708  1.00  0.00     0.050 C 
ATOM      2  C   UNL     1      12.478  -4.971 -32.814  1.00  0.00     0.014 C 
ENDROOT
BRANCH   1   3
ATOM      3  C   UNL     1      12.279  -3.806 -35.069  1.00  0.00     0.230 C 
BRANCH   3   4
ATOM      4  N   UNL     1      13.387  -4.737 -35.332  1.00  0.00    -0.350 N 
ATOM      5  H   UNL     1      13.195  -5.346 -36.158  1.00  0.00     0.345 HD
ATOM      6  H   UNL     1      13.529  -5.352 -34.497  1.00  0.00     0.345 HD
ATOM      7  H   UNL     1      14.273  -4.205 -35.495  1.00  0.00     0.345 HD
ENDBRANCH   3   4
BRANCH   3   8
ATOM      8  C   UNL     1      12.741  -2.372 -35.181  1.00  0.00     0.099 C 
ATOM      9  O   UNL     1      12.560  -1.561 -34.235  1.00  0.00    -0.544 OA
ATOM     10  O   UNL     1      13.341  -1.930 -36.353  1.00  0.00    -0.544 OA
ENDBRANCH   3   8
ENDBRANCH   1   3
BRANCH   1  11
ATOM     11  C   UNL     1      10.172  -4.747 -33.878  1.00  0.00     0.006 C 
ATOM     12  C   UNL     1       9.782  -4.946 -35.344  1.00  0.00     0.004 C 
ENDBRANCH   1  11
TORSDOF 4
ENDMDL
