MODEL 1
REMARK VINA RESULT:    -4.496      0.000      0.000
REMARK INTER + INTRA:          -6.835
REMARK INTER:                  -6.073
REMARK INTRA:                  -0.763
REMARK UNBOUND:                -0.763
REMARK SMILES CC(=O)OCC=C(C)CCC=C(C)C
REMARK SMILES IDX 7 1 6 2 8 3 9 4 10 5 11 6 13 7 12 8 14 9 5 10 4 11 2 12 3 13
REMARK SMILES IDX 1 14
REMARK H PARENT
REMARK Flexibility Score: inf
ROOT
ATOM      1  C   UNL     1       0.865 -23.333  -9.561  1.00  0.00    -0.074 C 
ATOM      2  C   UNL     1       1.935 -22.539  -9.783  1.00  0.00     0.013 C 
ATOM      3  C   UNL     1      -0.448 -22.765  -9.075  1.00  0.00     0.039 C 
ENDROOT
BRANCH   1   4
ATOM      4  C   UNL     1       0.983 -24.824  -9.803  1.00  0.00     0.034 C 
BRANCH   4   5
ATOM      5  C   UNL     1      -0.393 -25.498  -9.904  1.00  0.00     0.032 C 
BRANCH   5   6
ATOM      6  C   UNL     1      -0.463 -26.754  -9.066  1.00  0.00    -0.028 C 
ATOM      7  C   UNL     1      -1.768 -25.661  -7.229  1.00  0.00     0.039 C 
ATOM      8  C   UNL     1      -1.050 -26.833  -7.852  1.00  0.00    -0.080 C 
ATOM      9  C   UNL     1      -0.994 -28.147  -7.114  1.00  0.00     0.039 C 
ENDBRANCH   5   6
ENDBRANCH   4   5
ENDBRANCH   1   4
BRANCH   2  10
ATOM     10  C   UNL     1       1.916 -21.051  -9.565  1.00  0.00     0.260 C 
BRANCH  10  11
ATOM     11  O   UNL     1       1.794 -20.387 -10.818  1.00  0.00    -0.462 OA
BRANCH  11  12
ATOM     12  C   UNL     1       0.734 -19.523 -11.112  1.00  0.00     0.302 C 
ATOM     13  O   UNL     1       0.870 -18.275 -10.995  1.00  0.00    -0.253 OA
ATOM     14  C   UNL     1      -0.584 -20.088 -11.519  1.00  0.00     0.139 C 
ENDBRANCH  11  12
ENDBRANCH  10  11
ENDBRANCH   2  10
TORSDOF 6
ENDMDL
MODEL 2
REMARK VINA RESULT:    -4.389      3.947      6.854
REMARK INTER + INTRA:          -6.691
REMARK INTER:                  -5.962
REMARK INTRA:                  -0.729
REMARK UNBOUND:                -0.763
REMARK SMILES CC(=O)OCC=C(C)CCC=C(C)C
REMARK SMILES IDX 7 1 6 2 8 3 9 4 10 5 11 6 13 7 12 8 14 9 5 10 4 11 2 12 3 13
REMARK SMILES IDX 1 14
REMARK H PARENT
REMARK Flexibility Score: inf
ROOT
ATOM      1  C   UNL     1       0.207 -25.546  -9.495  1.00  0.00    -0.074 C 
ATOM      2  C   UNL     1       0.887 -26.713  -9.512  1.00  0.00     0.013 C 
ATOM      3  C   UNL     1      -1.264 -25.498  -9.150  1.00  0.00     0.039 C 
ENDROOT
BRANCH   1   4
ATOM      4  C   UNL     1       0.933 -24.258  -9.825  1.00  0.00     0.034 C 
BRANCH   4   5
ATOM      5  C   UNL     1      -0.020 -23.191 -10.384  1.00  0.00     0.032 C 
BRANCH   5   6
ATOM      6  C   UNL     1       0.318 -21.813  -9.865  1.00  0.00    -0.028 C 
ATOM      7  C   UNL     1      -1.333 -21.929  -7.985  1.00  0.00     0.039 C 
ATOM      8  C   UNL     1      -0.284 -21.222  -8.810  1.00  0.00    -0.080 C 
ATOM      9  C   UNL     1       0.128 -19.819  -8.443  1.00  0.00     0.039 C 
ENDBRANCH   5   6
ENDBRANCH   4   5
ENDBRANCH   1   4
BRANCH   2  10
ATOM     10  C   UNL     1       0.252 -28.042  -9.205  1.00  0.00     0.260 C 
BRANCH  10  11
ATOM     11  O   UNL     1       0.318 -28.289  -7.804  1.00  0.00    -0.462 OA
BRANCH  11  12
ATOM     12  C   UNL     1      -0.771 -28.772  -7.073  1.00  0.00     0.302 C 
ATOM     13  O   UNL     1      -1.037 -30.004  -7.053  1.00  0.00    -0.253 OA
ATOM     14  C   UNL     1      -1.655 -27.814  -6.350  1.00  0.00     0.139 C 
ENDBRANCH  11  12
ENDBRANCH  10  11
ENDBRANCH   2  10
TORSDOF 6
ENDMDL
MODEL 3
REMARK VINA RESULT:    -4.384      3.425      6.501
REMARK INTER + INTRA:          -6.684
REMARK INTER:                  -6.000
REMARK INTRA:                  -0.684
REMARK UNBOUND:                -0.763
REMARK SMILES CC(=O)OCC=C(C)CCC=C(C)C
REMARK SMILES IDX 7 1 6 2 8 3 9 4 10 5 11 6 13 7 12 8 14 9 5 10 4 11 2 12 3 13
REMARK SMILES IDX 1 14
REMARK H PARENT
REMARK Flexibility Score: inf
ROOT
ATOM      1  C   UNL     1       0.466 -23.658 -10.394  1.00  0.00    -0.074 C 
ATOM      2  C   UNL     1       0.908 -24.704  -9.662  1.00  0.00     0.013 C 
ATOM      3  C   UNL     1      -0.891 -23.682 -11.059  1.00  0.00     0.039 C 
ENDROOT
BRANCH   1   4
ATOM      4  C   UNL     1       1.346 -22.436 -10.551  1.00  0.00     0.034 C 
BRANCH   4   5
ATOM      5  C   UNL     1       1.679 -21.792  -9.197  1.00  0.00     0.032 C 
BRANCH   5   6
ATOM      6  C   UNL     1       0.992 -20.458  -9.027  1.00  0.00    -0.028 C 
ATOM      7  C   UNL     1      -1.049 -21.450  -7.966  1.00  0.00     0.039 C 
ATOM      8  C   UNL     1      -0.243 -20.292  -8.505  1.00  0.00    -0.080 C 
ATOM      9  C   UNL     1      -0.816 -18.899  -8.449  1.00  0.00     0.039 C 
ENDBRANCH   5   6
ENDBRANCH   4   5
ENDBRANCH   1   4
BRANCH   2  10
ATOM     10  C   UNL     1       0.110 -25.961  -9.455  1.00  0.00     0.260 C 
BRANCH  10  11
ATOM     11  O   UNL     1       0.888 -27.089  -9.842  1.00  0.00    -0.462 OA
BRANCH  11  12
ATOM     12  C   UNL     1       0.799 -28.324  -9.191  1.00  0.00     0.302 C 
ATOM     13  O   UNL     1       1.218 -29.376  -9.746  1.00  0.00    -0.253 OA
ATOM     14  C   UNL     1       0.157 -28.401  -7.848  1.00  0.00     0.139 C 
ENDBRANCH  11  12
ENDBRANCH  10  11
ENDBRANCH   2  10
TORSDOF 6
ENDMDL
MODEL 4
REMARK VINA RESULT:    -4.371      1.753      3.070
REMARK INTER + INTRA:          -6.667
REMARK INTER:                  -5.996
REMARK INTRA:                  -0.671
REMARK UNBOUND:                -0.763
REMARK SMILES CC(=O)OCC=C(C)CCC=C(C)C
REMARK SMILES IDX 7 1 6 2 8 3 9 4 10 5 11 6 13 7 12 8 14 9 5 10 4 11 2 12 3 13
REMARK SMILES IDX 1 14
REMARK H PARENT
REMARK Flexibility Score: inf
ROOT
ATOM      1  C   UNL     1      -1.825 -23.874  -7.685  1.00  0.00    -0.074 C 
ATOM      2  C   UNL     1      -1.373 -23.822  -8.956  1.00  0.00     0.013 C 
ATOM      3  C   UNL     1      -2.125 -22.615  -6.905  1.00  0.00     0.039 C 
ENDROOT
BRANCH   1   4
ATOM      4  C   UNL     1      -2.037 -25.221  -7.026  1.00  0.00     0.034 C 
BRANCH   4   5
ATOM      5  C   UNL     1      -2.011 -26.368  -8.047  1.00  0.00     0.032 C 
BRANCH   5   6
ATOM      6  C   UNL     1      -1.000 -27.427  -7.674  1.00  0.00    -0.028 C 
ATOM      7  C   UNL     1       0.552 -26.851  -9.554  1.00  0.00     0.039 C 
ATOM      8  C   UNL     1       0.138 -27.675  -8.358  1.00  0.00    -0.080 C 
ATOM      9  C   UNL     1       1.024 -28.802  -7.890  1.00  0.00     0.039 C 
ENDBRANCH   5   6
ENDBRANCH   4   5
ENDBRANCH   1   4
BRANCH   2  10
ATOM     10  C   UNL     1      -1.126 -22.533  -9.692  1.00  0.00     0.260 C 
BRANCH  10  11
ATOM     11  O   UNL     1      -0.234 -22.766 -10.776  1.00  0.00    -0.462 OA
BRANCH  11  12
ATOM     12  C   UNL     1       1.006 -22.129 -10.882  1.00  0.00     0.302 C 
ATOM     13  O   UNL     1       1.314 -21.485 -11.921  1.00  0.00    -0.253 OA
ATOM     14  C   UNL     1       1.993 -22.255  -9.771  1.00  0.00     0.139 C 
ENDBRANCH  11  12
ENDBRANCH  10  11
ENDBRANCH   2  10
TORSDOF 6
ENDMDL
MODEL 5
REMARK VINA RESULT:    -4.330      1.537      2.066
REMARK INTER + INTRA:          -6.612
REMARK INTER:                  -6.047
REMARK INTRA:                  -0.565
REMARK UNBOUND:                -0.763
REMARK SMILES CC(=O)OCC=C(C)CCC=C(C)C
REMARK SMILES IDX 7 1 6 2 8 3 9 4 10 5 11 6 13 7 12 8 14 9 5 10 4 11 2 12 3 13
REMARK SMILES IDX 1 14
REMARK H PARENT
REMARK Flexibility Score: inf
ROOT
ATOM      1  C   UNL     1       0.038 -23.747 -10.407  1.00  0.00    -0.074 C 
ATOM      2  C   UNL     1       1.201 -23.528  -9.757  1.00  0.00     0.013 C 
ATOM      3  C   UNL     1      -0.505 -22.752 -11.405  1.00  0.00     0.039 C 
ENDROOT
BRANCH   1   4
ATOM      4  C   UNL     1      -0.739 -25.018 -10.131  1.00  0.00     0.034 C 
BRANCH   4   5
ATOM      5  C   UNL     1       0.137 -26.092  -9.467  1.00  0.00     0.032 C 
BRANCH   5   6
ATOM      6  C   UNL     1      -0.622 -26.855  -8.407  1.00  0.00    -0.028 C 
ATOM      7  C   UNL     1       1.043 -28.724  -8.318  1.00  0.00     0.039 C 
ATOM      8  C   UNL     1      -0.243 -28.051  -7.904  1.00  0.00    -0.080 C 
ATOM      9  C   UNL     1      -1.135 -28.714  -6.886  1.00  0.00     0.039 C 
ENDBRANCH   5   6
ENDBRANCH   4   5
ENDBRANCH   1   4
BRANCH   2  10
ATOM     10  C   UNL     1       2.039 -22.294  -9.959  1.00  0.00     0.260 C 
BRANCH  10  11
ATOM     11  O   UNL     1       1.753 -21.350  -8.933  1.00  0.00    -0.462 OA
BRANCH  11  12
ATOM     12  C   UNL     1       0.932 -20.238  -9.140  1.00  0.00     0.302 C 
ATOM     13  O   UNL     1       0.038 -19.932  -8.306  1.00  0.00    -0.253 OA
ATOM     14  C   UNL     1       1.085 -19.434 -10.387  1.00  0.00     0.139 C 
ENDBRANCH  11  12
ENDBRANCH  10  11
ENDBRANCH   2  10
TORSDOF 6
ENDMDL
MODEL 6
REMARK VINA RESULT:    -4.309      4.344      7.215
REMARK INTER + INTRA:          -6.584
REMARK INTER:                  -5.859
REMARK INTRA:                  -0.725
REMARK UNBOUND:                -0.763
REMARK SMILES CC(=O)OCC=C(C)CCC=C(C)C
REMARK SMILES IDX 7 1 6 2 8 3 9 4 10 5 11 6 13 7 12 8 14 9 5 10 4 11 2 12 3 13
REMARK SMILES IDX 1 14
REMARK H PARENT
REMARK Flexibility Score: inf
ROOT
ATOM      1  C   UNL     1      -1.944 -26.484  -7.130  1.00  0.00    -0.074 C 
ATOM      2  C   UNL     1      -1.901 -27.280  -8.220  1.00  0.00     0.013 C 
ATOM      3  C   UNL     1      -2.013 -27.063  -5.735  1.00  0.00     0.039 C 
ENDROOT
BRANCH   1   4
ATOM      4  C   UNL     1      -1.923 -24.979  -7.307  1.00  0.00     0.034 C 
BRANCH   4   5
ATOM      5  C   UNL     1      -1.931 -24.577  -8.789  1.00  0.00     0.032 C 
BRANCH   5   6
ATOM      6  C   UNL     1      -0.802 -23.628  -9.117  1.00  0.00    -0.028 C 
ATOM      7  C   UNL     1       0.765 -25.456  -9.806  1.00  0.00     0.039 C 
ATOM      8  C   UNL     1       0.422 -24.009  -9.544  1.00  0.00    -0.080 C 
ATOM      9  C   UNL     1       1.462 -22.944  -9.781  1.00  0.00     0.039 C 
ENDBRANCH   5   6
ENDBRANCH   4   5
ENDBRANCH   1   4
BRANCH   2  10
ATOM     10  C   UNL     1      -1.923 -28.782  -8.145  1.00  0.00     0.260 C 
BRANCH  10  11
ATOM     11  O   UNL     1      -1.144 -29.324  -9.206  1.00  0.00    -0.462 OA
BRANCH  11  12
ATOM     12  C   UNL     1       0.135 -29.852  -9.007  1.00  0.00     0.302 C 
ATOM     13  O   UNL     1       0.413 -31.025  -9.377  1.00  0.00    -0.253 OA
ATOM     14  C   UNL     1       1.166 -29.035  -8.305  1.00  0.00     0.139 C 
ENDBRANCH  11  12
ENDBRANCH  10  11
ENDBRANCH   2  10
TORSDOF 6
ENDMDL
MODEL 7
REMARK VINA RESULT:    -4.263      4.004      7.145
REMARK INTER + INTRA:          -6.522
REMARK INTER:                  -5.965
REMARK INTRA:                  -0.557
REMARK UNBOUND:                -0.763
REMARK SMILES CC(=O)OCC=C(C)CCC=C(C)C
REMARK SMILES IDX 7 1 6 2 8 3 9 4 10 5 11 6 13 7 12 8 14 9 5 10 4 11 2 12 3 13
REMARK SMILES IDX 1 14
REMARK H PARENT
REMARK Flexibility Score: inf
ROOT
ATOM      1  C   UNL     1      -0.389 -26.281  -9.947  1.00  0.00    -0.074 C 
ATOM      2  C   UNL     1       0.658 -26.821  -9.285  1.00  0.00     0.013 C 
ATOM      3  C   UNL     1      -1.483 -27.146 -10.527  1.00  0.00     0.039 C 
ENDROOT
BRANCH   1   4
ATOM      4  C   UNL     1      -0.468 -24.777 -10.111  1.00  0.00     0.034 C 
BRANCH   4   5
ATOM      5  C   UNL     1       0.925 -24.130 -10.136  1.00  0.00     0.032 C 
BRANCH   5   6
ATOM      6  C   UNL     1       0.922 -22.769  -9.478  1.00  0.00    -0.028 C 
ATOM      7  C   UNL     1       1.956 -21.623 -11.450  1.00  0.00     0.039 C 
ATOM      8  C   UNL     1       1.409 -21.643 -10.043  1.00  0.00    -0.080 C 
ATOM      9  C   UNL     1       1.381 -20.368  -9.239  1.00  0.00     0.039 C 
ENDBRANCH   5   6
ENDBRANCH   4   5
ENDBRANCH   1   4
BRANCH   2  10
ATOM     10  C   UNL     1       0.826 -28.301  -9.077  1.00  0.00     0.260 C 
BRANCH  10  11
ATOM     11  O   UNL     1       0.668 -28.609  -7.696  1.00  0.00    -0.462 OA
BRANCH  11  12
ATOM     12  C   UNL     1      -0.574 -28.914  -7.130  1.00  0.00     0.302 C 
ATOM     13  O   UNL     1      -0.997 -30.102  -7.107  1.00  0.00    -0.253 OA
ATOM     14  C   UNL     1      -1.427 -27.815  -6.593  1.00  0.00     0.139 C 
ENDBRANCH  11  12
ENDBRANCH  10  11
ENDBRANCH   2  10
TORSDOF 6
ENDMDL
MODEL 8
REMARK VINA RESULT:    -4.203      3.979      7.307
REMARK INTER + INTRA:          -6.440
REMARK INTER:                  -5.828
REMARK INTRA:                  -0.612
REMARK UNBOUND:                -0.763
REMARK SMILES CC(=O)OCC=C(C)CCC=C(C)C
REMARK SMILES IDX 7 1 6 2 8 3 9 4 10 5 11 6 13 7 12 8 14 9 5 10 4 11 2 12 3 13
REMARK SMILES IDX 1 14
REMARK H PARENT
REMARK Flexibility Score: inf
ROOT
ATOM      1  C   UNL     1      -0.855 -25.491  -9.093  1.00  0.00    -0.074 C 
ATOM      2  C   UNL     1      -1.369 -25.737  -7.869  1.00  0.00     0.013 C 
ATOM      3  C   UNL     1      -0.937 -26.516 -10.201  1.00  0.00     0.039 C 
ENDROOT
BRANCH   1   4
ATOM      4  C   UNL     1      -0.183 -24.161  -9.363  1.00  0.00     0.034 C 
BRANCH   4   5
ATOM      5  C   UNL     1      -0.327 -23.734 -10.832  1.00  0.00     0.032 C 
BRANCH   5   6
ATOM      6  C   UNL     1      -0.509 -22.240 -10.965  1.00  0.00    -0.028 C 
ATOM      7  C   UNL     1       1.898 -21.823 -11.516  1.00  0.00     0.039 C 
ATOM      8  C   UNL     1       0.485 -21.368 -11.241  1.00  0.00    -0.080 C 
ATOM      9  C   UNL     1       0.155 -19.898 -11.291  1.00  0.00     0.039 C 
ENDBRANCH   5   6
ENDBRANCH   4   5
ENDBRANCH   1   4
BRANCH   2  10
ATOM     10  C   UNL     1      -2.049 -27.029  -7.505  1.00  0.00     0.260 C 
BRANCH  10  11
ATOM     11  O   UNL     1      -1.184 -27.807  -6.684  1.00  0.00    -0.462 OA
BRANCH  11  12
ATOM     12  C   UNL     1      -0.499 -28.928  -7.162  1.00  0.00     0.302 C 
ATOM     13  O   UNL     1      -1.012 -30.078  -7.086  1.00  0.00    -0.253 OA
ATOM     14  C   UNL     1       0.872 -28.767  -7.724  1.00  0.00     0.139 C 
ENDBRANCH  11  12
ENDBRANCH  10  11
ENDBRANCH   2  10
TORSDOF 6
ENDMDL
MODEL 9
REMARK VINA RESULT:    -4.198      1.351      2.660
REMARK INTER + INTRA:          -6.433
REMARK INTER:                  -5.949
REMARK INTRA:                  -0.484
REMARK UNBOUND:                -0.763
REMARK SMILES CC(=O)OCC=C(C)CCC=C(C)C
REMARK SMILES IDX 7 1 6 2 8 3 9 4 10 5 11 6 13 7 12 8 14 9 5 10 4 11 2 12 3 13
REMARK SMILES IDX 1 14
REMARK H PARENT
REMARK Flexibility Score: inf
ROOT
ATOM      1  C   UNL     1      -0.275 -25.384  -9.270  1.00  0.00    -0.074 C 
ATOM      2  C   UNL     1      -0.167 -24.041  -9.362  1.00  0.00     0.013 C 
ATOM      3  C   UNL     1       0.881 -26.292  -9.618  1.00  0.00     0.039 C 
ENDROOT
BRANCH   1   4
ATOM      4  C   UNL     1      -1.583 -25.993  -8.807  1.00  0.00     0.034 C 
BRANCH   4   5
ATOM      5  C   UNL     1      -1.504 -26.482  -7.353  1.00  0.00     0.032 C 
BRANCH   5   6
ATOM      6  C   UNL     1      -1.933 -27.924  -7.223  1.00  0.00    -0.028 C 
ATOM      7  C   UNL     1       0.406 -28.811  -7.341  1.00  0.00     0.039 C 
ATOM      8  C   UNL     1      -1.092 -28.981  -7.247  1.00  0.00    -0.080 C 
ATOM      9  C   UNL     1      -1.678 -30.366  -7.157  1.00  0.00     0.039 C 
ENDBRANCH   5   6
ENDBRANCH   4   5
ENDBRANCH   1   4
BRANCH   2  10
ATOM     10  C   UNL     1       1.087 -23.344  -9.817  1.00  0.00     0.260 C 
BRANCH  10  11
ATOM     11  O   UNL     1       1.009 -21.961  -9.489  1.00  0.00    -0.462 OA
BRANCH  11  12
ATOM     12  C   UNL     1       1.395 -20.954 -10.379  1.00  0.00     0.302 C 
ATOM     13  O   UNL     1       2.160 -20.024 -10.007  1.00  0.00    -0.253 OA
ATOM     14  C   UNL     1       0.853 -20.955 -11.768  1.00  0.00     0.139 C 
ENDBRANCH  11  12
ENDBRANCH  10  11
ENDBRANCH   2  10
TORSDOF 6
ENDMDL
