MODEL 1
REMARK VINA RESULT:    -4.224      0.000      0.000
REMARK INTER + INTRA:          -4.898
REMARK INTER:                  -4.595
REMARK INTRA:                  -0.303
REMARK UNBOUND:                -0.303
REMARK SMILES CC(=O)c1cc(C)ccc1O
REMARK SMILES IDX 7 1 6 2 5 3 4 4 10 5 9 6 8 7 2 8 3 9 1 10 11 11
REMARK H PARENT 11 12
REMARK Flexibility Score: inf
ROOT
ATOM      1  C   UNL     1      28.282  38.425  17.530  1.00  0.00     0.044 C 
ATOM      2  C   UNL     1      27.570  39.069  18.683  1.00  0.00    -0.050 A 
ATOM      3  C   UNL     1      27.623  40.459  18.857  1.00  0.00     0.019 A 
ATOM      4  C   UNL     1      26.939  41.083  19.918  1.00  0.00     0.059 A 
ATOM      5  C   UNL     1      26.160  40.286  20.791  1.00  0.00     0.126 A 
ATOM      6  C   UNL     1      26.103  38.897  20.602  1.00  0.00     0.047 A 
ATOM      7  C   UNL     1      26.797  38.293  19.554  1.00  0.00     0.007 A 
ENDROOT
BRANCH   4   8
ATOM      8  C   UNL     1      27.048  42.559  20.070  1.00  0.00     0.163 C 
ATOM      9  O   UNL     1      27.190  43.053  21.221  1.00  0.00    -0.294 OA
ATOM     10  C   UNL     1      26.995  43.494  18.900  1.00  0.00     0.093 C 
ENDBRANCH   4   8
BRANCH   5  11
ATOM     11  O   UNL     1      25.425  40.863  21.825  1.00  0.00    -0.507 OA
ATOM     12  H   UNL     1      24.454  41.126  21.707  1.00  0.00     0.293 HD
ENDBRANCH   5  11
TORSDOF 2
ENDMDL
MODEL 2
REMARK VINA RESULT:    -3.974      2.424      4.523
REMARK INTER + INTRA:          -4.625
REMARK INTER:                  -4.326
REMARK INTRA:                  -0.300
REMARK UNBOUND:                -0.303
REMARK SMILES CC(=O)c1cc(C)ccc1O
REMARK SMILES IDX 7 1 6 2 5 3 4 4 10 5 9 6 8 7 2 8 3 9 1 10 11 11
REMARK H PARENT 11 12
REMARK Flexibility Score: inf
ROOT
ATOM      1  C   UNL     1      26.159  42.263  22.370  1.00  0.00     0.044 C 
ATOM      2  C   UNL     1      26.661  41.554  21.147  1.00  0.00    -0.050 A 
ATOM      3  C   UNL     1      26.619  40.155  21.074  1.00  0.00     0.019 A 
ATOM      4  C   UNL     1      27.062  39.475  19.923  1.00  0.00     0.059 A 
ATOM      5  C   UNL     1      27.518  40.230  18.817  1.00  0.00     0.126 A 
ATOM      6  C   UNL     1      27.546  41.630  18.893  1.00  0.00     0.047 A 
ATOM      7  C   UNL     1      27.116  42.288  20.045  1.00  0.00     0.007 A 
ENDROOT
BRANCH   4   8
ATOM      8  C   UNL     1      27.016  37.987  19.909  1.00  0.00     0.163 C 
ATOM      9  O   UNL     1      27.958  37.346  19.371  1.00  0.00    -0.294 OA
ATOM     10  C   UNL     1      25.884  37.212  20.512  1.00  0.00     0.093 C 
ENDBRANCH   4   8
BRANCH   5  11
ATOM     11  O   UNL     1      27.919  39.605  17.638  1.00  0.00    -0.507 OA
ATOM     12  H   UNL     1      28.458  40.091  16.932  1.00  0.00     0.293 HD
ENDBRANCH   5  11
TORSDOF 2
ENDMDL
MODEL 3
REMARK VINA RESULT:    -3.956      1.666      3.777
REMARK INTER + INTRA:          -4.606
REMARK INTER:                  -4.370
REMARK INTRA:                  -0.236
REMARK UNBOUND:                -0.303
REMARK SMILES CC(=O)c1cc(C)ccc1O
REMARK SMILES IDX 7 1 6 2 5 3 4 4 10 5 9 6 8 7 2 8 3 9 1 10 11 11
REMARK H PARENT 11 12
REMARK Flexibility Score: inf
ROOT
ATOM      1  C   UNL     1      27.825  44.125  18.982  1.00  0.00     0.044 C 
ATOM      2  C   UNL     1      27.314  42.857  19.599  1.00  0.00    -0.050 A 
ATOM      3  C   UNL     1      27.589  41.619  19.001  1.00  0.00     0.019 A 
ATOM      4  C   UNL     1      27.140  40.417  19.582  1.00  0.00     0.059 A 
ATOM      5  C   UNL     1      26.435  40.473  20.807  1.00  0.00     0.126 A 
ATOM      6  C   UNL     1      26.175  41.714  21.406  1.00  0.00     0.047 A 
ATOM      7  C   UNL     1      26.615  42.896  20.811  1.00  0.00     0.007 A 
ENDROOT
BRANCH   4   8
ATOM      8  C   UNL     1      27.440  39.133  18.891  1.00  0.00     0.163 C 
ATOM      9  O   UNL     1      26.502  38.491  18.347  1.00  0.00    -0.294 OA
ATOM     10  C   UNL     1      28.825  38.566  18.816  1.00  0.00     0.093 C 
ENDBRANCH   4   8
BRANCH   5  11
ATOM     11  O   UNL     1      26.015  39.308  21.446  1.00  0.00    -0.507 OA
ATOM     12  H   UNL     1      26.585  38.847  22.145  1.00  0.00     0.293 HD
ENDBRANCH   5  11
TORSDOF 2
ENDMDL
MODEL 4
REMARK VINA RESULT:    -3.882      1.456      2.699
REMARK INTER + INTRA:          -4.525
REMARK INTER:                  -4.229
REMARK INTRA:                  -0.296
REMARK UNBOUND:                -0.303
REMARK SMILES CC(=O)c1cc(C)ccc1O
REMARK SMILES IDX 7 1 6 2 5 3 4 4 10 5 9 6 8 7 2 8 3 9 1 10 11 11
REMARK H PARENT 11 12
REMARK Flexibility Score: inf
ROOT
ATOM      1  C   UNL     1      25.415  37.346  20.679  1.00  0.00     0.044 C 
ATOM      2  C   UNL     1      26.113  38.582  20.194  1.00  0.00    -0.050 A 
ATOM      3  C   UNL     1      26.001  39.783  20.908  1.00  0.00     0.019 A 
ATOM      4  C   UNL     1      26.671  40.946  20.483  1.00  0.00     0.059 A 
ATOM      5  C   UNL     1      27.497  40.876  19.336  1.00  0.00     0.126 A 
ATOM      6  C   UNL     1      27.614  39.668  18.633  1.00  0.00     0.047 A 
ATOM      7  C   UNL     1      26.933  38.529  19.061  1.00  0.00     0.007 A 
ENDROOT
BRANCH   4   8
ATOM      8  C   UNL     1      26.498  42.199  21.266  1.00  0.00     0.163 C 
ATOM      9  O   UNL     1      26.069  43.234  20.689  1.00  0.00    -0.294 OA
ATOM     10  C   UNL     1      26.816  42.283  22.728  1.00  0.00     0.093 C 
ENDBRANCH   4   8
BRANCH   5  11
ATOM     11  O   UNL     1      28.220  41.987  18.905  1.00  0.00    -0.507 OA
ATOM     12  H   UNL     1      28.383  42.169  17.922  1.00  0.00     0.293 HD
ENDBRANCH   5  11
TORSDOF 2
ENDMDL
MODEL 5
REMARK VINA RESULT:    -3.795      4.780      6.268
REMARK INTER + INTRA:          -4.431
REMARK INTER:                  -4.135
REMARK INTRA:                  -0.295
REMARK UNBOUND:                -0.303
REMARK SMILES CC(=O)c1cc(C)ccc1O
REMARK SMILES IDX 7 1 6 2 5 3 4 4 10 5 9 6 8 7 2 8 3 9 1 10 11 11
REMARK H PARENT 11 12
REMARK Flexibility Score: inf
ROOT
ATOM      1  C   UNL     1      27.114  35.875  24.989  1.00  0.00     0.044 C 
ATOM      2  C   UNL     1      27.522  35.437  23.613  1.00  0.00    -0.050 A 
ATOM      3  C   UNL     1      27.484  36.342  22.543  1.00  0.00     0.019 A 
ATOM      4  C   UNL     1      27.890  35.956  21.252  1.00  0.00     0.059 A 
ATOM      5  C   UNL     1      28.376  34.641  21.053  1.00  0.00     0.126 A 
ATOM      6  C   UNL     1      28.422  33.745  22.131  1.00  0.00     0.047 A 
ATOM      7  C   UNL     1      28.004  34.140  23.402  1.00  0.00     0.007 A 
ENDROOT
BRANCH   4   8
ATOM      8  C   UNL     1      27.807  36.951  20.148  1.00  0.00     0.163 C 
ATOM      9  O   UNL     1      28.730  37.000  19.291  1.00  0.00    -0.294 OA
ATOM     10  C   UNL     1      26.661  37.906  20.012  1.00  0.00     0.093 C 
ENDBRANCH   4   8
BRANCH   5  11
ATOM     11  O   UNL     1      28.836  34.228  19.804  1.00  0.00    -0.507 OA
ATOM     12  H   UNL     1      29.388  33.386  19.691  1.00  0.00     0.293 HD
ENDBRANCH   5  11
TORSDOF 2
ENDMDL
MODEL 6
REMARK VINA RESULT:    -3.751      5.105      6.631
REMARK INTER + INTRA:          -4.383
REMARK INTER:                  -4.120
REMARK INTRA:                  -0.263
REMARK UNBOUND:                -0.303
REMARK SMILES CC(=O)c1cc(C)ccc1O
REMARK SMILES IDX 7 1 6 2 5 3 4 4 10 5 9 6 8 7 2 8 3 9 1 10 11 11
REMARK H PARENT 11 12
REMARK Flexibility Score: inf
ROOT
ATOM      1  C   UNL     1      28.452  32.304  23.941  1.00  0.00     0.044 C 
ATOM      2  C   UNL     1      28.183  33.701  23.466  1.00  0.00    -0.050 A 
ATOM      3  C   UNL     1      28.599  34.105  22.190  1.00  0.00     0.019 A 
ATOM      4  C   UNL     1      28.331  35.405  21.717  1.00  0.00     0.059 A 
ATOM      5  C   UNL     1      27.597  36.292  22.540  1.00  0.00     0.126 A 
ATOM      6  C   UNL     1      27.174  35.876  23.811  1.00  0.00     0.047 A 
ATOM      7  C   UNL     1      27.459  34.590  24.269  1.00  0.00     0.007 A 
ENDROOT
BRANCH   4   8
ATOM      8  C   UNL     1      28.816  35.788  20.363  1.00  0.00     0.163 C 
ATOM      9  O   UNL     1      28.975  37.007  20.087  1.00  0.00    -0.294 OA
ATOM     10  C   UNL     1      29.125  34.775  19.304  1.00  0.00     0.093 C 
ENDBRANCH   4   8
BRANCH   5  11
ATOM     11  O   UNL     1      27.264  37.571  22.096  1.00  0.00    -0.507 OA
ATOM     12  H   UNL     1      27.920  38.341  22.147  1.00  0.00     0.293 HD
ENDBRANCH   5  11
TORSDOF 2
ENDMDL
MODEL 7
REMARK VINA RESULT:    -3.735      3.522      4.911
REMARK INTER + INTRA:          -4.365
REMARK INTER:                  -4.078
REMARK INTRA:                  -0.287
REMARK UNBOUND:                -0.303
REMARK SMILES CC(=O)c1cc(C)ccc1O
REMARK SMILES IDX 7 1 6 2 5 3 4 4 10 5 9 6 8 7 2 8 3 9 1 10 11 11
REMARK H PARENT 11 12
REMARK Flexibility Score: inf
ROOT
ATOM      1  C   UNL     1      27.002  35.479  23.851  1.00  0.00     0.044 C 
ATOM      2  C   UNL     1      27.495  35.889  22.495  1.00  0.00    -0.050 A 
ATOM      3  C   UNL     1      26.906  36.973  21.828  1.00  0.00     0.019 A 
ATOM      4  C   UNL     1      27.374  37.389  20.566  1.00  0.00     0.059 A 
ATOM      5  C   UNL     1      28.480  36.717  19.993  1.00  0.00     0.126 A 
ATOM      6  C   UNL     1      29.071  35.642  20.672  1.00  0.00     0.047 A 
ATOM      7  C   UNL     1      28.587  35.234  21.915  1.00  0.00     0.007 A 
ENDROOT
BRANCH   4   8
ATOM      8  C   UNL     1      26.698  38.530  19.893  1.00  0.00     0.163 C 
ATOM      9  O   UNL     1      26.624  38.549  18.635  1.00  0.00    -0.294 OA
ATOM     10  C   UNL     1      26.094  39.670  20.655  1.00  0.00     0.093 C 
ENDBRANCH   4   8
BRANCH   5  11
ATOM     11  O   UNL     1      29.011  37.124  18.770  1.00  0.00    -0.507 OA
ATOM     12  H   UNL     1      28.453  37.140  17.925  1.00  0.00     0.293 HD
ENDBRANCH   5  11
TORSDOF 2
ENDMDL
MODEL 8
REMARK VINA RESULT:    -3.679     14.208     15.495
REMARK INTER + INTRA:          -4.304
REMARK INTER:                  -4.169
REMARK INTRA:                  -0.135
REMARK UNBOUND:                -0.303
REMARK SMILES CC(=O)c1cc(C)ccc1O
REMARK SMILES IDX 7 1 6 2 5 3 4 4 10 5 9 6 8 7 2 8 3 9 1 10 11 11
REMARK H PARENT 11 12
REMARK Flexibility Score: inf
ROOT
ATOM      1  C   UNL     1      28.474  28.503  25.715  1.00  0.00     0.044 C 
ATOM      2  C   UNL     1      27.771  28.443  27.038  1.00  0.00    -0.050 A 
ATOM      3  C   UNL     1      26.481  27.901  27.129  1.00  0.00     0.019 A 
ATOM      4  C   UNL     1      25.817  27.812  28.367  1.00  0.00     0.059 A 
ATOM      5  C   UNL     1      26.489  28.245  29.535  1.00  0.00     0.126 A 
ATOM      6  C   UNL     1      27.784  28.774  29.438  1.00  0.00     0.047 A 
ATOM      7  C   UNL     1      28.423  28.868  28.202  1.00  0.00     0.007 A 
ENDROOT
BRANCH   4   8
ATOM      8  C   UNL     1      24.440  27.249  28.402  1.00  0.00     0.163 C 
ATOM      9  O   UNL     1      24.284  26.000  28.453  1.00  0.00    -0.294 OA
ATOM     10  C   UNL     1      23.217  28.115  28.379  1.00  0.00     0.093 C 
ENDBRANCH   4   8
BRANCH   5  11
ATOM     11  O   UNL     1      25.893  28.130  30.790  1.00  0.00    -0.507 OA
ATOM     12  H   UNL     1      25.998  27.297  31.356  1.00  0.00     0.293 HD
ENDBRANCH   5  11
TORSDOF 2
ENDMDL
MODEL 9
REMARK VINA RESULT:    -3.597      3.180      4.220
REMARK INTER + INTRA:          -4.215
REMARK INTER:                  -3.913
REMARK INTRA:                  -0.303
REMARK UNBOUND:                -0.303
REMARK SMILES CC(=O)c1cc(C)ccc1O
REMARK SMILES IDX 7 1 6 2 5 3 4 4 10 5 9 6 8 7 2 8 3 9 1 10 11 11
REMARK H PARENT 11 12
REMARK Flexibility Score: inf
ROOT
ATOM      1  C   UNL     1      28.962  33.668  20.123  1.00  0.00     0.044 C 
ATOM      2  C   UNL     1      28.580  35.042  20.585  1.00  0.00    -0.050 A 
ATOM      3  C   UNL     1      28.705  36.139  19.720  1.00  0.00     0.019 A 
ATOM      4  C   UNL     1      28.325  37.432  20.128  1.00  0.00     0.059 A 
ATOM      5  C   UNL     1      27.775  37.606  21.420  1.00  0.00     0.126 A 
ATOM      6  C   UNL     1      27.643  36.502  22.276  1.00  0.00     0.047 A 
ATOM      7  C   UNL     1      28.035  35.230  21.861  1.00  0.00     0.007 A 
ENDROOT
BRANCH   4   8
ATOM      8  C   UNL     1      28.500  38.563  19.177  1.00  0.00     0.163 C 
ATOM      9  O   UNL     1      28.941  39.664  19.602  1.00  0.00    -0.294 OA
ATOM     10  C   UNL     1      28.171  38.446  17.720  1.00  0.00     0.093 C 
ENDBRANCH   4   8
BRANCH   5  11
ATOM     11  O   UNL     1      27.338  38.857  21.851  1.00  0.00    -0.507 OA
ATOM     12  H   UNL     1      26.826  39.483  21.241  1.00  0.00     0.293 HD
ENDBRANCH   5  11
TORSDOF 2
ENDMDL
