MODEL 1
REMARK VINA RESULT:    -3.030      0.000      0.000
REMARK INTER + INTRA:          -3.867
REMARK INTER:                  -3.738
REMARK INTRA:                  -0.129
REMARK UNBOUND:                -0.129
REMARK SMILES CCCCCC(=O)[O-]
REMARK SMILES IDX 4 1 5 2 6 3 7 4 8 5 3 6 2 7 1 8
REMARK H PARENT
REMARK Flexibility Score: inf
ROOT
ATOM      1  C   UNL     1      61.475  33.003  60.314  1.00  0.00     0.006 C 
ENDROOT
BRANCH   1   2
ATOM      2  C   UNL     1      62.294  31.725  60.535  1.00  0.00     0.053 C 
BRANCH   2   3
ATOM      3  C   UNL     1      61.559  30.733  61.382  1.00  0.00     0.041 C 
ATOM      4  O   UNL     1      60.391  30.980  61.780  1.00  0.00    -0.550 OA
ATOM      5  O   UNL     1      62.154  29.521  61.708  1.00  0.00    -0.550 OA
ENDBRANCH   2   3
ENDBRANCH   1   2
BRANCH   1   6
ATOM      6  C   UNL     1      62.312  34.275  60.534  1.00  0.00     0.000 C 
BRANCH   6   7
ATOM      7  C   UNL     1      63.792  33.968  60.809  1.00  0.00    -0.003 C 
ATOM      8  C   UNL     1      64.488  35.071  61.607  1.00  0.00     0.004 C 
ENDBRANCH   6   7
ENDBRANCH   1   6
TORSDOF 4
ENDMDL
MODEL 2
REMARK VINA RESULT:    -3.019     12.449     13.558
REMARK INTER + INTRA:          -3.854
REMARK INTER:                  -3.755
REMARK INTRA:                  -0.099
REMARK UNBOUND:                -0.129
REMARK SMILES CCCCCC(=O)[O-]
REMARK SMILES IDX 4 1 5 2 6 3 7 4 8 5 3 6 2 7 1 8
REMARK H PARENT
REMARK Flexibility Score: inf
ROOT
ATOM      1  C   UNL     1      55.804  28.741  50.871  1.00  0.00     0.006 C 
ENDROOT
BRANCH   1   2
ATOM      2  C   UNL     1      57.183  28.100  50.667  1.00  0.00     0.053 C 
BRANCH   2   3
ATOM      3  C   UNL     1      58.267  29.131  50.574  1.00  0.00     0.041 C 
ATOM      4  O   UNL     1      58.791  29.402  49.462  1.00  0.00    -0.550 OA
ATOM      5  O   UNL     1      58.678  29.812  51.712  1.00  0.00    -0.550 OA
ENDBRANCH   2   3
ENDBRANCH   1   2
BRANCH   1   6
ATOM      6  C   UNL     1      54.661  27.807  50.437  1.00  0.00     0.000 C 
BRANCH   6   7
ATOM      7  C   UNL     1      55.154  26.397  50.077  1.00  0.00    -0.003 C 
ATOM      8  C   UNL     1      54.032  25.486  49.579  1.00  0.00     0.004 C 
ENDBRANCH   6   7
ENDBRANCH   1   6
TORSDOF 4
ENDMDL
MODEL 3
REMARK VINA RESULT:    -2.949     12.504     13.531
REMARK INTER + INTRA:          -3.767
REMARK INTER:                  -3.638
REMARK INTRA:                  -0.129
REMARK UNBOUND:                -0.129
REMARK SMILES CCCCCC(=O)[O-]
REMARK SMILES IDX 4 1 5 2 6 3 7 4 8 5 3 6 2 7 1 8
REMARK H PARENT
REMARK Flexibility Score: inf
ROOT
ATOM      1  C   UNL     1      57.018  28.404  51.017  1.00  0.00     0.006 C 
ENDROOT
BRANCH   1   2
ATOM      2  C   UNL     1      58.192  27.518  50.578  1.00  0.00     0.053 C 
BRANCH   2   3
ATOM      3  C   UNL     1      59.221  28.295  49.817  1.00  0.00     0.041 C 
ATOM      4  O   UNL     1      58.969  29.463  49.419  1.00  0.00    -0.550 OA
ATOM      5  O   UNL     1      60.471  27.741  49.572  1.00  0.00    -0.550 OA
ENDBRANCH   2   3
ENDBRANCH   1   2
BRANCH   1   6
ATOM      6  C   UNL     1      55.658  27.801  50.626  1.00  0.00     0.000 C 
BRANCH   6   7
ATOM      7  C   UNL     1      55.751  26.305  50.288  1.00  0.00    -0.003 C 
ATOM      8  C   UNL     1      54.458  25.752  49.688  1.00  0.00     0.004 C 
ENDBRANCH   6   7
ENDBRANCH   1   6
TORSDOF 4
ENDMDL
MODEL 4
REMARK VINA RESULT:    -2.930      3.741      4.994
REMARK INTER + INTRA:          -3.744
REMARK INTER:                  -3.642
REMARK INTRA:                  -0.103
REMARK UNBOUND:                -0.129
REMARK SMILES CCCCCC(=O)[O-]
REMARK SMILES IDX 4 1 5 2 6 3 7 4 8 5 3 6 2 7 1 8
REMARK H PARENT
REMARK Flexibility Score: inf
ROOT
ATOM      1  C   UNL     1      62.464  35.290  60.889  1.00  0.00     0.006 C 
ENDROOT
BRANCH   1   2
ATOM      2  C   UNL     1      63.873  34.764  61.191  1.00  0.00     0.053 C 
BRANCH   2   3
ATOM      3  C   UNL     1      64.807  35.868  61.581  1.00  0.00     0.041 C 
ATOM      4  O   UNL     1      65.988  35.884  61.146  1.00  0.00    -0.550 OA
ATOM      5  O   UNL     1      64.364  36.896  62.404  1.00  0.00    -0.550 OA
ENDBRANCH   2   3
ENDBRANCH   1   2
BRANCH   1   6
ATOM      6  C   UNL     1      61.540  34.191  60.335  1.00  0.00     0.000 C 
BRANCH   6   7
ATOM      7  C   UNL     1      62.147  32.787  60.470  1.00  0.00    -0.003 C 
ATOM      8  C   UNL     1      61.100  31.715  60.776  1.00  0.00     0.004 C 
ENDBRANCH   6   7
ENDBRANCH   1   6
TORSDOF 4
ENDMDL
MODEL 5
REMARK VINA RESULT:    -2.928     13.555     14.276
REMARK INTER + INTRA:          -3.741
REMARK INTER:                  -3.644
REMARK INTRA:                  -0.098
REMARK UNBOUND:                -0.129
REMARK SMILES CCCCCC(=O)[O-]
REMARK SMILES IDX 4 1 5 2 6 3 7 4 8 5 3 6 2 7 1 8
REMARK H PARENT
REMARK Flexibility Score: inf
ROOT
ATOM      1  C   UNL     1      54.544  27.783  50.327  1.00  0.00     0.006 C 
ENDROOT
BRANCH   1   2
ATOM      2  C   UNL     1      54.932  26.333  50.010  1.00  0.00     0.053 C 
BRANCH   2   3
ATOM      3  C   UNL     1      53.734  25.497  49.679  1.00  0.00     0.041 C 
ATOM      4  O   UNL     1      52.897  25.896  48.827  1.00  0.00    -0.550 OA
ATOM      5  O   UNL     1      53.558  24.262  50.290  1.00  0.00    -0.550 OA
ENDBRANCH   2   3
ENDBRANCH   1   2
BRANCH   1   6
ATOM      6  C   UNL     1      55.691  28.557  50.999  1.00  0.00     0.000 C 
BRANCH   6   7
ATOM      7  C   UNL     1      57.070  27.952  50.694  1.00  0.00    -0.003 C 
ATOM      8  C   UNL     1      58.129  29.012  50.392  1.00  0.00     0.004 C 
ENDBRANCH   6   7
ENDBRANCH   1   6
TORSDOF 4
ENDMDL
MODEL 6
REMARK VINA RESULT:    -2.910     12.373     13.104
REMARK INTER + INTRA:          -3.719
REMARK INTER:                  -3.650
REMARK INTRA:                  -0.070
REMARK UNBOUND:                -0.129
REMARK SMILES CCCCCC(=O)[O-]
REMARK SMILES IDX 4 1 5 2 6 3 7 4 8 5 3 6 2 7 1 8
REMARK H PARENT
REMARK Flexibility Score: inf
ROOT
ATOM      1  C   UNL     1      57.193  28.021  50.913  1.00  0.00     0.006 C 
ENDROOT
BRANCH   1   2
ATOM      2  C   UNL     1      55.725  28.463  50.862  1.00  0.00     0.053 C 
BRANCH   2   3
ATOM      3  C   UNL     1      54.849  27.413  50.251  1.00  0.00     0.041 C 
ATOM      4  O   UNL     1      53.650  27.672  49.968  1.00  0.00    -0.550 OA
ATOM      5  O   UNL     1      55.366  26.155  49.967  1.00  0.00    -0.550 OA
ENDBRANCH   2   3
ENDBRANCH   1   2
BRANCH   1   6
ATOM      6  C   UNL     1      58.162  29.215  50.854  1.00  0.00     0.000 C 
BRANCH   6   7
ATOM      7  C   UNL     1      59.081  29.168  49.624  1.00  0.00    -0.003 C 
ATOM      8  C   UNL     1      59.939  27.904  49.574  1.00  0.00     0.004 C 
ENDBRANCH   6   7
ENDBRANCH   1   6
TORSDOF 4
ENDMDL
MODEL 7
REMARK VINA RESULT:    -2.871     11.878     12.880
REMARK INTER + INTRA:          -3.671
REMARK INTER:                  -3.618
REMARK INTRA:                  -0.053
REMARK UNBOUND:                -0.129
REMARK SMILES CCCCCC(=O)[O-]
REMARK SMILES IDX 4 1 5 2 6 3 7 4 8 5 3 6 2 7 1 8
REMARK H PARENT
REMARK Flexibility Score: inf
ROOT
ATOM      1  C   UNL     1      58.139  29.055  50.900  1.00  0.00     0.006 C 
ENDROOT
BRANCH   1   2
ATOM      2  C   UNL     1      59.055  29.006  49.670  1.00  0.00     0.053 C 
BRANCH   2   3
ATOM      3  C   UNL     1      60.110  27.952  49.804  1.00  0.00     0.041 C 
ATOM      4  O   UNL     1      59.823  26.739  49.620  1.00  0.00    -0.550 OA
ATOM      5  O   UNL     1      61.418  28.310  50.104  1.00  0.00    -0.550 OA
ENDBRANCH   2   3
ENDBRANCH   1   2
BRANCH   1   6
ATOM      6  C   UNL     1      56.904  28.152  50.741  1.00  0.00     0.000 C 
BRANCH   6   7
ATOM      7  C   UNL     1      55.585  28.919  50.918  1.00  0.00    -0.003 C 
ATOM      8  C   UNL     1      54.374  28.145  50.398  1.00  0.00     0.004 C 
ENDBRANCH   6   7
ENDBRANCH   1   6
TORSDOF 4
ENDMDL
MODEL 8
REMARK VINA RESULT:    -2.799      2.577      3.946
REMARK INTER + INTRA:          -3.582
REMARK INTER:                  -3.409
REMARK INTRA:                  -0.173
REMARK UNBOUND:                -0.129
REMARK SMILES CCCCCC(=O)[O-]
REMARK SMILES IDX 4 1 5 2 6 3 7 4 8 5 3 6 2 7 1 8
REMARK H PARENT
REMARK Flexibility Score: inf
ROOT
ATOM      1  C   UNL     1      61.761  32.145  60.095  1.00  0.00     0.006 C 
ENDROOT
BRANCH   1   2
ATOM      2  C   UNL     1      61.549  33.652  60.293  1.00  0.00     0.053 C 
BRANCH   2   3
ATOM      3  C   UNL     1      62.789  34.327  60.794  1.00  0.00     0.041 C 
ATOM      4  O   UNL     1      62.745  35.520  61.195  1.00  0.00    -0.550 OA
ATOM      5  O   UNL     1      63.989  33.629  60.844  1.00  0.00    -0.550 OA
ENDBRANCH   2   3
ENDBRANCH   1   2
BRANCH   1   6
ATOM      6  C   UNL     1      60.961  31.307  61.107  1.00  0.00     0.000 C 
BRANCH   6   7
ATOM      7  C   UNL     1      61.728  30.063  61.580  1.00  0.00    -0.003 C 
ATOM      8  C   UNL     1      63.225  30.139  61.277  1.00  0.00     0.004 C 
ENDBRANCH   6   7
ENDBRANCH   1   6
TORSDOF 4
ENDMDL
MODEL 9
REMARK VINA RESULT:    -2.645     11.733     12.519
REMARK INTER + INTRA:          -3.393
REMARK INTER:                  -3.282
REMARK INTRA:                  -0.111
REMARK UNBOUND:                -0.129
REMARK SMILES CCCCCC(=O)[O-]
REMARK SMILES IDX 4 1 5 2 6 3 7 4 8 5 3 6 2 7 1 8
REMARK H PARENT
REMARK Flexibility Score: inf
ROOT
ATOM      1  C   UNL     1      60.047  28.109  49.632  1.00  0.00     0.006 C 
ENDROOT
BRANCH   1   2
ATOM      2  C   UNL     1      59.546  26.697  49.963  1.00  0.00     0.053 C 
BRANCH   2   3
ATOM      3  C   UNL     1      60.670  25.783  50.342  1.00  0.00     0.041 C 
ATOM      4  O   UNL     1      61.837  26.234  50.481  1.00  0.00    -0.550 OA
ATOM      5  O   UNL     1      60.423  24.435  50.571  1.00  0.00    -0.550 OA
ENDBRANCH   2   3
ENDBRANCH   1   2
BRANCH   1   6
ATOM      6  C   UNL     1      58.930  29.162  49.737  1.00  0.00     0.000 C 
BRANCH   6   7
ATOM      7  C   UNL     1      58.197  29.111  51.086  1.00  0.00    -0.003 C 
ATOM      8  C   UNL     1      56.696  28.858  50.936  1.00  0.00     0.004 C 
ENDBRANCH   6   7
ENDBRANCH   1   6
TORSDOF 4
ENDMDL
