MODEL 1
REMARK VINA RESULT:    10.064      0.000      0.000
REMARK INTER + INTRA:          12.071
REMARK INTER:                  12.418
REMARK INTRA:                  -0.346
REMARK UNBOUND:                -0.346
REMARK SMILES O=c1c(O)c(-c2cc(O)c(O)c(O)c2)oc2cc(O)cc(O)c12
REMARK SMILES IDX 5 1 3 2 2 3 1 4 23 5 21 6 20 7 18 8 17 9 16 10 15 11 6 12
REMARK SMILES IDX 7 13 8 14 14 15 10 16 12 17 9 18 11 20 13 22 4 24 22 26
REMARK SMILES IDX 19 28
REMARK H PARENT 9 19 11 21 13 23 4 25 22 27 19 29
REMARK Flexibility Score: inf
ROOT
ATOM      1  C   UNL     1      11.963  21.782  -0.403  1.00  0.00     0.180 A 
ATOM      2  C   UNL     1      13.237  21.868  -0.990  1.00  0.00     0.208 A 
ATOM      3  C   UNL     1      13.398  21.476  -2.328  1.00  0.00     0.238 A 
ATOM      4  O   UNL     1      14.530  21.607  -2.866  1.00  0.00    -0.285 OA
ATOM      5  C   UNL     1      12.288  20.987  -3.058  1.00  0.00     0.111 A 
ATOM      6  C   UNL     1      12.344  20.525  -4.407  1.00  0.00     0.134 A 
ATOM      7  C   UNL     1      11.158  20.185  -5.070  1.00  0.00     0.093 A 
ATOM      8  C   UNL     1       9.927  20.230  -4.413  1.00  0.00     0.123 A 
ATOM      9  C   UNL     1       9.869  20.623  -3.079  1.00  0.00     0.094 A 
ATOM     10  C   UNL     1      11.030  21.002  -2.400  1.00  0.00     0.146 A 
ATOM     11  O   UNL     1      10.929  21.381  -1.132  1.00  0.00    -0.452 OA
ENDROOT
BRANCH   1  12
ATOM     12  C   UNL     1      11.721  22.153   1.010  1.00  0.00     0.029 A 
ATOM     13  C   UNL     1      11.122  23.387   1.307  1.00  0.00     0.062 A 
ATOM     14  C   UNL     1      10.863  23.755   2.631  1.00  0.00     0.162 A 
ATOM     15  C   UNL     1      12.026  21.271   2.060  1.00  0.00     0.062 A 
ATOM     16  C   UNL     1      11.189  22.878   3.680  1.00  0.00     0.200 A 
ATOM     17  C   UNL     1      11.768  21.630   3.391  1.00  0.00     0.162 A 
BRANCH  14  18
ATOM     18  O   UNL     1      10.280  24.996   2.885  1.00  0.00    -0.504 OA
ATOM     19  H   UNL     1       9.467  25.097   3.482  1.00  0.00     0.293 HD
ENDBRANCH  14  18
BRANCH  16  20
ATOM     20  O   UNL     1      10.930  23.254   4.998  1.00  0.00    -0.502 OA
ATOM     21  H   UNL     1      11.307  22.746   5.789  1.00  0.00     0.293 HD
ENDBRANCH  16  20
BRANCH  17  22
ATOM     22  O   UNL     1      12.081  20.750   4.426  1.00  0.00    -0.504 OA
ATOM     23  H   UNL     1      12.183  21.069   5.382  1.00  0.00     0.293 HD
ENDBRANCH  17  22
ENDBRANCH   1  12
BRANCH   2  24
ATOM     24  O   UNL     1      14.316  22.375  -0.260  1.00  0.00    -0.502 OA
ATOM     25  H   UNL     1      14.826  23.201  -0.545  1.00  0.00     0.293 HD
ENDBRANCH   2  24
BRANCH   6  26
ATOM     26  O   UNL     1      13.531  20.354  -5.125  1.00  0.00    -0.507 OA
ATOM     27  H   UNL     1      13.580  20.141  -6.110  1.00  0.00     0.293 HD
ENDBRANCH   6  26
BRANCH   8  28
ATOM     28  O   UNL     1       8.754  19.875  -5.076  1.00  0.00    -0.508 OA
ATOM     29  H   UNL     1       8.774  19.381  -5.961  1.00  0.00     0.293 HD
ENDBRANCH   8  28
TORSDOF 7
ENDMDL
MODEL 2
REMARK VINA RESULT:    10.420      1.730      2.254
REMARK INTER + INTRA:          12.511
REMARK INTER:                  12.122
REMARK INTRA:                   0.389
REMARK UNBOUND:                -0.346
REMARK SMILES O=c1c(O)c(-c2cc(O)c(O)c(O)c2)oc2cc(O)cc(O)c12
REMARK SMILES IDX 5 1 3 2 2 3 1 4 23 5 21 6 20 7 18 8 17 9 16 10 15 11 6 12
REMARK SMILES IDX 7 13 8 14 14 15 10 16 12 17 9 18 11 20 13 22 4 24 22 26
REMARK SMILES IDX 19 28
REMARK H PARENT 9 19 11 21 13 23 4 25 22 27 19 29
REMARK Flexibility Score: inf
ROOT
ATOM      1  C   UNL     1      12.111  22.213   0.625  1.00  0.00     0.180 A 
ATOM      2  C   UNL     1      13.001  23.025  -0.099  1.00  0.00     0.208 A 
ATOM      3  C   UNL     1      12.938  23.021  -1.501  1.00  0.00     0.238 A 
ATOM      4  O   UNL     1      13.700  23.791  -2.143  1.00  0.00    -0.285 OA
ATOM      5  C   UNL     1      11.999  22.192  -2.162  1.00  0.00     0.111 A 
ATOM      6  C   UNL     1      11.875  22.079  -3.580  1.00  0.00     0.134 A 
ATOM      7  C   UNL     1      10.825  21.329  -4.122  1.00  0.00     0.093 A 
ATOM      8  C   UNL     1       9.933  20.636  -3.300  1.00  0.00     0.123 A 
ATOM      9  C   UNL     1      10.082  20.692  -1.916  1.00  0.00     0.094 A 
ATOM     10  C   UNL     1      11.099  21.461  -1.344  1.00  0.00     0.146 A 
ATOM     11  O   UNL     1      11.199  21.496  -0.021  1.00  0.00    -0.452 OA
ENDROOT
BRANCH   1  12
ATOM     12  C   UNL     1      12.134  22.144   2.105  1.00  0.00     0.029 A 
ATOM     13  C   UNL     1      11.522  21.062   2.755  1.00  0.00     0.062 A 
ATOM     14  C   UNL     1      11.545  20.960   4.150  1.00  0.00     0.162 A 
ATOM     15  C   UNL     1      12.806  23.111   2.872  1.00  0.00     0.062 A 
ATOM     16  C   UNL     1      12.200  21.941   4.914  1.00  0.00     0.200 A 
ATOM     17  C   UNL     1      12.836  23.016   4.270  1.00  0.00     0.162 A 
BRANCH  14  18
ATOM     18  O   UNL     1      10.912  19.877   4.758  1.00  0.00    -0.504 OA
ATOM     19  H   UNL     1       9.960  19.931   5.100  1.00  0.00     0.293 HD
ENDBRANCH  14  18
BRANCH  16  20
ATOM     20  O   UNL     1      12.216  21.834   6.305  1.00  0.00    -0.502 OA
ATOM     21  H   UNL     1      12.162  22.644   6.910  1.00  0.00     0.293 HD
ENDBRANCH  16  20
BRANCH  17  22
ATOM     22  O   UNL     1      13.499  23.985   5.022  1.00  0.00    -0.504 OA
ATOM     23  H   UNL     1      14.471  23.878   5.288  1.00  0.00     0.293 HD
ENDBRANCH  17  22
ENDBRANCH   1  12
BRANCH   2  24
ATOM     24  O   UNL     1      13.905  23.851   0.573  1.00  0.00    -0.502 OA
ATOM     25  H   UNL     1      13.880  24.861   0.496  1.00  0.00     0.293 HD
ENDBRANCH   2  24
BRANCH   6  26
ATOM     26  O   UNL     1      12.765  22.655  -4.490  1.00  0.00    -0.507 OA
ATOM     27  H   UNL     1      12.733  22.517  -5.490  1.00  0.00     0.293 HD
ENDBRANCH   6  26
BRANCH   8  28
ATOM     28  O   UNL     1       8.901  19.878  -3.848  1.00  0.00    -0.508 OA
ATOM     29  H   UNL     1       8.863  19.674  -4.841  1.00  0.00     0.293 HD
ENDBRANCH   8  28
TORSDOF 7
ENDMDL
MODEL 3
REMARK VINA RESULT:    10.703      1.148      1.168
REMARK INTER + INTRA:          12.859
REMARK INTER:                  13.121
REMARK INTRA:                  -0.262
REMARK UNBOUND:                -0.346
REMARK SMILES O=c1c(O)c(-c2cc(O)c(O)c(O)c2)oc2cc(O)cc(O)c12
REMARK SMILES IDX 5 1 3 2 2 3 1 4 23 5 21 6 20 7 18 8 17 9 16 10 15 11 6 12
REMARK SMILES IDX 7 13 8 14 14 15 10 16 12 17 9 18 11 20 13 22 4 24 22 26
REMARK SMILES IDX 19 28
REMARK H PARENT 9 19 11 21 13 23 4 25 22 27 19 29
REMARK Flexibility Score: inf
ROOT
ATOM      1  C   UNL     1      11.836  22.212  -0.023  1.00  0.00     0.180 A 
ATOM      2  C   UNL     1      12.805  22.971  -0.702  1.00  0.00     0.208 A 
ATOM      3  C   UNL     1      12.841  22.931  -2.105  1.00  0.00     0.238 A 
ATOM      4  O   UNL     1      13.675  23.655  -2.710  1.00  0.00    -0.285 OA
ATOM      5  C   UNL     1      11.920  22.120  -2.811  1.00  0.00     0.111 A 
ATOM      6  C   UNL     1      11.891  21.972  -4.230  1.00  0.00     0.134 A 
ATOM      7  C   UNL     1      10.854  21.246  -4.827  1.00  0.00     0.093 A 
ATOM      8  C   UNL     1       9.881  20.609  -4.054  1.00  0.00     0.123 A 
ATOM      9  C   UNL     1       9.934  20.698  -2.665  1.00  0.00     0.094 A 
ATOM     10  C   UNL     1      10.937  21.445  -2.040  1.00  0.00     0.146 A 
ATOM     11  O   UNL     1      10.945  21.512  -0.715  1.00  0.00    -0.452 OA
ENDROOT
BRANCH   1  12
ATOM     12  C   UNL     1      11.752  22.183   1.455  1.00  0.00     0.029 A 
ATOM     13  C   UNL     1      11.255  23.302   2.140  1.00  0.00     0.062 A 
ATOM     14  C   UNL     1      11.147  23.297   3.535  1.00  0.00     0.162 A 
ATOM     15  C   UNL     1      12.108  21.037   2.186  1.00  0.00     0.062 A 
ATOM     16  C   UNL     1      11.523  22.155   4.263  1.00  0.00     0.200 A 
ATOM     17  C   UNL     1      11.999  21.020   3.584  1.00  0.00     0.162 A 
BRANCH  14  18
ATOM     18  O   UNL     1      10.662  24.434   4.179  1.00  0.00    -0.504 OA
ATOM     19  H   UNL     1      11.274  25.175   4.499  1.00  0.00     0.293 HD
ENDBRANCH  14  18
BRANCH  16  20
ATOM     20  O   UNL     1      11.414  22.157   5.654  1.00  0.00    -0.502 OA
ATOM     21  H   UNL     1      11.325  21.303   6.190  1.00  0.00     0.293 HD
ENDBRANCH  16  20
BRANCH  17  22
ATOM     22  O   UNL     1      12.361  19.880   4.299  1.00  0.00    -0.504 OA
ATOM     23  H   UNL     1      11.850  19.585   5.123  1.00  0.00     0.293 HD
ENDBRANCH  17  22
ENDBRANCH   1  12
BRANCH   2  24
ATOM     24  O   UNL     1      13.691  23.782   0.013  1.00  0.00    -0.502 OA
ATOM     25  H   UNL     1      13.654  23.871   1.020  1.00  0.00     0.293 HD
ENDBRANCH   2  24
BRANCH   6  26
ATOM     26  O   UNL     1      12.865  22.490  -5.089  1.00  0.00    -0.507 OA
ATOM     27  H   UNL     1      13.200  22.028  -5.921  1.00  0.00     0.293 HD
ENDBRANCH   6  26
BRANCH   8  28
ATOM     28  O   UNL     1       8.861  19.875  -4.656  1.00  0.00    -0.508 OA
ATOM     29  H   UNL     1       8.165  19.385  -4.105  1.00  0.00     0.293 HD
ENDBRANCH   8  28
TORSDOF 7
ENDMDL
MODEL 4
REMARK VINA RESULT:    12.250      2.117      2.953
REMARK INTER + INTRA:          14.768
REMARK INTER:                  14.556
REMARK INTRA:                   0.212
REMARK UNBOUND:                -0.346
REMARK SMILES O=c1c(O)c(-c2cc(O)c(O)c(O)c2)oc2cc(O)cc(O)c12
REMARK SMILES IDX 5 1 3 2 2 3 1 4 23 5 21 6 20 7 18 8 17 9 16 10 15 11 6 12
REMARK SMILES IDX 7 13 8 14 14 15 10 16 12 17 9 18 11 20 13 22 4 24 22 26
REMARK SMILES IDX 19 28
REMARK H PARENT 9 19 11 21 13 23 4 25 22 27 19 29
REMARK Flexibility Score: inf
ROOT
ATOM      1  C   UNL     1      11.667  22.204  -0.013  1.00  0.00     0.180 A 
ATOM      2  C   UNL     1      11.287  21.077  -0.761  1.00  0.00     0.208 A 
ATOM      3  C   UNL     1      11.256  21.169  -2.162  1.00  0.00     0.238 A 
ATOM      4  O   UNL     1      10.967  20.141  -2.829  1.00  0.00    -0.285 OA
ATOM      5  C   UNL     1      11.589  22.391  -2.796  1.00  0.00     0.111 A 
ATOM      6  C   UNL     1      11.554  22.608  -4.206  1.00  0.00     0.134 A 
ATOM      7  C   UNL     1      12.029  23.817  -4.730  1.00  0.00     0.093 A 
ATOM      8  C   UNL     1      12.479  24.839  -3.891  1.00  0.00     0.123 A 
ATOM      9  C   UNL     1      12.462  24.658  -2.510  1.00  0.00     0.094 A 
ATOM     10  C   UNL     1      12.026  23.450  -1.959  1.00  0.00     0.146 A 
ATOM     11  O   UNL     1      12.037  23.316  -0.638  1.00  0.00    -0.452 OA
ENDROOT
BRANCH   1  12
ATOM     12  C   UNL     1      11.699  22.192   1.468  1.00  0.00     0.029 A 
ATOM     13  C   UNL     1      11.332  23.347   2.175  1.00  0.00     0.062 A 
ATOM     14  C   UNL     1      11.334  23.360   3.574  1.00  0.00     0.162 A 
ATOM     15  C   UNL     1      12.034  21.030   2.183  1.00  0.00     0.062 A 
ATOM     16  C   UNL     1      11.690  22.201   4.285  1.00  0.00     0.200 A 
ATOM     17  C   UNL     1      12.036  21.032   3.585  1.00  0.00     0.162 A 
BRANCH  14  18
ATOM     18  O   UNL     1      10.977  24.532   4.239  1.00  0.00    -0.504 OA
ATOM     19  H   UNL     1      10.019  24.732   4.502  1.00  0.00     0.293 HD
ENDBRANCH  14  18
BRANCH  16  20
ATOM     20  O   UNL     1      11.691  22.222   5.680  1.00  0.00    -0.502 OA
ATOM     21  H   UNL     1      11.808  21.381   6.233  1.00  0.00     0.293 HD
ENDBRANCH  16  20
BRANCH  17  22
ATOM     22  O   UNL     1      12.376  19.875   4.285  1.00  0.00    -0.504 OA
ATOM     23  H   UNL     1      12.902  19.913   5.150  1.00  0.00     0.293 HD
ENDBRANCH  17  22
ENDBRANCH   1  12
BRANCH   2  24
ATOM     24  O   UNL     1      10.983  19.875  -0.117  1.00  0.00    -0.502 OA
ATOM     25  H   UNL     1      10.926  18.993  -0.611  1.00  0.00     0.293 HD
ENDBRANCH   2  24
BRANCH   6  26
ATOM     26  O   UNL     1      11.039  21.690  -5.125  1.00  0.00    -0.507 OA
ATOM     27  H   UNL     1      10.056  21.499  -5.257  1.00  0.00     0.293 HD
ENDBRANCH   6  26
BRANCH   8  28
ATOM     28  O   UNL     1      12.935  26.044  -4.420  1.00  0.00    -0.508 OA
ATOM     29  H   UNL     1      13.425  26.722  -3.847  1.00  0.00     0.293 HD
ENDBRANCH   8  28
TORSDOF 7
ENDMDL
