MODEL 1
REMARK VINA RESULT:    -4.227      0.000      0.000
REMARK INTER + INTRA:          -6.723
REMARK INTER:                  -6.451
REMARK INTRA:                  -0.271
REMARK UNBOUND:                -0.271
REMARK SMILES CCCCCCCCCCC(=O)[O-]
REMARK SMILES IDX 7 1 8 2 9 3 10 4 11 5 12 6 13 7 6 8 5 9 4 10 3 11 2 12 1 13
REMARK H PARENT
REMARK Flexibility Score: inf
ROOT
ATOM      1  C   UNL     1       5.165 -36.338  20.047  1.00  0.00     0.000 C 
ENDROOT
BRANCH   1   2
ATOM      2  C   UNL     1       4.936 -35.084  20.907  1.00  0.00     0.000 C 
BRANCH   2   3
ATOM      3  C   UNL     1       6.001 -34.884  22.007  1.00  0.00     0.006 C 
BRANCH   3   4
ATOM      4  C   UNL     1       5.930 -35.975  23.084  1.00  0.00     0.053 C 
BRANCH   4   5
ATOM      5  C   UNL     1       5.724 -35.367  24.435  1.00  0.00     0.041 C 
ATOM      6  O   UNL     1       6.110 -34.191  24.666  1.00  0.00    -0.550 OA
ATOM      7  O   UNL     1       5.151 -36.117  25.454  1.00  0.00    -0.550 OA
ENDBRANCH   4   5
ENDBRANCH   3   4
ENDBRANCH   2   3
ENDBRANCH   1   2
BRANCH   1   8
ATOM      8  C   UNL     1       3.918 -36.746  19.245  1.00  0.00     0.000 C 
BRANCH   8   9
ATOM      9  C   UNL     1       3.860 -36.097  17.850  1.00  0.00    -0.000 C 
BRANCH   9  10
ATOM     10  C   UNL     1       2.799 -36.683  16.900  1.00  0.00    -0.000 C 
BRANCH  10  11
ATOM     11  C   UNL     1       2.457 -35.744  15.731  1.00  0.00    -0.000 C 
BRANCH  11  12
ATOM     12  C   UNL     1       3.484 -35.825  14.590  1.00  0.00    -0.003 C 
ATOM     13  C   UNL     1       4.062 -37.228  14.416  1.00  0.00     0.004 C 
ENDBRANCH  11  12
ENDBRANCH  10  11
ENDBRANCH   9  10
ENDBRANCH   8   9
ENDBRANCH   1   8
TORSDOF 9
ENDMDL
MODEL 2
REMARK VINA RESULT:    -4.144      4.208      7.834
REMARK INTER + INTRA:          -6.597
REMARK INTER:                  -6.402
REMARK INTRA:                  -0.195
REMARK UNBOUND:                -0.271
REMARK SMILES CCCCCCCCCCC(=O)[O-]
REMARK SMILES IDX 7 1 8 2 9 3 10 4 11 5 12 6 13 7 6 8 5 9 4 10 3 11 2 12 1 13
REMARK H PARENT
REMARK Flexibility Score: inf
ROOT
ATOM      1  C   UNL     1       3.962 -36.787  19.610  1.00  0.00     0.000 C 
ENDROOT
BRANCH   1   2
ATOM      2  C   UNL     1       3.924 -36.495  18.101  1.00  0.00     0.000 C 
BRANCH   2   3
ATOM      3  C   UNL     1       2.569 -36.827  17.440  1.00  0.00     0.006 C 
BRANCH   3   4
ATOM      4  C   UNL     1       2.339 -36.019  16.157  1.00  0.00     0.053 C 
BRANCH   4   5
ATOM      5  C   UNL     1       3.405 -36.316  15.151  1.00  0.00     0.041 C 
ATOM      6  O   UNL     1       3.873 -35.394  14.432  1.00  0.00    -0.550 OA
ATOM      7  O   UNL     1       3.847 -37.621  14.970  1.00  0.00    -0.550 OA
ENDBRANCH   4   5
ENDBRANCH   3   4
ENDBRANCH   2   3
ENDBRANCH   1   2
BRANCH   1   8
ATOM      8  C   UNL     1       5.333 -36.486  20.239  1.00  0.00     0.000 C 
BRANCH   8   9
ATOM      9  C   UNL     1       5.336 -35.204  21.092  1.00  0.00    -0.000 C 
BRANCH   9  10
ATOM     10  C   UNL     1       6.124 -35.298  22.411  1.00  0.00    -0.000 C 
BRANCH  10  11
ATOM     11  C   UNL     1       5.377 -34.671  23.602  1.00  0.00    -0.000 C 
BRANCH  11  12
ATOM     12  C   UNL     1       5.983 -35.073  24.955  1.00  0.00    -0.003 C 
ATOM     13  C   UNL     1       5.465 -36.420  25.456  1.00  0.00     0.004 C 
ENDBRANCH  11  12
ENDBRANCH  10  11
ENDBRANCH   9  10
ENDBRANCH   8   9
ENDBRANCH   1   8
TORSDOF 9
ENDMDL
MODEL 3
REMARK VINA RESULT:    -4.117      4.191      7.822
REMARK INTER + INTRA:          -6.555
REMARK INTER:                  -6.235
REMARK INTRA:                  -0.320
REMARK UNBOUND:                -0.271
REMARK SMILES CCCCCCCCCCC(=O)[O-]
REMARK SMILES IDX 7 1 8 2 9 3 10 4 11 5 12 6 13 7 6 8 5 9 4 10 3 11 2 12 1 13
REMARK H PARENT
REMARK Flexibility Score: inf
ROOT
ATOM      1  C   UNL     1       5.380 -36.187  19.877  1.00  0.00     0.000 C 
ENDROOT
BRANCH   1   2
ATOM      2  C   UNL     1       3.892 -36.394  19.547  1.00  0.00     0.000 C 
BRANCH   2   3
ATOM      3  C   UNL     1       3.637 -36.840  18.091  1.00  0.00     0.006 C 
BRANCH   3   4
ATOM      4  C   UNL     1       3.606 -35.652  17.121  1.00  0.00     0.053 C 
BRANCH   4   5
ATOM      5  C   UNL     1       3.103 -36.082  15.779  1.00  0.00     0.041 C 
ATOM      6  O   UNL     1       2.003 -35.649  15.346  1.00  0.00    -0.550 OA
ATOM      7  O   UNL     1       3.825 -37.002  15.028  1.00  0.00    -0.550 OA
ENDBRANCH   4   5
ENDBRANCH   3   4
ENDBRANCH   2   3
ENDBRANCH   1   2
BRANCH   1   8
ATOM      8  C   UNL     1       5.618 -35.002  20.828  1.00  0.00     0.000 C 
BRANCH   8   9
ATOM      9  C   UNL     1       5.851 -35.438  22.287  1.00  0.00    -0.000 C 
BRANCH   9  10
ATOM     10  C   UNL     1       5.412 -34.417  23.352  1.00  0.00    -0.000 C 
BRANCH  10  11
ATOM     11  C   UNL     1       5.857 -34.803  24.773  1.00  0.00    -0.000 C 
BRANCH  11  12
ATOM     12  C   UNL     1       6.083 -36.315  24.929  1.00  0.00    -0.003 C 
ATOM     13  C   UNL     1       5.041 -36.976  25.830  1.00  0.00     0.004 C 
ENDBRANCH  11  12
ENDBRANCH  10  11
ENDBRANCH   9  10
ENDBRANCH   8   9
ENDBRANCH   1   8
TORSDOF 9
ENDMDL
MODEL 4
REMARK VINA RESULT:    -3.875      1.456      2.324
REMARK INTER + INTRA:          -6.185
REMARK INTER:                  -5.689
REMARK INTRA:                  -0.496
REMARK UNBOUND:                -0.271
REMARK SMILES CCCCCCCCCCC(=O)[O-]
REMARK SMILES IDX 7 1 8 2 9 3 10 4 11 5 12 6 13 7 6 8 5 9 4 10 3 11 2 12 1 13
REMARK H PARENT
REMARK Flexibility Score: inf
ROOT
ATOM      1  C   UNL     1       4.582 -34.671  21.365  1.00  0.00     0.000 C 
ENDROOT
BRANCH   1   2
ATOM      2  C   UNL     1       5.099 -34.261  22.754  1.00  0.00     0.000 C 
BRANCH   2   3
ATOM      3  C   UNL     1       6.067 -35.286  23.383  1.00  0.00     0.006 C 
BRANCH   3   4
ATOM      4  C   UNL     1       5.881 -35.399  24.902  1.00  0.00     0.053 C 
BRANCH   4   5
ATOM      5  C   UNL     1       5.790 -36.833  25.315  1.00  0.00     0.041 C 
ATOM      6  O   UNL     1       5.368 -37.701  24.505  1.00  0.00    -0.550 OA
ATOM      7  O   UNL     1       6.122 -37.206  26.611  1.00  0.00    -0.550 OA
ENDBRANCH   4   5
ENDBRANCH   3   4
ENDBRANCH   2   3
ENDBRANCH   1   2
BRANCH   1   8
ATOM      8  C   UNL     1       5.674 -35.308  20.489  1.00  0.00     0.000 C 
BRANCH   8   9
ATOM      9  C   UNL     1       5.150 -36.465  19.619  1.00  0.00    -0.000 C 
BRANCH   9  10
ATOM     10  C   UNL     1       3.617 -36.564  19.518  1.00  0.00    -0.000 C 
BRANCH  10  11
ATOM     11  C   UNL     1       3.129 -36.876  18.092  1.00  0.00    -0.000 C 
BRANCH  11  12
ATOM     12  C   UNL     1       3.682 -35.891  17.051  1.00  0.00    -0.003 C 
ATOM     13  C   UNL     1       3.109 -36.125  15.655  1.00  0.00     0.004 C 
ENDBRANCH  11  12
ENDBRANCH  10  11
ENDBRANCH   9  10
ENDBRANCH   8   9
ENDBRANCH   1   8
TORSDOF 9
ENDMDL
MODEL 5
REMARK VINA RESULT:    -3.745      4.462      7.641
REMARK INTER + INTRA:          -5.986
REMARK INTER:                  -5.528
REMARK INTRA:                  -0.458
REMARK UNBOUND:                -0.271
REMARK SMILES CCCCCCCCCCC(=O)[O-]
REMARK SMILES IDX 7 1 8 2 9 3 10 4 11 5 12 6 13 7 6 8 5 9 4 10 3 11 2 12 1 13
REMARK H PARENT
REMARK Flexibility Score: inf
ROOT
ATOM      1  C   UNL     1       2.989 -36.900  19.611  1.00  0.00     0.000 C 
ENDROOT
BRANCH   1   2
ATOM      2  C   UNL     1       2.522 -36.881  18.146  1.00  0.00     0.000 C 
BRANCH   2   3
ATOM      3  C   UNL     1       3.651 -36.570  17.140  1.00  0.00     0.006 C 
BRANCH   3   4
ATOM      4  C   UNL     1       3.235 -35.506  16.116  1.00  0.00     0.053 C 
BRANCH   4   5
ATOM      5  C   UNL     1       3.271 -36.068  14.730  1.00  0.00     0.041 C 
ATOM      6  O   UNL     1       2.369 -35.772  13.903  1.00  0.00    -0.550 OA
ATOM      7  O   UNL     1       4.273 -36.959  14.367  1.00  0.00    -0.550 OA
ENDBRANCH   4   5
ENDBRANCH   3   4
ENDBRANCH   2   3
ENDBRANCH   1   2
BRANCH   1   8
ATOM      8  C   UNL     1       4.192 -35.977  19.863  1.00  0.00     0.000 C 
BRANCH   8   9
ATOM      9  C   UNL     1       5.398 -36.712  20.479  1.00  0.00    -0.000 C 
BRANCH   9  10
ATOM     10  C   UNL     1       5.806 -36.234  21.885  1.00  0.00    -0.000 C 
BRANCH  10  11
ATOM     11  C   UNL     1       5.484 -34.750  22.131  1.00  0.00    -0.000 C 
BRANCH  11  12
ATOM     12  C   UNL     1       5.486 -34.386  23.623  1.00  0.00    -0.003 C 
ATOM     13  C   UNL     1       5.819 -35.577  24.520  1.00  0.00     0.004 C 
ENDBRANCH  11  12
ENDBRANCH  10  11
ENDBRANCH   9  10
ENDBRANCH   8   9
ENDBRANCH   1   8
TORSDOF 9
ENDMDL
MODEL 6
REMARK VINA RESULT:    -2.950      3.926      7.364
REMARK INTER + INTRA:          -4.774
REMARK INTER:                  -4.589
REMARK INTRA:                  -0.185
REMARK UNBOUND:                -0.271
REMARK SMILES CCCCCCCCCCC(=O)[O-]
REMARK SMILES IDX 7 1 8 2 9 3 10 4 11 5 12 6 13 7 6 8 5 9 4 10 3 11 2 12 1 13
REMARK H PARENT
REMARK Flexibility Score: inf
ROOT
ATOM      1  C   UNL     1       4.716 -35.212  20.698  1.00  0.00     0.000 C 
ENDROOT
BRANCH   1   2
ATOM      2  C   UNL     1       5.295 -36.358  19.851  1.00  0.00     0.000 C 
BRANCH   2   3
ATOM      3  C   UNL     1       4.259 -37.026  18.922  1.00  0.00     0.006 C 
BRANCH   3   4
ATOM      4  C   UNL     1       2.828 -36.884  19.456  1.00  0.00     0.053 C 
BRANCH   4   5
ATOM      5  C   UNL     1       1.846 -36.861  18.328  1.00  0.00     0.041 C 
ATOM      6  O   UNL     1       2.183 -36.406  17.203  1.00  0.00    -0.550 OA
ATOM      7  O   UNL     1       0.541 -37.293  18.532  1.00  0.00    -0.550 OA
ENDBRANCH   4   5
ENDBRANCH   3   4
ENDBRANCH   2   3
ENDBRANCH   1   2
BRANCH   1   8
ATOM      8  C   UNL     1       5.784 -34.502  21.546  1.00  0.00     0.000 C 
BRANCH   8   9
ATOM      9  C   UNL     1       6.125 -35.259  22.843  1.00  0.00    -0.000 C 
BRANCH   9  10
ATOM     10  C   UNL     1       5.630 -34.592  24.139  1.00  0.00    -0.000 C 
BRANCH  10  11
ATOM     11  C   UNL     1       6.108 -35.319  25.408  1.00  0.00    -0.000 C 
BRANCH  11  12
ATOM     12  C   UNL     1       5.179 -36.475  25.809  1.00  0.00    -0.003 C 
ATOM     13  C   UNL     1       5.366 -37.713  24.934  1.00  0.00     0.004 C 
ENDBRANCH  11  12
ENDBRANCH  10  11
ENDBRANCH   9  10
ENDBRANCH   8   9
ENDBRANCH   1   8
TORSDOF 9
ENDMDL
MODEL 7
REMARK VINA RESULT:    -2.611      3.341      5.180
REMARK INTER + INTRA:          -4.257
REMARK INTER:                  -3.580
REMARK INTRA:                  -0.677
REMARK UNBOUND:                -0.271
REMARK SMILES CCCCCCCCCCC(=O)[O-]
REMARK SMILES IDX 7 1 8 2 9 3 10 4 11 5 12 6 13 7 6 8 5 9 4 10 3 11 2 12 1 13
REMARK H PARENT
REMARK Flexibility Score: inf
ROOT
ATOM      1  C   UNL     1       5.388 -35.388  24.985  1.00  0.00     0.000 C 
ENDROOT
BRANCH   1   2
ATOM      2  C   UNL     1       5.371 -36.916  25.162  1.00  0.00     0.000 C 
BRANCH   2   3
ATOM      3  C   UNL     1       5.654 -37.693  23.859  1.00  0.00     0.006 C 
BRANCH   3   4
ATOM      4  C   UNL     1       5.216 -39.160  23.955  1.00  0.00     0.053 C 
BRANCH   4   5
ATOM      5  C   UNL     1       5.745 -39.944  22.796  1.00  0.00     0.041 C 
ATOM      6  O   UNL     1       5.893 -41.191  22.888  1.00  0.00    -0.550 OA
ATOM      7  O   UNL     1       6.125 -39.290  21.630  1.00  0.00    -0.550 OA
ENDBRANCH   4   5
ENDBRANCH   3   4
ENDBRANCH   2   3
ENDBRANCH   1   2
BRANCH   1   8
ATOM      8  C   UNL     1       5.868 -34.957  23.590  1.00  0.00     0.000 C 
BRANCH   8   9
ATOM      9  C   UNL     1       4.780 -34.232  22.775  1.00  0.00    -0.000 C 
BRANCH   9  10
ATOM     10  C   UNL     1       4.683 -34.651  21.297  1.00  0.00    -0.000 C 
BRANCH  10  11
ATOM     11  C   UNL     1       5.741 -35.695  20.899  1.00  0.00    -0.000 C 
BRANCH  11  12
ATOM     12  C   UNL     1       5.218 -36.698  19.859  1.00  0.00    -0.003 C 
ATOM     13  C   UNL     1       3.735 -36.506  19.548  1.00  0.00     0.004 C 
ENDBRANCH  11  12
ENDBRANCH  10  11
ENDBRANCH   9  10
ENDBRANCH   8   9
ENDBRANCH   1   8
TORSDOF 9
ENDMDL
MODEL 8
REMARK VINA RESULT:    -2.539      2.407      3.083
REMARK INTER + INTRA:          -4.146
REMARK INTER:                  -3.681
REMARK INTRA:                  -0.465
REMARK UNBOUND:                -0.271
REMARK SMILES CCCCCCCCCCC(=O)[O-]
REMARK SMILES IDX 7 1 8 2 9 3 10 4 11 5 12 6 13 7 6 8 5 9 4 10 3 11 2 12 1 13
REMARK H PARENT
REMARK Flexibility Score: inf
ROOT
ATOM      1  C   UNL     1       4.581 -35.258  20.557  1.00  0.00     0.000 C 
ENDROOT
BRANCH   1   2
ATOM      2  C   UNL     1       5.439 -36.318  21.268  1.00  0.00     0.000 C 
BRANCH   2   3
ATOM      3  C   UNL     1       5.007 -37.769  20.966  1.00  0.00     0.006 C 
BRANCH   3   4
ATOM      4  C   UNL     1       6.123 -38.777  21.266  1.00  0.00     0.053 C 
BRANCH   4   5
ATOM      5  C   UNL     1       5.789 -39.585  22.480  1.00  0.00     0.041 C 
ATOM      6  O   UNL     1       6.031 -40.821  22.505  1.00  0.00    -0.550 OA
ATOM      7  O   UNL     1       5.162 -38.984  23.564  1.00  0.00    -0.550 OA
ENDBRANCH   4   5
ENDBRANCH   3   4
ENDBRANCH   2   3
ENDBRANCH   1   2
BRANCH   1   8
ATOM      8  C   UNL     1       5.277 -34.658  19.325  1.00  0.00     0.000 C 
BRANCH   8   9
ATOM      9  C   UNL     1       4.595 -35.045  17.999  1.00  0.00    -0.000 C 
BRANCH   9  10
ATOM     10  C   UNL     1       3.798 -36.362  18.035  1.00  0.00    -0.000 C 
BRANCH  10  11
ATOM     11  C   UNL     1       3.021 -36.627  16.734  1.00  0.00    -0.000 C 
BRANCH  11  12
ATOM     12  C   UNL     1       3.151 -35.476  15.724  1.00  0.00    -0.003 C 
ATOM     13  C   UNL     1       3.211 -35.965  14.278  1.00  0.00     0.004 C 
ENDBRANCH  11  12
ENDBRANCH  10  11
ENDBRANCH   9  10
ENDBRANCH   8   9
ENDBRANCH   1   8
TORSDOF 9
ENDMDL
MODEL 9
REMARK VINA RESULT:    -2.380      3.574      6.409
REMARK INTER + INTRA:          -3.904
REMARK INTER:                  -3.420
REMARK INTRA:                  -0.485
REMARK UNBOUND:                -0.271
REMARK SMILES CCCCCCCCCCC(=O)[O-]
REMARK SMILES IDX 7 1 8 2 9 3 10 4 11 5 12 6 13 7 6 8 5 9 4 10 3 11 2 12 1 13
REMARK H PARENT
REMARK Flexibility Score: inf
ROOT
ATOM      1  C   UNL     1       5.256 -35.176  24.361  1.00  0.00     0.000 C 
ENDROOT
BRANCH   1   2
ATOM      2  C   UNL     1       5.876 -34.533  23.109  1.00  0.00     0.000 C 
BRANCH   2   3
ATOM      3  C   UNL     1       5.901 -35.468  21.881  1.00  0.00     0.006 C 
BRANCH   3   4
ATOM      4  C   UNL     1       5.083 -34.906  20.711  1.00  0.00     0.053 C 
BRANCH   4   5
ATOM      5  C   UNL     1       4.912 -35.940  19.644  1.00  0.00     0.041 C 
ATOM      6  O   UNL     1       4.285 -35.664  18.588  1.00  0.00    -0.550 OA
ATOM      7  O   UNL     1       5.401 -37.226  19.838  1.00  0.00    -0.550 OA
ENDBRANCH   4   5
ENDBRANCH   3   4
ENDBRANCH   2   3
ENDBRANCH   1   2
BRANCH   1   8
ATOM      8  C   UNL     1       6.020 -36.426  24.828  1.00  0.00     0.000 C 
BRANCH   8   9
ATOM      9  C   UNL     1       5.089 -37.584  25.234  1.00  0.00    -0.000 C 
BRANCH   9  10
ATOM     10  C   UNL     1       5.229 -38.862  24.387  1.00  0.00    -0.000 C 
BRANCH  10  11
ATOM     11  C   UNL     1       5.568 -38.571  22.914  1.00  0.00    -0.000 C 
BRANCH  11  12
ATOM     12  C   UNL     1       6.072 -39.816  22.168  1.00  0.00    -0.003 C 
ATOM     13  C   UNL     1       5.835 -41.108  22.949  1.00  0.00     0.004 C 
ENDBRANCH  11  12
ENDBRANCH  10  11
ENDBRANCH   9  10
ENDBRANCH   8   9
ENDBRANCH   1   8
TORSDOF 9
ENDMDL
