MODEL 1
REMARK VINA RESULT:    -4.616      0.000      0.000
REMARK INTER + INTRA:          -9.612
REMARK INTER:                  -8.664
REMARK INTRA:                  -0.949
REMARK UNBOUND:                -0.949
REMARK SMILES CCCCCCCCC=CCCCCCCCC(=O)[O-]
REMARK SMILES IDX 10 1 9 2 11 3 12 4 13 5 14 6 15 7 16 8 17 9 18 10 19 11
REMARK SMILES IDX 20 12 8 13 7 14 6 15 5 16 4 17 3 18 2 19 1 20
REMARK H PARENT
REMARK Flexibility Score: inf
ROOT
ATOM      1  C   UNL     1      21.208  32.132  28.954  1.00  0.00    -0.031 C 
ATOM      2  C   UNL     1      21.697  32.170  30.207  1.00  0.00    -0.031 C 
ENDROOT
BRANCH   1   3
ATOM      3  C   UNL     1      20.198  33.105  28.396  1.00  0.00     0.027 C 
BRANCH   3   4
ATOM      4  C   UNL     1      20.787  33.958  27.263  1.00  0.00     0.004 C 
BRANCH   4   5
ATOM      5  C   UNL     1      22.000  33.286  26.597  1.00  0.00     0.000 C 
BRANCH   5   6
ATOM      6  C   UNL     1      22.202  33.763  25.142  1.00  0.00     0.000 C 
BRANCH   6   7
ATOM      7  C   UNL     1      20.886  33.955  24.369  1.00  0.00     0.000 C 
BRANCH   7   8
ATOM      8  C   UNL     1      20.436  32.688  23.629  1.00  0.00     0.006 C 
BRANCH   8   9
ATOM      9  C   UNL     1      21.625  31.761  23.356  1.00  0.00     0.053 C 
BRANCH   9  10
ATOM     10  C   UNL     1      21.243  30.334  23.594  1.00  0.00     0.041 C 
ATOM     11  O   UNL     1      20.570  29.706  22.737  1.00  0.00    -0.550 OA
ATOM     12  O   UNL     1      21.595  29.710  24.785  1.00  0.00    -0.550 OA
ENDBRANCH   9  10
ENDBRANCH   8   9
ENDBRANCH   7   8
ENDBRANCH   6   7
ENDBRANCH   5   6
ENDBRANCH   4   5
ENDBRANCH   3   4
ENDBRANCH   1   3
BRANCH   2  13
ATOM     13  C   UNL     1      21.247  33.132  31.279  1.00  0.00     0.027 C 
BRANCH  13  14
ATOM     14  C   UNL     1      22.204  33.145  32.481  1.00  0.00     0.004 C 
BRANCH  14  15
ATOM     15  C   UNL     1      23.174  31.954  32.466  1.00  0.00     0.000 C 
BRANCH  15  16
ATOM     16  C   UNL     1      23.572  31.551  33.893  1.00  0.00     0.000 C 
BRANCH  16  17
ATOM     17  C   UNL     1      24.407  30.259  33.941  1.00  0.00    -0.000 C 
BRANCH  17  18
ATOM     18  C   UNL     1      24.497  29.592  35.328  1.00  0.00    -0.000 C 
BRANCH  18  19
ATOM     19  C   UNL     1      24.318  28.064  35.326  1.00  0.00    -0.003 C 
ATOM     20  C   UNL     1      25.495  27.327  34.690  1.00  0.00     0.004 C 
ENDBRANCH  18  19
ENDBRANCH  17  18
ENDBRANCH  16  17
ENDBRANCH  15  16
ENDBRANCH  14  15
ENDBRANCH  13  14
ENDBRANCH   2  13
TORSDOF 15
ENDMDL
MODEL 2
REMARK VINA RESULT:    -4.561      3.699      8.394
REMARK INTER + INTRA:          -9.510
REMARK INTER:                  -7.473
REMARK INTRA:                  -2.037
REMARK UNBOUND:                -0.949
REMARK SMILES CCCCCCCCC=CCCCCCCCC(=O)[O-]
REMARK SMILES IDX 10 1 9 2 11 3 12 4 13 5 14 6 15 7 16 8 17 9 18 10 19 11
REMARK SMILES IDX 20 12 8 13 7 14 6 15 5 16 4 17 3 18 2 19 1 20
REMARK H PARENT
REMARK Flexibility Score: inf
ROOT
ATOM      1  C   UNL     1      19.324  31.940  29.530  1.00  0.00    -0.031 C 
ATOM      2  C   UNL     1      18.380  32.767  29.044  1.00  0.00    -0.031 C 
ENDROOT
BRANCH   1   3
ATOM      3  C   UNL     1      20.658  31.680  28.874  1.00  0.00     0.027 C 
BRANCH   3   4
ATOM      4  C   UNL     1      21.830  31.950  29.829  1.00  0.00     0.004 C 
BRANCH   4   5
ATOM      5  C   UNL     1      21.687  33.295  30.563  1.00  0.00     0.000 C 
BRANCH   5   6
ATOM      6  C   UNL     1      22.469  33.315  31.894  1.00  0.00     0.000 C 
BRANCH   6   7
ATOM      7  C   UNL     1      23.033  31.942  32.299  1.00  0.00     0.000 C 
BRANCH   7   8
ATOM      8  C   UNL     1      24.241  32.045  33.240  1.00  0.00     0.006 C 
BRANCH   8   9
ATOM      9  C   UNL     1      24.012  31.231  34.517  1.00  0.00     0.053 C 
BRANCH   9  10
ATOM     10  C   UNL     1      24.160  29.768  34.240  1.00  0.00     0.041 C 
ATOM     11  O   UNL     1      23.203  28.981  34.457  1.00  0.00    -0.550 OA
ATOM     12  O   UNL     1      25.373  29.267  33.784  1.00  0.00    -0.550 OA
ENDBRANCH   9  10
ENDBRANCH   8   9
ENDBRANCH   7   8
ENDBRANCH   6   7
ENDBRANCH   5   6
ENDBRANCH   4   5
ENDBRANCH   3   4
ENDBRANCH   1   3
BRANCH   2  13
ATOM     13  C   UNL     1      18.467  33.491  27.722  1.00  0.00     0.027 C 
BRANCH  13  14
ATOM     14  C   UNL     1      18.949  34.940  27.890  1.00  0.00     0.004 C 
BRANCH  14  15
ATOM     15  C   UNL     1      19.932  35.358  26.786  1.00  0.00     0.000 C 
BRANCH  15  16
ATOM     16  C   UNL     1      21.381  35.305  27.291  1.00  0.00     0.000 C 
BRANCH  16  17
ATOM     17  C   UNL     1      22.165  34.101  26.741  1.00  0.00    -0.000 C 
BRANCH  17  18
ATOM     18  C   UNL     1      22.405  34.118  25.218  1.00  0.00    -0.000 C 
BRANCH  18  19
ATOM     19  C   UNL     1      21.697  32.998  24.437  1.00  0.00    -0.003 C 
ATOM     20  C   UNL     1      21.492  31.731  25.266  1.00  0.00     0.004 C 
ENDBRANCH  18  19
ENDBRANCH  17  18
ENDBRANCH  16  17
ENDBRANCH  15  16
ENDBRANCH  14  15
ENDBRANCH  13  14
ENDBRANCH   2  13
TORSDOF 15
ENDMDL
MODEL 3
REMARK VINA RESULT:    -4.551      1.954      3.847
REMARK INTER + INTRA:          -9.491
REMARK INTER:                  -7.060
REMARK INTRA:                  -2.432
REMARK UNBOUND:                -0.949
REMARK SMILES CCCCCCCCC=CCCCCCCCC(=O)[O-]
REMARK SMILES IDX 10 1 9 2 11 3 12 4 13 5 14 6 15 7 16 8 17 9 18 10 19 11
REMARK SMILES IDX 20 12 8 13 7 14 6 15 5 16 4 17 3 18 2 19 1 20
REMARK H PARENT
REMARK Flexibility Score: inf
ROOT
ATOM      1  C   UNL     1      18.615  34.909  26.522  1.00  0.00    -0.031 C 
ATOM      2  C   UNL     1      18.001  33.765  26.876  1.00  0.00    -0.031 C 
ENDROOT
BRANCH   1   3
ATOM      3  C   UNL     1      19.167  35.924  27.492  1.00  0.00     0.027 C 
BRANCH   3   4
ATOM      4  C   UNL     1      20.692  35.813  27.634  1.00  0.00     0.004 C 
BRANCH   4   5
ATOM      5  C   UNL     1      21.397  35.668  26.274  1.00  0.00     0.000 C 
BRANCH   5   6
ATOM      6  C   UNL     1      22.330  34.439  26.231  1.00  0.00     0.000 C 
BRANCH   6   7
ATOM      7  C   UNL     1      21.949  33.341  27.239  1.00  0.00     0.000 C 
BRANCH   7   8
ATOM      8  C   UNL     1      21.595  32.008  26.566  1.00  0.00     0.006 C 
BRANCH   8   9
ATOM      9  C   UNL     1      21.183  32.222  25.107  1.00  0.00     0.053 C 
BRANCH   9  10
ATOM     10  C   UNL     1      21.604  31.059  24.266  1.00  0.00     0.041 C 
ATOM     11  O   UNL     1      21.932  31.232  23.063  1.00  0.00    -0.550 OA
ATOM     12  O   UNL     1      21.592  29.776  24.799  1.00  0.00    -0.550 OA
ENDBRANCH   9  10
ENDBRANCH   8   9
ENDBRANCH   7   8
ENDBRANCH   6   7
ENDBRANCH   5   6
ENDBRANCH   4   5
ENDBRANCH   3   4
ENDBRANCH   1   3
BRANCH   2  13
ATOM     13  C   UNL     1      17.687  33.360  28.296  1.00  0.00     0.027 C 
BRANCH  13  14
ATOM     14  C   UNL     1      18.844  32.585  28.944  1.00  0.00     0.004 C 
BRANCH  14  15
ATOM     15  C   UNL     1      18.976  32.883  30.445  1.00  0.00     0.000 C 
BRANCH  15  16
ATOM     16  C   UNL     1      20.304  33.591  30.751  1.00  0.00     0.000 C 
BRANCH  16  17
ATOM     17  C   UNL     1      21.502  32.626  30.802  1.00  0.00    -0.000 C 
BRANCH  17  18
ATOM     18  C   UNL     1      22.728  33.149  31.576  1.00  0.00    -0.000 C 
BRANCH  18  19
ATOM     19  C   UNL     1      22.814  32.691  33.042  1.00  0.00    -0.003 C 
ATOM     20  C   UNL     1      23.668  31.438  33.226  1.00  0.00     0.004 C 
ENDBRANCH  18  19
ENDBRANCH  17  18
ENDBRANCH  16  17
ENDBRANCH  15  16
ENDBRANCH  14  15
ENDBRANCH  13  14
ENDBRANCH   2  13
TORSDOF 15
ENDMDL
MODEL 4
REMARK VINA RESULT:    -4.549      3.793      8.292
REMARK INTER + INTRA:          -9.487
REMARK INTER:                  -7.154
REMARK INTRA:                  -2.333
REMARK UNBOUND:                -0.949
REMARK SMILES CCCCCCCCC=CCCCCCCCC(=O)[O-]
REMARK SMILES IDX 10 1 9 2 11 3 12 4 13 5 14 6 15 7 16 8 17 9 18 10 19 11
REMARK SMILES IDX 20 12 8 13 7 14 6 15 5 16 4 17 3 18 2 19 1 20
REMARK H PARENT
REMARK Flexibility Score: inf
ROOT
ATOM      1  C   UNL     1      20.347  31.273  29.397  1.00  0.00    -0.031 C 
ATOM      2  C   UNL     1      21.341  31.359  28.494  1.00  0.00    -0.031 C 
ENDROOT
BRANCH   1   3
ATOM      3  C   UNL     1      19.112  32.141  29.400  1.00  0.00     0.027 C 
BRANCH   3   4
ATOM      4  C   UNL     1      18.876  32.798  30.768  1.00  0.00     0.004 C 
BRANCH   4   5
ATOM      5  C   UNL     1      19.564  34.169  30.884  1.00  0.00     0.000 C 
BRANCH   5   6
ATOM      6  C   UNL     1      20.692  34.165  31.938  1.00  0.00     0.000 C 
BRANCH   6   7
ATOM      7  C   UNL     1      22.089  34.420  31.346  1.00  0.00     0.000 C 
BRANCH   7   8
ATOM      8  C   UNL     1      23.185  33.579  32.014  1.00  0.00     0.006 C 
BRANCH   8   9
ATOM      9  C   UNL     1      22.742  32.121  32.166  1.00  0.00     0.053 C 
BRANCH   9  10
ATOM     10  C   UNL     1      23.520  31.445  33.250  1.00  0.00     0.041 C 
ATOM     11  O   UNL     1      24.584  30.830  32.977  1.00  0.00    -0.550 OA
ATOM     12  O   UNL     1      23.048  31.458  34.556  1.00  0.00    -0.550 OA
ENDBRANCH   9  10
ENDBRANCH   8   9
ENDBRANCH   7   8
ENDBRANCH   6   7
ENDBRANCH   5   6
ENDBRANCH   4   5
ENDBRANCH   3   4
ENDBRANCH   1   3
BRANCH   2  13
ATOM     13  C   UNL     1      21.423  32.395  27.399  1.00  0.00     0.027 C 
BRANCH  13  14
ATOM     14  C   UNL     1      21.904  33.755  27.927  1.00  0.00     0.004 C 
BRANCH  14  15
ATOM     15  C   UNL     1      21.033  34.916  27.425  1.00  0.00     0.000 C 
BRANCH  15  16
ATOM     16  C   UNL     1      21.900  36.107  26.991  1.00  0.00     0.000 C 
BRANCH  16  17
ATOM     17  C   UNL     1      22.182  36.124  25.478  1.00  0.00    -0.000 C 
BRANCH  17  18
ATOM     18  C   UNL     1      23.485  35.420  25.049  1.00  0.00    -0.000 C 
BRANCH  18  19
ATOM     19  C   UNL     1      23.376  34.578  23.766  1.00  0.00    -0.003 C 
ATOM     20  C   UNL     1      22.182  33.625  23.780  1.00  0.00     0.004 C 
ENDBRANCH  18  19
ENDBRANCH  17  18
ENDBRANCH  16  17
ENDBRANCH  15  16
ENDBRANCH  14  15
ENDBRANCH  13  14
ENDBRANCH   2  13
TORSDOF 15
ENDMDL
MODEL 5
REMARK VINA RESULT:    -4.528      3.630      9.274
REMARK INTER + INTRA:          -9.448
REMARK INTER:                  -8.022
REMARK INTRA:                  -1.425
REMARK UNBOUND:                -0.949
REMARK SMILES CCCCCCCCC=CCCCCCCCC(=O)[O-]
REMARK SMILES IDX 10 1 9 2 11 3 12 4 13 5 14 6 15 7 16 8 17 9 18 10 19 11
REMARK SMILES IDX 20 12 8 13 7 14 6 15 5 16 4 17 3 18 2 19 1 20
REMARK H PARENT
REMARK Flexibility Score: inf
ROOT
ATOM      1  C   UNL     1      20.395  31.441  29.082  1.00  0.00    -0.031 C 
ATOM      2  C   UNL     1      21.473  31.690  28.317  1.00  0.00    -0.031 C 
ENDROOT
BRANCH   1   3
ATOM      3  C   UNL     1      19.368  32.473  29.481  1.00  0.00     0.027 C 
BRANCH   3   4
ATOM      4  C   UNL     1      19.479  32.850  30.965  1.00  0.00     0.004 C 
BRANCH   4   5
ATOM      5  C   UNL     1      20.712  33.724  31.255  1.00  0.00     0.000 C 
BRANCH   5   6
ATOM      6  C   UNL     1      21.570  33.155  32.405  1.00  0.00     0.000 C 
BRANCH   6   7
ATOM      7  C   UNL     1      22.733  32.269  31.927  1.00  0.00     0.000 C 
BRANCH   7   8
ATOM      8  C   UNL     1      24.054  32.578  32.644  1.00  0.00     0.006 C 
BRANCH   8   9
ATOM      9  C   UNL     1      24.048  32.016  34.069  1.00  0.00     0.053 C 
BRANCH   9  10
ATOM     10  C   UNL     1      24.114  30.522  34.045  1.00  0.00     0.041 C 
ATOM     11  O   UNL     1      23.278  29.840  34.694  1.00  0.00    -0.550 OA
ATOM     12  O   UNL     1      25.126  29.882  33.341  1.00  0.00    -0.550 OA
ENDBRANCH   9  10
ENDBRANCH   8   9
ENDBRANCH   7   8
ENDBRANCH   6   7
ENDBRANCH   5   6
ENDBRANCH   4   5
ENDBRANCH   3   4
ENDBRANCH   1   3
BRANCH   2  13
ATOM     13  C   UNL     1      21.877  33.055  27.814  1.00  0.00     0.027 C 
BRANCH  13  14
ATOM     14  C   UNL     1      21.413  33.297  26.370  1.00  0.00     0.004 C 
BRANCH  14  15
ATOM     15  C   UNL     1      21.473  32.020  25.517  1.00  0.00     0.000 C 
BRANCH  15  16
ATOM     16  C   UNL     1      21.696  32.359  24.036  1.00  0.00     0.000 C 
BRANCH  16  17
ATOM     17  C   UNL     1      22.207  33.794  23.818  1.00  0.00    -0.000 C 
BRANCH  17  18
ATOM     18  C   UNL     1      22.347  34.221  22.343  1.00  0.00    -0.000 C 
BRANCH  18  19
ATOM     19  C   UNL     1      22.742  33.092  21.375  1.00  0.00    -0.003 C 
ATOM     20  C   UNL     1      23.778  33.530  20.341  1.00  0.00     0.004 C 
ENDBRANCH  18  19
ENDBRANCH  17  18
ENDBRANCH  16  17
ENDBRANCH  15  16
ENDBRANCH  14  15
ENDBRANCH  13  14
ENDBRANCH   2  13
TORSDOF 15
ENDMDL
MODEL 6
REMARK VINA RESULT:    -4.495      2.527      3.967
REMARK INTER + INTRA:          -9.386
REMARK INTER:                  -6.988
REMARK INTRA:                  -2.398
REMARK UNBOUND:                -0.949
REMARK SMILES CCCCCCCCC=CCCCCCCCC(=O)[O-]
REMARK SMILES IDX 10 1 9 2 11 3 12 4 13 5 14 6 15 7 16 8 17 9 18 10 19 11
REMARK SMILES IDX 20 12 8 13 7 14 6 15 5 16 4 17 3 18 2 19 1 20
REMARK H PARENT
REMARK Flexibility Score: inf
ROOT
ATOM      1  C   UNL     1      21.494  31.356  28.363  1.00  0.00    -0.031 C 
ATOM      2  C   UNL     1      20.589  31.332  29.360  1.00  0.00    -0.031 C 
ENDROOT
BRANCH   1   3
ATOM      3  C   UNL     1      21.342  32.141  27.084  1.00  0.00     0.027 C 
BRANCH   3   4
ATOM      4  C   UNL     1      21.953  33.545  27.195  1.00  0.00     0.004 C 
BRANCH   4   5
ATOM      5  C   UNL     1      21.660  34.409  25.956  1.00  0.00     0.000 C 
BRANCH   5   6
ATOM      6  C   UNL     1      20.324  34.028  25.284  1.00  0.00     0.000 C 
BRANCH   6   7
ATOM      7  C   UNL     1      20.453  33.729  23.780  1.00  0.00     0.000 C 
BRANCH   7   8
ATOM      8  C   UNL     1      21.871  33.308  23.373  1.00  0.00     0.006 C 
BRANCH   8   9
ATOM      9  C   UNL     1      21.833  32.156  22.364  1.00  0.00     0.053 C 
BRANCH   9  10
ATOM     10  C   UNL     1      21.400  30.888  23.029  1.00  0.00     0.041 C 
ATOM     11  O   UNL     1      21.990  30.483  24.065  1.00  0.00    -0.550 OA
ATOM     12  O   UNL     1      20.374  30.131  22.481  1.00  0.00    -0.550 OA
ENDBRANCH   9  10
ENDBRANCH   8   9
ENDBRANCH   7   8
ENDBRANCH   6   7
ENDBRANCH   5   6
ENDBRANCH   4   5
ENDBRANCH   3   4
ENDBRANCH   1   3
BRANCH   2  13
ATOM     13  C   UNL     1      19.241  32.011  29.316  1.00  0.00     0.027 C 
BRANCH  13  14
ATOM     14  C   UNL     1      18.827  32.558  30.690  1.00  0.00     0.004 C 
BRANCH  14  15
ATOM     15  C   UNL     1      18.510  34.060  30.648  1.00  0.00     0.000 C 
BRANCH  15  16
ATOM     16  C   UNL     1      19.601  34.831  29.891  1.00  0.00     0.000 C 
BRANCH  16  17
ATOM     17  C   UNL     1      20.728  35.335  30.810  1.00  0.00    -0.000 C 
BRANCH  17  18
ATOM     18  C   UNL     1      22.006  34.472  30.809  1.00  0.00    -0.000 C 
BRANCH  18  19
ATOM     19  C   UNL     1      22.416  33.918  32.184  1.00  0.00    -0.003 C 
ATOM     20  C   UNL     1      22.599  32.401  32.184  1.00  0.00     0.004 C 
ENDBRANCH  18  19
ENDBRANCH  17  18
ENDBRANCH  16  17
ENDBRANCH  15  16
ENDBRANCH  14  15
ENDBRANCH  13  14
ENDBRANCH   2  13
TORSDOF 15
ENDMDL
MODEL 7
REMARK VINA RESULT:    -4.441      1.487      3.050
REMARK INTER + INTRA:          -9.284
REMARK INTER:                  -7.817
REMARK INTRA:                  -1.466
REMARK UNBOUND:                -0.949
REMARK SMILES CCCCCCCCC=CCCCCCCCC(=O)[O-]
REMARK SMILES IDX 10 1 9 2 11 3 12 4 13 5 14 6 15 7 16 8 17 9 18 10 19 11
REMARK SMILES IDX 20 12 8 13 7 14 6 15 5 16 4 17 3 18 2 19 1 20
REMARK H PARENT
REMARK Flexibility Score: inf
ROOT
ATOM      1  C   UNL     1      21.768  32.899  26.293  1.00  0.00    -0.031 C 
ATOM      2  C   UNL     1      21.500  31.863  27.109  1.00  0.00    -0.031 C 
ENDROOT
BRANCH   1   3
ATOM      3  C   UNL     1      22.230  34.259  26.755  1.00  0.00     0.027 C 
BRANCH   3   4
ATOM      4  C   UNL     1      22.442  35.224  25.579  1.00  0.00     0.004 C 
BRANCH   4   5
ATOM      5  C   UNL     1      23.363  34.632  24.497  1.00  0.00     0.000 C 
BRANCH   5   6
ATOM      6  C   UNL     1      22.667  34.556  23.121  1.00  0.00     0.000 C 
BRANCH   6   7
ATOM      7  C   UNL     1      21.140  34.394  23.211  1.00  0.00     0.000 C 
BRANCH   7   8
ATOM      8  C   UNL     1      20.615  33.205  22.395  1.00  0.00     0.006 C 
BRANCH   8   9
ATOM      9  C   UNL     1      21.708  32.149  22.200  1.00  0.00     0.053 C 
BRANCH   9  10
ATOM     10  C   UNL     1      21.326  30.868  22.873  1.00  0.00     0.041 C 
ATOM     11  O   UNL     1      21.931  30.494  23.911  1.00  0.00    -0.550 OA
ATOM     12  O   UNL     1      20.332  30.066  22.328  1.00  0.00    -0.550 OA
ENDBRANCH   9  10
ENDBRANCH   8   9
ENDBRANCH   7   8
ENDBRANCH   6   7
ENDBRANCH   5   6
ENDBRANCH   4   5
ENDBRANCH   3   4
ENDBRANCH   1   3
BRANCH   2  13
ATOM     13  C   UNL     1      21.529  31.924  28.617  1.00  0.00     0.027 C 
BRANCH  13  14
ATOM     14  C   UNL     1      20.134  32.172  29.211  1.00  0.00     0.004 C 
BRANCH  14  15
ATOM     15  C   UNL     1      20.164  33.188  30.362  1.00  0.00     0.000 C 
BRANCH  15  16
ATOM     16  C   UNL     1      21.607  33.551  30.739  1.00  0.00     0.000 C 
BRANCH  16  17
ATOM     17  C   UNL     1      21.962  33.174  32.189  1.00  0.00    -0.000 C 
BRANCH  17  18
ATOM     18  C   UNL     1      23.030  32.072  32.334  1.00  0.00    -0.000 C 
BRANCH  18  19
ATOM     19  C   UNL     1      23.484  31.795  33.778  1.00  0.00    -0.003 C 
ATOM     20  C   UNL     1      24.639  30.797  33.857  1.00  0.00     0.004 C 
ENDBRANCH  18  19
ENDBRANCH  17  18
ENDBRANCH  16  17
ENDBRANCH  15  16
ENDBRANCH  14  15
ENDBRANCH  13  14
ENDBRANCH   2  13
TORSDOF 15
ENDMDL
MODEL 8
REMARK VINA RESULT:    -4.437      3.781      8.714
REMARK INTER + INTRA:          -9.276
REMARK INTER:                  -7.348
REMARK INTRA:                  -1.928
REMARK UNBOUND:                -0.949
REMARK SMILES CCCCCCCCC=CCCCCCCCC(=O)[O-]
REMARK SMILES IDX 10 1 9 2 11 3 12 4 13 5 14 6 15 7 16 8 17 9 18 10 19 11
REMARK SMILES IDX 20 12 8 13 7 14 6 15 5 16 4 17 3 18 2 19 1 20
REMARK H PARENT
REMARK Flexibility Score: inf
ROOT
ATOM      1  C   UNL     1      21.617  32.740  29.746  1.00  0.00    -0.031 C 
ATOM      2  C   UNL     1      20.569  31.895  29.738  1.00  0.00    -0.031 C 
ENDROOT
BRANCH   1   3
ATOM      3  C   UNL     1      21.555  34.182  30.187  1.00  0.00     0.027 C 
BRANCH   3   4
ATOM      4  C   UNL     1      21.803  34.333  31.694  1.00  0.00     0.004 C 
BRANCH   4   5
ATOM      5  C   UNL     1      23.168  33.763  32.121  1.00  0.00     0.000 C 
BRANCH   5   6
ATOM      6  C   UNL     1      23.025  32.640  33.170  1.00  0.00     0.000 C 
BRANCH   6   7
ATOM      7  C   UNL     1      24.131  31.574  33.085  1.00  0.00     0.000 C 
BRANCH   7   8
ATOM      8  C   UNL     1      24.450  30.932  34.442  1.00  0.00     0.006 C 
BRANCH   8   9
ATOM      9  C   UNL     1      25.204  29.611  34.261  1.00  0.00     0.053 C 
BRANCH   9  10
ATOM     10  C   UNL     1      24.388  28.466  34.769  1.00  0.00     0.041 C 
ATOM     11  O   UNL     1      24.951  27.414  35.168  1.00  0.00    -0.550 OA
ATOM     12  O   UNL     1      23.001  28.544  34.762  1.00  0.00    -0.550 OA
ENDBRANCH   9  10
ENDBRANCH   8   9
ENDBRANCH   7   8
ENDBRANCH   6   7
ENDBRANCH   5   6
ENDBRANCH   4   5
ENDBRANCH   3   4
ENDBRANCH   1   3
BRANCH   2  13
ATOM     13  C   UNL     1      19.149  32.280  30.079  1.00  0.00     0.027 C 
BRANCH  13  14
ATOM     14  C   UNL     1      18.311  32.560  28.823  1.00  0.00     0.004 C 
BRANCH  14  15
ATOM     15  C   UNL     1      18.075  34.063  28.603  1.00  0.00     0.000 C 
BRANCH  15  16
ATOM     16  C   UNL     1      18.998  34.608  27.504  1.00  0.00     0.000 C 
BRANCH  16  17
ATOM     17  C   UNL     1      19.465  33.523  26.517  1.00  0.00    -0.000 C 
BRANCH  17  18
ATOM     18  C   UNL     1      20.984  33.486  26.258  1.00  0.00    -0.000 C 
BRANCH  18  19
ATOM     19  C   UNL     1      21.550  32.097  25.914  1.00  0.00    -0.003 C 
ATOM     20  C   UNL     1      21.507  31.791  24.418  1.00  0.00     0.004 C 
ENDBRANCH  18  19
ENDBRANCH  17  18
ENDBRANCH  16  17
ENDBRANCH  15  16
ENDBRANCH  14  15
ENDBRANCH  13  14
ENDBRANCH   2  13
TORSDOF 15
ENDMDL
MODEL 9
REMARK VINA RESULT:    -4.424      3.732      8.199
REMARK INTER + INTRA:          -9.253
REMARK INTER:                  -7.232
REMARK INTRA:                  -2.021
REMARK UNBOUND:                -0.949
REMARK SMILES CCCCCCCCC=CCCCCCCCC(=O)[O-]
REMARK SMILES IDX 10 1 9 2 11 3 12 4 13 5 14 6 15 7 16 8 17 9 18 10 19 11
REMARK SMILES IDX 20 12 8 13 7 14 6 15 5 16 4 17 3 18 2 19 1 20
REMARK H PARENT
REMARK Flexibility Score: inf
ROOT
ATOM      1  C   UNL     1      19.694  35.506  28.419  1.00  0.00    -0.031 C 
ATOM      2  C   UNL     1      20.895  35.633  27.825  1.00  0.00    -0.031 C 
ENDROOT
BRANCH   1   3
ATOM      3  C   UNL     1      18.449  34.994  27.738  1.00  0.00     0.027 C 
BRANCH   3   4
ATOM      4  C   UNL     1      18.350  33.463  27.797  1.00  0.00     0.004 C 
BRANCH   4   5
ATOM      5  C   UNL     1      18.249  32.939  29.241  1.00  0.00     0.000 C 
BRANCH   5   6
ATOM      6  C   UNL     1      19.473  32.085  29.636  1.00  0.00     0.000 C 
BRANCH   6   7
ATOM      7  C   UNL     1      20.303  32.691  30.781  1.00  0.00     0.000 C 
BRANCH   7   8
ATOM      8  C   UNL     1      21.798  32.792  30.449  1.00  0.00     0.006 C 
BRANCH   8   9
ATOM      9  C   UNL     1      22.587  33.351  31.636  1.00  0.00     0.053 C 
BRANCH   9  10
ATOM     10  C   UNL     1      22.815  32.286  32.663  1.00  0.00     0.041 C 
ATOM     11  O   UNL     1      22.340  32.411  33.821  1.00  0.00    -0.550 OA
ATOM     12  O   UNL     1      23.589  31.176  32.352  1.00  0.00    -0.550 OA
ENDBRANCH   9  10
ENDBRANCH   8   9
ENDBRANCH   7   8
ENDBRANCH   6   7
ENDBRANCH   5   6
ENDBRANCH   4   5
ENDBRANCH   3   4
ENDBRANCH   1   3
BRANCH   2  13
ATOM     13  C   UNL     1      21.166  35.373  26.363  1.00  0.00     0.027 C 
BRANCH  13  14
ATOM     14  C   UNL     1      22.194  34.251  26.158  1.00  0.00     0.004 C 
BRANCH  14  15
ATOM     15  C   UNL     1      21.942  33.052  27.086  1.00  0.00     0.000 C 
BRANCH  15  16
ATOM     16  C   UNL     1      21.616  31.789  26.276  1.00  0.00     0.000 C 
BRANCH  16  17
ATOM     17  C   UNL     1      21.245  32.093  24.814  1.00  0.00    -0.000 C 
BRANCH  17  18
ATOM     18  C   UNL     1      21.561  30.964  23.811  1.00  0.00    -0.000 C 
BRANCH  18  19
ATOM     19  C   UNL     1      21.434  31.357  22.330  1.00  0.00    -0.003 C 
ATOM     20  C   UNL     1      20.593  30.370  21.522  1.00  0.00     0.004 C 
ENDBRANCH  18  19
ENDBRANCH  17  18
ENDBRANCH  16  17
ENDBRANCH  15  16
ENDBRANCH  14  15
ENDBRANCH  13  14
ENDBRANCH   2  13
TORSDOF 15
ENDMDL
