MODEL 1
REMARK VINA RESULT:    -5.097      0.000      0.000
REMARK INTER + INTRA:          -5.487
REMARK INTER:                  -5.395
REMARK INTRA:                  -0.093
REMARK UNBOUND:                -0.093
REMARK SMILES C=C(C)[C@H]1CC=C(C)C(=O)C1
REMARK SMILES IDX 8 1 7 2 6 3 5 4 4 5 11 6 9 7 10 8 2 9 1 10 3 11
REMARK H PARENT
REMARK Flexibility Score: inf
ROOT
ATOM      1  C   UNL     1     -44.287  18.298  19.000  1.00  0.00     0.048 C 
ATOM      2  C   UNL     1     -43.474  17.881  17.807  1.00  0.00    -0.012 C 
ATOM      3  C   UNL     1     -44.012  17.939  16.577  1.00  0.00    -0.019 C 
ATOM      4  C   UNL     1     -43.248  17.517  15.350  1.00  0.00     0.036 C 
ATOM      5  C   UNL     1     -41.743  17.805  15.507  1.00  0.00     0.025 C 
ATOM      6  C   UNL     1     -41.203  17.142  16.788  1.00  0.00     0.089 C 
ATOM      7  C   UNL     1     -42.043  17.524  17.975  1.00  0.00     0.158 C 
ATOM      8  O   UNL     1     -41.526  17.503  19.125  1.00  0.00    -0.295 OA
ENDROOT
BRANCH   5   9
ATOM      9  C   UNL     1     -40.956  17.374  14.276  1.00  0.00    -0.077 C 
ATOM     10  C   UNL     1     -41.215  17.894  13.063  1.00  0.00     0.008 C 
ATOM     11  C   UNL     1     -39.861  16.347  14.401  1.00  0.00     0.039 C 
ENDBRANCH   5   9
TORSDOF 1
ENDMDL
MODEL 2
REMARK VINA RESULT:    -4.976      1.531      2.284
REMARK INTER + INTRA:          -5.359
REMARK INTER:                  -5.262
REMARK INTRA:                  -0.097
REMARK UNBOUND:                -0.093
REMARK SMILES C=C(C)[C@H]1CC=C(C)C(=O)C1
REMARK SMILES IDX 8 1 7 2 6 3 5 4 4 5 11 6 9 7 10 8 2 9 1 10 3 11
REMARK H PARENT
REMARK Flexibility Score: inf
ROOT
ATOM      1  C   UNL     1     -44.007  18.184  19.119  1.00  0.00     0.048 C 
ATOM      2  C   UNL     1     -42.926  17.876  18.122  1.00  0.00    -0.012 C 
ATOM      3  C   UNL     1     -41.713  17.487  18.548  1.00  0.00    -0.019 C 
ATOM      4  C   UNL     1     -40.588  17.184  17.593  1.00  0.00     0.036 C 
ATOM      5  C   UNL     1     -41.125  16.596  16.274  1.00  0.00     0.025 C 
ATOM      6  C   UNL     1     -42.177  17.538  15.658  1.00  0.00     0.089 C 
ATOM      7  C   UNL     1     -43.235  17.881  16.669  1.00  0.00     0.158 C 
ATOM      8  O   UNL     1     -44.384  18.211  16.268  1.00  0.00    -0.295 OA
ENDROOT
BRANCH   5   9
ATOM      9  C   UNL     1     -40.000  16.293  15.293  1.00  0.00    -0.077 C 
ATOM     10  C   UNL     1     -40.047  16.725  14.020  1.00  0.00     0.008 C 
ATOM     11  C   UNL     1     -38.801  15.498  15.741  1.00  0.00     0.039 C 
ENDBRANCH   5   9
TORSDOF 1
ENDMDL
MODEL 3
REMARK VINA RESULT:    -4.946      1.757      4.338
REMARK INTER + INTRA:          -5.328
REMARK INTER:                  -5.236
REMARK INTRA:                  -0.092
REMARK UNBOUND:                -0.093
REMARK SMILES C=C(C)[C@H]1CC=C(C)C(=O)C1
REMARK SMILES IDX 8 1 7 2 6 3 5 4 4 5 11 6 9 7 10 8 2 9 1 10 3 11
REMARK H PARENT
REMARK Flexibility Score: inf
ROOT
ATOM      1  C   UNL     1     -40.628  17.205  12.436  1.00  0.00     0.048 C 
ATOM      2  C   UNL     1     -41.165  17.503  13.808  1.00  0.00    -0.012 C 
ATOM      3  C   UNL     1     -42.168  18.385  13.957  1.00  0.00    -0.019 C 
ATOM      4  C   UNL     1     -42.731  18.733  15.309  1.00  0.00     0.036 C 
ATOM      5  C   UNL     1     -42.668  17.526  16.264  1.00  0.00     0.025 C 
ATOM      6  C   UNL     1     -41.227  16.989  16.353  1.00  0.00     0.089 C 
ATOM      7  C   UNL     1     -40.673  16.733  14.978  1.00  0.00     0.158 C 
ATOM      8  O   UNL     1     -39.757  15.879  14.835  1.00  0.00    -0.295 OA
ENDROOT
BRANCH   5   9
ATOM      9  C   UNL     1     -43.226  17.866  17.640  1.00  0.00    -0.077 C 
ATOM     10  C   UNL     1     -44.511  18.226  17.804  1.00  0.00     0.008 C 
ATOM     11  C   UNL     1     -42.336  17.801  18.854  1.00  0.00     0.039 C 
ENDBRANCH   5   9
TORSDOF 1
ENDMDL
MODEL 4
REMARK VINA RESULT:    -4.924      2.045      4.802
REMARK INTER + INTRA:          -5.304
REMARK INTER:                  -5.210
REMARK INTRA:                  -0.094
REMARK UNBOUND:                -0.093
REMARK SMILES C=C(C)[C@H]1CC=C(C)C(=O)C1
REMARK SMILES IDX 8 1 7 2 6 3 5 4 4 5 11 6 9 7 10 8 2 9 1 10 3 11
REMARK H PARENT
REMARK Flexibility Score: inf
ROOT
ATOM      1  C   UNL     1     -39.188  16.552  13.519  1.00  0.00     0.048 C 
ATOM      2  C   UNL     1     -40.248  16.745  14.567  1.00  0.00    -0.012 C 
ATOM      3  C   UNL     1     -40.009  16.376  15.837  1.00  0.00    -0.019 C 
ATOM      4  C   UNL     1     -41.042  16.530  16.922  1.00  0.00     0.036 C 
ATOM      5  C   UNL     1     -41.930  17.763  16.671  1.00  0.00     0.025 C 
ATOM      6  C   UNL     1     -42.563  17.690  15.268  1.00  0.00     0.089 C 
ATOM      7  C   UNL     1     -41.507  17.453  14.224  1.00  0.00     0.158 C 
ATOM      8  O   UNL     1     -41.719  17.832  13.040  1.00  0.00    -0.295 OA
ENDROOT
BRANCH   5   9
ATOM      9  C   UNL     1     -42.987  17.926  17.756  1.00  0.00    -0.077 C 
ATOM     10  C   UNL     1     -42.666  17.856  19.060  1.00  0.00     0.008 C 
ATOM     11  C   UNL     1     -44.425  18.173  17.380  1.00  0.00     0.039 C 
ENDBRANCH   5   9
TORSDOF 1
ENDMDL
MODEL 5
REMARK VINA RESULT:    -4.897      1.719      4.465
REMARK INTER + INTRA:          -5.276
REMARK INTER:                  -5.179
REMARK INTRA:                  -0.096
REMARK UNBOUND:                -0.093
REMARK SMILES C=C(C)[C@H]1CC=C(C)C(=O)C1
REMARK SMILES IDX 8 1 7 2 6 3 5 4 4 5 11 6 9 7 10 8 2 9 1 10 3 11
REMARK H PARENT
REMARK Flexibility Score: inf
ROOT
ATOM      1  C   UNL     1     -39.721  16.509  12.798  1.00  0.00     0.048 C 
ATOM      2  C   UNL     1     -40.447  16.975  14.029  1.00  0.00    -0.012 C 
ATOM      3  C   UNL     1     -41.411  17.905  13.926  1.00  0.00    -0.019 C 
ATOM      4  C   UNL     1     -42.157  18.421  15.128  1.00  0.00     0.036 C 
ATOM      5  C   UNL     1     -42.307  17.324  16.199  1.00  0.00     0.025 C 
ATOM      6  C   UNL     1     -40.929  16.747  16.571  1.00  0.00     0.089 C 
ATOM      7  C   UNL     1     -40.184  16.320  15.336  1.00  0.00     0.158 C 
ATOM      8  O   UNL     1     -39.304  15.422  15.428  1.00  0.00    -0.295 OA
ENDROOT
BRANCH   5   9
ATOM      9  C   UNL     1     -43.052  17.834  17.427  1.00  0.00    -0.077 C 
ATOM     10  C   UNL     1     -42.451  17.910  18.627  1.00  0.00     0.008 C 
ATOM     11  C   UNL     1     -44.490  18.268  17.312  1.00  0.00     0.039 C 
ENDBRANCH   5   9
TORSDOF 1
ENDMDL
MODEL 6
REMARK VINA RESULT:    -4.673      2.301      3.400
REMARK INTER + INTRA:          -5.039
REMARK INTER:                  -4.950
REMARK INTRA:                  -0.089
REMARK UNBOUND:                -0.093
REMARK SMILES C=C(C)[C@H]1CC=C(C)C(=O)C1
REMARK SMILES IDX 8 1 7 2 6 3 5 4 4 5 11 6 9 7 10 8 2 9 1 10 3 11
REMARK H PARENT
REMARK Flexibility Score: inf
ROOT
ATOM      1  C   UNL     1     -43.227  19.353  16.238  1.00  0.00     0.048 C 
ATOM      2  C   UNL     1     -42.140  18.327  16.081  1.00  0.00    -0.012 C 
ATOM      3  C   UNL     1     -41.619  17.733  17.167  1.00  0.00    -0.019 C 
ATOM      4  C   UNL     1     -40.516  16.712  17.068  1.00  0.00     0.036 C 
ATOM      5  C   UNL     1     -40.635  15.892  15.769  1.00  0.00     0.025 C 
ATOM      6  C   UNL     1     -40.674  16.830  14.548  1.00  0.00     0.089 C 
ATOM      7  C   UNL     1     -41.733  17.883  14.724  1.00  0.00     0.158 C 
ATOM      8  O   UNL     1     -42.246  18.415  13.703  1.00  0.00    -0.295 OA
ENDROOT
BRANCH   5   9
ATOM      9  C   UNL     1     -39.520  14.861  15.650  1.00  0.00    -0.077 C 
ATOM     10  C   UNL     1     -39.790  13.545  15.576  1.00  0.00     0.008 C 
ATOM     11  C   UNL     1     -38.081  15.305  15.612  1.00  0.00     0.039 C 
ENDBRANCH   5   9
TORSDOF 1
ENDMDL
MODEL 7
REMARK VINA RESULT:    -4.630      2.615      4.672
REMARK INTER + INTRA:          -4.993
REMARK INTER:                  -4.896
REMARK INTRA:                  -0.097
REMARK UNBOUND:                -0.093
REMARK SMILES C=C(C)[C@H]1CC=C(C)C(=O)C1
REMARK SMILES IDX 8 1 7 2 6 3 5 4 4 5 11 6 9 7 10 8 2 9 1 10 3 11
REMARK H PARENT
REMARK Flexibility Score: inf
ROOT
ATOM      1  C   UNL     1     -37.458  14.943  15.646  1.00  0.00     0.048 C 
ATOM      2  C   UNL     1     -38.788  15.580  15.356  1.00  0.00    -0.012 C 
ATOM      3  C   UNL     1     -39.780  15.500  16.258  1.00  0.00    -0.019 C 
ATOM      4  C   UNL     1     -41.137  16.104  16.010  1.00  0.00     0.036 C 
ATOM      5  C   UNL     1     -41.027  17.378  15.152  1.00  0.00     0.025 C 
ATOM      6  C   UNL     1     -40.274  17.077  13.842  1.00  0.00     0.089 C 
ATOM      7  C   UNL     1     -38.963  16.400  14.131  1.00  0.00     0.158 C 
ATOM      8  O   UNL     1     -38.021  16.506  13.299  1.00  0.00    -0.295 OA
ENDROOT
BRANCH   5   9
ATOM      9  C   UNL     1     -42.394  17.996  14.884  1.00  0.00    -0.077 C 
ATOM     10  C   UNL     1     -42.650  18.659  13.743  1.00  0.00     0.008 C 
ATOM     11  C   UNL     1     -43.493  17.870  15.907  1.00  0.00     0.039 C 
ENDBRANCH   5   9
TORSDOF 1
ENDMDL
MODEL 8
REMARK VINA RESULT:    -4.467      2.414      4.011
REMARK INTER + INTRA:          -4.820
REMARK INTER:                  -4.732
REMARK INTRA:                  -0.089
REMARK UNBOUND:                -0.093
REMARK SMILES C=C(C)[C@H]1CC=C(C)C(=O)C1
REMARK SMILES IDX 8 1 7 2 6 3 5 4 4 5 11 6 9 7 10 8 2 9 1 10 3 11
REMARK H PARENT
REMARK Flexibility Score: inf
ROOT
ATOM      1  C   UNL     1     -42.214  19.209  13.415  1.00  0.00     0.048 C 
ATOM      2  C   UNL     1     -41.469  17.989  13.881  1.00  0.00    -0.012 C 
ATOM      3  C   UNL     1     -40.498  17.465  13.116  1.00  0.00    -0.019 C 
ATOM      4  C   UNL     1     -39.734  16.234  13.526  1.00  0.00     0.036 C 
ATOM      5  C   UNL     1     -39.581  16.161  15.057  1.00  0.00     0.025 C 
ATOM      6  C   UNL     1     -40.960  16.245  15.737  1.00  0.00     0.089 C 
ATOM      7  C   UNL     1     -41.723  17.441  15.238  1.00  0.00     0.158 C 
ATOM      8  O   UNL     1     -42.610  17.954  15.973  1.00  0.00    -0.295 OA
ENDROOT
BRANCH   5   9
ATOM      9  C   UNL     1     -38.817  14.915  15.488  1.00  0.00    -0.077 C 
ATOM     10  C   UNL     1     -37.502  14.963  15.768  1.00  0.00     0.008 C 
ATOM     11  C   UNL     1     -39.532  13.595  15.610  1.00  0.00     0.039 C 
ENDBRANCH   5   9
TORSDOF 1
ENDMDL
MODEL 9
REMARK VINA RESULT:    -4.403      1.387      1.936
REMARK INTER + INTRA:          -4.753
REMARK INTER:                  -4.664
REMARK INTRA:                  -0.089
REMARK UNBOUND:                -0.093
REMARK SMILES C=C(C)[C@H]1CC=C(C)C(=O)C1
REMARK SMILES IDX 8 1 7 2 6 3 5 4 4 5 11 6 9 7 10 8 2 9 1 10 3 11
REMARK H PARENT
REMARK Flexibility Score: inf
ROOT
ATOM      1  C   UNL     1     -44.108  19.374  17.243  1.00  0.00     0.048 C 
ATOM      2  C   UNL     1     -43.114  18.303  16.896  1.00  0.00    -0.012 C 
ATOM      3  C   UNL     1     -43.032  17.848  15.635  1.00  0.00    -0.019 C 
ATOM      4  C   UNL     1     -42.066  16.764  15.236  1.00  0.00     0.036 C 
ATOM      5  C   UNL     1     -40.776  16.835  16.075  1.00  0.00     0.025 C 
ATOM      6  C   UNL     1     -41.113  16.794  17.578  1.00  0.00     0.089 C 
ATOM      7  C   UNL     1     -42.141  17.837  17.917  1.00  0.00     0.158 C 
ATOM      8  O   UNL     1     -42.193  18.288  19.094  1.00  0.00    -0.295 OA
ENDROOT
BRANCH   5   9
ATOM      9  C   UNL     1     -39.793  15.737  15.690  1.00  0.00    -0.077 C 
ATOM     10  C   UNL     1     -38.535  16.027  15.311  1.00  0.00     0.008 C 
ATOM     11  C   UNL     1     -40.218  14.293  15.730  1.00  0.00     0.039 C 
ENDBRANCH   5   9
TORSDOF 1
ENDMDL
