MODEL 1
REMARK VINA RESULT:    -5.159      0.000      0.000
REMARK INTER + INTRA:          -5.680
REMARK INTER:                  -5.460
REMARK INTRA:                  -0.220
REMARK UNBOUND:                -0.220
REMARK SMILES CC1=CC[C@@]23[C@@H]([C@@H](C(C)C)CC[C@H]2C)[C@H]13
REMARK SMILES IDX 14 1 13 2 12 3 11 4 7 5 6 6 5 7 15 8 2 9 3 10 4 11 1 12 8 13
REMARK SMILES IDX 9 14 10 15
REMARK H PARENT
REMARK Flexibility Score: inf
ROOT
ATOM      1  C   UNL     1     139.299 139.134 141.047  1.00  0.00     0.008 C 
ATOM      2  C   UNL     1     138.222 139.340 139.976  1.00  0.00    -0.007 C 
ATOM      3  C   UNL     1     136.837 138.928 140.508  1.00  0.00     0.004 C 
ATOM      4  C   UNL     1     135.695 139.128 139.478  1.00  0.00     0.004 C 
ATOM      5  C   UNL     1     136.171 139.521 138.054  1.00  0.00    -0.004 C 
ATOM      6  C   UNL     1     137.357 138.615 137.646  1.00  0.00     0.007 C 
ATOM      7  C   UNL     1     138.504 138.561 138.662  1.00  0.00    -0.013 C 
ATOM      8  C   UNL     1     138.672 139.345 137.364  1.00  0.00     0.025 C 
ATOM      9  C   UNL     1     139.687 138.555 136.605  1.00  0.00    -0.073 C 
ATOM     10  C   UNL     1     140.090 137.469 137.256  1.00  0.00    -0.027 C 
ATOM     11  C   UNL     1     139.418 137.324 138.580  1.00  0.00     0.035 C 
ATOM     12  C   UNL     1     140.175 138.930 135.241  1.00  0.00     0.039 C 
ENDROOT
BRANCH   5  13
ATOM     13  C   UNL     1     135.031 139.426 136.997  1.00  0.00    -0.014 C 
ATOM     14  C   UNL     1     134.777 140.792 136.333  1.00  0.00     0.007 C 
ATOM     15  C   UNL     1     133.715 138.915 137.609  1.00  0.00     0.007 C 
ENDBRANCH   5  13
TORSDOF 1
ENDMDL
MODEL 2
REMARK VINA RESULT:    -5.144      3.436      5.147
REMARK INTER + INTRA:          -5.665
REMARK INTER:                  -5.445
REMARK INTRA:                  -0.220
REMARK UNBOUND:                -0.220
REMARK SMILES CC1=CC[C@@]23[C@@H]([C@@H](C(C)C)CC[C@H]2C)[C@H]13
REMARK SMILES IDX 14 1 13 2 12 3 11 4 7 5 6 6 5 7 15 8 2 9 3 10 4 11 1 12 8 13
REMARK SMILES IDX 9 14 10 15
REMARK H PARENT
REMARK Flexibility Score: inf
ROOT
ATOM      1  C   UNL     1     139.077 133.369 141.002  1.00  0.00     0.008 C 
ATOM      2  C   UNL     1     139.303 134.428 139.917  1.00  0.00    -0.007 C 
ATOM      3  C   UNL     1     138.880 135.822 140.419  1.00  0.00     0.004 C 
ATOM      4  C   UNL     1     139.098 136.947 139.374  1.00  0.00     0.004 C 
ATOM      5  C   UNL     1     139.518 136.447 137.966  1.00  0.00    -0.004 C 
ATOM      6  C   UNL     1     138.622 135.254 137.561  1.00  0.00     0.007 C 
ATOM      7  C   UNL     1     138.549 134.124 138.594  1.00  0.00    -0.013 C 
ATOM      8  C   UNL     1     139.357 133.935 137.314  1.00  0.00     0.025 C 
ATOM      9  C   UNL     1     138.583 132.908 136.557  1.00  0.00    -0.073 C 
ATOM     10  C   UNL     1     137.484 132.514 137.194  1.00  0.00    -0.027 C 
ATOM     11  C   UNL     1     137.314 133.207 138.503  1.00  0.00     0.035 C 
ATOM     12  C   UNL     1     138.984 132.398 135.209  1.00  0.00     0.039 C 
ENDROOT
BRANCH   5  13
ATOM     13  C   UNL     1     139.443 137.570 136.888  1.00  0.00    -0.014 C 
ATOM     14  C   UNL     1     140.816 137.797 136.230  1.00  0.00     0.007 C 
ATOM     15  C   UNL     1     138.943 138.902 137.475  1.00  0.00     0.007 C 
ENDBRANCH   5  13
TORSDOF 1
ENDMDL
MODEL 3
REMARK VINA RESULT:    -5.138      3.389      5.086
REMARK INTER + INTRA:          -5.659
REMARK INTER:                  -5.439
REMARK INTRA:                  -0.220
REMARK UNBOUND:                -0.220
REMARK SMILES CC1=CC[C@@]23[C@@H]([C@@H](C(C)C)CC[C@H]2C)[C@H]13
REMARK SMILES IDX 14 1 13 2 12 3 11 4 7 5 6 6 5 7 15 8 2 9 3 10 4 11 1 12 8 13
REMARK SMILES IDX 9 14 10 15
REMARK H PARENT
REMARK Flexibility Score: inf
ROOT
ATOM      1  C   UNL     1     133.601 139.316 140.993  1.00  0.00     0.008 C 
ATOM      2  C   UNL     1     133.366 138.254 139.914  1.00  0.00    -0.007 C 
ATOM      3  C   UNL     1     133.771 136.858 140.424  1.00  0.00     0.004 C 
ATOM      4  C   UNL     1     133.542 135.729 139.385  1.00  0.00     0.004 C 
ATOM      5  C   UNL     1     133.132 136.226 137.973  1.00  0.00    -0.004 C 
ATOM      6  C   UNL     1     134.044 137.406 137.564  1.00  0.00     0.007 C 
ATOM      7  C   UNL     1     134.127 138.541 138.591  1.00  0.00    -0.013 C 
ATOM      8  C   UNL     1     133.325 138.732 137.307  1.00  0.00     0.025 C 
ATOM      9  C   UNL     1     134.114 139.746 136.547  1.00  0.00    -0.073 C 
ATOM     10  C   UNL     1     135.214 140.131 137.185  1.00  0.00    -0.027 C 
ATOM     11  C   UNL     1     135.373 139.443 138.499  1.00  0.00     0.035 C 
ATOM     12  C   UNL     1     133.722 140.253 135.195  1.00  0.00     0.039 C 
ENDROOT
BRANCH   5  13
ATOM     13  C   UNL     1     133.198 135.097 136.902  1.00  0.00    -0.014 C 
ATOM     14  C   UNL     1     131.819 134.865 136.257  1.00  0.00     0.007 C 
ATOM     15  C   UNL     1     133.703 133.767 137.493  1.00  0.00     0.007 C 
ENDBRANCH   5  13
TORSDOF 1
ENDMDL
MODEL 4
REMARK VINA RESULT:    -5.138      5.135      7.245
REMARK INTER + INTRA:          -5.658
REMARK INTER:                  -5.438
REMARK INTRA:                  -0.220
REMARK UNBOUND:                -0.220
REMARK SMILES CC1=CC[C@@]23[C@@H]([C@@H](C(C)C)CC[C@H]2C)[C@H]13
REMARK SMILES IDX 14 1 13 2 12 3 11 4 7 5 6 6 5 7 15 8 2 9 3 10 4 11 1 12 8 13
REMARK SMILES IDX 9 14 10 15
REMARK H PARENT
REMARK Flexibility Score: inf
ROOT
ATOM      1  C   UNL     1     133.386 133.590 140.987  1.00  0.00     0.008 C 
ATOM      2  C   UNL     1     134.451 133.354 139.910  1.00  0.00    -0.007 C 
ATOM      3  C   UNL     1     135.844 133.774 140.417  1.00  0.00     0.004 C 
ATOM      4  C   UNL     1     136.975 133.545 139.381  1.00  0.00     0.004 C 
ATOM      5  C   UNL     1     136.482 133.119 137.972  1.00  0.00    -0.004 C 
ATOM      6  C   UNL     1     135.295 134.019 137.555  1.00  0.00     0.007 C 
ATOM      7  C   UNL     1     134.158 134.102 138.581  1.00  0.00    -0.013 C 
ATOM      8  C   UNL     1     133.975 133.287 137.304  1.00  0.00     0.025 C 
ATOM      9  C   UNL     1     132.955 134.061 136.537  1.00  0.00    -0.073 C 
ATOM     10  C   UNL     1     132.561 135.165 137.164  1.00  0.00    -0.027 C 
ATOM     11  C   UNL     1     133.247 135.340 138.477  1.00  0.00     0.035 C 
ATOM     12  C   UNL     1     132.451 133.654 135.187  1.00  0.00     0.039 C 
ENDROOT
BRANCH   5  13
ATOM     13  C   UNL     1     137.611 133.184 136.901  1.00  0.00    -0.014 C 
ATOM     14  C   UNL     1     137.865 131.798 136.280  1.00  0.00     0.007 C 
ATOM     15  C   UNL     1     138.931 133.721 137.484  1.00  0.00     0.007 C 
ENDBRANCH   5  13
TORSDOF 1
ENDMDL
MODEL 5
REMARK VINA RESULT:    -5.107      5.542      7.650
REMARK INTER + INTRA:          -5.626
REMARK INTER:                  -5.376
REMARK INTRA:                  -0.250
REMARK UNBOUND:                -0.220
REMARK SMILES CC1=CC[C@@]23[C@@H]([C@@H](C(C)C)CC[C@H]2C)[C@H]13
REMARK SMILES IDX 14 1 13 2 12 3 11 4 7 5 6 6 5 7 15 8 2 9 3 10 4 11 1 12 8 13
REMARK SMILES IDX 9 14 10 15
REMARK H PARENT
REMARK Flexibility Score: inf
ROOT
ATOM      1  C   UNL     1     138.268 134.054 132.972  1.00  0.00     0.008 C 
ATOM      2  C   UNL     1     138.149 133.949 134.496  1.00  0.00    -0.007 C 
ATOM      3  C   UNL     1     139.467 133.443 135.113  1.00  0.00     0.004 C 
ATOM      4  C   UNL     1     139.423 133.329 136.659  1.00  0.00     0.004 C 
ATOM      5  C   UNL     1     138.021 133.559 137.283  1.00  0.00    -0.004 C 
ATOM      6  C   UNL     1     136.967 132.767 136.473  1.00  0.00     0.007 C 
ATOM      7  C   UNL     1     136.994 133.022 134.961  1.00  0.00    -0.013 C 
ATOM      8  C   UNL     1     135.875 133.613 135.815  1.00  0.00     0.025 C 
ATOM      9  C   UNL     1     134.664 132.858 135.378  1.00  0.00    -0.073 C 
ATOM     10  C   UNL     1     134.928 131.947 134.447  1.00  0.00    -0.027 C 
ATOM     11  C   UNL     1     136.374 131.919 134.082  1.00  0.00     0.035 C 
ATOM     12  C   UNL     1     133.300 133.081 135.952  1.00  0.00     0.039 C 
ENDROOT
BRANCH   5  13
ATOM     13  C   UNL     1     137.963 133.153 138.786  1.00  0.00    -0.014 C 
ATOM     14  C   UNL     1     136.550 133.361 139.361  1.00  0.00     0.007 C 
ATOM     15  C   UNL     1     138.972 133.945 139.638  1.00  0.00     0.007 C 
ENDBRANCH   5  13
TORSDOF 1
ENDMDL
MODEL 6
REMARK VINA RESULT:    -5.087      2.661      5.115
REMARK INTER + INTRA:          -5.604
REMARK INTER:                  -5.354
REMARK INTRA:                  -0.250
REMARK UNBOUND:                -0.220
REMARK SMILES CC1=CC[C@@]23[C@@H]([C@@H](C(C)C)CC[C@H]2C)[C@H]13
REMARK SMILES IDX 14 1 13 2 12 3 11 4 7 5 6 6 5 7 15 8 2 9 3 10 4 11 1 12 8 13
REMARK SMILES IDX 9 14 10 15
REMARK H PARENT
REMARK Flexibility Score: inf
ROOT
ATOM      1  C   UNL     1     138.632 138.312 133.098  1.00  0.00     0.008 C 
ATOM      2  C   UNL     1     138.724 138.167 134.621  1.00  0.00    -0.007 C 
ATOM      3  C   UNL     1     139.282 139.452 135.259  1.00  0.00     0.004 C 
ATOM      4  C   UNL     1     139.387 139.380 136.805  1.00  0.00     0.004 C 
ATOM      5  C   UNL     1     139.094 137.980 137.406  1.00  0.00    -0.004 C 
ATOM      6  C   UNL     1     139.845 136.905 136.584  1.00  0.00     0.007 C 
ATOM      7  C   UNL     1     139.599 136.965 135.072  1.00  0.00    -0.013 C 
ATOM      8  C   UNL     1     138.957 135.860 135.906  1.00  0.00     0.025 C 
ATOM      9  C   UNL     1     139.662 134.625 135.454  1.00  0.00    -0.073 C 
ATOM     10  C   UNL     1     140.587 134.864 134.531  1.00  0.00    -0.027 C 
ATOM     11  C   UNL     1     140.679 136.312 134.188  1.00  0.00     0.035 C 
ATOM     12  C   UNL     1     139.378 133.263 136.006  1.00  0.00     0.039 C 
ENDROOT
BRANCH   5  13
ATOM     13  C   UNL     1     139.490 137.882 138.910  1.00  0.00    -0.014 C 
ATOM     14  C   UNL     1     139.249 136.462 139.454  1.00  0.00     0.007 C 
ATOM     15  C   UNL     1     138.715 138.889 139.779  1.00  0.00     0.007 C 
ENDBRANCH   5  13
TORSDOF 1
ENDMDL
MODEL 7
REMARK VINA RESULT:    -5.070      5.241      7.372
REMARK INTER + INTRA:          -5.586
REMARK INTER:                  -5.335
REMARK INTRA:                  -0.251
REMARK UNBOUND:                -0.220
REMARK SMILES CC1=CC[C@@]23[C@@H]([C@@H](C(C)C)CC[C@H]2C)[C@H]13
REMARK SMILES IDX 14 1 13 2 12 3 11 4 7 5 6 6 5 7 15 8 2 9 3 10 4 11 1 12 8 13
REMARK SMILES IDX 9 14 10 15
REMARK H PARENT
REMARK Flexibility Score: inf
ROOT
ATOM      1  C   UNL     1     134.071 134.189 133.010  1.00  0.00     0.008 C 
ATOM      2  C   UNL     1     133.966 134.353 134.530  1.00  0.00    -0.007 C 
ATOM      3  C   UNL     1     133.494 133.043 135.189  1.00  0.00     0.004 C 
ATOM      4  C   UNL     1     133.381 133.134 136.733  1.00  0.00     0.004 C 
ATOM      5  C   UNL     1     133.578 134.560 137.312  1.00  0.00    -0.004 C 
ATOM      6  C   UNL     1     132.760 135.568 136.471  1.00  0.00     0.007 C 
ATOM      7  C   UNL     1     133.012 135.500 134.960  1.00  0.00    -0.013 C 
ATOM      8  C   UNL     1     133.577 136.659 135.777  1.00  0.00     0.025 C 
ATOM      9  C   UNL     1     132.792 137.837 135.304  1.00  0.00    -0.073 C 
ATOM     10  C   UNL     1     131.887 137.522 134.384  1.00  0.00    -0.027 C 
ATOM     11  C   UNL     1     131.893 136.065 134.065  1.00  0.00     0.035 C 
ATOM     12  C   UNL     1     132.984 139.224 135.834  1.00  0.00     0.039 C 
ENDROOT
BRANCH   5  13
ATOM     13  C   UNL     1     133.174 134.656 138.813  1.00  0.00    -0.014 C 
ATOM     14  C   UNL     1     133.374 136.085 139.350  1.00  0.00     0.007 C 
ATOM     15  C   UNL     1     133.973 133.676 139.691  1.00  0.00     0.007 C 
ENDBRANCH   5  13
TORSDOF 1
ENDMDL
MODEL 8
REMARK VINA RESULT:    -5.035      2.050      4.552
REMARK INTER + INTRA:          -5.549
REMARK INTER:                  -5.296
REMARK INTRA:                  -0.253
REMARK UNBOUND:                -0.220
REMARK SMILES CC1=CC[C@@]23[C@@H]([C@@H](C(C)C)CC[C@H]2C)[C@H]13
REMARK SMILES IDX 14 1 13 2 12 3 11 4 7 5 6 6 5 7 15 8 2 9 3 10 4 11 1 12 8 13
REMARK SMILES IDX 9 14 10 15
REMARK H PARENT
REMARK Flexibility Score: inf
ROOT
ATOM      1  C   UNL     1     134.464 138.738 133.031  1.00  0.00     0.008 C 
ATOM      2  C   UNL     1     134.515 138.761 134.563  1.00  0.00    -0.007 C 
ATOM      3  C   UNL     1     133.202 139.316 135.145  1.00  0.00     0.004 C 
ATOM      4  C   UNL     1     133.179 139.353 136.695  1.00  0.00     0.004 C 
ATOM      5  C   UNL     1     134.534 139.007 137.368  1.00  0.00    -0.004 C 
ATOM      6  C   UNL     1     135.670 139.771 136.648  1.00  0.00     0.007 C 
ATOM      7  C   UNL     1     135.701 139.592 135.125  1.00  0.00    -0.013 C 
ATOM      8  C   UNL     1     136.740 138.893 135.997  1.00  0.00     0.025 C 
ATOM      9  C   UNL     1     138.013 139.592 135.654  1.00  0.00    -0.073 C 
ATOM     10  C   UNL     1     137.848 140.561 134.760  1.00  0.00    -0.027 C 
ATOM     11  C   UNL     1     136.426 140.696 134.333  1.00  0.00     0.035 C 
ATOM     12  C   UNL     1     139.333 139.258 136.276  1.00  0.00     0.039 C 
ENDROOT
BRANCH   5  13
ATOM     13  C   UNL     1     134.544 139.336 138.891  1.00  0.00    -0.014 C 
ATOM     14  C   UNL     1     135.982 139.366 139.441  1.00  0.00     0.007 C 
ATOM     15  C   UNL     1     133.717 138.325 139.706  1.00  0.00     0.007 C 
ENDBRANCH   5  13
TORSDOF 1
ENDMDL
MODEL 9
REMARK VINA RESULT:    -5.012      1.447      4.555
REMARK INTER + INTRA:          -5.524
REMARK INTER:                  -5.276
REMARK INTRA:                  -0.249
REMARK UNBOUND:                -0.220
REMARK SMILES CC1=CC[C@@]23[C@@H]([C@@H](C(C)C)CC[C@H]2C)[C@H]13
REMARK SMILES IDX 14 1 13 2 12 3 11 4 7 5 6 6 5 7 15 8 2 9 3 10 4 11 1 12 8 13
REMARK SMILES IDX 9 14 10 15
REMARK H PARENT
REMARK Flexibility Score: inf
ROOT
ATOM      1  C   UNL     1     134.823 138.558 139.330  1.00  0.00     0.008 C 
ATOM      2  C   UNL     1     136.055 138.487 138.421  1.00  0.00    -0.007 C 
ATOM      3  C   UNL     1     137.317 138.948 139.174  1.00  0.00     0.004 C 
ATOM      4  C   UNL     1     138.607 138.885 138.315  1.00  0.00     0.004 C 
ATOM      5  C   UNL     1     138.369 138.556 136.818  1.00  0.00    -0.004 C 
ATOM      6  C   UNL     1     137.194 139.411 136.288  1.00  0.00     0.007 C 
ATOM      7  C   UNL     1     135.911 139.330 137.125  1.00  0.00    -0.013 C 
ATOM      8  C   UNL     1     135.988 138.622 135.775  1.00  0.00     0.025 C 
ATOM      9  C   UNL     1     135.041 139.395 134.919  1.00  0.00    -0.073 C 
ATOM     10  C   UNL     1     134.472 140.411 135.560  1.00  0.00    -0.027 C 
ATOM     11  C   UNL     1     134.934 140.512 136.975  1.00  0.00     0.035 C 
ATOM     12  C   UNL     1     134.782 139.079 133.479  1.00  0.00     0.039 C 
ENDROOT
BRANCH   5  13
ATOM     13  C   UNL     1     139.640 138.788 135.947  1.00  0.00    -0.014 C 
ATOM     14  C   UNL     1     139.342 138.543 134.457  1.00  0.00     0.007 C 
ATOM     15  C   UNL     1     140.810 137.884 136.379  1.00  0.00     0.007 C 
ENDBRANCH   5  13
TORSDOF 1
ENDMDL
