MODEL 1
REMARK VINA RESULT:    -2.341      0.000      0.000
REMARK INTER + INTRA:          -2.341
REMARK INTER:                  -2.341
REMARK INTRA:                   0.000
REMARK UNBOUND:                 0.000
REMARK SMILES CC(=O)[O-]
REMARK SMILES IDX 1 1 2 2 3 3 4 4
REMARK H PARENT
REMARK Flexibility Score: inf
ROOT
ATOM      1  C   UNL     1      38.134  42.630  61.114  1.00  0.00     0.063 C 
ATOM      2  C   UNL     1      38.195  41.428  61.994  1.00  0.00     0.038 C 
ATOM      3  O   UNL     1      37.318  40.530  61.900  1.00  0.00    -0.550 OA
ATOM      4  O   UNL     1      39.250  41.269  62.884  1.00  0.00    -0.550 OA
ENDROOT
TORSDOF 0
ENDMDL
MODEL 2
REMARK VINA RESULT:    -2.323      0.090      1.621
REMARK INTER + INTRA:          -2.323
REMARK INTER:                  -2.323
REMARK INTRA:                   0.000
REMARK UNBOUND:                 0.000
REMARK SMILES CC(=O)[O-]
REMARK SMILES IDX 1 1 2 2 3 3 4 4
REMARK H PARENT
REMARK Flexibility Score: inf
ROOT
ATOM      1  C   UNL     1      38.153  42.711  61.188  1.00  0.00     0.063 C 
ATOM      2  C   UNL     1      38.249  41.470  62.008  1.00  0.00     0.038 C 
ATOM      3  O   UNL     1      39.179  41.335  62.845  1.00  0.00    -0.550 OA
ATOM      4  O   UNL     1      37.281  40.480  61.889  1.00  0.00    -0.550 OA
ENDROOT
TORSDOF 0
ENDMDL
MODEL 3
REMARK VINA RESULT:    -2.242     18.419     18.758
REMARK INTER + INTRA:          -2.242
REMARK INTER:                  -2.242
REMARK INTRA:                   0.000
REMARK UNBOUND:                 0.000
REMARK SMILES CC(=O)[O-]
REMARK SMILES IDX 1 1 2 2 3 3 4 4
REMARK H PARENT
REMARK Flexibility Score: inf
ROOT
ATOM      1  C   UNL     1      24.560  38.721  75.231  1.00  0.00     0.063 C 
ATOM      2  C   UNL     1      25.895  38.146  75.561  1.00  0.00     0.038 C 
ATOM      3  O   UNL     1      26.863  38.906  75.825  1.00  0.00    -0.550 OA
ATOM      4  O   UNL     1      26.062  36.769  75.632  1.00  0.00    -0.550 OA
ENDROOT
TORSDOF 0
ENDMDL
MODEL 4
REMARK VINA RESULT:    -2.242     21.283     21.754
REMARK INTER + INTRA:          -2.242
REMARK INTER:                  -2.242
REMARK INTRA:                   0.000
REMARK UNBOUND:                 0.000
REMARK SMILES CC(=O)[O-]
REMARK SMILES IDX 1 1 2 2 3 3 4 4
REMARK H PARENT
REMARK Flexibility Score: inf
ROOT
ATOM      1  C   UNL     1      23.788  29.849  73.667  1.00  0.00     0.063 C 
ATOM      2  C   UNL     1      22.924  30.765  72.871  1.00  0.00     0.038 C 
ATOM      3  O   UNL     1      23.170  31.999  72.841  1.00  0.00    -0.550 OA
ATOM      4  O   UNL     1      21.876  30.254  72.116  1.00  0.00    -0.550 OA
ENDROOT
TORSDOF 0
ENDMDL
MODEL 5
REMARK VINA RESULT:    -2.148     21.040     21.262
REMARK INTER + INTRA:          -2.148
REMARK INTER:                  -2.148
REMARK INTRA:                   0.000
REMARK UNBOUND:                 0.000
REMARK SMILES CC(=O)[O-]
REMARK SMILES IDX 1 1 2 2 3 3 4 4
REMARK H PARENT
REMARK Flexibility Score: inf
ROOT
ATOM      1  C   UNL     1      26.027  24.058  61.637  1.00  0.00     0.063 C 
ATOM      2  C   UNL     1      24.911  25.018  61.866  1.00  0.00     0.038 C 
ATOM      3  O   UNL     1      24.556  25.805  60.950  1.00  0.00    -0.550 OA
ATOM      4  O   UNL     1      24.222  25.010  63.072  1.00  0.00    -0.550 OA
ENDROOT
TORSDOF 0
ENDMDL
MODEL 6
REMARK VINA RESULT:    -2.129     20.969     21.186
REMARK INTER + INTRA:          -2.129
REMARK INTER:                  -2.129
REMARK INTRA:                   0.000
REMARK UNBOUND:                 0.000
REMARK SMILES CC(=O)[O-]
REMARK SMILES IDX 1 1 2 2 3 3 4 4
REMARK H PARENT
REMARK Flexibility Score: inf
ROOT
ATOM      1  C   UNL     1      24.124  24.764  62.981  1.00  0.00     0.063 C 
ATOM      2  C   UNL     1      24.980  25.030  61.790  1.00  0.00     0.038 C 
ATOM      3  O   UNL     1      24.571  25.789  60.874  1.00  0.00    -0.550 OA
ATOM      4  O   UNL     1      26.255  24.483  61.713  1.00  0.00    -0.550 OA
ENDROOT
TORSDOF 0
ENDMDL
MODEL 7
REMARK VINA RESULT:    -2.095     18.190     18.652
REMARK INTER + INTRA:          -2.095
REMARK INTER:                  -2.095
REMARK INTRA:                   0.000
REMARK UNBOUND:                 0.000
REMARK SMILES CC(=O)[O-]
REMARK SMILES IDX 1 1 2 2 3 3 4 4
REMARK H PARENT
REMARK Flexibility Score: inf
ROOT
ATOM      1  C   UNL     1      34.580  26.519  71.030  1.00  0.00     0.063 C 
ATOM      2  C   UNL     1      33.222  25.924  70.880  1.00  0.00     0.038 C 
ATOM      3  O   UNL     1      32.198  26.623  71.100  1.00  0.00    -0.550 OA
ATOM      4  O   UNL     1      33.079  24.612  70.445  1.00  0.00    -0.550 OA
ENDROOT
TORSDOF 0
ENDMDL
MODEL 8
REMARK VINA RESULT:    -2.090     15.363     15.953
REMARK INTER + INTRA:          -2.090
REMARK INTER:                  -2.090
REMARK INTRA:                   0.000
REMARK UNBOUND:                 0.000
REMARK SMILES CC(=O)[O-]
REMARK SMILES IDX 1 1 2 2 3 3 4 4
REMARK H PARENT
REMARK Flexibility Score: inf
ROOT
ATOM      1  C   UNL     1      30.014  27.251  62.752  1.00  0.00     0.063 C 
ATOM      2  C   UNL     1      31.482  27.115  62.972  1.00  0.00     0.038 C 
ATOM      3  O   UNL     1      31.933  26.158  63.653  1.00  0.00    -0.550 OA
ATOM      4  O   UNL     1      32.361  28.014  62.381  1.00  0.00    -0.550 OA
ENDROOT
TORSDOF 0
ENDMDL
MODEL 9
REMARK VINA RESULT:    -2.011     18.108     18.376
REMARK INTER + INTRA:          -2.011
REMARK INTER:                  -2.011
REMARK INTRA:                   0.000
REMARK UNBOUND:                 0.000
REMARK SMILES CC(=O)[O-]
REMARK SMILES IDX 1 1 2 2 3 3 4 4
REMARK H PARENT
REMARK Flexibility Score: inf
ROOT
ATOM      1  C   UNL     1      34.489  26.602  71.014  1.00  0.00     0.063 C 
ATOM      2  C   UNL     1      35.010  25.408  70.289  1.00  0.00     0.038 C 
ATOM      3  O   UNL     1      34.466  25.032  69.218  1.00  0.00    -0.550 OA
ATOM      4  O   UNL     1      36.130  24.738  70.765  1.00  0.00    -0.550 OA
ENDROOT
TORSDOF 0
ENDMDL
