MODEL 1
REMARK VINA RESULT:    -8.311      0.000      0.000
REMARK INTER + INTRA:          -9.573
REMARK INTER:                  -9.039
REMARK INTRA:                  -0.534
REMARK UNBOUND:                -0.534
REMARK SMILES C=C(C)[C@H]1CC[C@]2(C)CC[C@]3(C)[C@H](CC[C@@H]4[C@@]5(C)CC[C@H](O)C(C)(C)[C@H]5CC[C@]43C)[C@H]12
REMARK SMILES IDX 4 1 5 2 6 3 7 4 31 5 13 6 14 7 15 8 16 9 17 10 19 11 20 12
REMARK SMILES IDX 21 13 23 14 26 15 27 16 28 17 29 18 11 19 10 20 9 21 12 22
REMARK SMILES IDX 30 23 24 24 25 25 18 26 8 27 2 28 3 29 1 30 22 31
REMARK H PARENT 22 32
REMARK Flexibility Score: inf
ROOT
ATOM      1  C   UNL     1      63.826   0.705   4.017  1.00  0.00     0.018 C 
ATOM      2  C   UNL     1      62.437   0.266   4.508  1.00  0.00     0.009 C 
ATOM      3  C   UNL     1      61.539   1.496   4.445  1.00  0.00     0.008 C 
ATOM      4  C   UNL     1      62.130   2.404   3.355  1.00  0.00    -0.029 C 
ATOM      5  C   UNL     1      63.655   2.143   3.457  1.00  0.00     0.006 C 
ATOM      6  C   UNL     1      64.460   2.523   2.172  1.00  0.00    -0.000 C 
ATOM      7  C   UNL     1      65.961   2.197   2.311  1.00  0.00     0.005 C 
ATOM      8  C   UNL     1      66.785   2.778   1.158  1.00  0.00     0.005 C 
ATOM      9  C   UNL     1      66.236   2.358  -0.242  1.00  0.00     0.002 C 
ATOM     10  C   UNL     1      67.228   2.692  -1.451  1.00  0.00    -0.026 C 
ATOM     11  C   UNL     1      68.441   1.683  -1.408  1.00  0.00     0.010 C 
ATOM     12  C   UNL     1      68.237   0.414  -2.233  1.00  0.00     0.033 C 
ATOM     13  C   UNL     1      68.004   0.682  -3.738  1.00  0.00     0.120 C 
ATOM     14  C   UNL     1      67.400   2.095  -4.059  1.00  0.00    -0.006 C 
ATOM     15  C   UNL     1      66.481   2.597  -2.859  1.00  0.00     0.003 C 
ATOM     16  C   UNL     1      65.189   1.730  -2.744  1.00  0.00     0.005 C 
ATOM     17  C   UNL     1      64.154   2.361  -1.821  1.00  0.00     0.008 C 
ATOM     18  C   UNL     1      64.705   2.777  -0.407  1.00  0.00    -0.024 C 
ATOM     19  C   UNL     1      63.857   2.071   0.789  1.00  0.00    -0.024 C 
ATOM     20  C   UNL     1      62.351   2.506   0.774  1.00  0.00     0.008 C 
ATOM     21  C   UNL     1      61.535   1.999   1.975  1.00  0.00     0.007 C 
ATOM     22  C   UNL     1      63.909   0.503   0.640  1.00  0.00     0.012 C 
ATOM     23  C   UNL     1      64.571   4.341  -0.377  1.00  0.00     0.012 C 
ATOM     24  C   UNL     1      68.519   3.134  -4.369  1.00  0.00     0.014 C 
ATOM     25  C   UNL     1      66.587   1.993  -5.386  1.00  0.00     0.014 C 
ATOM     26  C   UNL     1      67.843   4.116  -1.250  1.00  0.00     0.012 C 
ATOM     27  C   UNL     1      61.791   3.883   3.660  1.00  0.00     0.011 C 
ENDROOT
BRANCH   1  28
ATOM     28  C   UNL     1      64.868   0.624   5.134  1.00  0.00    -0.077 C 
ATOM     29  C   UNL     1      64.824   1.560   6.316  1.00  0.00     0.039 C 
ATOM     30  C   UNL     1      65.838  -0.303   5.089  1.00  0.00     0.008 C 
ENDBRANCH   1  28
BRANCH  13  31
ATOM     31  O   UNL     1      69.200   0.484  -4.452  1.00  0.00    -0.393 OA
ATOM     32  H   UNL     1      69.862   1.138  -4.107  1.00  0.00     0.210 HD
ENDBRANCH  13  31
TORSDOF 2
ENDMDL
MODEL 2
REMARK VINA RESULT:    -7.864      3.235      5.259
REMARK INTER + INTRA:          -9.088
REMARK INTER:                  -8.579
REMARK INTRA:                  -0.509
REMARK UNBOUND:                -0.534
REMARK SMILES C=C(C)[C@H]1CC[C@]2(C)CC[C@]3(C)[C@H](CC[C@@H]4[C@@]5(C)CC[C@H](O)C(C)(C)[C@H]5CC[C@]43C)[C@H]12
REMARK SMILES IDX 4 1 5 2 6 3 7 4 31 5 13 6 14 7 15 8 16 9 17 10 19 11 20 12
REMARK SMILES IDX 21 13 23 14 26 15 27 16 28 17 29 18 11 19 10 20 9 21 12 22
REMARK SMILES IDX 30 23 24 24 25 25 18 26 8 27 2 28 3 29 1 30 22 31
REMARK H PARENT 22 32
REMARK Flexibility Score: inf
ROOT
ATOM      1  C   UNL     1      66.408   5.630   0.675  1.00  0.00     0.018 C 
ATOM      2  C   UNL     1      65.156   6.245   1.321  1.00  0.00     0.009 C 
ATOM      3  C   UNL     1      64.117   6.393   0.216  1.00  0.00     0.008 C 
ATOM      4  C   UNL     1      64.450   5.319  -0.833  1.00  0.00    -0.029 C 
ATOM      5  C   UNL     1      65.995   5.216  -0.763  1.00  0.00     0.006 C 
ATOM      6  C   UNL     1      66.577   3.880  -1.330  1.00  0.00    -0.000 C 
ATOM      7  C   UNL     1      68.112   3.811  -1.192  1.00  0.00     0.005 C 
ATOM      8  C   UNL     1      68.704   2.621  -1.951  1.00  0.00     0.005 C 
ATOM      9  C   UNL     1      68.034   1.266  -1.559  1.00  0.00     0.002 C 
ATOM     10  C   UNL     1      68.814  -0.021  -2.099  1.00  0.00    -0.026 C 
ATOM     11  C   UNL     1      70.134  -0.208  -1.254  1.00  0.00     0.010 C 
ATOM     12  C   UNL     1      69.979  -1.105  -0.029  1.00  0.00     0.033 C 
ATOM     13  C   UNL     1      69.523  -2.544  -0.366  1.00  0.00     0.120 C 
ATOM     14  C   UNL     1      68.718  -2.671  -1.708  1.00  0.00    -0.006 C 
ATOM     15  C   UNL     1      67.908  -1.332  -2.004  1.00  0.00     0.003 C 
ATOM     16  C   UNL     1      66.755  -1.136  -0.973  1.00  0.00     0.005 C 
ATOM     17  C   UNL     1      65.780  -0.047  -1.401  1.00  0.00     0.008 C 
ATOM     18  C   UNL     1      66.455   1.321  -1.788  1.00  0.00    -0.024 C 
ATOM     19  C   UNL     1      65.858   2.546  -0.899  1.00  0.00    -0.024 C 
ATOM     20  C   UNL     1      64.323   2.749  -1.137  1.00  0.00     0.008 C 
ATOM     21  C   UNL     1      63.734   3.992  -0.449  1.00  0.00     0.007 C 
ATOM     22  C   UNL     1      66.078   2.262   0.635  1.00  0.00     0.012 C 
ATOM     23  C   UNL     1      66.141   1.497  -3.316  1.00  0.00     0.012 C 
ATOM     24  C   UNL     1      69.656  -3.025  -2.901  1.00  0.00     0.014 C 
ATOM     25  C   UNL     1      67.759  -3.896  -1.592  1.00  0.00     0.014 C 
ATOM     26  C   UNL     1      69.276   0.224  -3.573  1.00  0.00     0.012 C 
ATOM     27  C   UNL     1      63.979   5.785  -2.231  1.00  0.00     0.011 C 
ENDROOT
BRANCH   1  28
ATOM     28  C   UNL     1      67.587   6.604   0.697  1.00  0.00    -0.077 C 
ATOM     29  C   UNL     1      68.490   6.713   1.901  1.00  0.00     0.039 C 
ATOM     30  C   UNL     1      67.850   7.373  -0.371  1.00  0.00     0.008 C 
ENDBRANCH   1  28
BRANCH  13  31
ATOM     31  O   UNL     1      70.632  -3.410  -0.372  1.00  0.00    -0.393 OA
ATOM     32  H   UNL     1      70.301  -4.311  -0.626  1.00  0.00     0.210 HD
ENDBRANCH  13  31
TORSDOF 2
ENDMDL
MODEL 3
REMARK VINA RESULT:    -7.701      3.503      6.107
REMARK INTER + INTRA:          -8.910
REMARK INTER:                  -8.411
REMARK INTRA:                  -0.499
REMARK UNBOUND:                -0.534
REMARK SMILES C=C(C)[C@H]1CC[C@]2(C)CC[C@]3(C)[C@H](CC[C@@H]4[C@@]5(C)CC[C@H](O)C(C)(C)[C@H]5CC[C@]43C)[C@H]12
REMARK SMILES IDX 4 1 5 2 6 3 7 4 31 5 13 6 14 7 15 8 16 9 17 10 19 11 20 12
REMARK SMILES IDX 21 13 23 14 26 15 27 16 28 17 29 18 11 19 10 20 9 21 12 22
REMARK SMILES IDX 30 23 24 24 25 25 18 26 8 27 2 28 3 29 1 30 22 31
REMARK H PARENT 22 32
REMARK Flexibility Score: inf
ROOT
ATOM      1  C   UNL     1      63.990   4.533   1.415  1.00  0.00     0.018 C 
ATOM      2  C   UNL     1      63.599   5.806   0.648  1.00  0.00     0.009 C 
ATOM      3  C   UNL     1      64.639   5.998  -0.450  1.00  0.00     0.008 C 
ATOM      4  C   UNL     1      65.189   4.598  -0.767  1.00  0.00    -0.029 C 
ATOM      5  C   UNL     1      65.135   3.871   0.601  1.00  0.00     0.006 C 
ATOM      6  C   UNL     1      65.148   2.311   0.502  1.00  0.00    -0.000 C 
ATOM      7  C   UNL     1      65.043   1.642   1.888  1.00  0.00     0.005 C 
ATOM      8  C   UNL     1      65.290   0.132   1.817  1.00  0.00     0.005 C 
ATOM      9  C   UNL     1      64.375  -0.577   0.769  1.00  0.00     0.002 C 
ATOM     10  C   UNL     1      64.389  -2.172   0.873  1.00  0.00    -0.026 C 
ATOM     11  C   UNL     1      63.582  -2.606   2.158  1.00  0.00     0.010 C 
ATOM     12  C   UNL     1      62.098  -2.868   1.914  1.00  0.00     0.033 C 
ATOM     13  C   UNL     1      61.826  -3.989   0.885  1.00  0.00     0.120 C 
ATOM     14  C   UNL     1      62.982  -4.210  -0.154  1.00  0.00    -0.006 C 
ATOM     15  C   UNL     1      63.756  -2.846  -0.429  1.00  0.00     0.003 C 
ATOM     16  C   UNL     1      62.849  -1.833  -1.192  1.00  0.00     0.005 C 
ATOM     17  C   UNL     1      63.640  -0.651  -1.738  1.00  0.00     0.008 C 
ATOM     18  C   UNL     1      64.556   0.069  -0.679  1.00  0.00    -0.024 C 
ATOM     19  C   UNL     1      64.203   1.654  -0.573  1.00  0.00    -0.024 C 
ATOM     20  C   UNL     1      64.452   2.401  -1.928  1.00  0.00     0.008 C 
ATOM     21  C   UNL     1      64.290   3.929  -1.847  1.00  0.00     0.007 C 
ATOM     22  C   UNL     1      62.689   1.849  -0.183  1.00  0.00     0.012 C 
ATOM     23  C   UNL     1      66.019  -0.174  -1.196  1.00  0.00     0.012 C 
ATOM     24  C   UNL     1      63.968  -5.318   0.322  1.00  0.00     0.014 C 
ATOM     25  C   UNL     1      62.362  -4.781  -1.466  1.00  0.00     0.014 C 
ATOM     26  C   UNL     1      65.854  -2.673   1.094  1.00  0.00     0.012 C 
ATOM     27  C   UNL     1      66.642   4.709  -1.288  1.00  0.00     0.011 C 
ENDROOT
BRANCH   1  28
ATOM     28  C   UNL     1      64.392   4.847   2.857  1.00  0.00    -0.077 C 
ATOM     29  C   UNL     1      63.633   4.268   4.025  1.00  0.00     0.039 C 
ATOM     30  C   UNL     1      65.446   5.638   3.109  1.00  0.00     0.008 C 
ENDBRANCH   1  28
BRANCH  13  31
ATOM     31  O   UNL     1      61.525  -5.191   1.552  1.00  0.00    -0.393 OA
ATOM     32  H   UNL     1      61.888  -5.116   2.474  1.00  0.00     0.210 HD
ENDBRANCH  13  31
TORSDOF 2
ENDMDL
MODEL 4
REMARK VINA RESULT:    -7.629      3.207      7.888
REMARK INTER + INTRA:          -8.832
REMARK INTER:                  -8.295
REMARK INTRA:                  -0.537
REMARK UNBOUND:                -0.534
REMARK SMILES C=C(C)[C@H]1CC[C@]2(C)CC[C@]3(C)[C@H](CC[C@@H]4[C@@]5(C)CC[C@H](O)C(C)(C)[C@H]5CC[C@]43C)[C@H]12
REMARK SMILES IDX 4 1 5 2 6 3 7 4 31 5 13 6 14 7 15 8 16 9 17 10 19 11 20 12
REMARK SMILES IDX 21 13 23 14 26 15 27 16 28 17 29 18 11 19 10 20 9 21 12 22
REMARK SMILES IDX 30 23 24 24 25 25 18 26 8 27 2 28 3 29 1 30 22 31
REMARK H PARENT 22 32
REMARK Flexibility Score: inf
ROOT
ATOM      1  C   UNL     1      65.792   1.345  -1.232  1.00  0.00     0.018 C 
ATOM      2  C   UNL     1      66.855   1.805  -2.241  1.00  0.00     0.009 C 
ATOM      3  C   UNL     1      66.328   3.083  -2.885  1.00  0.00     0.008 C 
ATOM      4  C   UNL     1      65.377   3.719  -1.858  1.00  0.00    -0.029 C 
ATOM      5  C   UNL     1      64.754   2.495  -1.139  1.00  0.00     0.006 C 
ATOM      6  C   UNL     1      64.148   2.816   0.266  1.00  0.00    -0.000 C 
ATOM      7  C   UNL     1      63.587   1.555   0.956  1.00  0.00     0.005 C 
ATOM      8  C   UNL     1      62.788   1.898   2.217  1.00  0.00     0.005 C 
ATOM      9  C   UNL     1      63.597   2.784   3.217  1.00  0.00     0.002 C 
ATOM     10  C   UNL     1      62.919   2.914   4.659  1.00  0.00    -0.026 C 
ATOM     11  C   UNL     1      63.094   1.547   5.428  1.00  0.00     0.010 C 
ATOM     12  C   UNL     1      64.354   1.460   6.287  1.00  0.00     0.033 C 
ATOM     13  C   UNL     1      64.431   2.542   7.388  1.00  0.00     0.120 C 
ATOM     14  C   UNL     1      63.622   3.850   7.071  1.00  0.00    -0.006 C 
ATOM     15  C   UNL     1      63.567   4.107   5.500  1.00  0.00     0.003 C 
ATOM     16  C   UNL     1      64.976   4.476   4.944  1.00  0.00     0.005 C 
ATOM     17  C   UNL     1      64.908   5.023   3.524  1.00  0.00     0.008 C 
ATOM     18  C   UNL     1      64.100   4.126   2.514  1.00  0.00    -0.024 C 
ATOM     19  C   UNL     1      65.011   3.714   1.231  1.00  0.00    -0.024 C 
ATOM     20  C   UNL     1      65.469   4.968   0.411  1.00  0.00     0.008 C 
ATOM     21  C   UNL     1      66.197   4.634  -0.902  1.00  0.00     0.007 C 
ATOM     22  C   UNL     1      66.303   2.946   1.705  1.00  0.00     0.012 C 
ATOM     23  C   UNL     1      62.869   5.009   2.102  1.00  0.00     0.012 C 
ATOM     24  C   UNL     1      62.185   3.788   7.671  1.00  0.00     0.014 C 
ATOM     25  C   UNL     1      64.301   5.042   7.813  1.00  0.00     0.014 C 
ATOM     26  C   UNL     1      61.378   3.126   4.499  1.00  0.00     0.012 C 
ATOM     27  C   UNL     1      64.297   4.554  -2.587  1.00  0.00     0.011 C 
ENDROOT
BRANCH   1  28
ATOM     28  C   UNL     1      65.165   0.012  -1.646  1.00  0.00    -0.077 C 
ATOM     29  C   UNL     1      63.979  -0.040  -2.577  1.00  0.00     0.039 C 
ATOM     30  C   UNL     1      65.675  -1.145  -1.196  1.00  0.00     0.008 C 
ENDBRANCH   1  28
BRANCH  13  31
ATOM     31  O   UNL     1      64.028   2.000   8.623  1.00  0.00    -0.393 OA
ATOM     32  H   UNL     1      64.823   1.999   9.218  1.00  0.00     0.210 HD
ENDBRANCH  13  31
TORSDOF 2
ENDMDL
MODEL 5
REMARK VINA RESULT:    -7.561      3.476      7.823
REMARK INTER + INTRA:          -8.758
REMARK INTER:                  -8.226
REMARK INTRA:                  -0.532
REMARK UNBOUND:                -0.534
REMARK SMILES C=C(C)[C@H]1CC[C@]2(C)CC[C@]3(C)[C@H](CC[C@@H]4[C@@]5(C)CC[C@H](O)C(C)(C)[C@H]5CC[C@]43C)[C@H]12
REMARK SMILES IDX 4 1 5 2 6 3 7 4 31 5 13 6 14 7 15 8 16 9 17 10 19 11 20 12
REMARK SMILES IDX 21 13 23 14 26 15 27 16 28 17 29 18 11 19 10 20 9 21 12 22
REMARK SMILES IDX 30 23 24 24 25 25 18 26 8 27 2 28 3 29 1 30 22 31
REMARK H PARENT 22 32
REMARK Flexibility Score: inf
ROOT
ATOM      1  C   UNL     1      64.815  -0.915  -0.873  1.00  0.00     0.018 C 
ATOM      2  C   UNL     1      63.982  -1.280  -2.113  1.00  0.00     0.009 C 
ATOM      3  C   UNL     1      63.177  -2.524  -1.752  1.00  0.00     0.008 C 
ATOM      4  C   UNL     1      62.999  -2.491  -0.225  1.00  0.00    -0.029 C 
ATOM      5  C   UNL     1      64.308  -1.827   0.275  1.00  0.00     0.006 C 
ATOM      6  C   UNL     1      64.207  -1.206   1.706  1.00  0.00    -0.000 C 
ATOM      7  C   UNL     1      65.520  -0.518   2.133  1.00  0.00     0.005 C 
ATOM      8  C   UNL     1      65.504  -0.117   3.611  1.00  0.00     0.005 C 
ATOM      9  C   UNL     1      64.258   0.747   3.985  1.00  0.00     0.002 C 
ATOM     10  C   UNL     1      64.355   1.429   5.428  1.00  0.00    -0.026 C 
ATOM     11  C   UNL     1      65.398   2.611   5.363  1.00  0.00     0.010 C 
ATOM     12  C   UNL     1      64.792   3.971   5.020  1.00  0.00     0.033 C 
ATOM     13  C   UNL     1      63.722   4.447   6.029  1.00  0.00     0.120 C 
ATOM     14  C   UNL     1      63.001   3.288   6.805  1.00  0.00    -0.006 C 
ATOM     15  C   UNL     1      62.933   1.973   5.910  1.00  0.00     0.003 C 
ATOM     16  C   UNL     1      61.975   2.171   4.696  1.00  0.00     0.005 C 
ATOM     17  C   UNL     1      61.648   0.855   4.001  1.00  0.00     0.008 C 
ATOM     18  C   UNL     1      62.904  -0.012   3.617  1.00  0.00    -0.024 C 
ATOM     19  C   UNL     1      62.927  -0.344   2.024  1.00  0.00    -0.024 C 
ATOM     20  C   UNL     1      61.680  -1.184   1.582  1.00  0.00     0.008 C 
ATOM     21  C   UNL     1      61.727  -1.665   0.122  1.00  0.00     0.007 C 
ATOM     22  C   UNL     1      62.931   0.993   1.190  1.00  0.00     0.012 C 
ATOM     23  C   UNL     1      62.765  -1.312   4.485  1.00  0.00     0.012 C 
ATOM     24  C   UNL     1      63.701   2.995   8.166  1.00  0.00     0.014 C 
ATOM     25  C   UNL     1      61.573   3.775   7.200  1.00  0.00     0.014 C 
ATOM     26  C   UNL     1      64.929   0.402   6.458  1.00  0.00     0.012 C 
ATOM     27  C   UNL     1      62.855  -3.933   0.319  1.00  0.00     0.011 C 
ENDROOT
BRANCH   1  28
ATOM     28  C   UNL     1      66.314  -1.072  -1.139  1.00  0.00    -0.077 C 
ATOM     29  C   UNL     1      67.181   0.118  -1.466  1.00  0.00     0.039 C 
ATOM     30  C   UNL     1      66.890  -2.282  -1.067  1.00  0.00     0.008 C 
ENDBRANCH   1  28
BRANCH  13  31
ATOM     31  O   UNL     1      64.288   5.367   6.931  1.00  0.00    -0.393 OA
ATOM     32  H   UNL     1      64.323   6.247   6.471  1.00  0.00     0.210 HD
ENDBRANCH  13  31
TORSDOF 2
ENDMDL
MODEL 6
REMARK VINA RESULT:    -7.509      3.199      5.266
REMARK INTER + INTRA:          -8.701
REMARK INTER:                  -8.173
REMARK INTRA:                  -0.528
REMARK UNBOUND:                -0.534
REMARK SMILES C=C(C)[C@H]1CC[C@]2(C)CC[C@]3(C)[C@H](CC[C@@H]4[C@@]5(C)CC[C@H](O)C(C)(C)[C@H]5CC[C@]43C)[C@H]12
REMARK SMILES IDX 4 1 5 2 6 3 7 4 31 5 13 6 14 7 15 8 16 9 17 10 19 11 20 12
REMARK SMILES IDX 21 13 23 14 26 15 27 16 28 17 29 18 11 19 10 20 9 21 12 22
REMARK SMILES IDX 30 23 24 24 25 25 18 26 8 27 2 28 3 29 1 30 22 31
REMARK H PARENT 22 32
REMARK Flexibility Score: inf
ROOT
ATOM      1  C   UNL     1      65.195   5.611   1.700  1.00  0.00     0.018 C 
ATOM      2  C   UNL     1      64.394   6.913   1.539  1.00  0.00     0.009 C 
ATOM      3  C   UNL     1      64.794   7.514   0.196  1.00  0.00     0.008 C 
ATOM      4  C   UNL     1      65.248   6.336  -0.682  1.00  0.00    -0.029 C 
ATOM      5  C   UNL     1      65.887   5.355   0.334  1.00  0.00     0.006 C 
ATOM      6  C   UNL     1      65.979   3.878  -0.169  1.00  0.00    -0.000 C 
ATOM      7  C   UNL     1      66.577   2.939   0.899  1.00  0.00     0.005 C 
ATOM      8  C   UNL     1      66.885   1.549   0.334  1.00  0.00     0.005 C 
ATOM      9  C   UNL     1      65.651   0.901  -0.371  1.00  0.00     0.002 C 
ATOM     10  C   UNL     1      65.840  -0.650  -0.708  1.00  0.00    -0.026 C 
ATOM     11  C   UNL     1      65.752  -1.477   0.634  1.00  0.00     0.010 C 
ATOM     12  C   UNL     1      64.348  -1.964   0.986  1.00  0.00     0.033 C 
ATOM     13  C   UNL     1      63.725  -2.889  -0.085  1.00  0.00     0.120 C 
ATOM     14  C   UNL     1      64.288  -2.674  -1.535  1.00  0.00    -0.006 C 
ATOM     15  C   UNL     1      64.736  -1.160  -1.743  1.00  0.00     0.003 C 
ATOM     16  C   UNL     1      63.502  -0.207  -1.750  1.00  0.00     0.005 C 
ATOM     17  C   UNL     1      63.855   1.188  -2.247  1.00  0.00     0.008 C 
ATOM     18  C   UNL     1      65.094   1.845  -1.531  1.00  0.00    -0.024 C 
ATOM     19  C   UNL     1      64.702   3.280  -0.871  1.00  0.00    -0.024 C 
ATOM     20  C   UNL     1      64.240   4.315  -1.953  1.00  0.00     0.008 C 
ATOM     21  C   UNL     1      64.011   5.736  -1.411  1.00  0.00     0.007 C 
ATOM     22  C   UNL     1      63.527   3.100   0.162  1.00  0.00     0.012 C 
ATOM     23  C   UNL     1      66.170   1.994  -2.665  1.00  0.00     0.012 C 
ATOM     24  C   UNL     1      65.469  -3.645  -1.835  1.00  0.00     0.014 C 
ATOM     25  C   UNL     1      63.183  -3.079  -2.558  1.00  0.00     0.014 C 
ATOM     26  C   UNL     1      67.278  -0.895  -1.272  1.00  0.00     0.012 C 
ATOM     27  C   UNL     1      66.285   6.824  -1.722  1.00  0.00     0.011 C 
ENDROOT
BRANCH   1  28
ATOM     28  C   UNL     1      66.187   5.703   2.860  1.00  0.00    -0.077 C 
ATOM     29  C   UNL     1      67.640   6.034   2.625  1.00  0.00     0.039 C 
ATOM     30  C   UNL     1      65.773   5.504   4.122  1.00  0.00     0.008 C 
ENDBRANCH   1  28
BRANCH  13  31
ATOM     31  O   UNL     1      63.863  -4.234   0.303  1.00  0.00    -0.393 OA
ATOM     32  H   UNL     1      64.807  -4.494   0.137  1.00  0.00     0.210 HD
ENDBRANCH  13  31
TORSDOF 2
ENDMDL
MODEL 7
REMARK VINA RESULT:    -7.270      1.601      3.540
REMARK INTER + INTRA:          -8.441
REMARK INTER:                  -7.908
REMARK INTRA:                  -0.533
REMARK UNBOUND:                -0.534
REMARK SMILES C=C(C)[C@H]1CC[C@]2(C)CC[C@]3(C)[C@H](CC[C@@H]4[C@@]5(C)CC[C@H](O)C(C)(C)[C@H]5CC[C@]43C)[C@H]12
REMARK SMILES IDX 4 1 5 2 6 3 7 4 31 5 13 6 14 7 15 8 16 9 17 10 19 11 20 12
REMARK SMILES IDX 21 13 23 14 26 15 27 16 28 17 29 18 11 19 10 20 9 21 12 22
REMARK SMILES IDX 30 23 24 24 25 25 18 26 8 27 2 28 3 29 1 30 22 31
REMARK H PARENT 22 32
REMARK Flexibility Score: inf
ROOT
ATOM      1  C   UNL     1      64.119   1.560   4.513  1.00  0.00     0.018 C 
ATOM      2  C   UNL     1      64.561   0.980   5.866  1.00  0.00     0.009 C 
ATOM      3  C   UNL     1      64.208  -0.503   5.847  1.00  0.00     0.008 C 
ATOM      4  C   UNL     1      64.209  -0.924   4.368  1.00  0.00    -0.029 C 
ATOM      5  C   UNL     1      63.717   0.348   3.632  1.00  0.00     0.006 C 
ATOM      6  C   UNL     1      64.090   0.397   2.114  1.00  0.00    -0.000 C 
ATOM      7  C   UNL     1      63.620   1.704   1.444  1.00  0.00     0.005 C 
ATOM      8  C   UNL     1      63.773   1.656  -0.079  1.00  0.00     0.005 C 
ATOM      9  C   UNL     1      65.220   1.274  -0.525  1.00  0.00     0.002 C 
ATOM     10  C   UNL     1      65.497   1.501  -2.083  1.00  0.00    -0.026 C 
ATOM     11  C   UNL     1      65.613   3.051  -2.358  1.00  0.00     0.010 C 
ATOM     12  C   UNL     1      67.033   3.606  -2.264  1.00  0.00     0.033 C 
ATOM     13  C   UNL     1      68.021   2.956  -3.259  1.00  0.00     0.120 C 
ATOM     14  C   UNL     1      67.630   1.503  -3.708  1.00  0.00    -0.006 C 
ATOM     15  C   UNL     1      66.830   0.757  -2.551  1.00  0.00     0.003 C 
ATOM     16  C   UNL     1      67.757   0.460  -1.333  1.00  0.00     0.005 C 
ATOM     17  C   UNL     1      67.119  -0.512  -0.348  1.00  0.00     0.008 C 
ATOM     18  C   UNL     1      65.664  -0.123   0.107  1.00  0.00    -0.024 C 
ATOM     19  C   UNL     1      65.565   0.002   1.727  1.00  0.00    -0.024 C 
ATOM     20  C   UNL     1      65.883  -1.358   2.439  1.00  0.00     0.008 C 
ATOM     21  C   UNL     1      65.650  -1.346   3.959  1.00  0.00     0.007 C 
ATOM     22  C   UNL     1      66.590   1.076   2.253  1.00  0.00     0.012 C 
ATOM     23  C   UNL     1      64.756  -1.276  -0.449  1.00  0.00     0.012 C 
ATOM     24  C   UNL     1      66.802   1.522  -5.028  1.00  0.00     0.014 C 
ATOM     25  C   UNL     1      68.934   0.734  -4.079  1.00  0.00     0.014 C 
ATOM     26  C   UNL     1      64.269   1.005  -2.914  1.00  0.00     0.012 C 
ATOM     27  C   UNL     1      63.235  -2.109   4.158  1.00  0.00     0.011 C 
ENDROOT
BRANCH   1  28
ATOM     28  C   UNL     1      62.986   2.574   4.681  1.00  0.00    -0.077 C 
ATOM     29  C   UNL     1      61.599   2.140   5.085  1.00  0.00     0.039 C 
ATOM     30  C   UNL     1      63.214   3.882   4.487  1.00  0.00     0.008 C 
ENDBRANCH   1  28
BRANCH  13  31
ATOM     31  O   UNL     1      68.192   3.790  -4.380  1.00  0.00    -0.393 OA
ATOM     32  H   UNL     1      68.982   4.364  -4.203  1.00  0.00     0.210 HD
ENDBRANCH  13  31
TORSDOF 2
ENDMDL
MODEL 8
REMARK VINA RESULT:    -7.253      3.992      6.821
REMARK INTER + INTRA:          -8.422
REMARK INTER:                  -7.958
REMARK INTRA:                  -0.464
REMARK UNBOUND:                -0.534
REMARK SMILES C=C(C)[C@H]1CC[C@]2(C)CC[C@]3(C)[C@H](CC[C@@H]4[C@@]5(C)CC[C@H](O)C(C)(C)[C@H]5CC[C@]43C)[C@H]12
REMARK SMILES IDX 4 1 5 2 6 3 7 4 31 5 13 6 14 7 15 8 16 9 17 10 19 11 20 12
REMARK SMILES IDX 21 13 23 14 26 15 27 16 28 17 29 18 11 19 10 20 9 21 12 22
REMARK SMILES IDX 30 23 24 24 25 25 18 26 8 27 2 28 3 29 1 30 22 31
REMARK H PARENT 22 32
REMARK Flexibility Score: inf
ROOT
ATOM      1  C   UNL     1      63.834   3.199  -0.547  1.00  0.00     0.018 C 
ATOM      2  C   UNL     1      63.854   4.149  -1.756  1.00  0.00     0.009 C 
ATOM      3  C   UNL     1      65.320   4.394  -2.099  1.00  0.00     0.008 C 
ATOM      4  C   UNL     1      66.088   3.158  -1.605  1.00  0.00    -0.029 C 
ATOM      5  C   UNL     1      65.297   2.722  -0.345  1.00  0.00     0.006 C 
ATOM      6  C   UNL     1      65.525   1.234   0.075  1.00  0.00    -0.000 C 
ATOM      7  C   UNL     1      64.677   0.842   1.303  1.00  0.00     0.005 C 
ATOM      8  C   UNL     1      65.069  -0.532   1.856  1.00  0.00     0.005 C 
ATOM      9  C   UNL     1      65.043  -1.648   0.764  1.00  0.00     0.002 C 
ATOM     10  C   UNL     1      65.153  -3.130   1.353  1.00  0.00    -0.026 C 
ATOM     11  C   UNL     1      63.785  -3.505   2.045  1.00  0.00     0.010 C 
ATOM     12  C   UNL     1      62.780  -4.196   1.126  1.00  0.00     0.033 C 
ATOM     13  C   UNL     1      63.295  -5.526   0.530  1.00  0.00     0.120 C 
ATOM     14  C   UNL     1      64.858  -5.628   0.426  1.00  0.00    -0.006 C 
ATOM     15  C   UNL     1      65.499  -4.187   0.208  1.00  0.00     0.003 C 
ATOM     16  C   UNL     1      65.135  -3.620  -1.198  1.00  0.00     0.005 C 
ATOM     17  C   UNL     1      65.971  -2.399  -1.560  1.00  0.00     0.008 C 
ATOM     18  C   UNL     1      65.991  -1.270  -0.463  1.00  0.00    -0.024 C 
ATOM     19  C   UNL     1      65.487   0.153  -1.071  1.00  0.00    -0.024 C 
ATOM     20  C   UNL     1      66.422   0.662  -2.220  1.00  0.00     0.008 C 
ATOM     21  C   UNL     1      66.091   2.077  -2.725  1.00  0.00     0.007 C 
ATOM     22  C   UNL     1      64.032   0.009  -1.658  1.00  0.00     0.012 C 
ATOM     23  C   UNL     1      67.485  -1.209   0.013  1.00  0.00     0.012 C 
ATOM     24  C   UNL     1      65.467  -6.319   1.683  1.00  0.00     0.014 C 
ATOM     25  C   UNL     1      65.212  -6.586  -0.753  1.00  0.00     0.014 C 
ATOM     26  C   UNL     1      66.233  -3.169   2.483  1.00  0.00     0.012 C 
ATOM     27  C   UNL     1      67.542   3.549  -1.249  1.00  0.00     0.011 C 
ENDROOT
BRANCH   1  28
ATOM     28  C   UNL     1      63.255   3.882   0.693  1.00  0.00    -0.077 C 
ATOM     29  C   UNL     1      62.075   3.299   1.430  1.00  0.00     0.039 C 
ATOM     30  C   UNL     1      63.804   5.014   1.160  1.00  0.00     0.008 C 
ENDBRANCH   1  28
BRANCH  13  31
ATOM     31  O   UNL     1      62.778  -6.612   1.261  1.00  0.00    -0.393 OA
ATOM     32  H   UNL     1      63.410  -7.370   1.150  1.00  0.00     0.210 HD
ENDBRANCH  13  31
TORSDOF 2
ENDMDL
MODEL 9
REMARK VINA RESULT:    -7.133      3.926      6.542
REMARK INTER + INTRA:          -8.292
REMARK INTER:                  -7.850
REMARK INTRA:                  -0.442
REMARK UNBOUND:                -0.534
REMARK SMILES C=C(C)[C@H]1CC[C@]2(C)CC[C@]3(C)[C@H](CC[C@@H]4[C@@]5(C)CC[C@H](O)C(C)(C)[C@H]5CC[C@]43C)[C@H]12
REMARK SMILES IDX 4 1 5 2 6 3 7 4 31 5 13 6 14 7 15 8 16 9 17 10 19 11 20 12
REMARK SMILES IDX 21 13 23 14 26 15 27 16 28 17 29 18 11 19 10 20 9 21 12 22
REMARK SMILES IDX 30 23 24 24 25 25 18 26 8 27 2 28 3 29 1 30 22 31
REMARK H PARENT 22 32
REMARK Flexibility Score: inf
ROOT
ATOM      1  C   UNL     1      64.436   2.998  -0.080  1.00  0.00     0.018 C 
ATOM      2  C   UNL     1      64.467   4.142   0.946  1.00  0.00     0.009 C 
ATOM      3  C   UNL     1      63.097   4.171   1.615  1.00  0.00     0.008 C 
ATOM      4  C   UNL     1      62.541   2.741   1.515  1.00  0.00    -0.029 C 
ATOM      5  C   UNL     1      63.113   2.227   0.169  1.00  0.00     0.006 C 
ATOM      6  C   UNL     1      63.143   0.669   0.038  1.00  0.00    -0.000 C 
ATOM      7  C   UNL     1      63.765   0.213  -1.298  1.00  0.00     0.005 C 
ATOM      8  C   UNL     1      63.585  -1.290  -1.532  1.00  0.00     0.005 C 
ATOM      9  C   UNL     1      64.105  -2.150  -0.336  1.00  0.00     0.002 C 
ATOM     10  C   UNL     1      64.208  -3.712  -0.661  1.00  0.00    -0.026 C 
ATOM     11  C   UNL     1      65.439  -3.952  -1.620  1.00  0.00     0.010 C 
ATOM     12  C   UNL     1      66.752  -4.252  -0.901  1.00  0.00     0.033 C 
ATOM     13  C   UNL     1      66.698  -5.515  -0.011  1.00  0.00     0.120 C 
ATOM     14  C   UNL     1      65.262  -5.884   0.505  1.00  0.00    -0.006 C 
ATOM     15  C   UNL     1      64.373  -4.573   0.673  1.00  0.00     0.003 C 
ATOM     16  C   UNL     1      64.899  -3.688   1.843  1.00  0.00     0.005 C 
ATOM     17  C   UNL     1      63.908  -2.598   2.230  1.00  0.00     0.008 C 
ATOM     18  C   UNL     1      63.391  -1.726   1.026  1.00  0.00    -0.024 C 
ATOM     19  C   UNL     1      63.678  -0.144   1.277  1.00  0.00    -0.024 C 
ATOM     20  C   UNL     1      62.929   0.394   2.543  1.00  0.00     0.008 C 
ATOM     21  C   UNL     1      63.032   1.916   2.740  1.00  0.00     0.007 C 
ATOM     22  C   UNL     1      65.220   0.102   1.485  1.00  0.00     0.012 C 
ATOM     23  C   UNL     1      61.854  -2.038   0.946  1.00  0.00     0.012 C 
ATOM     24  C   UNL     1      64.565  -6.906  -0.443  1.00  0.00     0.014 C 
ATOM     25  C   UNL     1      65.405  -6.646   1.858  1.00  0.00     0.014 C 
ATOM     26  C   UNL     1      62.944  -4.169  -1.459  1.00  0.00     0.012 C 
ATOM     27  C   UNL     1      60.994   2.778   1.492  1.00  0.00     0.011 C 
ENDROOT
BRANCH   1  28
ATOM     28  C   UNL     1      64.556   3.525  -1.511  1.00  0.00    -0.077 C 
ATOM     29  C   UNL     1      65.606   2.995  -2.456  1.00  0.00     0.039 C 
ATOM     30  C   UNL     1      63.709   4.464  -1.960  1.00  0.00     0.008 C 
ENDBRANCH   1  28
BRANCH  13  31
ATOM     31  O   UNL     1      67.275  -6.605  -0.687  1.00  0.00    -0.393 OA
ATOM     32  H   UNL     1      66.911  -7.433  -0.277  1.00  0.00     0.210 HD
ENDBRANCH  13  31
TORSDOF 2
ENDMDL
