MODEL 1
REMARK VINA RESULT:    -1.206      0.000      0.000
REMARK INTER + INTRA:          -0.725
REMARK INTER:                  -1.489
REMARK INTRA:                   0.764
REMARK UNBOUND:                 0.764
REMARK SMILES C=C1[C@H]2CC[C@@H]3[C@H]2C(C)(C)CCC[C@]13C
REMARK SMILES IDX 14 1 6 2 7 3 3 4 2 5 1 6 4 7 5 8 15 9 8 10 9 11 10 12 11 13
REMARK SMILES IDX 13 15 12 16
REMARK H PARENT
REMARK Flexibility Score: 80.00
ROOT
ATOM      1  C   UNL     1     137.399 135.669 122.463  1.00  0.00    -0.008 C 
ATOM      2  C   UNL     1     137.179 135.289 123.978  1.00  0.00     0.003 C 
ATOM      3  C   UNL     1     138.122 136.232 124.757  1.00  0.00     0.006 C 
ATOM      4  C   UNL     1     137.593 137.493 124.085  1.00  0.00     0.019 C 
ATOM      5  C   UNL     1     137.714 137.138 122.630  1.00  0.00    -0.068 C 
ATOM      6  C   UNL     1     137.953 138.019 121.649  1.00  0.00     0.009 C 
ATOM      7  C   UNL     1     136.092 137.402 124.442  1.00  0.00     0.008 C 
ATOM      8  C   UNL     1     135.827 135.877 124.469  1.00  0.00     0.005 C 
ATOM      9  C   UNL     1     136.135 135.497 121.576  1.00  0.00     0.016 C 
ENDROOT
BRANCH   3  10
ATOM     10  C   UNL     1     139.677 135.978 124.777  1.00  0.00    -0.032 C 
ATOM     11  C   UNL     1     140.096 135.623 126.229  1.00  0.00     0.011 C 
ATOM     12  C   UNL     1     140.406 137.297 124.417  1.00  0.00     0.011 C 
BRANCH  10  13
ATOM     13  C   UNL     1     140.196 134.889 123.797  1.00  0.00     0.007 CG0
ATOM     14  G   UNL     1     139.945 135.195 122.319  1.00  0.00     0.000 G0
ENDBRANCH  10  13
ENDBRANCH   3  10
BRANCH   1  15
ATOM     15  C   UNL     1     138.549 134.876 121.776  1.00  0.00     0.011 C 
BRANCH  15  16
ATOM     16  C   UNL     1     139.969 135.148 122.265  1.00  0.00     0.001 CG0
ATOM     17  G   UNL     1     140.146 134.889 123.762  1.00  0.00     0.000 G0
ENDBRANCH  15  16
ENDBRANCH   1  15
TORSDOF 0
ENDMDL
MODEL 2
REMARK VINA RESULT:    -0.497      1.459      2.325
REMARK INTER + INTRA:           0.151
REMARK INTER:                  -0.614
REMARK INTRA:                   0.765
REMARK UNBOUND:                 0.764
REMARK SMILES C=C1[C@H]2CC[C@@H]3[C@H]2C(C)(C)CCC[C@]13C
REMARK SMILES IDX 14 1 6 2 7 3 3 4 2 5 1 6 4 7 5 8 15 9 8 10 9 11 10 12 11 13
REMARK SMILES IDX 13 15 12 16
REMARK H PARENT
REMARK Flexibility Score: 80.00
ROOT
ATOM      1  C   UNL     1     137.368 137.700 122.113  1.00  0.00    -0.008 C 
ATOM      2  C   UNL     1     136.037 137.259 122.836  1.00  0.00     0.003 C 
ATOM      3  C   UNL     1     136.452 137.027 124.306  1.00  0.00     0.006 C 
ATOM      4  C   UNL     1     137.115 138.391 124.449  1.00  0.00     0.019 C 
ATOM      5  C   UNL     1     138.043 138.405 123.267  1.00  0.00    -0.068 C 
ATOM      6  C   UNL     1     139.223 139.040 123.234  1.00  0.00     0.009 C 
ATOM      7  C   UNL     1     135.933 139.324 124.097  1.00  0.00     0.008 C 
ATOM      8  C   UNL     1     135.132 138.501 123.058  1.00  0.00     0.005 C 
ATOM      9  C   UNL     1     137.152 138.695 120.940  1.00  0.00     0.016 C 
ENDROOT
BRANCH   3  10
ATOM     10  C   UNL     1     137.265 135.741 124.719  1.00  0.00    -0.032 C 
ATOM     11  C   UNL     1     136.371 134.876 125.649  1.00  0.00     0.011 C 
ATOM     12  C   UNL     1     138.492 136.173 125.561  1.00  0.00     0.011 C 
BRANCH  10  13
ATOM     13  C   UNL     1     137.800 134.875 123.545  1.00  0.00     0.007 CG0
ATOM     14  G   UNL     1     138.797 135.590 122.632  1.00  0.00     0.000 G0
ENDBRANCH  10  13
ENDBRANCH   3  10
BRANCH   1  15
ATOM     15  C   UNL     1     138.204 136.512 121.554  1.00  0.00     0.011 C 
BRANCH  15  16
ATOM     16  C   UNL     1     138.829 135.563 122.573  1.00  0.00     0.001 CG0
ATOM     17  G   UNL     1     137.799 134.914 123.498  1.00  0.00     0.000 G0
ENDBRANCH  15  16
ENDBRANCH   1  15
TORSDOF 0
ENDMDL
MODEL 3
REMARK VINA RESULT:     1.265     14.289     16.093
REMARK INTER + INTRA:           2.325
REMARK INTER:                   1.297
REMARK INTRA:                   1.028
REMARK UNBOUND:                 0.764
REMARK SMILES C=C1[C@H]2CC[C@@H]3[C@H]2C(C)(C)CCC[C@]13C
REMARK SMILES IDX 14 1 6 2 7 3 3 4 2 5 1 6 4 7 5 8 15 9 8 10 9 11 10 12 11 13
REMARK SMILES IDX 13 15 12 16
REMARK H PARENT
REMARK Flexibility Score: 80.00
ROOT
ATOM      1  C   UNL     1     154.601 139.122 123.582  1.00  0.00    -0.008 C 
ATOM      2  C   UNL     1     155.109 137.987 122.610  1.00  0.00     0.003 C 
ATOM      3  C   UNL     1     153.968 136.944 122.601  1.00  0.00     0.006 C 
ATOM      4  C   UNL     1     152.889 137.967 122.266  1.00  0.00     0.019 C 
ATOM      5  C   UNL     1     153.116 139.009 123.324  1.00  0.00    -0.068 C 
ATOM      6  C   UNL     1     152.154 139.776 123.855  1.00  0.00     0.009 C 
ATOM      7  C   UNL     1     153.443 138.547 120.944  1.00  0.00     0.008 C 
ATOM      8  C   UNL     1     154.977 138.468 121.139  1.00  0.00     0.005 C 
ATOM      9  C   UNL     1     155.096 140.546 123.206  1.00  0.00     0.016 C 
ENDROOT
BRANCH   3  10
ATOM     10  C   UNL     1     153.747 135.983 123.830  1.00  0.00    -0.032 C 
ATOM     11  C   UNL     1     154.838 134.879 123.789  1.00  0.00     0.011 C 
ATOM     12  C   UNL     1     152.385 135.265 123.667  1.00  0.00     0.011 C 
BRANCH  10  13
ATOM     13  C   UNL     1     153.739 136.665 125.227  1.00  0.00     0.007 CG0
ATOM     14  G   UNL     1     155.010 137.448 125.559  1.00  0.00     0.000 G0
ENDBRANCH  10  13
ENDBRANCH   3  10
BRANCH   1  15
ATOM     15  C   UNL     1     154.978 138.887 125.074  1.00  0.00     0.011 C 
BRANCH  15  16
ATOM     16  C   UNL     1     155.022 137.441 125.560  1.00  0.00     0.001 CG0
ATOM     17  G   UNL     1     153.739 136.667 125.252  1.00  0.00     0.000 G0
ENDBRANCH  15  16
ENDBRANCH   1  15
TORSDOF 0
ENDMDL
