MODEL 1
REMARK VINA RESULT:    -5.111      0.000      0.000
REMARK INTER + INTRA:         -10.738
REMARK INTER:                  -9.892
REMARK INTRA:                  -0.846
REMARK UNBOUND:                -0.846
REMARK SMILES CCCCCCCCCCCCCCCCCC(=O)[O-]
REMARK SMILES IDX 10 1 11 2 12 3 13 4 14 5 15 6 16 7 17 8 18 9 19 10 20 11
REMARK SMILES IDX 9 12 8 13 7 14 6 15 5 16 4 17 3 18 2 19 1 20
REMARK H PARENT
REMARK Flexibility Score: inf
ROOT
ATOM      1  C   UNL     1       0.260  -2.226   0.043  1.00  0.00     0.000 C 
ENDROOT
BRANCH   1   2
ATOM      2  C   UNL     1       1.025  -1.508   1.169  1.00  0.00     0.000 C 
BRANCH   2   3
ATOM      3  C   UNL     1       0.713  -0.005   1.232  1.00  0.00     0.000 C 
BRANCH   3   4
ATOM      4  C   UNL     1      -0.339   0.428   0.198  1.00  0.00     0.000 C 
BRANCH   4   5
ATOM      5  C   UNL     1      -0.732   1.896   0.398  1.00  0.00     0.000 C 
BRANCH   5   6
ATOM      6  C   UNL     1      -1.813   2.318  -0.605  1.00  0.00     0.000 C 
BRANCH   6   7
ATOM      7  C   UNL     1      -1.226   3.214  -1.702  1.00  0.00     0.006 C 
BRANCH   7   8
ATOM      8  C   UNL     1      -0.693   2.376  -2.869  1.00  0.00     0.053 C 
BRANCH   8   9
ATOM      9  C   UNL     1       0.469   3.058  -3.517  1.00  0.00     0.041 C 
ATOM     10  O   UNL     1       0.965   2.594  -4.578  1.00  0.00    -0.550 OA
ATOM     11  O   UNL     1       1.033   4.182  -2.927  1.00  0.00    -0.550 OA
ENDBRANCH   8   9
ENDBRANCH   7   8
ENDBRANCH   6   7
ENDBRANCH   5   6
ENDBRANCH   4   5
ENDBRANCH   3   4
ENDBRANCH   2   3
ENDBRANCH   1   2
BRANCH   1  12
ATOM     12  C   UNL     1       1.062  -3.393  -0.560  1.00  0.00     0.000 C 
BRANCH  12  13
ATOM     13  C   UNL     1       0.704  -3.651  -2.033  1.00  0.00    -0.000 C 
BRANCH  13  14
ATOM     14  C   UNL     1       0.222  -5.089  -2.282  1.00  0.00    -0.000 C 
BRANCH  14  15
ATOM     15  C   UNL     1       0.053  -5.893  -0.984  1.00  0.00    -0.000 C 
BRANCH  15  16
ATOM     16  C   UNL     1       0.017  -7.400  -1.270  1.00  0.00    -0.000 C 
BRANCH  16  17
ATOM     17  C   UNL     1      -1.427  -7.918  -1.316  1.00  0.00    -0.000 C 
BRANCH  17  18
ATOM     18  C   UNL     1      -1.522  -9.446  -1.152  1.00  0.00    -0.000 C 
BRANCH  18  19
ATOM     19  C   UNL     1      -1.226  -9.964   0.268  1.00  0.00    -0.003 C 
ATOM     20  C   UNL     1      -2.345  -9.655   1.262  1.00  0.00     0.004 C 
ENDBRANCH  18  19
ENDBRANCH  17  18
ENDBRANCH  16  17
ENDBRANCH  15  16
ENDBRANCH  14  15
ENDBRANCH  13  14
ENDBRANCH  12  13
ENDBRANCH   1  12
TORSDOF 16
ENDMDL
MODEL 2
REMARK VINA RESULT:    -5.103      4.664     10.101
REMARK INTER + INTRA:         -10.721
REMARK INTER:                  -9.868
REMARK INTRA:                  -0.853
REMARK UNBOUND:                -0.846
REMARK SMILES CCCCCCCCCCCCCCCCCC(=O)[O-]
REMARK SMILES IDX 10 1 11 2 12 3 13 4 14 5 15 6 16 7 17 8 18 9 19 10 20 11
REMARK SMILES IDX 9 12 8 13 7 14 6 15 5 16 4 17 3 18 2 19 1 20
REMARK H PARENT
REMARK Flexibility Score: inf
ROOT
ATOM      1  C   UNL     1       0.369  -1.878   0.373  1.00  0.00     0.000 C 
ENDROOT
BRANCH   1   2
ATOM      2  C   UNL     1       1.287  -3.067   0.036  1.00  0.00     0.000 C 
BRANCH   2   3
ATOM      3  C   UNL     1       0.774  -3.892  -1.154  1.00  0.00     0.000 C 
BRANCH   3   4
ATOM      4  C   UNL     1       0.021  -5.159  -0.719  1.00  0.00     0.000 C 
BRANCH   4   5
ATOM      5  C   UNL     1       0.113  -6.248  -1.795  1.00  0.00     0.000 C 
BRANCH   5   6
ATOM      6  C   UNL     1       0.030  -7.647  -1.172  1.00  0.00     0.000 C 
BRANCH   6   7
ATOM      7  C   UNL     1      -1.427  -8.052  -0.920  1.00  0.00     0.006 C 
BRANCH   7   8
ATOM      8  C   UNL     1      -1.537  -9.553  -0.634  1.00  0.00     0.053 C 
BRANCH   8   9
ATOM      9  C   UNL     1      -1.535  -9.808   0.840  1.00  0.00     0.041 C 
ATOM     10  O   UNL     1      -0.467 -10.125   1.427  1.00  0.00    -0.550 OA
ATOM     11  O   UNL     1      -2.722  -9.740   1.558  1.00  0.00    -0.550 OA
ENDBRANCH   8   9
ENDBRANCH   7   8
ENDBRANCH   6   7
ENDBRANCH   5   6
ENDBRANCH   4   5
ENDBRANCH   3   4
ENDBRANCH   2   3
ENDBRANCH   1   2
BRANCH   1  12
ATOM     12  C   UNL     1       0.992  -0.933   1.415  1.00  0.00     0.000 C 
BRANCH  12  13
ATOM     13  C   UNL     1       0.651   0.543   1.146  1.00  0.00    -0.000 C 
BRANCH  13  14
ATOM     14  C   UNL     1      -0.395   0.716   0.033  1.00  0.00    -0.000 C 
BRANCH  14  15
ATOM     15  C   UNL     1      -1.221   2.002   0.189  1.00  0.00    -0.000 C 
BRANCH  15  16
ATOM     16  C   UNL     1      -2.194   2.176  -0.984  1.00  0.00    -0.000 C 
BRANCH  16  17
ATOM     17  C   UNL     1      -1.441   2.521  -2.278  1.00  0.00    -0.000 C 
BRANCH  17  18
ATOM     18  C   UNL     1      -0.542   3.763  -2.136  1.00  0.00    -0.000 C 
BRANCH  18  19
ATOM     19  C   UNL     1       0.722   3.750  -3.015  1.00  0.00    -0.003 C 
ATOM     20  C   UNL     1       0.712   2.632  -4.058  1.00  0.00     0.004 C 
ENDBRANCH  18  19
ENDBRANCH  17  18
ENDBRANCH  16  17
ENDBRANCH  15  16
ENDBRANCH  14  15
ENDBRANCH  13  14
ENDBRANCH  12  13
ENDBRANCH   1  12
TORSDOF 16
ENDMDL
MODEL 3
REMARK VINA RESULT:    -4.839      0.611      1.506
REMARK INTER + INTRA:         -10.210
REMARK INTER:                  -9.324
REMARK INTRA:                  -0.886
REMARK UNBOUND:                -0.846
REMARK SMILES CCCCCCCCCCCCCCCCCC(=O)[O-]
REMARK SMILES IDX 10 1 11 2 12 3 13 4 14 5 15 6 16 7 17 8 18 9 19 10 20 11
REMARK SMILES IDX 9 12 8 13 7 14 6 15 5 16 4 17 3 18 2 19 1 20
REMARK H PARENT
REMARK Flexibility Score: inf
ROOT
ATOM      1  C   UNL     1       1.137  -1.615   1.207  1.00  0.00     0.000 C 
ENDROOT
BRANCH   1   2
ATOM      2  C   UNL     1       0.768  -0.139   1.441  1.00  0.00     0.000 C 
BRANCH   2   3
ATOM      3  C   UNL     1      -0.010   0.470   0.264  1.00  0.00     0.000 C 
BRANCH   3   4
ATOM      4  C   UNL     1      -0.616   1.842   0.598  1.00  0.00     0.000 C 
BRANCH   4   5
ATOM      5  C   UNL     1      -1.856   2.117  -0.260  1.00  0.00     0.000 C 
BRANCH   5   6
ATOM      6  C   UNL     1      -1.699   3.419  -1.055  1.00  0.00     0.000 C 
BRANCH   6   7
ATOM      7  C   UNL     1      -0.335   3.478  -1.751  1.00  0.00     0.006 C 
BRANCH   7   8
ATOM      8  C   UNL     1      -0.326   2.613  -3.015  1.00  0.00     0.053 C 
BRANCH   8   9
ATOM      9  C   UNL     1       0.721   3.091  -3.971  1.00  0.00     0.041 C 
ATOM     10  O   UNL     1       1.421   4.100  -3.691  1.00  0.00    -0.550 OA
ATOM     11  O   UNL     1       0.895   2.448  -5.190  1.00  0.00    -0.550 OA
ENDBRANCH   8   9
ENDBRANCH   7   8
ENDBRANCH   6   7
ENDBRANCH   5   6
ENDBRANCH   4   5
ENDBRANCH   3   4
ENDBRANCH   2   3
ENDBRANCH   1   2
BRANCH   1  12
ATOM     12  C   UNL     1       0.292  -2.262   0.095  1.00  0.00     0.000 C 
BRANCH  12  13
ATOM     13  C   UNL     1       0.923  -3.557  -0.443  1.00  0.00    -0.000 C 
BRANCH  13  14
ATOM     14  C   UNL     1       0.727  -3.727  -1.958  1.00  0.00    -0.000 C 
BRANCH  14  15
ATOM     15  C   UNL     1       0.341  -5.161  -2.350  1.00  0.00    -0.000 C 
BRANCH  15  16
ATOM     16  C   UNL     1      -0.050  -5.983  -1.116  1.00  0.00    -0.000 C 
BRANCH  16  17
ATOM     17  C   UNL     1      -0.024  -7.487  -1.423  1.00  0.00    -0.000 C 
BRANCH  17  18
ATOM     18  C   UNL     1      -1.420  -8.134  -1.369  1.00  0.00    -0.000 C 
BRANCH  18  19
ATOM     19  C   UNL     1      -1.721  -8.917  -0.078  1.00  0.00    -0.003 C 
ATOM     20  C   UNL     1      -0.665  -9.977   0.238  1.00  0.00     0.004 C 
ENDBRANCH  18  19
ENDBRANCH  17  18
ENDBRANCH  16  17
ENDBRANCH  15  16
ENDBRANCH  14  15
ENDBRANCH  13  14
ENDBRANCH  12  13
ENDBRANCH   1  12
TORSDOF 16
ENDMDL
MODEL 4
REMARK VINA RESULT:    -4.837      1.735      2.688
REMARK INTER + INTRA:         -10.207
REMARK INTER:                  -9.368
REMARK INTRA:                  -0.839
REMARK UNBOUND:                -0.846
REMARK SMILES CCCCCCCCCCCCCCCCCC(=O)[O-]
REMARK SMILES IDX 10 1 11 2 12 3 13 4 14 5 15 6 16 7 17 8 18 9 19 10 20 11
REMARK SMILES IDX 9 12 8 13 7 14 6 15 5 16 4 17 3 18 2 19 1 20
REMARK H PARENT
REMARK Flexibility Score: inf
ROOT
ATOM      1  C   UNL     1       0.755  -3.014   0.041  1.00  0.00     0.000 C 
ENDROOT
BRANCH   1   2
ATOM      2  C   UNL     1       0.123  -1.616   0.163  1.00  0.00     0.000 C 
BRANCH   2   3
ATOM      3  C   UNL     1       0.812  -0.747   1.226  1.00  0.00     0.000 C 
BRANCH   3   4
ATOM      4  C   UNL     1       0.382   0.727   1.159  1.00  0.00     0.000 C 
BRANCH   4   5
ATOM      5  C   UNL     1      -0.291   1.042  -0.181  1.00  0.00     0.000 C 
BRANCH   5   6
ATOM      6  C   UNL     1      -1.373   2.117  -0.016  1.00  0.00     0.000 C 
BRANCH   6   7
ATOM      7  C   UNL     1      -1.303   3.147  -1.149  1.00  0.00     0.006 C 
BRANCH   7   8
ATOM      8  C   UNL     1      -0.684   2.535  -2.410  1.00  0.00     0.053 C 
BRANCH   8   9
ATOM      9  C   UNL     1       0.490   3.343  -2.863  1.00  0.00     0.041 C 
ATOM     10  O   UNL     1       0.915   4.295  -2.156  1.00  0.00    -0.550 OA
ATOM     11  O   UNL     1       1.088   3.074  -4.088  1.00  0.00    -0.550 OA
ENDBRANCH   8   9
ENDBRANCH   7   8
ENDBRANCH   6   7
ENDBRANCH   5   6
ENDBRANCH   4   5
ENDBRANCH   3   4
ENDBRANCH   2   3
ENDBRANCH   1   2
BRANCH   1  12
ATOM     12  C   UNL     1       1.080  -3.386  -1.417  1.00  0.00     0.000 C 
BRANCH  12  13
ATOM     13  C   UNL     1       0.306  -4.627  -1.892  1.00  0.00    -0.000 C 
BRANCH  13  14
ATOM     14  C   UNL     1       0.329  -5.769  -0.864  1.00  0.00    -0.000 C 
BRANCH  14  15
ATOM     15  C   UNL     1      -0.052  -7.126  -1.474  1.00  0.00    -0.000 C 
BRANCH  15  16
ATOM     16  C   UNL     1       0.592  -8.280  -0.695  1.00  0.00    -0.000 C 
BRANCH  16  17
ATOM     17  C   UNL     1       0.930  -9.454  -1.625  1.00  0.00    -0.000 C 
BRANCH  17  18
ATOM     18  C   UNL     1       2.264  -9.263  -2.370  1.00  0.00    -0.000 C 
BRANCH  18  19
ATOM     19  C   UNL     1       2.193  -9.488  -3.892  1.00  0.00    -0.003 C 
ATOM     20  C   UNL     1       2.929  -8.412  -4.689  1.00  0.00     0.004 C 
ENDBRANCH  18  19
ENDBRANCH  17  18
ENDBRANCH  16  17
ENDBRANCH  15  16
ENDBRANCH  14  15
ENDBRANCH  13  14
ENDBRANCH  12  13
ENDBRANCH   1  12
TORSDOF 16
ENDMDL
MODEL 5
REMARK VINA RESULT:    -4.782      6.041      8.236
REMARK INTER + INTRA:         -10.101
REMARK INTER:                  -8.950
REMARK INTRA:                  -1.152
REMARK UNBOUND:                -0.846
REMARK SMILES CCCCCCCCCCCCCCCCCC(=O)[O-]
REMARK SMILES IDX 10 1 11 2 12 3 13 4 14 5 15 6 16 7 17 8 18 9 19 10 20 11
REMARK SMILES IDX 9 12 8 13 7 14 6 15 5 16 4 17 3 18 2 19 1 20
REMARK H PARENT
REMARK Flexibility Score: inf
ROOT
ATOM      1  C   UNL     1       3.799  -8.676  -3.751  1.00  0.00     0.000 C 
ENDROOT
BRANCH   1   2
ATOM      2  C   UNL     1       5.059  -8.740  -4.633  1.00  0.00     0.000 C 
BRANCH   2   3
ATOM      3  C   UNL     1       4.898  -9.696  -5.826  1.00  0.00     0.000 C 
BRANCH   3   4
ATOM      4  C   UNL     1       4.553  -8.964  -7.132  1.00  0.00     0.000 C 
BRANCH   4   5
ATOM      5  C   UNL     1       3.072  -8.572  -7.167  1.00  0.00     0.000 C 
BRANCH   5   6
ATOM      6  C   UNL     1       2.905  -7.047  -7.193  1.00  0.00     0.000 C 
BRANCH   6   7
ATOM      7  C   UNL     1       2.192  -6.550  -5.930  1.00  0.00     0.006 C 
BRANCH   7   8
ATOM      8  C   UNL     1       2.028  -5.027  -5.956  1.00  0.00     0.053 C 
BRANCH   8   9
ATOM      9  C   UNL     1       0.677  -4.636  -5.446  1.00  0.00     0.041 C 
ATOM     10  O   UNL     1       0.462  -4.573  -4.207  1.00  0.00    -0.550 OA
ATOM     11  O   UNL     1      -0.356  -4.383  -6.340  1.00  0.00    -0.550 OA
ENDBRANCH   8   9
ENDBRANCH   7   8
ENDBRANCH   6   7
ENDBRANCH   5   6
ENDBRANCH   4   5
ENDBRANCH   3   4
ENDBRANCH   2   3
ENDBRANCH   1   2
BRANCH   1  12
ATOM     12  C   UNL     1       3.076 -10.032  -3.662  1.00  0.00     0.000 C 
BRANCH  12  13
ATOM     13  C   UNL     1       1.982 -10.042  -2.580  1.00  0.00    -0.000 C 
BRANCH  13  14
ATOM     14  C   UNL     1       1.581  -8.629  -2.130  1.00  0.00    -0.000 C 
BRANCH  14  15
ATOM     15  C   UNL     1       0.754  -8.630  -0.835  1.00  0.00    -0.000 C 
BRANCH  15  16
ATOM     16  C   UNL     1      -0.383  -7.603  -0.907  1.00  0.00    -0.000 C 
BRANCH  16  17
ATOM     17  C   UNL     1      -1.754  -8.293  -0.886  1.00  0.00    -0.000 C 
BRANCH  17  18
ATOM     18  C   UNL     1      -1.680  -9.759  -0.420  1.00  0.00    -0.000 C 
BRANCH  18  19
ATOM     19  C   UNL     1      -1.581  -9.949   1.105  1.00  0.00    -0.003 C 
ATOM     20  C   UNL     1      -2.947 -10.038   1.785  1.00  0.00     0.004 C 
ENDBRANCH  18  19
ENDBRANCH  17  18
ENDBRANCH  16  17
ENDBRANCH  15  16
ENDBRANCH  14  15
ENDBRANCH  13  14
ENDBRANCH  12  13
ENDBRANCH   1  12
TORSDOF 16
ENDMDL
MODEL 6
REMARK VINA RESULT:    -4.718      2.235      3.295
REMARK INTER + INTRA:          -9.976
REMARK INTER:                  -9.170
REMARK INTRA:                  -0.806
REMARK UNBOUND:                -0.846
REMARK SMILES CCCCCCCCCCCCCCCCCC(=O)[O-]
REMARK SMILES IDX 10 1 11 2 12 3 13 4 14 5 15 6 16 7 17 8 18 9 19 10 20 11
REMARK SMILES IDX 9 12 8 13 7 14 6 15 5 16 4 17 3 18 2 19 1 20
REMARK H PARENT
REMARK Flexibility Score: inf
ROOT
ATOM      1  C   UNL     1       0.770  -3.534  -0.958  1.00  0.00     0.000 C 
ENDROOT
BRANCH   1   2
ATOM      2  C   UNL     1       0.817  -2.605   0.268  1.00  0.00     0.000 C 
BRANCH   2   3
ATOM      3  C   UNL     1       0.130  -1.255   0.013  1.00  0.00     0.000 C 
BRANCH   3   4
ATOM      4  C   UNL     1       0.568  -0.167   1.006  1.00  0.00     0.000 C 
BRANCH   4   5
ATOM      5  C   UNL     1       0.189   1.227   0.494  1.00  0.00     0.000 C 
BRANCH   5   6
ATOM      6  C   UNL     1      -1.095   1.177  -0.343  1.00  0.00     0.000 C 
BRANCH   6   7
ATOM      7  C   UNL     1      -1.278   2.469  -1.148  1.00  0.00     0.006 C 
BRANCH   7   8
ATOM      8  C   UNL     1      -0.807   2.286  -2.594  1.00  0.00     0.053 C 
BRANCH   8   9
ATOM      9  C   UNL     1       0.417   3.105  -2.855  1.00  0.00     0.041 C 
ATOM     10  O   UNL     1       1.088   2.924  -3.906  1.00  0.00    -0.550 OA
ATOM     11  O   UNL     1       0.843   4.037  -1.917  1.00  0.00    -0.550 OA
ENDBRANCH   8   9
ENDBRANCH   7   8
ENDBRANCH   6   7
ENDBRANCH   5   6
ENDBRANCH   4   5
ENDBRANCH   3   4
ENDBRANCH   2   3
ENDBRANCH   1   2
BRANCH   1  12
ATOM     12  C   UNL     1       0.385  -4.977  -0.586  1.00  0.00     0.000 C 
BRANCH  12  13
ATOM     13  C   UNL     1       0.092  -5.843  -1.823  1.00  0.00    -0.000 C 
BRANCH  13  14
ATOM     14  C   UNL     1      -0.392  -7.255  -1.457  1.00  0.00    -0.000 C 
BRANCH  14  15
ATOM     15  C   UNL     1       0.729  -8.139  -0.892  1.00  0.00    -0.000 C 
BRANCH  15  16
ATOM     16  C   UNL     1       1.071  -9.280  -1.860  1.00  0.00    -0.000 C 
BRANCH  16  17
ATOM     17  C   UNL     1       2.442  -9.056  -2.513  1.00  0.00    -0.000 C 
BRANCH  17  18
ATOM     18  C   UNL     1       2.414  -9.234  -4.042  1.00  0.00    -0.000 C 
BRANCH  18  19
ATOM     19  C   UNL     1       3.295  -8.242  -4.825  1.00  0.00    -0.003 C 
ATOM     20  C   UNL     1       4.777  -8.349  -4.466  1.00  0.00     0.004 C 
ENDBRANCH  18  19
ENDBRANCH  17  18
ENDBRANCH  16  17
ENDBRANCH  15  16
ENDBRANCH  14  15
ENDBRANCH  13  14
ENDBRANCH  12  13
ENDBRANCH   1  12
TORSDOF 16
ENDMDL
MODEL 7
REMARK VINA RESULT:    -4.710      2.686      4.397
REMARK INTER + INTRA:          -9.962
REMARK INTER:                  -9.009
REMARK INTRA:                  -0.953
REMARK UNBOUND:                -0.846
REMARK SMILES CCCCCCCCCCCCCCCCCC(=O)[O-]
REMARK SMILES IDX 10 1 11 2 12 3 13 4 14 5 15 6 16 7 17 8 18 9 19 10 20 11
REMARK SMILES IDX 9 12 8 13 7 14 6 15 5 16 4 17 3 18 2 19 1 20
REMARK H PARENT
REMARK Flexibility Score: inf
ROOT
ATOM      1  C   UNL     1       0.325  -5.051  -2.247  1.00  0.00     0.000 C 
ENDROOT
BRANCH   1   2
ATOM      2  C   UNL     1       0.817  -3.624  -1.941  1.00  0.00     0.000 C 
BRANCH   2   3
ATOM      3  C   UNL     1       0.817  -3.309  -0.438  1.00  0.00     0.000 C 
BRANCH   3   4
ATOM      4  C   UNL     1       0.131  -1.973  -0.109  1.00  0.00     0.000 C 
BRANCH   4   5
ATOM      5  C   UNL     1       0.855  -1.251   1.032  1.00  0.00     0.000 C 
BRANCH   5   6
ATOM      6  C   UNL     1       0.511   0.244   1.044  1.00  0.00     0.000 C 
BRANCH   6   7
ATOM      7  C   UNL     1      -0.521   0.580  -0.039  1.00  0.00     0.006 C 
BRANCH   7   8
ATOM      8  C   UNL     1      -0.797   2.087  -0.085  1.00  0.00     0.053 C 
BRANCH   8   9
ATOM      9  C   UNL     1      -1.899   2.389  -1.051  1.00  0.00     0.041 C 
ATOM     10  O   UNL     1      -1.869   1.911  -2.215  1.00  0.00    -0.550 OA
ATOM     11  O   UNL     1      -2.937   3.234  -0.679  1.00  0.00    -0.550 OA
ENDBRANCH   8   9
ENDBRANCH   7   8
ENDBRANCH   6   7
ENDBRANCH   5   6
ENDBRANCH   4   5
ENDBRANCH   3   4
ENDBRANCH   2   3
ENDBRANCH   1   2
BRANCH   1  12
ATOM     12  C   UNL     1       0.240  -5.925  -0.983  1.00  0.00     0.000 C 
BRANCH  12  13
ATOM     13  C   UNL     1      -0.239  -7.354  -1.290  1.00  0.00    -0.000 C 
BRANCH  13  14
ATOM     14  C   UNL     1       0.610  -8.426  -0.589  1.00  0.00    -0.000 C 
BRANCH  14  15
ATOM     15  C   UNL     1       1.723  -8.986  -1.488  1.00  0.00    -0.000 C 
BRANCH  15  16
ATOM     16  C   UNL     1       1.134  -9.714  -2.703  1.00  0.00    -0.000 C 
BRANCH  16  17
ATOM     17  C   UNL     1       2.200  -9.933  -3.786  1.00  0.00    -0.000 C 
BRANCH  17  18
ATOM     18  C   UNL     1       3.405  -8.985  -3.641  1.00  0.00    -0.000 C 
BRANCH  18  19
ATOM     19  C   UNL     1       3.923  -8.391  -4.964  1.00  0.00    -0.003 C 
ATOM     20  C   UNL     1       2.897  -7.494  -5.657  1.00  0.00     0.004 C 
ENDBRANCH  18  19
ENDBRANCH  17  18
ENDBRANCH  16  17
ENDBRANCH  15  16
ENDBRANCH  14  15
ENDBRANCH  13  14
ENDBRANCH  12  13
ENDBRANCH   1  12
TORSDOF 16
ENDMDL
MODEL 8
REMARK VINA RESULT:    -4.499      4.011      9.617
REMARK INTER + INTRA:          -9.552
REMARK INTER:                  -8.653
REMARK INTRA:                  -0.899
REMARK UNBOUND:                -0.846
REMARK SMILES CCCCCCCCCCCCCCCCCC(=O)[O-]
REMARK SMILES IDX 10 1 11 2 12 3 13 4 14 5 15 6 16 7 17 8 18 9 19 10 20 11
REMARK SMILES IDX 9 12 8 13 7 14 6 15 5 16 4 17 3 18 2 19 1 20
REMARK H PARENT
REMARK Flexibility Score: inf
ROOT
ATOM      1  C   UNL     1       0.833  -3.603  -1.886  1.00  0.00     0.000 C 
ENDROOT
BRANCH   1   2
ATOM      2  C   UNL     1       0.177  -4.951  -2.237  1.00  0.00     0.000 C 
BRANCH   2   3
ATOM      3  C   UNL     1       0.154  -5.925  -1.049  1.00  0.00     0.000 C 
BRANCH   3   4
ATOM      4  C   UNL     1       0.077  -7.396  -1.487  1.00  0.00     0.000 C 
BRANCH   4   5
ATOM      5  C   UNL     1       1.057  -8.259  -0.684  1.00  0.00     0.000 C 
BRANCH   5   6
ATOM      6  C   UNL     1       1.549  -9.451  -1.514  1.00  0.00     0.000 C 
BRANCH   6   7
ATOM      7  C   UNL     1       1.888  -9.022  -2.947  1.00  0.00     0.006 C 
BRANCH   7   8
ATOM      8  C   UNL     1       3.389  -9.162  -3.222  1.00  0.00     0.053 C 
BRANCH   8   9
ATOM      9  C   UNL     1       3.744  -8.530  -4.530  1.00  0.00     0.041 C 
ATOM     10  O   UNL     1       2.853  -7.985  -5.233  1.00  0.00    -0.550 OA
ATOM     11  O   UNL     1       5.052  -8.581  -4.994  1.00  0.00    -0.550 OA
ENDBRANCH   8   9
ENDBRANCH   7   8
ENDBRANCH   6   7
ENDBRANCH   5   6
ENDBRANCH   4   5
ENDBRANCH   3   4
ENDBRANCH   2   3
ENDBRANCH   1   2
BRANCH   1  12
ATOM     12  C   UNL     1       0.837  -3.330  -0.372  1.00  0.00     0.000 C 
BRANCH  12  13
ATOM     13  C   UNL     1       0.152  -2.001  -0.014  1.00  0.00    -0.000 C 
BRANCH  13  14
ATOM     14  C   UNL     1       0.810  -1.298   1.184  1.00  0.00    -0.000 C 
BRANCH  14  15
ATOM     15  C   UNL     1       0.653   0.229   1.138  1.00  0.00    -0.000 C 
BRANCH  15  16
ATOM     16  C   UNL     1      -0.204   0.657  -0.061  1.00  0.00    -0.000 C 
BRANCH  16  17
ATOM     17  C   UNL     1      -1.136   1.819   0.314  1.00  0.00    -0.000 C 
BRANCH  17  18
ATOM     18  C   UNL     1      -1.809   2.467  -0.910  1.00  0.00    -0.000 C 
BRANCH  18  19
ATOM     19  C   UNL     1      -1.461   1.814  -2.260  1.00  0.00    -0.003 C 
ATOM     20  C   UNL     1      -0.451   2.625  -3.072  1.00  0.00     0.004 C 
ENDBRANCH  18  19
ENDBRANCH  17  18
ENDBRANCH  16  17
ENDBRANCH  15  16
ENDBRANCH  14  15
ENDBRANCH  13  14
ENDBRANCH  12  13
ENDBRANCH   1  12
TORSDOF 16
ENDMDL
MODEL 9
REMARK VINA RESULT:    -4.275      5.074      9.455
REMARK INTER + INTRA:          -9.120
REMARK INTER:                  -7.852
REMARK INTRA:                  -1.268
REMARK UNBOUND:                -0.846
REMARK SMILES CCCCCCCCCCCCCCCCCC(=O)[O-]
REMARK SMILES IDX 10 1 11 2 12 3 13 4 14 5 15 6 16 7 17 8 18 9 19 10 20 11
REMARK SMILES IDX 9 12 8 13 7 14 6 15 5 16 4 17 3 18 2 19 1 20
REMARK H PARENT
REMARK Flexibility Score: inf
ROOT
ATOM      1  C   UNL     1       2.605  -7.305  -5.377  1.00  0.00     0.000 C 
ENDROOT
BRANCH   1   2
ATOM      2  C   UNL     1       3.599  -8.307  -5.992  1.00  0.00     0.000 C 
BRANCH   2   3
ATOM      3  C   UNL     1       4.717  -8.705  -5.017  1.00  0.00     0.000 C 
BRANCH   3   4
ATOM      4  C   UNL     1       4.201  -8.964  -3.593  1.00  0.00     0.000 C 
BRANCH   4   5
ATOM      5  C   UNL     1       3.018  -9.938  -3.607  1.00  0.00     0.000 C 
BRANCH   5   6
ATOM      6  C   UNL     1       2.294  -9.946  -2.255  1.00  0.00     0.000 C 
BRANCH   6   7
ATOM      7  C   UNL     1       1.186  -8.887  -2.218  1.00  0.00     0.006 C 
BRANCH   7   8
ATOM      8  C   UNL     1       0.733  -8.617  -0.779  1.00  0.00     0.053 C 
BRANCH   8   9
ATOM      9  C   UNL     1      -0.757  -8.693  -0.675  1.00  0.00     0.041 C 
ATOM     10  O   UNL     1      -1.481  -7.982  -1.421  1.00  0.00    -0.550 OA
ATOM     11  O   UNL     1      -1.347  -9.517   0.275  1.00  0.00    -0.550 OA
ENDBRANCH   8   9
ENDBRANCH   7   8
ENDBRANCH   6   7
ENDBRANCH   5   6
ENDBRANCH   4   5
ENDBRANCH   3   4
ENDBRANCH   2   3
ENDBRANCH   1   2
BRANCH   1  12
ATOM     12  C   UNL     1       2.178  -6.215  -6.376  1.00  0.00     0.000 C 
BRANCH  12  13
ATOM     13  C   UNL     1       1.944  -4.856  -5.696  1.00  0.00    -0.000 C 
BRANCH  13  14
ATOM     14  C   UNL     1       0.493  -4.670  -5.226  1.00  0.00    -0.000 C 
BRANCH  14  15
ATOM     15  C   UNL     1       0.398  -4.118  -3.795  1.00  0.00    -0.000 C 
BRANCH  15  16
ATOM     16  C   UNL     1       0.272  -5.257  -2.774  1.00  0.00    -0.000 C 
BRANCH  16  17
ATOM     17  C   UNL     1       0.281  -4.714  -1.338  1.00  0.00    -0.000 C 
BRANCH  17  18
ATOM     18  C   UNL     1       0.985  -3.350  -1.217  1.00  0.00    -0.000 C 
BRANCH  18  19
ATOM     19  C   UNL     1       0.313  -2.359  -0.249  1.00  0.00    -0.003 C 
ATOM     20  C   UNL     1       1.052  -2.232   1.083  1.00  0.00     0.004 C 
ENDBRANCH  18  19
ENDBRANCH  17  18
ENDBRANCH  16  17
ENDBRANCH  15  16
ENDBRANCH  14  15
ENDBRANCH  13  14
ENDBRANCH  12  13
ENDBRANCH   1  12
TORSDOF 16
ENDMDL
