MODEL 1
REMARK VINA RESULT:    -4.878      0.000      0.000
REMARK INTER + INTRA:          -5.259
REMARK INTER:                  -6.019
REMARK INTRA:                   0.760
REMARK UNBOUND:                 0.760
REMARK SMILES CC1=CC=CC(C)(C)CC1=O
REMARK SMILES IDX 1 1 2 2 3 3 10 4 11 5 9 6 4 8 5 9 6 10 7 11 8 12
REMARK H PARENT
REMARK Flexibility Score: 80.00
ROOT
ATOM      1  C   UNL     1     -20.502  36.516  14.771  1.00  0.00     0.048 C 
ATOM      2  C   UNL     1     -19.042  36.843  14.564  1.00  0.00    -0.008 C 
ATOM      3  C   UNL     1     -18.574  37.989  15.107  1.00  0.00     0.007 C 
ENDROOT
BRANCH   2   4
ATOM      4  C   UNL     1     -18.253  35.915  13.716  1.00  0.00     0.159 C 
ATOM      5  O   UNL     1     -18.862  35.021  13.065  1.00  0.00    -0.295 OA
BRANCH   4   6
ATOM      6  C   UNL     1     -16.762  35.968  13.597  1.00  0.00     0.091 CG0
ATOM      7  G   UNL     1     -16.241  37.326  13.075  1.00  0.00     0.000 G0
ENDBRANCH   4   6
ENDBRANCH   2   4
BRANCH   3   8
ATOM      8  C   UNL     1     -17.217  38.582  15.053  1.00  0.00    -0.003 C 
ATOM      9  C   UNL     1     -16.218  38.329  14.200  1.00  0.00    -0.020 C 
BRANCH   9  10
ATOM     10  C   UNL     1     -16.234  37.324  13.072  1.00  0.00    -0.010 CG0
ATOM     11  C   UNL     1     -14.782  37.116  12.587  1.00  0.00     0.016 C 
ATOM     12  C   UNL     1     -17.060  37.875  11.886  1.00  0.00     0.016 C 
ATOM     13  G   UNL     1     -16.767  35.969  13.590  1.00  0.00     0.000 G0
ENDBRANCH   9  10
ENDBRANCH   3   8
TORSDOF 0
ENDMDL
MODEL 2
REMARK VINA RESULT:    -4.841     16.790     18.834
REMARK INTER + INTRA:          -5.214
REMARK INTER:                  -5.968
REMARK INTRA:                   0.754
REMARK UNBOUND:                 0.760
REMARK SMILES CC1=CC=CC(C)(C)CC1=O
REMARK SMILES IDX 1 1 2 2 3 3 10 4 11 5 9 6 4 8 5 9 6 10 7 11 8 12
REMARK H PARENT
REMARK Flexibility Score: 80.00
ROOT
ATOM      1  C   UNL     1     -26.073  23.114  14.820  1.00  0.00     0.048 C 
ATOM      2  C   UNL     1     -27.528  22.814  14.545  1.00  0.00    -0.008 C 
ATOM      3  C   UNL     1     -28.085  21.768  15.194  1.00  0.00     0.007 C 
ENDROOT
BRANCH   2   4
ATOM      4  C   UNL     1     -28.210  23.650  13.526  1.00  0.00     0.159 C 
ATOM      5  O   UNL     1     -27.515  24.416  12.803  1.00  0.00    -0.295 OA
BRANCH   4   6
ATOM      6  C   UNL     1     -29.692  23.647  13.312  1.00  0.00     0.091 CG0
ATOM      7  G   UNL     1     -30.250  22.257  12.930  1.00  0.00     0.000 G0
ENDBRANCH   4   6
ENDBRANCH   2   4
BRANCH   3   8
ATOM      8  C   UNL     1     -29.459  21.221  15.113  1.00  0.00    -0.003 C 
ATOM      9  C   UNL     1     -30.386  21.402  14.164  1.00  0.00    -0.020 C 
BRANCH   9  10
ATOM     10  C   UNL     1     -30.248  22.258  12.928  1.00  0.00    -0.010 CG0
ATOM     11  C   UNL     1     -31.655  22.468  12.323  1.00  0.00     0.016 C 
ATOM     12  C   UNL     1     -29.380  21.530  11.875  1.00  0.00     0.016 C 
ATOM     13  G   UNL     1     -29.679  23.643  13.313  1.00  0.00     0.000 G0
ENDBRANCH   9  10
ENDBRANCH   3   8
TORSDOF 0
ENDMDL
MODEL 3
REMARK VINA RESULT:    -4.663     17.198     18.445
REMARK INTER + INTRA:          -4.994
REMARK INTER:                  -5.748
REMARK INTRA:                   0.754
REMARK UNBOUND:                 0.760
REMARK SMILES CC1=CC=CC(C)(C)CC1=O
REMARK SMILES IDX 1 1 2 2 3 3 10 4 11 5 9 6 4 8 5 9 6 10 7 11 8 12
REMARK H PARENT
REMARK Flexibility Score: 80.00
ROOT
ATOM      1  C   UNL     1     -28.631  21.136  16.736  1.00  0.00     0.048 C 
ATOM      2  C   UNL     1     -28.328  21.732  15.382  1.00  0.00    -0.008 C 
ATOM      3  C   UNL     1     -27.256  22.548  15.283  1.00  0.00     0.007 C 
ENDROOT
BRANCH   2   4
ATOM      4  C   UNL     1     -29.278  21.432  14.281  1.00  0.00     0.159 C 
ATOM      5  O   UNL     1     -30.369  20.861  14.560  1.00  0.00    -0.295 OA
BRANCH   4   6
ATOM      6  C   UNL     1     -29.009  21.757  12.845  1.00  0.00     0.091 CG0
ATOM      7  G   UNL     1     -28.760  23.262  12.598  1.00  0.00     0.000 G0
ENDBRANCH   4   6
ENDBRANCH   2   4
BRANCH   3   8
ATOM      8  C   UNL     1     -26.730  23.291  14.114  1.00  0.00    -0.003 C 
ATOM      9  C   UNL     1     -27.348  23.615  12.972  1.00  0.00    -0.020 C 
BRANCH   9  10
ATOM     10  C   UNL     1     -28.765  23.263  12.588  1.00  0.00    -0.010 CG0
ATOM     11  C   UNL     1     -28.936  23.518  11.073  1.00  0.00     0.016 C 
ATOM     12  C   UNL     1     -29.759  24.178  13.340  1.00  0.00     0.016 C 
ATOM     13  G   UNL     1     -29.020  21.762  12.854  1.00  0.00     0.000 G0
ENDBRANCH   9  10
ENDBRANCH   3   8
TORSDOF 0
ENDMDL
MODEL 4
REMARK VINA RESULT:    -4.631      1.817      2.951
REMARK INTER + INTRA:          -4.955
REMARK INTER:                  -5.717
REMARK INTRA:                   0.762
REMARK UNBOUND:                 0.760
REMARK SMILES CC1=CC=CC(C)(C)CC1=O
REMARK SMILES IDX 1 1 2 2 3 3 10 4 11 5 9 6 4 8 5 9 6 10 7 11 8 12
REMARK H PARENT
REMARK Flexibility Score: 80.00
ROOT
ATOM      1  C   UNL     1     -18.095  38.080  16.822  1.00  0.00     0.048 C 
ATOM      2  C   UNL     1     -18.376  37.536  15.441  1.00  0.00    -0.008 C 
ATOM      3  C   UNL     1     -19.491  36.792  15.277  1.00  0.00     0.007 C 
ENDROOT
BRANCH   2   4
ATOM      4  C   UNL     1     -17.361  37.801  14.390  1.00  0.00     0.159 C 
ATOM      5  O   UNL     1     -16.245  38.281  14.730  1.00  0.00    -0.295 OA
BRANCH   4   6
ATOM      6  C   UNL     1     -17.593  37.541  12.934  1.00  0.00     0.091 CG0
ATOM      7  G   UNL     1     -17.918  36.062  12.623  1.00  0.00     0.000 G0
ENDBRANCH   4   6
ENDBRANCH   2   4
BRANCH   3   8
ATOM      8  C   UNL     1     -20.012  36.112  14.068  1.00  0.00    -0.003 C 
ATOM      9  C   UNL     1     -19.368  35.784  12.941  1.00  0.00    -0.020 C 
BRANCH   9  10
ATOM     10  C   UNL     1     -17.919  36.065  12.621  1.00  0.00    -0.010 CG0
ATOM     11  C   UNL     1     -17.704  35.839  11.107  1.00  0.00     0.016 C 
ATOM     12  C   UNL     1     -17.007  35.077  13.385  1.00  0.00     0.016 C 
ATOM     13  G   UNL     1     -17.593  37.542  12.937  1.00  0.00     0.000 G0
ENDBRANCH   9  10
ENDBRANCH   3   8
TORSDOF 0
ENDMDL
MODEL 5
REMARK VINA RESULT:    -4.614     17.006     18.676
REMARK INTER + INTRA:          -4.933
REMARK INTER:                  -5.696
REMARK INTRA:                   0.763
REMARK UNBOUND:                 0.760
REMARK SMILES CC1=CC=CC(C)(C)CC1=O
REMARK SMILES IDX 1 1 2 2 3 3 10 4 11 5 9 6 4 8 5 9 6 10 7 11 8 12
REMARK H PARENT
REMARK Flexibility Score: 80.00
ROOT
ATOM      1  C   UNL     1     -27.883  24.757  11.501  1.00  0.00     0.048 C 
ATOM      2  C   UNL     1     -28.167  23.935  12.737  1.00  0.00    -0.008 C 
ATOM      3  C   UNL     1     -27.124  23.631  13.539  1.00  0.00     0.007 C 
ENDROOT
BRANCH   2   4
ATOM      4  C   UNL     1     -29.561  23.463  12.930  1.00  0.00     0.159 C 
ATOM      5  O   UNL     1     -30.386  23.599  11.984  1.00  0.00    -0.295 OA
BRANCH   4   6
ATOM      6  C   UNL     1     -30.055  22.842  14.200  1.00  0.00     0.091 CG0
ATOM      7  G   UNL     1     -29.280  21.565  14.595  1.00  0.00     0.000 G0
ENDBRANCH   4   6
ENDBRANCH   2   4
BRANCH   3   8
ATOM      8  C   UNL     1     -27.084  22.831  14.786  1.00  0.00    -0.003 C 
ATOM      9  C   UNL     1     -27.974  21.946  15.249  1.00  0.00    -0.020 C 
BRANCH   9  10
ATOM     10  C   UNL     1     -29.283  21.564  14.599  1.00  0.00    -0.010 CG0
ATOM     11  C   UNL     1     -30.133  20.793  15.634  1.00  0.00     0.016 C 
ATOM     12  C   UNL     1     -29.022  20.622  13.400  1.00  0.00     0.016 C 
ATOM     13  G   UNL     1     -30.056  22.840  14.197  1.00  0.00     0.000 G0
ENDBRANCH   9  10
ENDBRANCH   3   8
TORSDOF 0
ENDMDL
MODEL 6
REMARK VINA RESULT:    -4.584     17.065     18.526
REMARK INTER + INTRA:          -4.896
REMARK INTER:                  -5.941
REMARK INTRA:                   1.045
REMARK UNBOUND:                 0.760
REMARK SMILES CC1=CC=CC(C)(C)CC1=O
REMARK SMILES IDX 1 1 2 2 3 3 10 4 11 5 9 6 4 8 5 9 6 10 7 11 8 12
REMARK H PARENT
REMARK Flexibility Score: 80.00
ROOT
ATOM      1  C   UNL     1     -26.009  23.076  14.538  1.00  0.00     0.048 C 
ATOM      2  C   UNL     1     -27.345  23.249  13.853  1.00  0.00    -0.008 C 
ATOM      3  C   UNL     1     -27.392  24.049  12.766  1.00  0.00     0.007 C 
ENDROOT
BRANCH   2   4
ATOM      4  C   UNL     1     -28.516  22.582  14.475  1.00  0.00     0.159 C 
ATOM      5  O   UNL     1     -28.316  21.680  15.335  1.00  0.00    -0.295 OA
BRANCH   4   6
ATOM      6  C   UNL     1     -29.935  22.912  14.130  1.00  0.00     0.091 CG0
ATOM      7  G   UNL     1     -30.263  22.700  12.634  1.00  0.00     0.000 G0
ENDBRANCH   4   6
ENDBRANCH   2   4
BRANCH   3   8
ATOM      8  C   UNL     1     -28.542  24.429  11.912  1.00  0.00    -0.003 C 
ATOM      9  C   UNL     1     -29.762  23.883  11.849  1.00  0.00    -0.020 C 
BRANCH   9  10
ATOM     10  C   UNL     1     -30.257  22.697  12.642  1.00  0.00    -0.010 CG0
ATOM     11  C   UNL     1     -29.504  21.438  12.154  1.00  0.00     0.016 C 
ATOM     12  C   UNL     1     -31.766  22.480  12.383  1.00  0.00     0.016 C 
ATOM     13  G   UNL     1     -29.933  22.900  14.140  1.00  0.00     0.000 G0
ENDBRANCH   9  10
ENDBRANCH   3   8
TORSDOF 0
ENDMDL
MODEL 7
REMARK VINA RESULT:    -4.559      1.481      2.495
REMARK INTER + INTRA:          -4.866
REMARK INTER:                  -5.633
REMARK INTRA:                   0.767
REMARK UNBOUND:                 0.760
REMARK SMILES CC1=CC=CC(C)(C)CC1=O
REMARK SMILES IDX 1 1 2 2 3 3 10 4 11 5 9 6 4 8 5 9 6 10 7 11 8 12
REMARK H PARENT
REMARK Flexibility Score: 80.00
ROOT
ATOM      1  C   UNL     1     -18.899  35.080  11.487  1.00  0.00     0.048 C 
ATOM      2  C   UNL     1     -18.532  35.818  12.753  1.00  0.00    -0.008 C 
ATOM      3  C   UNL     1     -19.536  36.174  13.584  1.00  0.00     0.007 C 
ENDROOT
BRANCH   2   4
ATOM      4  C   UNL     1     -17.100  36.158  12.948  1.00  0.00     0.159 C 
ATOM      5  O   UNL     1     -16.302  36.001  11.983  1.00  0.00    -0.295 OA
BRANCH   4   6
ATOM      6  C   UNL     1     -16.540  36.670  14.238  1.00  0.00     0.091 CG0
ATOM      7  G   UNL     1     -17.188  37.995  14.701  1.00  0.00     0.000 G0
ENDBRANCH   4   6
ENDBRANCH   2   4
BRANCH   3   8
ATOM      8  C   UNL     1     -19.493  36.917  14.865  1.00  0.00    -0.003 C 
ATOM      9  C   UNL     1     -18.523  37.696  15.357  1.00  0.00    -0.020 C 
BRANCH   9  10
ATOM     10  C   UNL     1     -17.191  37.988  14.708  1.00  0.00    -0.010 CG0
ATOM     11  C   UNL     1     -16.267  38.633  15.766  1.00  0.00     0.016 C 
ATOM     12  C   UNL     1     -17.375  39.001  13.554  1.00  0.00     0.016 C 
ATOM     13  G   UNL     1     -16.539  36.666  14.242  1.00  0.00     0.000 G0
ENDBRANCH   9  10
ENDBRANCH   3   8
TORSDOF 0
ENDMDL
MODEL 8
REMARK VINA RESULT:    -4.530      1.422      2.426
REMARK INTER + INTRA:          -4.829
REMARK INTER:                  -5.905
REMARK INTRA:                   1.075
REMARK UNBOUND:                 0.760
REMARK SMILES CC1=CC=CC(C)(C)CC1=O
REMARK SMILES IDX 1 1 2 2 3 3 10 4 11 5 9 6 4 8 5 9 6 10 7 11 8 12
REMARK H PARENT
REMARK Flexibility Score: 80.00
ROOT
ATOM      1  C   UNL     1     -20.494  36.376  14.743  1.00  0.00     0.048 C 
ATOM      2  C   UNL     1     -19.104  36.292  14.157  1.00  0.00    -0.008 C 
ATOM      3  C   UNL     1     -18.849  35.285  13.292  1.00  0.00     0.007 C 
ENDROOT
BRANCH   2   4
ATOM      4  C   UNL     1     -18.106  37.281  14.636  1.00  0.00     0.159 C 
ATOM      5  O   UNL     1     -18.513  38.300  15.261  1.00  0.00    -0.295 OA
BRANCH   4   6
ATOM      6  C   UNL     1     -16.633  37.146  14.407  1.00  0.00     0.091 CG0
ATOM      7  G   UNL     1     -16.254  37.065  12.911  1.00  0.00     0.000 G0
ENDBRANCH   4   6
ENDBRANCH   2   4
BRANCH   3   8
ATOM      8  C   UNL     1     -17.595  34.932  12.587  1.00  0.00    -0.003 C 
ATOM      9  C   UNL     1     -16.484  35.661  12.423  1.00  0.00    -0.020 C 
BRANCH   9  10
ATOM     10  C   UNL     1     -16.255  37.070  12.916  1.00  0.00    -0.010 CG0
ATOM     11  C   UNL     1     -17.194  38.016  12.133  1.00  0.00     0.016 C 
ATOM     12  C   UNL     1     -14.798  37.500  12.628  1.00  0.00     0.016 C 
ATOM     13  G   UNL     1     -16.619  37.164  14.415  1.00  0.00     0.000 G0
ENDBRANCH   9  10
ENDBRANCH   3   8
TORSDOF 0
ENDMDL
MODEL 9
REMARK VINA RESULT:    -4.298     16.563     17.840
REMARK INTER + INTRA:          -4.544
REMARK INTER:                  -5.307
REMARK INTRA:                   0.763
REMARK UNBOUND:                 0.760
REMARK SMILES CC1=CC=CC(C)(C)CC1=O
REMARK SMILES IDX 1 1 2 2 3 3 10 4 11 5 9 6 4 8 5 9 6 10 7 11 8 12
REMARK H PARENT
REMARK Flexibility Score: 80.00
ROOT
ATOM      1  C   UNL     1     -28.178  21.584  15.951  1.00  0.00     0.048 C 
ATOM      2  C   UNL     1     -28.647  22.445  14.801  1.00  0.00    -0.008 C 
ATOM      3  C   UNL     1     -29.926  22.297  14.390  1.00  0.00     0.007 C 
ENDROOT
BRANCH   2   4
ATOM      4  C   UNL     1     -27.642  23.333  14.166  1.00  0.00     0.159 C 
ATOM      5  O   UNL     1     -26.426  23.190  14.471  1.00  0.00    -0.295 OA
BRANCH   4   6
ATOM      6  C   UNL     1     -27.992  24.408  13.185  1.00  0.00     0.091 CG0
ATOM      7  G   UNL     1     -28.702  23.873  11.921  1.00  0.00     0.000 G0
ENDBRANCH   4   6
ENDBRANCH   2   4
BRANCH   3   8
ATOM      8  C   UNL     1     -30.655  22.970  13.290  1.00  0.00    -0.003 C 
ATOM      9  C   UNL     1     -30.167  23.636  12.237  1.00  0.00    -0.020 C 
BRANCH   9  10
ATOM     10  C   UNL     1     -28.709  23.887  11.931  1.00  0.00    -0.010 CG0
ATOM     11  C   UNL     1     -28.623  24.980  10.842  1.00  0.00     0.016 C 
ATOM     12  C   UNL     1     -28.058  22.601  11.369  1.00  0.00     0.016 C 
ATOM     13  G   UNL     1     -27.994  24.411  13.197  1.00  0.00     0.000 G0
ENDBRANCH   9  10
ENDBRANCH   3   8
TORSDOF 0
ENDMDL
