MODEL 1
REMARK VINA RESULT:     9.067      0.000      0.000
REMARK INTER + INTRA:          15.831
REMARK INTER:                  15.959
REMARK INTRA:                  -0.127
REMARK UNBOUND:                -0.127
REMARK SMILES CCCCCCC=CCCCCCCCC(=O)[O-]
REMARK SMILES IDX 10 1 11 2 12 3 13 4 14 5 15 6 16 7 17 8 18 9 9 10 8 11 7 12
REMARK SMILES IDX 6 13 5 14 4 15 3 16 2 17 1 18
REMARK H PARENT
REMARK Flexibility Score: inf
ROOT
ATOM      1  C   UNL     1       4.042  41.793  11.950  1.00  0.00     0.004 C 
ENDROOT
BRANCH   1   2
ATOM      2  C   UNL     1       4.956  42.066  10.743  1.00  0.00     0.000 C 
BRANCH   2   3
ATOM      3  C   UNL     1       4.433  43.207   9.853  1.00  0.00     0.000 C 
BRANCH   3   4
ATOM      4  C   UNL     1       4.937  43.113   8.401  1.00  0.00     0.000 C 
BRANCH   4   5
ATOM      5  C   UNL     1       6.410  42.698   8.246  1.00  0.00     0.006 C 
BRANCH   5   6
ATOM      6  C   UNL     1       6.886  42.710   6.788  1.00  0.00     0.053 C 
BRANCH   6   7
ATOM      7  C   UNL     1       8.271  42.153   6.684  1.00  0.00     0.041 C 
ATOM      8  O   UNL     1       8.479  41.085   6.051  1.00  0.00    -0.550 OA
ATOM      9  O   UNL     1       9.340  42.842   7.243  1.00  0.00    -0.550 OA
ENDBRANCH   6   7
ENDBRANCH   5   6
ENDBRANCH   4   5
ENDBRANCH   3   4
ENDBRANCH   2   3
ENDBRANCH   1   2
BRANCH   1  10
ATOM     10  C   UNL     1       4.736  40.969  13.044  1.00  0.00     0.027 C 
BRANCH  10  11
ATOM     11  C   UNL     1       3.784  40.654  14.172  1.00  0.00    -0.031 C 
ATOM     12  C   UNL     1       3.989  39.672  15.068  1.00  0.00    -0.031 C 
BRANCH  12  13
ATOM     13  C   UNL     1       5.164  38.725  15.041  1.00  0.00     0.027 C 
BRANCH  13  14
ATOM     14  C   UNL     1       6.275  39.157  16.011  1.00  0.00     0.004 C 
BRANCH  14  15
ATOM     15  C   UNL     1       7.607  38.449  15.718  1.00  0.00     0.000 C 
BRANCH  15  16
ATOM     16  C   UNL     1       8.644  39.440  15.168  1.00  0.00    -0.000 C 
BRANCH  16  17
ATOM     17  C   UNL     1       8.033  40.813  14.843  1.00  0.00    -0.003 C 
ATOM     18  C   UNL     1       7.657  41.605  16.094  1.00  0.00     0.004 C 
ENDBRANCH  16  17
ENDBRANCH  15  16
ENDBRANCH  14  15
ENDBRANCH  13  14
ENDBRANCH  12  13
ENDBRANCH  10  11
ENDBRANCH   1  10
TORSDOF 13
ENDMDL
MODEL 2
REMARK VINA RESULT:    10.244      1.238      2.109
REMARK INTER + INTRA:          17.903
REMARK INTER:                  18.474
REMARK INTRA:                  -0.571
REMARK UNBOUND:                -0.127
REMARK SMILES CCCCCCC=CCCCCCCCC(=O)[O-]
REMARK SMILES IDX 10 1 11 2 12 3 13 4 14 5 15 6 16 7 17 8 18 9 9 10 8 11 7 12
REMARK SMILES IDX 6 13 5 14 4 15 3 16 2 17 1 18
REMARK H PARENT
REMARK Flexibility Score: inf
ROOT
ATOM      1  C   UNL     1       4.127  42.392  10.336  1.00  0.00     0.004 C 
ENDROOT
BRANCH   1   2
ATOM      2  C   UNL     1       5.044  43.156   9.366  1.00  0.00     0.000 C 
BRANCH   2   3
ATOM      3  C   UNL     1       6.290  42.346   8.969  1.00  0.00     0.000 C 
BRANCH   3   4
ATOM      4  C   UNL     1       6.810  42.696   7.562  1.00  0.00     0.000 C 
BRANCH   4   5
ATOM      5  C   UNL     1       8.219  42.172   7.236  1.00  0.00     0.006 C 
BRANCH   5   6
ATOM      6  C   UNL     1       8.591  42.332   5.757  1.00  0.00     0.053 C 
BRANCH   6   7
ATOM      7  C   UNL     1       8.947  41.007   5.160  1.00  0.00     0.041 C 
ATOM      8  O   UNL     1       8.964  39.973   5.878  1.00  0.00    -0.550 OA
ATOM      9  O   UNL     1       9.211  40.906   3.800  1.00  0.00    -0.550 OA
ENDBRANCH   6   7
ENDBRANCH   5   6
ENDBRANCH   4   5
ENDBRANCH   3   4
ENDBRANCH   2   3
ENDBRANCH   1   2
BRANCH   1  10
ATOM     10  C   UNL     1       4.875  41.874  11.573  1.00  0.00     0.027 C 
BRANCH  10  11
ATOM     11  C   UNL     1       3.914  41.553  12.692  1.00  0.00    -0.031 C 
ATOM     12  C   UNL     1       4.282  40.970  13.847  1.00  0.00    -0.031 C 
BRANCH  12  13
ATOM     13  C   UNL     1       5.687  40.513  14.160  1.00  0.00     0.027 C 
BRANCH  13  14
ATOM     14  C   UNL     1       5.706  39.390  15.208  1.00  0.00     0.004 C 
BRANCH  14  15
ATOM     15  C   UNL     1       7.112  39.159  15.784  1.00  0.00     0.000 C 
BRANCH  15  16
ATOM     16  C   UNL     1       8.137  40.087  15.113  1.00  0.00    -0.000 C 
BRANCH  16  17
ATOM     17  C   UNL     1       9.396  39.336  14.650  1.00  0.00    -0.003 C 
ATOM     18  C   UNL     1      10.193  38.744  15.812  1.00  0.00     0.004 C 
ENDBRANCH  16  17
ENDBRANCH  15  16
ENDBRANCH  14  15
ENDBRANCH  13  14
ENDBRANCH  12  13
ENDBRANCH  10  11
ENDBRANCH   1  10
TORSDOF 13
ENDMDL
MODEL 3
REMARK VINA RESULT:    10.555      3.795      8.562
REMARK INTER + INTRA:          18.450
REMARK INTER:                  19.176
REMARK INTRA:                  -0.726
REMARK UNBOUND:                -0.127
REMARK SMILES CCCCCCC=CCCCCCCCC(=O)[O-]
REMARK SMILES IDX 10 1 11 2 12 3 13 4 14 5 15 6 16 7 17 8 18 9 9 10 8 11 7 12
REMARK SMILES IDX 6 13 5 14 4 15 3 16 2 17 1 18
REMARK H PARENT
REMARK Flexibility Score: inf
ROOT
ATOM      1  C   UNL     1       6.644  40.961  12.507  1.00  0.00     0.004 C 
ENDROOT
BRANCH   1   2
ATOM      2  C   UNL     1       7.885  40.630  13.352  1.00  0.00     0.000 C 
BRANCH   2   3
ATOM      3  C   UNL     1       7.568  40.534  14.854  1.00  0.00     0.000 C 
BRANCH   3   4
ATOM      4  C   UNL     1       7.486  39.081  15.358  1.00  0.00     0.000 C 
BRANCH   4   5
ATOM      5  C   UNL     1       6.140  38.379  15.114  1.00  0.00     0.006 C 
BRANCH   5   6
ATOM      6  C   UNL     1       5.058  38.790  16.120  1.00  0.00     0.053 C 
BRANCH   6   7
ATOM      7  C   UNL     1       3.784  39.128  15.410  1.00  0.00     0.041 C 
ATOM      8  O   UNL     1       2.834  38.302  15.386  1.00  0.00    -0.550 OA
ATOM      9  O   UNL     1       3.627  40.376  14.820  1.00  0.00    -0.550 OA
ENDBRANCH   6   7
ENDBRANCH   5   6
ENDBRANCH   4   5
ENDBRANCH   3   4
ENDBRANCH   2   3
ENDBRANCH   1   2
BRANCH   1  10
ATOM     10  C   UNL     1       6.991  41.289  11.047  1.00  0.00     0.027 C 
BRANCH  10  11
ATOM     11  C   UNL     1       5.993  42.256  10.457  1.00  0.00    -0.031 C 
ATOM     12  C   UNL     1       6.005  42.647   9.170  1.00  0.00    -0.031 C 
BRANCH  12  13
ATOM     13  C   UNL     1       7.041  42.216   8.159  1.00  0.00     0.027 C 
BRANCH  13  14
ATOM     14  C   UNL     1       6.851  42.918   6.805  1.00  0.00     0.004 C 
BRANCH  14  15
ATOM     15  C   UNL     1       7.961  42.558   5.805  1.00  0.00     0.000 C 
BRANCH  15  16
ATOM     16  C   UNL     1       8.833  41.414   6.344  1.00  0.00    -0.000 C 
BRANCH  16  17
ATOM     17  C   UNL     1       9.149  40.359   5.272  1.00  0.00    -0.003 C 
ATOM     18  C   UNL     1       9.787  40.959   4.020  1.00  0.00     0.004 C 
ENDBRANCH  16  17
ENDBRANCH  15  16
ENDBRANCH  14  15
ENDBRANCH  13  14
ENDBRANCH  12  13
ENDBRANCH  10  11
ENDBRANCH   1  10
TORSDOF 13
ENDMDL
MODEL 4
REMARK VINA RESULT:    10.710      1.289      2.724
REMARK INTER + INTRA:          18.722
REMARK INTER:                  19.625
REMARK INTRA:                  -0.903
REMARK UNBOUND:                -0.127
REMARK SMILES CCCCCCC=CCCCCCCCC(=O)[O-]
REMARK SMILES IDX 10 1 11 2 12 3 13 4 14 5 15 6 16 7 17 8 18 9 9 10 8 11 7 12
REMARK SMILES IDX 6 13 5 14 4 15 3 16 2 17 1 18
REMARK H PARENT
REMARK Flexibility Score: inf
ROOT
ATOM      1  C   UNL     1       7.402  41.455  12.063  1.00  0.00     0.004 C 
ENDROOT
BRANCH   1   2
ATOM      2  C   UNL     1       6.211  41.518  11.092  1.00  0.00     0.000 C 
BRANCH   2   3
ATOM      3  C   UNL     1       6.175  42.828  10.286  1.00  0.00     0.000 C 
BRANCH   3   4
ATOM      4  C   UNL     1       5.263  42.745   9.048  1.00  0.00     0.000 C 
BRANCH   4   5
ATOM      5  C   UNL     1       5.993  42.787   7.694  1.00  0.00     0.006 C 
BRANCH   5   6
ATOM      6  C   UNL     1       7.395  42.167   7.749  1.00  0.00     0.053 C 
BRANCH   6   7
ATOM      7  C   UNL     1       8.051  42.234   6.406  1.00  0.00     0.041 C 
ATOM      8  O   UNL     1       8.762  41.278   6.000  1.00  0.00    -0.550 OA
ATOM      9  O   UNL     1       7.835  43.331   5.581  1.00  0.00    -0.550 OA
ENDBRANCH   6   7
ENDBRANCH   5   6
ENDBRANCH   4   5
ENDBRANCH   3   4
ENDBRANCH   2   3
ENDBRANCH   1   2
BRANCH   1  10
ATOM     10  C   UNL     1       7.235  40.369  13.135  1.00  0.00     0.027 C 
BRANCH  10  11
ATOM     11  C   UNL     1       7.359  40.952  14.522  1.00  0.00    -0.031 C 
ATOM     12  C   UNL     1       8.020  40.352  15.527  1.00  0.00    -0.031 C 
BRANCH  12  13
ATOM     13  C   UNL     1       8.682  38.998  15.423  1.00  0.00     0.027 C 
BRANCH  13  14
ATOM     14  C   UNL     1       7.661  37.875  15.186  1.00  0.00     0.004 C 
BRANCH  14  15
ATOM     15  C   UNL     1       6.448  37.987  16.123  1.00  0.00     0.000 C 
BRANCH  15  16
ATOM     16  C   UNL     1       5.135  37.923  15.329  1.00  0.00    -0.000 C 
BRANCH  16  17
ATOM     17  C   UNL     1       4.095  38.940  15.826  1.00  0.00    -0.003 C 
ATOM     18  C   UNL     1       3.810  40.042  14.807  1.00  0.00     0.004 C 
ENDBRANCH  16  17
ENDBRANCH  15  16
ENDBRANCH  14  15
ENDBRANCH  13  14
ENDBRANCH  12  13
ENDBRANCH  10  11
ENDBRANCH   1  10
TORSDOF 13
ENDMDL
MODEL 5
REMARK VINA RESULT:    10.972      3.112      7.965
REMARK INTER + INTRA:          19.183
REMARK INTER:                  19.642
REMARK INTRA:                  -0.458
REMARK UNBOUND:                -0.127
REMARK SMILES CCCCCCC=CCCCCCCCC(=O)[O-]
REMARK SMILES IDX 10 1 11 2 12 3 13 4 14 5 15 6 16 7 17 8 18 9 9 10 8 11 7 12
REMARK SMILES IDX 6 13 5 14 4 15 3 16 2 17 1 18
REMARK H PARENT
REMARK Flexibility Score: inf
ROOT
ATOM      1  C   UNL     1       3.875  41.567  12.679  1.00  0.00     0.004 C 
ENDROOT
BRANCH   1   2
ATOM      2  C   UNL     1       4.596  40.810  13.807  1.00  0.00     0.000 C 
BRANCH   2   3
ATOM      3  C   UNL     1       3.720  39.714  14.436  1.00  0.00     0.000 C 
BRANCH   3   4
ATOM      4  C   UNL     1       4.298  39.168  15.755  1.00  0.00     0.000 C 
BRANCH   4   5
ATOM      5  C   UNL     1       5.672  38.485  15.633  1.00  0.00     0.006 C 
BRANCH   5   6
ATOM      6  C   UNL     1       6.826  39.368  16.125  1.00  0.00     0.053 C 
BRANCH   6   7
ATOM      7  C   UNL     1       8.052  39.134  15.299  1.00  0.00     0.041 C 
ATOM      8  O   UNL     1       8.520  40.059  14.585  1.00  0.00    -0.550 OA
ATOM      9  O   UNL     1       8.708  37.911  15.359  1.00  0.00    -0.550 OA
ENDBRANCH   6   7
ENDBRANCH   5   6
ENDBRANCH   4   5
ENDBRANCH   3   4
ENDBRANCH   2   3
ENDBRANCH   1   2
BRANCH   1  10
ATOM     10  C   UNL     1       4.817  41.962  11.533  1.00  0.00     0.027 C 
BRANCH  10  11
ATOM     11  C   UNL     1       4.043  42.506  10.357  1.00  0.00    -0.031 C 
ATOM     12  C   UNL     1       4.621  42.994   9.245  1.00  0.00    -0.031 C 
BRANCH  12  13
ATOM     13  C   UNL     1       6.112  43.110   9.042  1.00  0.00     0.027 C 
BRANCH  13  14
ATOM     14  C   UNL     1       6.528  42.747   7.608  1.00  0.00     0.004 C 
BRANCH  14  15
ATOM     15  C   UNL     1       7.834  41.939   7.570  1.00  0.00     0.000 C 
BRANCH  15  16
ATOM     16  C   UNL     1       8.558  42.130   6.228  1.00  0.00    -0.000 C 
BRANCH  16  17
ATOM     17  C   UNL     1       8.518  40.868   5.351  1.00  0.00    -0.003 C 
ATOM     18  C   UNL     1       9.550  40.897   4.225  1.00  0.00     0.004 C 
ENDBRANCH  16  17
ENDBRANCH  15  16
ENDBRANCH  14  15
ENDBRANCH  13  14
ENDBRANCH  12  13
ENDBRANCH  10  11
ENDBRANCH   1  10
TORSDOF 13
ENDMDL
MODEL 6
REMARK VINA RESULT:    11.270      2.980      7.602
REMARK INTER + INTRA:          19.708
REMARK INTER:                  20.363
REMARK INTRA:                  -0.656
REMARK UNBOUND:                -0.127
REMARK SMILES CCCCCCC=CCCCCCCCC(=O)[O-]
REMARK SMILES IDX 10 1 11 2 12 3 13 4 14 5 15 6 16 7 17 8 18 9 9 10 8 11 7 12
REMARK SMILES IDX 6 13 5 14 4 15 3 16 2 17 1 18
REMARK H PARENT
REMARK Flexibility Score: inf
ROOT
ATOM      1  C   UNL     1       3.868  41.364  12.634  1.00  0.00     0.004 C 
ENDROOT
BRANCH   1   2
ATOM      2  C   UNL     1       4.724  40.981  13.853  1.00  0.00     0.000 C 
BRANCH   2   3
ATOM      3  C   UNL     1       3.943  40.152  14.886  1.00  0.00     0.000 C 
BRANCH   3   4
ATOM      4  C   UNL     1       4.785  39.022  15.509  1.00  0.00     0.000 C 
BRANCH   4   5
ATOM      5  C   UNL     1       6.149  39.458  16.072  1.00  0.00     0.006 C 
BRANCH   5   6
ATOM      6  C   UNL     1       7.327  38.715  15.429  1.00  0.00     0.053 C 
BRANCH   6   7
ATOM      7  C   UNL     1       8.412  39.677  15.058  1.00  0.00     0.041 C 
ATOM      8  O   UNL     1       8.183  40.914  15.040  1.00  0.00    -0.550 OA
ATOM      9  O   UNL     1       9.691  39.209  14.781  1.00  0.00    -0.550 OA
ENDBRANCH   6   7
ENDBRANCH   5   6
ENDBRANCH   4   5
ENDBRANCH   3   4
ENDBRANCH   2   3
ENDBRANCH   1   2
BRANCH   1  10
ATOM     10  C   UNL     1       4.704  41.926  11.475  1.00  0.00     0.027 C 
BRANCH  10  11
ATOM     11  C   UNL     1       3.818  42.410  10.353  1.00  0.00    -0.031 C 
ATOM     12  C   UNL     1       4.276  43.072   9.275  1.00  0.00    -0.031 C 
BRANCH  12  13
ATOM     13  C   UNL     1       5.719  43.464   9.065  1.00  0.00     0.027 C 
BRANCH  13  14
ATOM     14  C   UNL     1       6.535  42.331   8.424  1.00  0.00     0.004 C 
BRANCH  14  15
ATOM     15  C   UNL     1       6.992  42.681   6.999  1.00  0.00     0.000 C 
BRANCH  15  16
ATOM     16  C   UNL     1       7.926  41.596   6.441  1.00  0.00    -0.000 C 
BRANCH  16  17
ATOM     17  C   UNL     1       9.310  42.147   6.063  1.00  0.00    -0.003 C 
ATOM     18  C   UNL     1       9.862  43.123   7.102  1.00  0.00     0.004 C 
ENDBRANCH  16  17
ENDBRANCH  15  16
ENDBRANCH  14  15
ENDBRANCH  13  14
ENDBRANCH  12  13
ENDBRANCH  10  11
ENDBRANCH   1  10
TORSDOF 13
ENDMDL
