MODEL 1
REMARK VINA RESULT:    -4.046      0.000      0.000
REMARK INTER + INTRA:          -5.205
REMARK INTER:                  -4.992
REMARK INTRA:                  -0.212
REMARK UNBOUND:                -0.212
REMARK SMILES CCCCC=CC(C)=O
REMARK SMILES IDX 4 1 3 2 2 3 1 4 5 5 6 6 7 7 9 8 8 9
REMARK H PARENT
REMARK Flexibility Score: inf
ROOT
ATOM      1  C   UNL     1     -15.982 -37.585 210.763  1.00  0.00     0.027 C 
ENDROOT
BRANCH   1   2
ATOM      2  C   UNL     1     -16.967 -37.530 211.938  1.00  0.00     0.004 C 
BRANCH   2   3
ATOM      3  C   UNL     1     -16.590 -38.548 213.018  1.00  0.00    -0.003 C 
ATOM      4  C   UNL     1     -16.825 -39.976 212.535  1.00  0.00     0.004 C 
ENDBRANCH   2   3
ENDBRANCH   1   2
BRANCH   1   5
ATOM      5  C   UNL     1     -16.695 -37.837 209.466  1.00  0.00    -0.023 C 
ATOM      6  C   UNL     1     -17.818 -37.181 209.148  1.00  0.00     0.042 C 
BRANCH   6   7
ATOM      7  C   UNL     1     -18.548 -37.387 207.881  1.00  0.00     0.152 C 
ATOM      8  O   UNL     1     -18.549 -38.536 207.365  1.00  0.00    -0.295 OA
ATOM      9  C   UNL     1     -19.287 -36.281 207.189  1.00  0.00     0.093 C 
ENDBRANCH   6   7
ENDBRANCH   1   5
TORSDOF 4
ENDMDL
MODEL 2
REMARK VINA RESULT:    -3.636     13.605     15.110
REMARK INTER + INTRA:          -4.698
REMARK INTER:                  -4.500
REMARK INTRA:                  -0.198
REMARK UNBOUND:                -0.212
REMARK SMILES CCCCC=CC(C)=O
REMARK SMILES IDX 4 1 3 2 2 3 1 4 5 5 6 6 7 7 9 8 8 9
REMARK H PARENT
REMARK Flexibility Score: inf
ROOT
ATOM      1  C   UNL     1      -4.070 -38.019 215.746  1.00  0.00     0.027 C 
ENDROOT
BRANCH   1   2
ATOM      2  C   UNL     1      -5.243 -38.962 215.447  1.00  0.00     0.004 C 
BRANCH   2   3
ATOM      3  C   UNL     1      -6.310 -38.258 214.602  1.00  0.00    -0.003 C 
ATOM      4  C   UNL     1      -7.359 -39.248 214.105  1.00  0.00     0.004 C 
ENDBRANCH   2   3
ENDBRANCH   1   2
BRANCH   1   5
ATOM      5  C   UNL     1      -2.846 -38.410 214.971  1.00  0.00    -0.023 C 
ATOM      6  C   UNL     1      -2.811 -39.532 214.241  1.00  0.00     0.042 C 
BRANCH   6   7
ATOM      7  C   UNL     1      -1.634 -39.952 213.454  1.00  0.00     0.152 C 
ATOM      8  O   UNL     1      -1.662 -39.810 212.203  1.00  0.00    -0.295 OA
ATOM      9  C   UNL     1      -0.409 -40.539 214.090  1.00  0.00     0.093 C 
ENDBRANCH   6   7
ENDBRANCH   1   5
TORSDOF 4
ENDMDL
MODEL 3
REMARK VINA RESULT:    -3.600      2.813      3.841
REMARK INTER + INTRA:          -4.654
REMARK INTER:                  -4.416
REMARK INTRA:                  -0.237
REMARK UNBOUND:                -0.212
REMARK SMILES CCCCC=CC(C)=O
REMARK SMILES IDX 4 1 3 2 2 3 1 4 5 5 6 6 7 7 9 8 8 9
REMARK H PARENT
REMARK Flexibility Score: inf
ROOT
ATOM      1  C   UNL     1     -17.014 -37.661 209.797  1.00  0.00     0.027 C 
ENDROOT
BRANCH   1   2
ATOM      2  C   UNL     1     -17.907 -38.052 210.981  1.00  0.00     0.004 C 
BRANCH   2   3
ATOM      3  C   UNL     1     -17.263 -37.645 212.311  1.00  0.00    -0.003 C 
ATOM      4  C   UNL     1     -16.618 -38.844 213.000  1.00  0.00     0.004 C 
ENDBRANCH   2   3
ENDBRANCH   1   2
BRANCH   1   5
ATOM      5  C   UNL     1     -16.262 -38.847 209.267  1.00  0.00    -0.023 C 
ATOM      6  C   UNL     1     -15.043 -39.163 209.724  1.00  0.00     0.042 C 
BRANCH   6   7
ATOM      7  C   UNL     1     -14.271 -40.325 209.241  1.00  0.00     0.152 C 
ATOM      8  O   UNL     1     -14.384 -41.420 209.853  1.00  0.00    -0.295 OA
ATOM      9  C   UNL     1     -13.363 -40.249 208.051  1.00  0.00     0.093 C 
ENDBRANCH   6   7
ENDBRANCH   1   5
TORSDOF 4
ENDMDL
MODEL 4
REMARK VINA RESULT:    -3.595     14.020     15.341
REMARK INTER + INTRA:          -4.648
REMARK INTER:                  -4.404
REMARK INTRA:                  -0.245
REMARK UNBOUND:                -0.212
REMARK SMILES CCCCC=CC(C)=O
REMARK SMILES IDX 4 1 3 2 2 3 1 4 5 5 6 6 7 7 9 8 8 9
REMARK H PARENT
REMARK Flexibility Score: inf
ROOT
ATOM      1  C   UNL     1      -4.835 -38.752 215.283  1.00  0.00     0.027 C 
ENDROOT
BRANCH   1   2
ATOM      2  C   UNL     1      -3.657 -37.802 215.533  1.00  0.00     0.004 C 
BRANCH   2   3
ATOM      3  C   UNL     1      -2.329 -38.461 215.148  1.00  0.00    -0.003 C 
ATOM      4  C   UNL     1      -2.532 -39.516 214.065  1.00  0.00     0.004 C 
ENDBRANCH   2   3
ENDBRANCH   1   2
BRANCH   1   5
ATOM      5  C   UNL     1      -5.498 -39.148 216.570  1.00  0.00    -0.023 C 
ATOM      6  C   UNL     1      -5.052 -38.702 217.751  1.00  0.00     0.042 C 
BRANCH   6   7
ATOM      7  C   UNL     1      -5.678 -39.056 219.041  1.00  0.00     0.152 C 
ATOM      8  O   UNL     1      -6.736 -39.738 219.032  1.00  0.00    -0.295 OA
ATOM      9  C   UNL     1      -5.097 -38.635 220.358  1.00  0.00     0.093 C 
ENDBRANCH   6   7
ENDBRANCH   1   5
TORSDOF 4
ENDMDL
MODEL 5
REMARK VINA RESULT:    -3.559     12.478     13.944
REMARK INTER + INTRA:          -4.603
REMARK INTER:                  -4.362
REMARK INTRA:                  -0.241
REMARK UNBOUND:                -0.212
REMARK SMILES CCCCC=CC(C)=O
REMARK SMILES IDX 4 1 3 2 2 3 1 4 5 5 6 6 7 7 9 8 8 9
REMARK H PARENT
REMARK Flexibility Score: inf
ROOT
ATOM      1  C   UNL     1      -3.599 -37.955 215.556  1.00  0.00     0.027 C 
ENDROOT
BRANCH   1   2
ATOM      2  C   UNL     1      -2.262 -38.524 215.062  1.00  0.00     0.004 C 
BRANCH   2   3
ATOM      3  C   UNL     1      -2.454 -39.909 214.435  1.00  0.00    -0.003 C 
ATOM      4  C   UNL     1      -1.921 -39.944 213.005  1.00  0.00     0.004 C 
ENDBRANCH   2   3
ENDBRANCH   1   2
BRANCH   1   5
ATOM      5  C   UNL     1      -4.726 -38.912 215.299  1.00  0.00    -0.023 C 
ATOM      6  C   UNL     1      -5.929 -38.482 214.897  1.00  0.00     0.042 C 
BRANCH   6   7
ATOM      7  C   UNL     1      -7.064 -39.386 214.621  1.00  0.00     0.152 C 
ATOM      8  O   UNL     1      -7.839 -39.109 213.668  1.00  0.00    -0.295 OA
ATOM      9  C   UNL     1      -7.324 -40.620 215.432  1.00  0.00     0.093 C 
ENDBRANCH   6   7
ENDBRANCH   1   5
TORSDOF 4
ENDMDL
MODEL 6
REMARK VINA RESULT:    -3.522     12.750     14.764
REMARK INTER + INTRA:          -4.558
REMARK INTER:                  -4.320
REMARK INTRA:                  -0.239
REMARK UNBOUND:                -0.212
REMARK SMILES CCCCC=CC(C)=O
REMARK SMILES IDX 4 1 3 2 2 3 1 4 5 5 6 6 7 7 9 8 8 9
REMARK H PARENT
REMARK Flexibility Score: inf
ROOT
ATOM      1  C   UNL     1      -4.053 -38.408 215.951  1.00  0.00     0.027 C 
ENDROOT
BRANCH   1   2
ATOM      2  C   UNL     1      -4.886 -39.171 214.913  1.00  0.00     0.004 C 
BRANCH   2   3
ATOM      3  C   UNL     1      -6.234 -38.482 214.677  1.00  0.00    -0.003 C 
ATOM      4  C   UNL     1      -7.358 -39.505 214.537  1.00  0.00     0.004 C 
ENDBRANCH   2   3
ENDBRANCH   1   2
BRANCH   1   5
ATOM      5  C   UNL     1      -4.813 -38.227 217.232  1.00  0.00    -0.023 C 
ATOM      6  C   UNL     1      -4.908 -39.213 218.133  1.00  0.00     0.042 C 
BRANCH   6   7
ATOM      7  C   UNL     1      -5.635 -39.078 219.412  1.00  0.00     0.152 C 
ATOM      8  O   UNL     1      -6.842 -39.435 219.460  1.00  0.00    -0.295 OA
ATOM      9  C   UNL     1      -4.989 -38.534 220.651  1.00  0.00     0.093 C 
ENDBRANCH   6   7
ENDBRANCH   1   5
TORSDOF 4
ENDMDL
MODEL 7
REMARK VINA RESULT:    -3.464      2.218      5.177
REMARK INTER + INTRA:          -4.487
REMARK INTER:                  -4.322
REMARK INTRA:                  -0.165
REMARK UNBOUND:                -0.212
REMARK SMILES CCCCC=CC(C)=O
REMARK SMILES IDX 4 1 3 2 2 3 1 4 5 5 6 6 7 7 9 8 8 9
REMARK H PARENT
REMARK Flexibility Score: inf
ROOT
ATOM      1  C   UNL     1     -18.009 -37.209 208.738  1.00  0.00     0.027 C 
ENDROOT
BRANCH   1   2
ATOM      2  C   UNL     1     -19.366 -37.838 208.395  1.00  0.00     0.004 C 
BRANCH   2   3
ATOM      3  C   UNL     1     -19.952 -37.219 207.122  1.00  0.00    -0.003 C 
ATOM      4  C   UNL     1     -19.477 -35.780 206.941  1.00  0.00     0.004 C 
ENDBRANCH   2   3
ENDBRANCH   1   2
BRANCH   1   5
ATOM      5  C   UNL     1     -17.279 -38.020 209.768  1.00  0.00    -0.023 C 
ATOM      6  C   UNL     1     -17.481 -37.830 211.078  1.00  0.00     0.042 C 
BRANCH   6   7
ATOM      7  C   UNL     1     -16.794 -38.610 212.128  1.00  0.00     0.152 C 
ATOM      8  O   UNL     1     -16.082 -37.996 212.966  1.00  0.00    -0.295 OA
ATOM      9  C   UNL     1     -16.916 -40.100 212.231  1.00  0.00     0.093 C 
ENDBRANCH   6   7
ENDBRANCH   1   5
TORSDOF 4
ENDMDL
MODEL 8
REMARK VINA RESULT:    -3.442     11.853     13.334
REMARK INTER + INTRA:          -4.460
REMARK INTER:                  -4.291
REMARK INTRA:                  -0.168
REMARK UNBOUND:                -0.212
REMARK SMILES CCCCC=CC(C)=O
REMARK SMILES IDX 4 1 3 2 2 3 1 4 5 5 6 6 7 7 9 8 8 9
REMARK H PARENT
REMARK Flexibility Score: inf
ROOT
ATOM      1  C   UNL     1      -4.346 -38.369 216.663  1.00  0.00     0.027 C 
ENDROOT
BRANCH   1   2
ATOM      2  C   UNL     1      -5.079 -39.092 217.800  1.00  0.00     0.004 C 
BRANCH   2   3
ATOM      3  C   UNL     1      -5.237 -38.178 219.020  1.00  0.00    -0.003 C 
ATOM      4  C   UNL     1      -6.189 -38.786 220.045  1.00  0.00     0.004 C 
ENDBRANCH   2   3
ENDBRANCH   1   2
BRANCH   1   5
ATOM      5  C   UNL     1      -5.036 -38.583 215.348  1.00  0.00    -0.023 C 
ATOM      6  C   UNL     1      -5.999 -39.503 215.206  1.00  0.00     0.042 C 
BRANCH   6   7
ATOM      7  C   UNL     1      -6.713 -39.742 213.936  1.00  0.00     0.152 C 
ATOM      8  O   UNL     1      -7.718 -39.032 213.665  1.00  0.00    -0.295 OA
ATOM      9  C   UNL     1      -6.285 -40.796 212.959  1.00  0.00     0.093 C 
ENDBRANCH   6   7
ENDBRANCH   1   5
TORSDOF 4
ENDMDL
MODEL 9
REMARK VINA RESULT:    -3.361     13.995     15.419
REMARK INTER + INTRA:          -4.359
REMARK INTER:                  -4.110
REMARK INTRA:                  -0.249
REMARK UNBOUND:                -0.212
REMARK SMILES CCCCC=CC(C)=O
REMARK SMILES IDX 4 1 3 2 2 3 1 4 5 5 6 6 7 7 9 8 8 9
REMARK H PARENT
REMARK Flexibility Score: inf
ROOT
ATOM      1  C   UNL     1      -4.016 -37.963 215.484  1.00  0.00     0.027 C 
ENDROOT
BRANCH   1   2
ATOM      2  C   UNL     1      -4.848 -38.964 216.296  1.00  0.00     0.004 C 
BRANCH   2   3
ATOM      3  C   UNL     1      -6.061 -39.447 215.494  1.00  0.00    -0.003 C 
ATOM      4  C   UNL     1      -6.540 -38.374 214.521  1.00  0.00     0.004 C 
ENDBRANCH   2   3
ENDBRANCH   1   2
BRANCH   1   5
ATOM      5  C   UNL     1      -2.704 -38.559 215.065  1.00  0.00    -0.023 C 
ATOM      6  C   UNL     1      -2.629 -39.450 214.067  1.00  0.00     0.042 C 
BRANCH   6   7
ATOM      7  C   UNL     1      -1.361 -40.055 213.612  1.00  0.00     0.152 C 
ATOM      8  O   UNL     1      -0.437 -40.222 214.452  1.00  0.00    -0.295 OA
ATOM      9  C   UNL     1      -1.136 -40.478 212.191  1.00  0.00     0.093 C 
ENDBRANCH   6   7
ENDBRANCH   1   5
TORSDOF 4
ENDMDL
