MODEL 1
REMARK VINA RESULT:    -4.575      0.000      0.000
REMARK INTER + INTRA:          -5.409
REMARK INTER:                  -5.511
REMARK INTRA:                   0.103
REMARK UNBOUND:                 0.103
REMARK SMILES Oc1cc(O)c2c(c1)O[C@H](c1ccc(O)c(O)c1)[C@@H](O)C2
REMARK SMILES IDX 21 1 19 2 10 3 9 4 7 5 8 6 2 7 3 8 4 9 6 10 20 11 11 13
REMARK SMILES IDX 18 14 12 15 16 16 13 17 14 18 17 19 15 21 5 23 1 25
REMARK H PARENT 20 12 17 20 15 22 5 24 1 26
REMARK Flexibility Score: inf
ROOT
ATOM      1  C   UNL     1      -4.335  -0.916  -9.134  1.00  0.00     0.079 C 
ATOM      2  C   UNL     1      -4.603  -2.428  -9.005  1.00  0.00     0.164 C 
ATOM      3  C   UNL     1      -5.563  -2.876 -10.125  1.00  0.00     0.232 C 
ATOM      4  O   UNL     1      -6.764  -2.094 -10.088  1.00  0.00    -0.482 OA
ATOM      5  C   UNL     1      -6.790  -0.753  -9.689  1.00  0.00     0.131 A 
ATOM      6  C   UNL     1      -7.996  -0.047  -9.738  1.00  0.00     0.093 A 
ATOM      7  C   UNL     1      -8.047   1.290  -9.333  1.00  0.00     0.122 A 
ATOM      8  C   UNL     1      -6.885   1.924  -8.877  1.00  0.00     0.092 A 
ATOM      9  C   UNL     1      -5.670   1.224  -8.824  1.00  0.00     0.126 A 
ATOM     10  C   UNL     1      -5.623  -0.129  -9.204  1.00  0.00     0.039 A 
ENDROOT
BRANCH   2  11
ATOM     11  O   UNL     1      -3.392  -3.133  -9.098  1.00  0.00    -0.389 OA
ATOM     12  H   UNL     1      -3.332  -3.695  -8.278  1.00  0.00     0.211 HD
ENDBRANCH   2  11
BRANCH   3  13
ATOM     13  C   UNL     1      -5.903  -4.345  -9.997  1.00  0.00    -0.001 A 
ATOM     14  C   UNL     1      -7.230  -4.743  -9.758  1.00  0.00     0.057 A 
ATOM     15  C   UNL     1      -4.905  -5.326 -10.120  1.00  0.00     0.012 A 
ATOM     16  C   UNL     1      -7.550  -6.101  -9.610  1.00  0.00     0.157 A 
ATOM     17  C   UNL     1      -5.220  -6.678  -9.964  1.00  0.00     0.050 A 
ATOM     18  C   UNL     1      -6.538  -7.071  -9.702  1.00  0.00     0.157 A 
BRANCH  16  19
ATOM     19  O   UNL     1      -8.873  -6.460  -9.355  1.00  0.00    -0.504 OA
ATOM     20  H   UNL     1      -9.621  -5.774  -9.345  1.00  0.00     0.293 HD
ENDBRANCH  16  19
BRANCH  18  21
ATOM     21  O   UNL     1      -6.846  -8.420  -9.523  1.00  0.00    -0.504 OA
ATOM     22  H   UNL     1      -6.448  -9.138 -10.119  1.00  0.00     0.293 HD
ENDBRANCH  18  21
ENDBRANCH   3  13
BRANCH   9  23
ATOM     23  O   UNL     1      -4.513   1.871  -8.390  1.00  0.00    -0.507 OA
ATOM     24  H   UNL     1      -3.748   1.357  -7.969  1.00  0.00     0.293 HD
ENDBRANCH   9  23
BRANCH   7  25
ATOM     25  O   UNL     1      -9.255   1.981  -9.392  1.00  0.00    -0.508 OA
ATOM     26  H   UNL     1      -9.502   2.552 -10.194  1.00  0.00     0.293 HD
ENDBRANCH   7  25
TORSDOF 6
ENDMDL
MODEL 2
REMARK VINA RESULT:    -2.100      1.682      6.850
REMARK INTER + INTRA:          -2.427
REMARK INTER:                  -2.639
REMARK INTRA:                   0.212
REMARK UNBOUND:                 0.103
REMARK SMILES Oc1cc(O)c2c(c1)O[C@H](c1ccc(O)c(O)c1)[C@@H](O)C2
REMARK SMILES IDX 21 1 19 2 10 3 9 4 7 5 8 6 2 7 3 8 4 9 6 10 20 11 11 13
REMARK SMILES IDX 18 14 12 15 16 16 13 17 14 18 17 19 15 21 5 23 1 25
REMARK H PARENT 20 12 17 20 15 22 5 24 1 26
REMARK Flexibility Score: inf
ROOT
ATOM      1  C   UNL     1      -3.986  -5.306  -9.552  1.00  0.00     0.079 C 
ATOM      2  C   UNL     1      -3.868  -3.802  -9.863  1.00  0.00     0.164 C 
ATOM      3  C   UNL     1      -4.896  -3.022  -9.021  1.00  0.00     0.232 C 
ATOM      4  O   UNL     1      -6.215  -3.534  -9.251  1.00  0.00    -0.482 OA
ATOM      5  C   UNL     1      -6.473  -4.881  -9.532  1.00  0.00     0.131 A 
ATOM      6  C   UNL     1      -7.795  -5.309  -9.686  1.00  0.00     0.093 A 
ATOM      7  C   UNL     1      -8.074  -6.647  -9.979  1.00  0.00     0.122 A 
ATOM      8  C   UNL     1      -7.024  -7.563 -10.116  1.00  0.00     0.092 A 
ATOM      9  C   UNL     1      -5.694  -7.144  -9.963  1.00  0.00     0.126 A 
ATOM     10  C   UNL     1      -5.410  -5.793  -9.698  1.00  0.00     0.039 A 
ENDROOT
BRANCH   2  11
ATOM     11  O   UNL     1      -2.568  -3.359  -9.570  1.00  0.00    -0.389 OA
ATOM     12  H   UNL     1      -1.950  -3.942 -10.088  1.00  0.00     0.211 HD
ENDBRANCH   2  11
BRANCH   3  13
ATOM     13  C   UNL     1      -4.857  -1.544  -9.343  1.00  0.00    -0.001 A 
ATOM     14  C   UNL     1      -3.657  -0.824  -9.206  1.00  0.00     0.057 A 
ATOM     15  C   UNL     1      -6.010  -0.875  -9.784  1.00  0.00     0.012 A 
ATOM     16  C   UNL     1      -3.617   0.552  -9.474  1.00  0.00     0.157 A 
ATOM     17  C   UNL     1      -5.975   0.497 -10.044  1.00  0.00     0.050 A 
ATOM     18  C   UNL     1      -4.785   1.218  -9.885  1.00  0.00     0.157 A 
BRANCH  16  19
ATOM     19  O   UNL     1      -2.415   1.239  -9.312  1.00  0.00    -0.504 OA
ATOM     20  H   UNL     1      -2.185   1.717  -8.447  1.00  0.00     0.293 HD
ENDBRANCH  16  19
BRANCH  18  21
ATOM     21  O   UNL     1      -4.758   2.592 -10.122  1.00  0.00    -0.504 OA
ATOM     22  H   UNL     1      -5.101   2.986 -10.991  1.00  0.00     0.293 HD
ENDBRANCH  18  21
ENDBRANCH   3  13
BRANCH   9  23
ATOM     23  O   UNL     1      -4.655  -8.068 -10.079  1.00  0.00    -0.507 OA
ATOM     24  H   UNL     1      -4.284  -8.333 -10.983  1.00  0.00     0.293 HD
ENDBRANCH   9  23
BRANCH   7  25
ATOM     25  O   UNL     1      -9.397  -7.058 -10.125  1.00  0.00    -0.508 OA
ATOM     26  H   UNL     1      -9.631  -7.987 -10.459  1.00  0.00     0.293 HD
ENDBRANCH   7  25
TORSDOF 6
ENDMDL
