MODEL 1
REMARK VINA RESULT:    20.468      0.000      0.000
REMARK INTER + INTRA:          24.818
REMARK INTER:                  25.254
REMARK INTRA:                  -0.436
REMARK UNBOUND:                -0.436
REMARK SMILES CC(C)=CCC[C@@H](C)c1ccc(C)cc1
REMARK SMILES IDX 6 1 7 2 8 3 9 4 13 5 12 6 11 7 14 8 10 9 15 10 5 11 4 12
REMARK SMILES IDX 2 13 1 14 3 15
REMARK H PARENT
REMARK Flexibility Score: inf
ROOT
ATOM      1  C   UNL     1      50.755  -8.793  13.664  1.00  0.00     0.012 C 
ENDROOT
BRANCH   1   2
ATOM      2  C   UNL     1      49.472  -9.040  12.839  1.00  0.00     0.016 C 
ATOM      3  C   UNL     1      48.300  -8.159  13.302  1.00  0.00     0.013 C 
BRANCH   2   4
ATOM      4  C   UNL     1      49.744  -8.824  11.361  1.00  0.00    -0.045 A 
ATOM      5  C   UNL     1      50.482  -8.216   7.149  1.00  0.00     0.044 C 
ATOM      6  C   UNL     1      50.243  -8.453   8.610  1.00  0.00    -0.051 A 
ATOM      7  C   UNL     1      51.091  -7.877   9.567  1.00  0.00     0.004 A 
ATOM      8  C   UNL     1      49.132  -9.194   9.034  1.00  0.00     0.004 A 
ATOM      9  C   UNL     1      50.849  -8.066  10.930  1.00  0.00     0.004 A 
ATOM     10  C   UNL     1      48.887  -9.385  10.397  1.00  0.00     0.004 A 
ENDBRANCH   2   4
ENDBRANCH   1   2
BRANCH   1  11
ATOM     11  C   UNL     1      50.611  -9.236  15.128  1.00  0.00     0.028 C 
BRANCH  11  12
ATOM     12  C   UNL     1      51.780  -8.749  15.949  1.00  0.00    -0.028 C 
ATOM     13  C   UNL     1      51.775  -8.649  17.297  1.00  0.00    -0.080 C 
ATOM     14  C   UNL     1      50.551  -8.971  18.121  1.00  0.00     0.039 C 
ATOM     15  C   UNL     1      53.033  -8.184  17.987  1.00  0.00     0.039 C 
ENDBRANCH  11  12
ENDBRANCH   1  11
TORSDOF 4
ENDMDL
MODEL 2
REMARK VINA RESULT:    21.071      3.610      6.804
REMARK INTER + INTRA:          25.562
REMARK INTER:                  26.194
REMARK INTRA:                  -0.632
REMARK UNBOUND:                -0.436
REMARK SMILES CC(C)=CCC[C@@H](C)c1ccc(C)cc1
REMARK SMILES IDX 6 1 7 2 8 3 9 4 13 5 12 6 11 7 14 8 10 9 15 10 5 11 4 12
REMARK SMILES IDX 2 13 1 14 3 15
REMARK H PARENT
REMARK Flexibility Score: inf
ROOT
ATOM      1  C   UNL     1      50.121  -8.134   7.023  1.00  0.00     0.012 C 
ENDROOT
BRANCH   1   2
ATOM      2  C   UNL     1      49.698  -9.406   6.253  1.00  0.00     0.016 C 
ATOM      3  C   UNL     1      48.220  -9.373   5.836  1.00  0.00     0.013 C 
BRANCH   2   4
ATOM      4  C   UNL     1      50.586  -9.608   5.037  1.00  0.00    -0.045 A 
ATOM      5  C   UNL     1      53.093 -10.155   1.563  1.00  0.00     0.044 C 
ATOM      6  C   UNL     1      52.210  -9.993   2.764  1.00  0.00    -0.051 A 
ATOM      7  C   UNL     1      52.661 -10.390   4.031  1.00  0.00     0.004 A 
ATOM      8  C   UNL     1      50.955  -9.381   2.642  1.00  0.00     0.004 A 
ATOM      9  C   UNL     1      51.854 -10.207   5.158  1.00  0.00     0.004 A 
ATOM     10  C   UNL     1      50.146  -9.196   3.767  1.00  0.00     0.004 A 
ENDBRANCH   2   4
ENDBRANCH   1   2
BRANCH   1  11
ATOM     11  C   UNL     1      51.000  -8.448   8.244  1.00  0.00     0.028 C 
BRANCH  11  12
ATOM     12  C   UNL     1      50.389  -7.875   9.500  1.00  0.00    -0.028 C 
ATOM     13  C   UNL     1      49.855  -8.617  10.495  1.00  0.00    -0.080 C 
ATOM     14  C   UNL     1      49.768 -10.123  10.413  1.00  0.00     0.039 C 
ATOM     15  C   UNL     1      49.317  -7.907  11.711  1.00  0.00     0.039 C 
ENDBRANCH  11  12
ENDBRANCH   1  11
TORSDOF 4
ENDMDL
MODEL 3
REMARK VINA RESULT:    21.267      2.679      8.285
REMARK INTER + INTRA:          25.804
REMARK INTER:                  26.323
REMARK INTRA:                  -0.519
REMARK UNBOUND:                -0.436
REMARK SMILES CC(C)=CCC[C@@H](C)c1ccc(C)cc1
REMARK SMILES IDX 6 1 7 2 8 3 9 4 13 5 12 6 11 7 14 8 10 9 15 10 5 11 4 12
REMARK SMILES IDX 2 13 1 14 3 15
REMARK H PARENT
REMARK Flexibility Score: inf
ROOT
ATOM      1  C   UNL     1      50.689  -8.666   6.543  1.00  0.00     0.012 C 
ENDROOT
BRANCH   1   2
ATOM      2  C   UNL     1      49.368  -9.017   7.265  1.00  0.00     0.016 C 
ATOM      3  C   UNL     1      48.798 -10.371   6.814  1.00  0.00     0.013 C 
BRANCH   2   4
ATOM      4  C   UNL     1      49.569  -9.003   8.770  1.00  0.00    -0.045 A 
ATOM      5  C   UNL     1      50.142  -8.998  13.051  1.00  0.00     0.044 C 
ATOM      6  C   UNL     1      49.914  -8.988  11.569  1.00  0.00    -0.051 A 
ATOM      7  C   UNL     1      50.292  -7.875  10.804  1.00  0.00     0.004 A 
ATOM      8  C   UNL     1      49.387 -10.117  10.927  1.00  0.00     0.004 A 
ATOM      9  C   UNL     1      50.114  -7.878   9.418  1.00  0.00     0.004 A 
ATOM     10  C   UNL     1      49.209 -10.123   9.540  1.00  0.00     0.004 A 
ENDBRANCH   2   4
ENDBRANCH   1   2
BRANCH   1  11
ATOM     11  C   UNL     1      50.856  -9.423   5.216  1.00  0.00     0.028 C 
BRANCH  11  12
ATOM     12  C   UNL     1      52.159 -10.185   5.199  1.00  0.00    -0.028 C 
ATOM     13  C   UNL     1      52.835 -10.514   4.076  1.00  0.00    -0.080 C 
ATOM     14  C   UNL     1      52.308 -10.189   2.699  1.00  0.00     0.039 C 
ATOM     15  C   UNL     1      54.147 -11.243   4.217  1.00  0.00     0.039 C 
ENDBRANCH  11  12
ENDBRANCH   1  11
TORSDOF 4
ENDMDL
MODEL 4
REMARK VINA RESULT:    21.519      0.664      1.341
REMARK INTER + INTRA:          26.115
REMARK INTER:                  26.571
REMARK INTRA:                  -0.456
REMARK UNBOUND:                -0.436
REMARK SMILES CC(C)=CCC[C@@H](C)c1ccc(C)cc1
REMARK SMILES IDX 6 1 7 2 8 3 9 4 13 5 12 6 11 7 14 8 10 9 15 10 5 11 4 12
REMARK SMILES IDX 2 13 1 14 3 15
REMARK H PARENT
REMARK Flexibility Score: inf
ROOT
ATOM      1  C   UNL     1      50.465  -9.650  13.389  1.00  0.00     0.012 C 
ENDROOT
BRANCH   1   2
ATOM      2  C   UNL     1      49.196  -9.205  12.628  1.00  0.00     0.016 C 
ATOM      3  C   UNL     1      48.634  -7.875  13.156  1.00  0.00     0.013 C 
BRANCH   2   4
ATOM      4  C   UNL     1      49.479  -9.106  11.140  1.00  0.00    -0.045 A 
ATOM      5  C   UNL     1      50.312  -8.801   6.913  1.00  0.00     0.044 C 
ATOM      6  C   UNL     1      49.996  -8.892   8.376  1.00  0.00    -0.051 A 
ATOM      7  C   UNL     1      49.352 -10.027   8.889  1.00  0.00     0.004 A 
ATOM      8  C   UNL     1      50.403  -7.877   9.252  1.00  0.00     0.004 A 
ATOM      9  C   UNL     1      49.088 -10.130  10.258  1.00  0.00     0.004 A 
ATOM     10  C   UNL     1      50.141  -7.978  10.622  1.00  0.00     0.004 A 
ENDBRANCH   2   4
ENDBRANCH   1   2
BRANCH   1  11
ATOM     11  C   UNL     1      50.307  -9.547  14.914  1.00  0.00     0.028 C 
BRANCH  11  12
ATOM     12  C   UNL     1      51.642  -9.297  15.573  1.00  0.00    -0.028 C 
ATOM     13  C   UNL     1      51.803  -9.009  16.883  1.00  0.00    -0.080 C 
ATOM     14  C   UNL     1      50.629  -8.852  17.820  1.00  0.00     0.039 C 
ATOM     15  C   UNL     1      53.204  -8.824  17.410  1.00  0.00     0.039 C 
ENDBRANCH  11  12
ENDBRANCH   1  11
TORSDOF 4
ENDMDL
MODEL 5
REMARK VINA RESULT:    22.469     11.121     12.812
REMARK INTER + INTRA:          27.288
REMARK INTER:                  27.801
REMARK INTRA:                  -0.513
REMARK UNBOUND:                -0.436
REMARK SMILES CC(C)=CCC[C@@H](C)c1ccc(C)cc1
REMARK SMILES IDX 6 1 7 2 8 3 9 4 13 5 12 6 11 7 14 8 10 9 15 10 5 11 4 12
REMARK SMILES IDX 2 13 1 14 3 15
REMARK H PARENT
REMARK Flexibility Score: inf
ROOT
ATOM      1  C   UNL     1      46.868 -19.516  15.741  1.00  0.00     0.012 C 
ENDROOT
BRANCH   1   2
ATOM      2  C   UNL     1      47.899 -18.372  15.880  1.00  0.00     0.016 C 
ATOM      3  C   UNL     1      47.766 -17.624  17.216  1.00  0.00     0.013 C 
BRANCH   2   4
ATOM      4  C   UNL     1      49.309 -18.909  15.712  1.00  0.00    -0.045 A 
ATOM      5  C   UNL     1      53.335 -20.405  15.253  1.00  0.00     0.044 C 
ATOM      6  C   UNL     1      51.935 -19.882  15.381  1.00  0.00    -0.051 A 
ATOM      7  C   UNL     1      50.849 -20.769  15.400  1.00  0.00     0.004 A 
ATOM      8  C   UNL     1      51.705 -18.510  15.554  1.00  0.00     0.004 A 
ATOM      9  C   UNL     1      49.547 -20.287  15.556  1.00  0.00     0.004 A 
ATOM     10  C   UNL     1      50.404 -18.026  15.711  1.00  0.00     0.004 A 
ENDBRANCH   2   4
ENDBRANCH   1   2
BRANCH   1  11
ATOM     11  C   UNL     1      45.672 -19.129  14.857  1.00  0.00     0.028 C 
BRANCH  11  12
ATOM     12  C   UNL     1      44.371 -19.446  15.554  1.00  0.00    -0.028 C 
ATOM     13  C   UNL     1      43.422 -20.271  15.059  1.00  0.00    -0.080 C 
ATOM     14  C   UNL     1      43.556 -20.923  13.703  1.00  0.00     0.039 C 
ATOM     15  C   UNL     1      42.188 -20.525  15.887  1.00  0.00     0.039 C 
ENDBRANCH  11  12
ENDBRANCH   1  11
TORSDOF 4
ENDMDL
MODEL 6
REMARK VINA RESULT:    22.504     11.111     12.746
REMARK INTER + INTRA:          27.331
REMARK INTER:                  27.847
REMARK INTRA:                  -0.516
REMARK UNBOUND:                -0.436
REMARK SMILES CC(C)=CCC[C@@H](C)c1ccc(C)cc1
REMARK SMILES IDX 6 1 7 2 8 3 9 4 13 5 12 6 11 7 14 8 10 9 15 10 5 11 4 12
REMARK SMILES IDX 2 13 1 14 3 15
REMARK H PARENT
REMARK Flexibility Score: inf
ROOT
ATOM      1  C   UNL     1      46.890 -19.522  15.723  1.00  0.00     0.012 C 
ENDROOT
BRANCH   1   2
ATOM      2  C   UNL     1      47.904 -18.365  15.870  1.00  0.00     0.016 C 
ATOM      3  C   UNL     1      47.760 -17.628  17.211  1.00  0.00     0.013 C 
BRANCH   2   4
ATOM      4  C   UNL     1      49.322 -18.879  15.699  1.00  0.00    -0.045 A 
ATOM      5  C   UNL     1      53.344 -20.373  15.198  1.00  0.00     0.044 C 
ATOM      6  C   UNL     1      51.951 -19.858  15.403  1.00  0.00    -0.051 A 
ATOM      7  C   UNL     1      51.719 -18.481  15.536  1.00  0.00     0.004 A 
ATOM      8  C   UNL     1      50.861 -20.740  15.393  1.00  0.00     0.004 A 
ATOM      9  C   UNL     1      50.418 -17.996  15.691  1.00  0.00     0.004 A 
ATOM     10  C   UNL     1      49.559 -20.257  15.547  1.00  0.00     0.004 A 
ENDBRANCH   2   4
ENDBRANCH   1   2
BRANCH   1  11
ATOM     11  C   UNL     1      45.681 -19.141  14.855  1.00  0.00     0.028 C 
BRANCH  11  12
ATOM     12  C   UNL     1      44.391 -19.463  15.569  1.00  0.00    -0.028 C 
ATOM     13  C   UNL     1      43.431 -20.280  15.080  1.00  0.00    -0.080 C 
ATOM     14  C   UNL     1      43.541 -20.916  13.714  1.00  0.00     0.039 C 
ATOM     15  C   UNL     1      42.211 -20.542  15.925  1.00  0.00     0.039 C 
ENDBRANCH  11  12
ENDBRANCH   1  11
TORSDOF 4
ENDMDL
