MODEL 1
REMARK VINA RESULT:    -7.668      0.000      0.000
REMARK INTER + INTRA:          -7.892
REMARK INTER:                  -7.892
REMARK INTRA:                   0.000
REMARK UNBOUND:                 0.000
REMARK SMILES C=C1CCC[C@]2(C)C[C@]3(O)OC(=O)C(C)=C3C[C@H]12
REMARK SMILES IDX 15 1 14 2 16 3 17 4 18 5 2 6 1 7 3 8 4 9 5 10 6 11 8 12 9 13
REMARK SMILES IDX 11 14 12 15 13 16 7 17 10 18
REMARK H PARENT 10 19
REMARK Flexibility Score: inf
ROOT
ATOM      1  C   UNL     1      12.616  37.749  22.052  1.00  0.00     0.052 C 
ATOM      2  C   UNL     1      11.370  38.523  21.745  1.00  0.00     0.040 C 
ATOM      3  C   UNL     1      11.093  39.174  20.616  1.00  0.00     0.012 C 
ATOM      4  C   UNL     1      11.976  39.321  19.421  1.00  0.00     0.047 C 
ATOM      5  C   UNL     1      12.366  40.807  19.236  1.00  0.00     0.025 C 
ATOM      6  C   UNL     1      13.520  41.196  20.153  1.00  0.00    -0.073 C 
ATOM      7  C   UNL     1      14.730  40.633  19.993  1.00  0.00     0.008 C 
ATOM      8  C   UNL     1      13.320  42.239  21.225  1.00  0.00     0.031 C 
ATOM      9  C   UNL     1      12.569  43.480  20.708  1.00  0.00     0.005 C 
ATOM     10  C   UNL     1      11.672  43.239  19.472  1.00  0.00     0.008 C 
ATOM     11  C   UNL     1      11.132  41.787  19.344  1.00  0.00    -0.019 C 
ATOM     12  C   UNL     1      10.175  41.482  20.555  1.00  0.00     0.092 C 
ATOM     13  C   UNL     1       9.841  39.989  20.747  1.00  0.00     0.235 C 
ATOM     14  O   UNL     1       9.418  39.725  22.087  1.00  0.00    -0.426 OA
ATOM     15  C   UNL     1      10.321  38.863  22.679  1.00  0.00     0.336 C 
ATOM     16  O   UNL     1      10.235  38.460  23.868  1.00  0.00    -0.246 OA
ATOM     17  C   UNL     1      10.311  41.715  18.032  1.00  0.00     0.012 C 
ENDROOT
BRANCH  13  18
ATOM     18  O   UNL     1       8.875  39.542  19.834  1.00  0.00    -0.353 OA
ATOM     19  H   UNL     1       9.298  38.820  19.301  1.00  0.00     0.215 HD
ENDBRANCH  13  18
TORSDOF 1
ENDMDL
MODEL 2
REMARK VINA RESULT:    -7.137      2.582      4.850
REMARK INTER + INTRA:          -7.346
REMARK INTER:                  -7.346
REMARK INTRA:                   0.000
REMARK UNBOUND:                 0.000
REMARK SMILES C=C1CCC[C@]2(C)C[C@]3(O)OC(=O)C(C)=C3C[C@H]12
REMARK SMILES IDX 15 1 14 2 16 3 17 4 18 5 2 6 1 7 3 8 4 9 5 10 6 11 8 12 9 13
REMARK SMILES IDX 11 14 12 15 13 16 7 17 10 18
REMARK H PARENT 10 19
REMARK Flexibility Score: inf
ROOT
ATOM      1  C   UNL     1      10.442  43.585  19.871  1.00  0.00     0.052 C 
ATOM      2  C   UNL     1      11.789  43.023  20.206  1.00  0.00     0.040 C 
ATOM      3  C   UNL     1      12.248  41.811  19.897  1.00  0.00     0.012 C 
ATOM      4  C   UNL     1      11.511  40.723  19.189  1.00  0.00     0.047 C 
ATOM      5  C   UNL     1      11.308  39.521  20.143  1.00  0.00     0.025 C 
ATOM      6  C   UNL     1      10.118  39.743  21.069  1.00  0.00    -0.073 C 
ATOM      7  C   UNL     1       8.875  39.831  20.564  1.00  0.00     0.008 C 
ATOM      8  C   UNL     1      10.324  39.833  22.561  1.00  0.00     0.031 C 
ATOM      9  C   UNL     1      11.255  38.728  23.096  1.00  0.00     0.005 C 
ATOM     10  C   UNL     1      12.239  38.139  22.059  1.00  0.00     0.008 C 
ATOM     11  C   UNL     1      12.625  39.115  20.914  1.00  0.00    -0.019 C 
ATOM     12  C   UNL     1      13.417  40.334  21.516  1.00  0.00     0.092 C 
ATOM     13  C   UNL     1      13.564  41.537  20.564  1.00  0.00     0.235 C 
ATOM     14  O   UNL     1      13.819  42.741  21.291  1.00  0.00    -0.426 OA
ATOM     15  C   UNL     1      12.771  43.619  21.084  1.00  0.00     0.336 C 
ATOM     16  O   UNL     1      12.693  44.759  21.611  1.00  0.00    -0.246 OA
ATOM     17  C   UNL     1      13.561  38.345  19.948  1.00  0.00     0.012 C 
ENDROOT
BRANCH  13  18
ATOM     18  O   UNL     1      14.561  41.329  19.599  1.00  0.00    -0.353 OA
ATOM     19  H   UNL     1      14.113  41.361  18.714  1.00  0.00     0.215 HD
ENDBRANCH  13  18
TORSDOF 1
ENDMDL
MODEL 3
REMARK VINA RESULT:    -6.940      2.639      4.682
REMARK INTER + INTRA:          -7.143
REMARK INTER:                  -7.143
REMARK INTRA:                   0.000
REMARK UNBOUND:                 0.000
REMARK SMILES C=C1CCC[C@]2(C)C[C@]3(O)OC(=O)C(C)=C3C[C@H]12
REMARK SMILES IDX 15 1 14 2 16 3 17 4 18 5 2 6 1 7 3 8 4 9 5 10 6 11 8 12 9 13
REMARK SMILES IDX 11 14 12 15 13 16 7 17 10 18
REMARK H PARENT 10 19
REMARK Flexibility Score: inf
ROOT
ATOM      1  C   UNL     1      12.528  44.714  21.373  1.00  0.00     0.052 C 
ATOM      2  C   UNL     1      13.172  43.419  20.984  1.00  0.00     0.040 C 
ATOM      3  C   UNL     1      12.724  42.542  20.087  1.00  0.00     0.012 C 
ATOM      4  C   UNL     1      11.458  42.626  19.300  1.00  0.00     0.047 C 
ATOM      5  C   UNL     1      10.508  41.475  19.708  1.00  0.00     0.025 C 
ATOM      6  C   UNL     1       9.750  41.809  20.988  1.00  0.00    -0.073 C 
ATOM      7  C   UNL     1       8.875  42.829  21.009  1.00  0.00     0.008 C 
ATOM      8  C   UNL     1       9.953  40.976  22.230  1.00  0.00     0.031 C 
ATOM      9  C   UNL     1       9.926  39.464  21.938  1.00  0.00     0.005 C 
ATOM     10  C   UNL     1      10.288  39.068  20.487  1.00  0.00     0.008 C 
ATOM     11  C   UNL     1      11.229  40.071  19.764  1.00  0.00    -0.019 C 
ATOM     12  C   UNL     1      12.622  40.093  20.494  1.00  0.00     0.092 C 
ATOM     13  C   UNL     1      13.530  41.278  20.106  1.00  0.00     0.235 C 
ATOM     14  O   UNL     1      14.508  41.529  21.118  1.00  0.00    -0.426 OA
ATOM     15  C   UNL     1      14.297  42.791  21.640  1.00  0.00     0.336 C 
ATOM     16  O   UNL     1      14.983  43.293  22.567  1.00  0.00    -0.246 OA
ATOM     17  C   UNL     1      11.435  39.549  18.319  1.00  0.00     0.012 C 
ENDROOT
BRANCH  13  18
ATOM     18  O   UNL     1      14.152  41.081  18.864  1.00  0.00    -0.353 OA
ATOM     19  H   UNL     1      14.473  40.142  18.850  1.00  0.00     0.215 HD
ENDBRANCH  13  18
TORSDOF 1
ENDMDL
MODEL 4
REMARK VINA RESULT:    -5.064      5.828      7.821
REMARK INTER + INTRA:          -5.212
REMARK INTER:                  -5.212
REMARK INTRA:                   0.000
REMARK UNBOUND:                 0.000
REMARK SMILES C=C1CCC[C@]2(C)C[C@]3(O)OC(=O)C(C)=C3C[C@H]12
REMARK SMILES IDX 15 1 14 2 16 3 17 4 18 5 2 6 1 7 3 8 4 9 5 10 6 11 8 12 9 13
REMARK SMILES IDX 11 14 12 15 13 16 7 17 10 18
REMARK H PARENT 10 19
REMARK Flexibility Score: inf
ROOT
ATOM      1  C   UNL     1       8.877  33.632  25.598  1.00  0.00     0.052 C 
ATOM      2  C   UNL     1       9.825  34.219  26.598  1.00  0.00     0.040 C 
ATOM      3  C   UNL     1       9.810  35.461  27.080  1.00  0.00     0.012 C 
ATOM      4  C   UNL     1       8.875  36.562  26.702  1.00  0.00     0.047 C 
ATOM      5  C   UNL     1       9.660  37.701  26.009  1.00  0.00     0.025 C 
ATOM      6  C   UNL     1       9.909  37.389  24.538  1.00  0.00    -0.073 C 
ATOM      7  C   UNL     1       8.876  37.288  23.684  1.00  0.00     0.008 C 
ATOM      8  C   UNL     1      11.318  37.224  24.025  1.00  0.00     0.031 C 
ATOM      9  C   UNL     1      12.265  38.327  24.534  1.00  0.00     0.005 C 
ATOM     10  C   UNL     1      11.834  39.006  25.855  1.00  0.00     0.008 C 
ATOM     11  C   UNL     1      10.974  38.108  26.787  1.00  0.00    -0.019 C 
ATOM     12  C   UNL     1      11.837  36.884  27.270  1.00  0.00     0.092 C 
ATOM     13  C   UNL     1      11.026  35.741  27.912  1.00  0.00     0.235 C 
ATOM     14  O   UNL     1      11.747  34.508  27.862  1.00  0.00    -0.426 OA
ATOM     15  C   UNL     1      11.042  33.609  27.084  1.00  0.00     0.336 C 
ATOM     16  O   UNL     1      11.432  32.439  26.831  1.00  0.00    -0.246 OA
ATOM     17  C   UNL     1      10.589  38.961  28.022  1.00  0.00     0.012 C 
ENDROOT
BRANCH  13  18
ATOM     18  O   UNL     1      10.653  36.035  29.231  1.00  0.00    -0.353 OA
ATOM     19  H   UNL     1      10.734  37.018  29.339  1.00  0.00     0.215 HD
ENDBRANCH  13  18
TORSDOF 1
ENDMDL
