MODEL 1
REMARK VINA RESULT:    -2.417      0.000      0.000
REMARK INTER + INTRA:          -2.417
REMARK INTER:                  -2.417
REMARK INTRA:                   0.000
REMARK UNBOUND:                 0.000
REMARK SMILES CC(=O)[O-]
REMARK SMILES IDX 1 1 2 2 3 3 4 4
REMARK H PARENT
REMARK Flexibility Score: inf
ROOT
ATOM      1  C   UNL     1      14.191 -11.131  29.242  1.00  0.00     0.063 C 
ATOM      2  C   UNL     1      12.736 -10.923  28.995  1.00  0.00     0.038 C 
ATOM      3  O   UNL     1      12.226 -11.270  27.898  1.00  0.00    -0.550 OA
ATOM      4  O   UNL     1      11.928 -10.394  29.994  1.00  0.00    -0.550 OA
ENDROOT
TORSDOF 0
ENDMDL
MODEL 2
REMARK VINA RESULT:    -2.379     10.521     10.990
REMARK INTER + INTRA:          -2.379
REMARK INTER:                  -2.379
REMARK INTRA:                   0.000
REMARK UNBOUND:                 0.000
REMARK SMILES CC(=O)[O-]
REMARK SMILES IDX 1 1 2 2 3 3 4 4
REMARK H PARENT
REMARK Flexibility Score: inf
ROOT
ATOM      1  C   UNL     1       1.634 -15.138  29.716  1.00  0.00     0.063 C 
ATOM      2  C   UNL     1       2.997 -15.297  29.135  1.00  0.00     0.038 C 
ATOM      3  O   UNL     1       3.981 -15.524  29.886  1.00  0.00    -0.550 OA
ATOM      4  O   UNL     1       3.177 -15.249  27.758  1.00  0.00    -0.550 OA
ENDROOT
TORSDOF 0
ENDMDL
MODEL 3
REMARK VINA RESULT:    -2.370     14.708     14.926
REMARK INTER + INTRA:          -2.370
REMARK INTER:                  -2.370
REMARK INTRA:                   0.000
REMARK UNBOUND:                 0.000
REMARK SMILES CC(=O)[O-]
REMARK SMILES IDX 1 1 2 2 3 3 4 4
REMARK H PARENT
REMARK Flexibility Score: inf
ROOT
ATOM      1  C   UNL     1       2.985 -20.779  30.224  1.00  0.00     0.063 C 
ATOM      2  C   UNL     1       2.499 -21.466  31.455  1.00  0.00     0.038 C 
ATOM      3  O   UNL     1       2.742 -22.688  31.634  1.00  0.00    -0.550 OA
ATOM      4  O   UNL     1       1.823 -20.747  32.433  1.00  0.00    -0.550 OA
ENDROOT
TORSDOF 0
ENDMDL
MODEL 4
REMARK VINA RESULT:    -2.288      6.868      7.236
REMARK INTER + INTRA:          -2.288
REMARK INTER:                  -2.288
REMARK INTRA:                   0.000
REMARK UNBOUND:                 0.000
REMARK SMILES CC(=O)[O-]
REMARK SMILES IDX 1 1 2 2 3 3 4 4
REMARK H PARENT
REMARK Flexibility Score: inf
ROOT
ATOM      1  C   UNL     1      12.348  -5.127  30.823  1.00  0.00     0.063 C 
ATOM      2  C   UNL     1      13.017  -4.662  32.071  1.00  0.00     0.038 C 
ATOM      3  O   UNL     1      12.327  -4.287  33.055  1.00  0.00    -0.550 OA
ATOM      4  O   UNL     1      14.402  -4.691  32.172  1.00  0.00    -0.550 OA
ENDROOT
TORSDOF 0
ENDMDL
MODEL 5
REMARK VINA RESULT:    -2.283     14.399     14.619
REMARK INTER + INTRA:          -2.283
REMARK INTER:                  -2.283
REMARK INTRA:                   0.000
REMARK UNBOUND:                 0.000
REMARK SMILES CC(=O)[O-]
REMARK SMILES IDX 1 1 2 2 3 3 4 4
REMARK H PARENT
REMARK Flexibility Score: inf
ROOT
ATOM      1  C   UNL     1       2.604 -22.287  31.871  1.00  0.00     0.063 C 
ATOM      2  C   UNL     1       2.489 -20.995  31.135  1.00  0.00     0.038 C 
ATOM      3  O   UNL     1       2.838 -20.923  29.928  1.00  0.00    -0.550 OA
ATOM      4  O   UNL     1       1.947 -19.881  31.765  1.00  0.00    -0.550 OA
ENDROOT
TORSDOF 0
ENDMDL
MODEL 6
REMARK VINA RESULT:    -2.268      6.114      6.489
REMARK INTER + INTRA:          -2.268
REMARK INTER:                  -2.268
REMARK INTRA:                   0.000
REMARK UNBOUND:                 0.000
REMARK SMILES CC(=O)[O-]
REMARK SMILES IDX 1 1 2 2 3 3 4 4
REMARK H PARENT
REMARK Flexibility Score: inf
ROOT
ATOM      1  C   UNL     1      12.861  -3.997  32.432  1.00  0.00     0.063 C 
ATOM      2  C   UNL     1      12.860  -5.198  31.548  1.00  0.00     0.038 C 
ATOM      3  O   UNL     1      12.373  -5.130  30.390  1.00  0.00    -0.550 OA
ATOM      4  O   UNL     1      13.446  -6.381  31.981  1.00  0.00    -0.550 OA
ENDROOT
TORSDOF 0
ENDMDL
MODEL 7
REMARK VINA RESULT:    -2.227      2.032      2.261
REMARK INTER + INTRA:          -2.227
REMARK INTER:                  -2.227
REMARK INTRA:                   0.000
REMARK UNBOUND:                 0.000
REMARK SMILES CC(=O)[O-]
REMARK SMILES IDX 1 1 2 2 3 3 4 4
REMARK H PARENT
REMARK Flexibility Score: inf
ROOT
ATOM      1  C   UNL     1      12.912 -11.169  28.818  1.00  0.00     0.063 C 
ATOM      2  C   UNL     1      14.201 -10.825  29.483  1.00  0.00     0.038 C 
ATOM      3  O   UNL     1      15.277 -10.858  28.830  1.00  0.00    -0.550 OA
ATOM      4  O   UNL     1      14.212 -10.416  30.810  1.00  0.00    -0.550 OA
ENDROOT
TORSDOF 0
ENDMDL
MODEL 8
REMARK VINA RESULT:    -2.220     10.596     10.933
REMARK INTER + INTRA:          -2.220
REMARK INTER:                  -2.220
REMARK INTRA:                   0.000
REMARK UNBOUND:                 0.000
REMARK SMILES CC(=O)[O-]
REMARK SMILES IDX 1 1 2 2 3 3 4 4
REMARK H PARENT
REMARK Flexibility Score: inf
ROOT
ATOM      1  C   UNL     1       3.204 -15.151  28.757  1.00  0.00     0.063 C 
ATOM      2  C   UNL     1       3.198 -15.873  30.062  1.00  0.00     0.038 C 
ATOM      3  O   UNL     1       4.177 -16.591  30.391  1.00  0.00    -0.550 OA
ATOM      4  O   UNL     1       2.135 -15.711  30.942  1.00  0.00    -0.550 OA
ENDROOT
TORSDOF 0
ENDMDL
MODEL 9
REMARK VINA RESULT:    -2.212      1.698      2.413
REMARK INTER + INTRA:          -2.212
REMARK INTER:                  -2.212
REMARK INTRA:                   0.000
REMARK UNBOUND:                 0.000
REMARK SMILES CC(=O)[O-]
REMARK SMILES IDX 1 1 2 2 3 3 4 4
REMARK H PARENT
REMARK Flexibility Score: inf
ROOT
ATOM      1  C   UNL     1      15.740 -10.735  28.970  1.00  0.00     0.063 C 
ATOM      2  C   UNL     1      14.416 -10.807  29.651  1.00  0.00     0.038 C 
ATOM      3  O   UNL     1      14.286 -10.376  30.826  1.00  0.00    -0.550 OA
ATOM      4  O   UNL     1      13.309 -11.300  28.971  1.00  0.00    -0.550 OA
ENDROOT
TORSDOF 0
ENDMDL
