MODEL 1
REMARK VINA RESULT:    -4.237      0.000      0.000
REMARK INTER + INTRA:          -4.501
REMARK INTER:                  -4.484
REMARK INTRA:                  -0.017
REMARK UNBOUND:                -0.017
REMARK SMILES O=C([O-])c1cccnc1
REMARK SMILES IDX 4 1 5 2 9 3 6 4 8 5 7 6 2 7 1 8 3 9
REMARK H PARENT
REMARK Flexibility Score: inf
ROOT
ATOM      1  C   UNL     1      -8.401  -1.443  -2.903  1.00  0.00     0.016 A 
ATOM      2  C   UNL     1      -9.333  -0.605  -3.540  1.00  0.00     0.013 A 
ATOM      3  C   UNL     1      -8.204  -1.293  -1.520  1.00  0.00     0.120 A 
ATOM      4  C   UNL     1     -10.036   0.349  -2.803  1.00  0.00     0.021 A 
ATOM      5  N   UNL     1      -8.904  -0.355  -0.825  1.00  0.00    -0.264 NA
ATOM      6  C   UNL     1      -9.806   0.460  -1.432  1.00  0.00     0.111 A 
ENDROOT
BRANCH   1   7
ATOM      7  C   UNL     1      -7.646  -2.460  -3.665  1.00  0.00     0.073 C 
ATOM      8  O   UNL     1      -6.399  -2.353  -3.812  1.00  0.00    -0.545 OA
ATOM      9  O   UNL     1      -8.301  -3.548  -4.230  1.00  0.00    -0.545 OA
ENDBRANCH   1   7
TORSDOF 1
ENDMDL
MODEL 2
REMARK VINA RESULT:    -4.222      5.113      6.196
REMARK INTER + INTRA:          -4.486
REMARK INTER:                  -4.469
REMARK INTRA:                  -0.017
REMARK UNBOUND:                -0.017
REMARK SMILES O=C([O-])c1cccnc1
REMARK SMILES IDX 4 1 5 2 9 3 6 4 8 5 7 6 2 7 1 8 3 9
REMARK H PARENT
REMARK Flexibility Score: inf
ROOT
ATOM      1  C   UNL     1      -4.419  -4.165  -6.311  1.00  0.00     0.016 A 
ATOM      2  C   UNL     1      -4.772  -4.431  -4.977  1.00  0.00     0.013 A 
ATOM      3  C   UNL     1      -5.293  -3.387  -7.090  1.00  0.00     0.120 A 
ATOM      4  C   UNL     1      -5.963  -3.928  -4.452  1.00  0.00     0.021 A 
ATOM      5  N   UNL     1      -6.449  -2.908  -6.554  1.00  0.00    -0.264 NA
ATOM      6  C   UNL     1      -6.798  -3.160  -5.264  1.00  0.00     0.111 A 
ENDROOT
BRANCH   1   7
ATOM      7  C   UNL     1      -3.162  -4.688  -6.886  1.00  0.00     0.073 C 
ATOM      8  O   UNL     1      -2.236  -3.902  -7.221  1.00  0.00    -0.545 OA
ATOM      9  O   UNL     1      -2.984  -6.056  -7.065  1.00  0.00    -0.545 OA
ENDBRANCH   1   7
TORSDOF 1
ENDMDL
MODEL 3
REMARK VINA RESULT:    -4.098     11.244     12.386
REMARK INTER + INTRA:          -4.354
REMARK INTER:                  -4.331
REMARK INTRA:                  -0.023
REMARK UNBOUND:                -0.017
REMARK SMILES O=C([O-])c1cccnc1
REMARK SMILES IDX 4 1 5 2 9 3 6 4 8 5 7 6 2 7 1 8 3 9
REMARK H PARENT
REMARK Flexibility Score: inf
ROOT
ATOM      1  C   UNL     1      -8.036   7.019   5.877  1.00  0.00     0.016 A 
ATOM      2  C   UNL     1      -7.061   7.865   5.323  1.00  0.00     0.013 A 
ATOM      3  C   UNL     1      -8.405   7.214   7.219  1.00  0.00     0.120 A 
ATOM      4  C   UNL     1      -6.482   8.870   6.099  1.00  0.00     0.021 A 
ATOM      5  N   UNL     1      -7.825   8.202   7.954  1.00  0.00    -0.264 NA
ATOM      6  C   UNL     1      -6.881   9.025   7.426  1.00  0.00     0.111 A 
ENDROOT
BRANCH   1   7
ATOM      7  C   UNL     1      -8.662   5.948   5.073  1.00  0.00     0.073 C 
ATOM      8  O   UNL     1      -8.643   5.999   3.814  1.00  0.00    -0.545 OA
ATOM      9  O   UNL     1      -9.281   4.869   5.695  1.00  0.00    -0.545 OA
ENDBRANCH   1   7
TORSDOF 1
ENDMDL
MODEL 4
REMARK VINA RESULT:    -4.092      3.266      4.836
REMARK INTER + INTRA:          -4.349
REMARK INTER:                  -4.331
REMARK INTRA:                  -0.017
REMARK UNBOUND:                -0.017
REMARK SMILES O=C([O-])c1cccnc1
REMARK SMILES IDX 4 1 5 2 9 3 6 4 8 5 7 6 2 7 1 8 3 9
REMARK H PARENT
REMARK Flexibility Score: inf
ROOT
ATOM      1  C   UNL     1      -7.127  -3.019  -4.369  1.00  0.00     0.016 A 
ATOM      2  C   UNL     1      -5.933  -3.748  -4.235  1.00  0.00     0.013 A 
ATOM      3  C   UNL     1      -7.504  -2.585  -5.652  1.00  0.00     0.120 A 
ATOM      4  C   UNL     1      -5.151  -4.025  -5.357  1.00  0.00     0.021 A 
ATOM      5  N   UNL     1      -6.724  -2.870  -6.730  1.00  0.00    -0.264 NA
ATOM      6  C   UNL     1      -5.567  -3.574  -6.609  1.00  0.00     0.111 A 
ENDROOT
BRANCH   1   7
ATOM      7  C   UNL     1      -7.971  -2.714  -3.194  1.00  0.00     0.073 C 
ATOM      8  O   UNL     1      -7.552  -1.945  -2.288  1.00  0.00    -0.545 OA
ATOM      9  O   UNL     1      -9.238  -3.272  -3.072  1.00  0.00    -0.545 OA
ENDBRANCH   1   7
TORSDOF 1
ENDMDL
MODEL 5
REMARK VINA RESULT:    -4.031      1.437      1.998
REMARK INTER + INTRA:          -4.283
REMARK INTER:                  -4.260
REMARK INTRA:                  -0.023
REMARK UNBOUND:                -0.017
REMARK SMILES O=C([O-])c1cccnc1
REMARK SMILES IDX 4 1 5 2 9 3 6 4 8 5 7 6 2 7 1 8 3 9
REMARK H PARENT
REMARK Flexibility Score: inf
ROOT
ATOM      1  C   UNL     1      -7.928  -1.776  -3.584  1.00  0.00     0.016 A 
ATOM      2  C   UNL     1      -7.952  -1.748  -2.180  1.00  0.00     0.013 A 
ATOM      3  C   UNL     1      -8.756  -0.881  -4.284  1.00  0.00     0.120 A 
ATOM      4  C   UNL     1      -8.784  -0.850  -1.510  1.00  0.00     0.021 A 
ATOM      5  N   UNL     1      -9.557  -0.015  -3.607  1.00  0.00    -0.264 NA
ATOM      6  C   UNL     1      -9.588   0.019  -2.248  1.00  0.00     0.111 A 
ENDROOT
BRANCH   1   7
ATOM      7  C   UNL     1      -7.054  -2.719  -4.313  1.00  0.00     0.073 C 
ATOM      8  O   UNL     1      -6.874  -2.596  -5.554  1.00  0.00    -0.545 OA
ATOM      9  O   UNL     1      -6.419  -3.756  -3.639  1.00  0.00    -0.545 OA
ENDBRANCH   1   7
TORSDOF 1
ENDMDL
MODEL 6
REMARK VINA RESULT:    -4.030      5.120      6.585
REMARK INTER + INTRA:          -4.282
REMARK INTER:                  -4.265
REMARK INTRA:                  -0.017
REMARK UNBOUND:                -0.017
REMARK SMILES O=C([O-])c1cccnc1
REMARK SMILES IDX 4 1 5 2 9 3 6 4 8 5 7 6 2 7 1 8 3 9
REMARK H PARENT
REMARK Flexibility Score: inf
ROOT
ATOM      1  C   UNL     1      -5.194  -3.914  -5.930  1.00  0.00     0.016 A 
ATOM      2  C   UNL     1      -5.353  -3.209  -7.135  1.00  0.00     0.013 A 
ATOM      3  C   UNL     1      -3.996  -4.620  -5.722  1.00  0.00     0.120 A 
ATOM      4  C   UNL     1      -4.337  -3.219  -8.093  1.00  0.00     0.021 A 
ATOM      5  N   UNL     1      -3.021  -4.612  -6.672  1.00  0.00    -0.264 NA
ATOM      6  C   UNL     1      -3.166  -3.933  -7.841  1.00  0.00     0.111 A 
ENDROOT
BRANCH   1   7
ATOM      7  C   UNL     1      -6.257  -3.917  -4.903  1.00  0.00     0.073 C 
ATOM      8  O   UNL     1      -7.330  -4.550  -5.095  1.00  0.00    -0.545 OA
ATOM      9  O   UNL     1      -6.088  -3.223  -3.711  1.00  0.00    -0.545 OA
ENDBRANCH   1   7
TORSDOF 1
ENDMDL
MODEL 7
REMARK VINA RESULT:    -4.024      4.125      5.172
REMARK INTER + INTRA:          -4.276
REMARK INTER:                  -4.255
REMARK INTRA:                  -0.020
REMARK UNBOUND:                -0.017
REMARK SMILES O=C([O-])c1cccnc1
REMARK SMILES IDX 4 1 5 2 9 3 6 4 8 5 7 6 2 7 1 8 3 9
REMARK H PARENT
REMARK Flexibility Score: inf
ROOT
ATOM      1  C   UNL     1      -5.414  -4.077  -5.954  1.00  0.00     0.016 A 
ATOM      2  C   UNL     1      -6.528  -3.475  -6.564  1.00  0.00     0.013 A 
ATOM      3  C   UNL     1      -5.365  -4.121  -4.550  1.00  0.00     0.120 A 
ATOM      4  C   UNL     1      -7.552  -2.939  -5.781  1.00  0.00     0.021 A 
ATOM      5  N   UNL     1      -6.376  -3.591  -3.810  1.00  0.00    -0.264 NA
ATOM      6  C   UNL     1      -7.458  -3.007  -4.392  1.00  0.00     0.111 A 
ENDROOT
BRANCH   1   7
ATOM      7  C   UNL     1      -4.319  -4.651  -6.764  1.00  0.00     0.073 C 
ATOM      8  O   UNL     1      -4.573  -5.315  -7.805  1.00  0.00    -0.545 OA
ATOM      9  O   UNL     1      -2.993  -4.468  -6.388  1.00  0.00    -0.545 OA
ENDBRANCH   1   7
TORSDOF 1
ENDMDL
MODEL 8
REMARK VINA RESULT:    -4.000      5.137      6.786
REMARK INTER + INTRA:          -4.251
REMARK INTER:                  -4.233
REMARK INTRA:                  -0.018
REMARK UNBOUND:                -0.017
REMARK SMILES O=C([O-])c1cccnc1
REMARK SMILES IDX 4 1 5 2 9 3 6 4 8 5 7 6 2 7 1 8 3 9
REMARK H PARENT
REMARK Flexibility Score: inf
ROOT
ATOM      1  C   UNL     1      -5.208  -3.962  -6.003  1.00  0.00     0.016 A 
ATOM      2  C   UNL     1      -3.954  -4.569  -5.813  1.00  0.00     0.013 A 
ATOM      3  C   UNL     1      -5.447  -3.287  -7.212  1.00  0.00     0.120 A 
ATOM      4  C   UNL     1      -2.981  -4.492  -6.810  1.00  0.00     0.021 A 
ATOM      5  N   UNL     1      -4.481  -3.228  -8.168  1.00  0.00    -0.264 NA
ATOM      6  C   UNL     1      -3.265  -3.811  -7.993  1.00  0.00     0.111 A 
ENDROOT
BRANCH   1   7
ATOM      7  C   UNL     1      -6.253  -4.031  -4.960  1.00  0.00     0.073 C 
ATOM      8  O   UNL     1      -7.363  -4.577  -5.201  1.00  0.00    -0.545 OA
ATOM      9  O   UNL     1      -6.026  -3.494  -3.698  1.00  0.00    -0.545 OA
ENDBRANCH   1   7
TORSDOF 1
ENDMDL
MODEL 9
REMARK VINA RESULT:    -3.955      3.637      5.168
REMARK INTER + INTRA:          -4.203
REMARK INTER:                  -4.186
REMARK INTRA:                  -0.018
REMARK UNBOUND:                -0.017
REMARK SMILES O=C([O-])c1cccnc1
REMARK SMILES IDX 4 1 5 2 9 3 6 4 8 5 7 6 2 7 1 8 3 9
REMARK H PARENT
REMARK Flexibility Score: inf
ROOT
ATOM      1  C   UNL     1      -6.587  -3.365  -4.817  1.00  0.00     0.016 A 
ATOM      2  C   UNL     1      -6.911  -3.271  -6.182  1.00  0.00     0.013 A 
ATOM      3  C   UNL     1      -5.340  -3.908  -4.463  1.00  0.00     0.120 A 
ATOM      4  C   UNL     1      -6.005  -3.710  -7.149  1.00  0.00     0.021 A 
ATOM      5  N   UNL     1      -4.475  -4.328  -5.425  1.00  0.00    -0.264 NA
ATOM      6  C   UNL     1      -4.779  -4.241  -6.748  1.00  0.00     0.111 A 
ENDROOT
BRANCH   1   7
ATOM      7  C   UNL     1      -7.532  -2.906  -3.777  1.00  0.00     0.073 C 
ATOM      8  O   UNL     1      -7.209  -1.983  -2.982  1.00  0.00    -0.545 OA
ATOM      9  O   UNL     1      -8.790  -3.487  -3.660  1.00  0.00    -0.545 OA
ENDBRANCH   1   7
TORSDOF 1
ENDMDL
