MODEL 1
REMARK VINA RESULT:    -1.727      0.000      0.000
REMARK INTER + INTRA:          -1.880
REMARK INTER:                  -2.081
REMARK INTRA:                   0.201
REMARK UNBOUND:                 0.201
REMARK SMILES Oc1cc(O)c2c(c1)O[C@@H](c1ccc(O)c(O)c1)[C@H](O)C2
REMARK SMILES IDX 21 1 19 2 10 3 9 4 7 5 8 6 2 7 3 8 4 9 6 10 20 11 11 13
REMARK SMILES IDX 18 14 12 15 16 16 13 17 14 18 17 19 15 21 5 23 1 25
REMARK H PARENT 20 12 17 20 15 22 5 24 1 26
REMARK Flexibility Score: inf
ROOT
ATOM      1  C   UNL     1      14.395 -11.119  29.015  1.00  0.00     0.079 C 
ATOM      2  C   UNL     1      14.902 -11.916  30.231  1.00  0.00     0.164 C 
ATOM      3  C   UNL     1      14.098 -13.222  30.428  1.00  0.00     0.232 C 
ATOM      4  O   UNL     1      12.689 -12.967  30.414  1.00  0.00    -0.482 OA
ATOM      5  C   UNL     1      12.099 -11.916  29.698  1.00  0.00     0.131 A 
ATOM      6  C   UNL     1      10.705 -11.803  29.679  1.00  0.00     0.093 A 
ATOM      7  C   UNL     1      10.090 -10.757  28.987  1.00  0.00     0.122 A 
ATOM      8  C   UNL     1      10.875  -9.829  28.287  1.00  0.00     0.092 A 
ATOM      9  C   UNL     1      12.274  -9.942  28.281  1.00  0.00     0.126 A 
ATOM     10  C   UNL     1      12.894 -10.975  29.010  1.00  0.00     0.039 A 
ENDROOT
BRANCH   2  11
ATOM     11  O   UNL     1      14.867 -11.125  31.394  1.00  0.00    -0.389 OA
ATOM     12  H   UNL     1      15.742 -10.679  31.500  1.00  0.00     0.211 HD
ENDBRANCH   2  11
BRANCH   3  13
ATOM     13  C   UNL     1      14.485 -14.275  29.407  1.00  0.00    -0.001 A 
ATOM     14  C   UNL     1      14.667 -13.892  28.060  1.00  0.00     0.057 A 
ATOM     15  C   UNL     1      14.625 -15.633  29.752  1.00  0.00     0.012 A 
ATOM     16  C   UNL     1      15.000 -14.843  27.085  1.00  0.00     0.157 A 
ATOM     17  C   UNL     1      14.972 -16.578  28.780  1.00  0.00     0.050 A 
ATOM     18  C   UNL     1      15.159 -16.186  27.448  1.00  0.00     0.157 A 
BRANCH  16  19
ATOM     19  O   UNL     1      15.168 -14.462  25.751  1.00  0.00    -0.504 OA
ATOM     20  H   UNL     1      14.490 -13.882  25.277  1.00  0.00     0.293 HD
ENDBRANCH  16  19
BRANCH  18  21
ATOM     21  O   UNL     1      15.504 -17.125  26.478  1.00  0.00    -0.504 OA
ATOM     22  H   UNL     1      16.405 -17.095  26.008  1.00  0.00     0.293 HD
ENDBRANCH  18  21
ENDBRANCH   3  13
BRANCH   9  23
ATOM     23  O   UNL     1      13.049  -9.032  27.553  1.00  0.00    -0.507 OA
ATOM     24  H   UNL     1      13.731  -8.420  27.999  1.00  0.00     0.293 HD
ENDBRANCH   9  23
BRANCH   7  25
ATOM     25  O   UNL     1       8.701 -10.648  29.000  1.00  0.00    -0.508 OA
ATOM     26  H   UNL     1       8.157 -10.936  29.803  1.00  0.00     0.293 HD
ENDBRANCH   7  25
TORSDOF 6
ENDMDL
MODEL 2
REMARK VINA RESULT:    -1.114      2.075      3.572
REMARK INTER + INTRA:          -1.141
REMARK INTER:                  -1.283
REMARK INTRA:                   0.143
REMARK UNBOUND:                 0.201
REMARK SMILES Oc1cc(O)c2c(c1)O[C@@H](c1ccc(O)c(O)c1)[C@H](O)C2
REMARK SMILES IDX 21 1 19 2 10 3 9 4 7 5 8 6 2 7 3 8 4 9 6 10 20 11 11 13
REMARK SMILES IDX 18 14 12 15 16 16 13 17 14 18 17 19 15 21 5 23 1 25
REMARK H PARENT 20 12 17 20 15 22 5 24 1 26
REMARK Flexibility Score: inf
ROOT
ATOM      1  C   UNL     1      10.958 -13.381  28.486  1.00  0.00     0.079 C 
ATOM      2  C   UNL     1      11.325 -13.764  27.041  1.00  0.00     0.164 C 
ATOM      3  C   UNL     1      12.804 -13.435  26.726  1.00  0.00     0.232 C 
ATOM      4  O   UNL     1      13.124 -12.090  27.098  1.00  0.00    -0.482 OA
ATOM      5  C   UNL     1      12.491 -11.405  28.145  1.00  0.00     0.131 A 
ATOM      6  C   UNL     1      12.936 -10.123  28.486  1.00  0.00     0.093 A 
ATOM      7  C   UNL     1      12.313  -9.410  29.514  1.00  0.00     0.122 A 
ATOM      8  C   UNL     1      11.254  -9.993  30.224  1.00  0.00     0.092 A 
ATOM      9  C   UNL     1      10.811 -11.286  29.905  1.00  0.00     0.126 A 
ATOM     10  C   UNL     1      11.414 -11.989  28.843  1.00  0.00     0.039 A 
ENDROOT
BRANCH   2  11
ATOM     11  O   UNL     1      10.465 -13.130  26.125  1.00  0.00    -0.389 OA
ATOM     12  H   UNL     1       9.744 -13.761  25.880  1.00  0.00     0.211 HD
ENDBRANCH   2  11
BRANCH   3  13
ATOM     13  C   UNL     1      13.747 -14.433  27.372  1.00  0.00    -0.001 A 
ATOM     14  C   UNL     1      13.856 -14.461  28.780  1.00  0.00     0.057 A 
ATOM     15  C   UNL     1      14.550 -15.302  26.610  1.00  0.00     0.012 A 
ATOM     16  C   UNL     1      14.737 -15.353  29.410  1.00  0.00     0.157 A 
ATOM     17  C   UNL     1      15.417 -16.201  27.241  1.00  0.00     0.050 A 
ATOM     18  C   UNL     1      15.512 -16.228  28.639  1.00  0.00     0.157 A 
BRANCH  16  19
ATOM     19  O   UNL     1      14.852 -15.371  30.803  1.00  0.00    -0.504 OA
ATOM     20  H   UNL     1      14.979 -16.235  31.311  1.00  0.00     0.293 HD
ENDBRANCH  16  19
BRANCH  18  21
ATOM     21  O   UNL     1      16.375 -17.121  29.270  1.00  0.00    -0.504 OA
ATOM     22  H   UNL     1      16.490 -17.123  30.280  1.00  0.00     0.293 HD
ENDBRANCH  18  21
ENDBRANCH   3  13
BRANCH   9  23
ATOM     23  O   UNL     1       9.776 -11.875  30.639  1.00  0.00    -0.507 OA
ATOM     24  H   UNL     1       9.907 -12.210  31.592  1.00  0.00     0.293 HD
ENDBRANCH   9  23
BRANCH   7  25
ATOM     25  O   UNL     1      12.755  -8.125  29.822  1.00  0.00    -0.508 OA
ATOM     26  H   UNL     1      13.194  -7.917  30.711  1.00  0.00     0.293 HD
ENDBRANCH   7  25
TORSDOF 6
ENDMDL
MODEL 3
REMARK VINA RESULT:    -1.012      1.523      5.972
REMARK INTER + INTRA:          -1.017
REMARK INTER:                  -0.668
REMARK INTRA:                  -0.349
REMARK UNBOUND:                 0.201
REMARK SMILES Oc1cc(O)c2c(c1)O[C@@H](c1ccc(O)c(O)c1)[C@H](O)C2
REMARK SMILES IDX 21 1 19 2 10 3 9 4 7 5 8 6 2 7 3 8 4 9 6 10 20 11 11 13
REMARK SMILES IDX 18 14 12 15 16 16 13 17 14 18 17 19 15 21 5 23 1 25
REMARK H PARENT 20 12 17 20 15 22 5 24 1 26
REMARK Flexibility Score: inf
ROOT
ATOM      1  C   UNL     1      14.120 -13.700  30.436  1.00  0.00     0.079 C 
ATOM      2  C   UNL     1      14.516 -12.214  30.493  1.00  0.00     0.164 C 
ATOM      3  C   UNL     1      14.151 -11.479  29.182  1.00  0.00     0.232 C 
ATOM      4  O   UNL     1      14.635 -12.191  28.039  1.00  0.00    -0.482 OA
ATOM      5  C   UNL     1      14.797 -13.584  28.006  1.00  0.00     0.131 A 
ATOM      6  C   UNL     1      15.195 -14.195  26.812  1.00  0.00     0.093 A 
ATOM      7  C   UNL     1      15.382 -15.578  26.754  1.00  0.00     0.122 A 
ATOM      8  C   UNL     1      15.142 -16.361  27.893  1.00  0.00     0.092 A 
ATOM      9  C   UNL     1      14.724 -15.763  29.092  1.00  0.00     0.126 A 
ATOM     10  C   UNL     1      14.574 -14.364  29.160  1.00  0.00     0.039 A 
ENDROOT
BRANCH   2  11
ATOM     11  O   UNL     1      15.886 -12.074  30.781  1.00  0.00    -0.389 OA
ATOM     12  H   UNL     1      16.003 -12.063  31.762  1.00  0.00     0.211 HD
ENDBRANCH   2  11
BRANCH   3  13
ATOM     13  C   UNL     1      12.659 -11.217  29.086  1.00  0.00    -0.001 A 
ATOM     14  C   UNL     1      11.887 -11.970  28.175  1.00  0.00     0.057 A 
ATOM     15  C   UNL     1      12.027 -10.214  29.846  1.00  0.00     0.012 A 
ATOM     16  C   UNL     1      10.510 -11.737  28.042  1.00  0.00     0.157 A 
ATOM     17  C   UNL     1      10.651  -9.993  29.721  1.00  0.00     0.050 A 
ATOM     18  C   UNL     1       9.892 -10.752  28.822  1.00  0.00     0.157 A 
BRANCH  16  19
ATOM     19  O   UNL     1       9.751 -12.478  27.131  1.00  0.00    -0.504 OA
ATOM     20  H   UNL     1       8.779 -12.693  27.306  1.00  0.00     0.293 HD
ENDBRANCH  16  19
BRANCH  18  21
ATOM     21  O   UNL     1       8.522 -10.535  28.695  1.00  0.00    -0.504 OA
ATOM     22  H   UNL     1       8.116 -10.198  27.825  1.00  0.00     0.293 HD
ENDBRANCH  18  21
ENDBRANCH   3  13
BRANCH   9  23
ATOM     23  O   UNL     1      14.456 -16.554  30.215  1.00  0.00    -0.507 OA
ATOM     24  H   UNL     1      14.425 -16.168  31.157  1.00  0.00     0.293 HD
ENDBRANCH   9  23
BRANCH   7  25
ATOM     25  O   UNL     1      15.801 -16.165  25.563  1.00  0.00    -0.508 OA
ATOM     26  H   UNL     1      16.777 -16.175  25.295  1.00  0.00     0.293 HD
ENDBRANCH   7  25
TORSDOF 6
ENDMDL
MODEL 4
REMARK VINA RESULT:    -0.522      1.974      6.336
REMARK INTER + INTRA:          -0.428
REMARK INTER:                   0.110
REMARK INTRA:                  -0.538
REMARK UNBOUND:                 0.201
REMARK SMILES Oc1cc(O)c2c(c1)O[C@@H](c1ccc(O)c(O)c1)[C@H](O)C2
REMARK SMILES IDX 21 1 19 2 10 3 9 4 7 5 8 6 2 7 3 8 4 9 6 10 20 11 11 13
REMARK SMILES IDX 18 14 12 15 16 16 13 17 14 18 17 19 15 21 5 23 1 25
REMARK H PARENT 20 12 17 20 15 22 5 24 1 26
REMARK Flexibility Score: inf
ROOT
ATOM      1  C   UNL     1      13.013 -13.378  26.403  1.00  0.00     0.079 C 
ATOM      2  C   UNL     1      11.524 -13.378  26.793  1.00  0.00     0.164 C 
ATOM      3  C   UNL     1      11.340 -13.319  28.328  1.00  0.00     0.232 C 
ATOM      4  O   UNL     1      12.139 -14.311  28.982  1.00  0.00    -0.482 OA
ATOM      5  C   UNL     1      13.353 -14.790  28.468  1.00  0.00     0.131 A 
ATOM      6  C   UNL     1      14.102 -15.697  29.225  1.00  0.00     0.093 A 
ATOM      7  C   UNL     1      15.307 -16.204  28.731  1.00  0.00     0.122 A 
ATOM      8  C   UNL     1      15.779 -15.781  27.481  1.00  0.00     0.092 A 
ATOM      9  C   UNL     1      15.048 -14.856  26.719  1.00  0.00     0.126 A 
ATOM     10  C   UNL     1      13.814 -14.375  27.201  1.00  0.00     0.039 A 
ENDROOT
BRANCH   2  11
ATOM     11  O   UNL     1      10.868 -14.499  26.253  1.00  0.00    -0.389 OA
ATOM     12  H   UNL     1      10.379 -14.959  26.978  1.00  0.00     0.211 HD
ENDBRANCH   2  11
BRANCH   3  13
ATOM     13  C   UNL     1      11.621 -11.930  28.871  1.00  0.00    -0.001 A 
ATOM     14  C   UNL     1      12.255 -11.799  30.125  1.00  0.00     0.057 A 
ATOM     15  C   UNL     1      11.228 -10.767  28.183  1.00  0.00     0.012 A 
ATOM     16  C   UNL     1      12.507 -10.531  30.669  1.00  0.00     0.157 A 
ATOM     17  C   UNL     1      11.493  -9.503  28.720  1.00  0.00     0.050 A 
ATOM     18  C   UNL     1      12.131  -9.382  29.962  1.00  0.00     0.157 A 
BRANCH  16  19
ATOM     19  O   UNL     1      13.125 -10.404  31.917  1.00  0.00    -0.504 OA
ATOM     20  H   UNL     1      13.910 -10.984  32.179  1.00  0.00     0.293 HD
ENDBRANCH  16  19
BRANCH  18  21
ATOM     21  O   UNL     1      12.396  -8.125  30.500  1.00  0.00    -0.504 OA
ATOM     22  H   UNL     1      13.176  -7.561  30.172  1.00  0.00     0.293 HD
ENDBRANCH  18  21
ENDBRANCH   3  13
BRANCH   9  23
ATOM     23  O   UNL     1      15.542 -14.414  25.487  1.00  0.00    -0.507 OA
ATOM     24  H   UNL     1      16.456 -13.973  25.395  1.00  0.00     0.293 HD
ENDBRANCH   9  23
BRANCH   7  25
ATOM     25  O   UNL     1      16.026 -17.125  29.490  1.00  0.00    -0.508 OA
ATOM     26  H   UNL     1      15.728 -17.389  30.420  1.00  0.00     0.293 HD
ENDBRANCH   7  25
TORSDOF 6
ENDMDL
