MODEL 1
REMARK VINA RESULT:    -5.371      0.000      0.000
REMARK INTER + INTRA:         -18.974
REMARK INTER:                 -14.163
REMARK INTRA:                  -4.812
REMARK UNBOUND:                -4.812
REMARK SMILES CCCCCCCCCCCCCCCCCCCCCCCCCCCCCC(=O)[O-]
REMARK SMILES IDX 16 1 17 2 18 3 19 4 20 5 21 6 22 7 23 8 24 9 25 10 26 11
REMARK SMILES IDX 27 12 28 13 29 14 30 15 31 16 32 17 15 18 14 19 13 20 12 21
REMARK SMILES IDX 11 22 10 23 9 24 8 25 7 26 6 27 5 28 4 29 3 30 2 31 1 32
REMARK H PARENT
REMARK Flexibility Score: inf
ROOT
ATOM      1  C   UNL     1     250.320 255.634 246.323  1.00  0.00     0.000 C 
ENDROOT
BRANCH   1   2
ATOM      2  C   UNL     1     249.285 256.318 245.402  1.00  0.00     0.000 C 
BRANCH   2   3
ATOM      3  C   UNL     1     248.411 257.334 246.159  1.00  0.00     0.000 C 
BRANCH   3   4
ATOM      4  C   UNL     1     249.100 257.924 247.404  1.00  0.00     0.000 C 
BRANCH   4   5
ATOM      5  C   UNL     1     249.590 259.376 247.231  1.00  0.00     0.000 C 
BRANCH   5   6
ATOM      6  C   UNL     1     251.085 259.476 246.874  1.00  0.00     0.000 C 
BRANCH   6   7
ATOM      7  C   UNL     1     251.651 260.889 247.099  1.00  0.00     0.000 C 
BRANCH   7   8
ATOM      8  C   UNL     1     253.163 260.973 246.829  1.00  0.00     0.000 C 
BRANCH   8   9
ATOM      9  C   UNL     1     253.999 260.924 248.119  1.00  0.00     0.000 C 
BRANCH   9  10
ATOM     10  C   UNL     1     255.484 260.618 247.855  1.00  0.00     0.000 C 
BRANCH  10  11
ATOM     11  C   UNL     1     256.352 260.800 249.112  1.00  0.00     0.000 C 
BRANCH  11  12
ATOM     12  C   UNL     1     255.520 260.911 250.398  1.00  0.00     0.000 C 
BRANCH  12  13
ATOM     13  C   UNL     1     255.494 259.572 251.152  1.00  0.00     0.006 C 
BRANCH  13  14
ATOM     14  C   UNL     1     255.162 259.748 252.641  1.00  0.00     0.053 C 
BRANCH  14  15
ATOM     15  C   UNL     1     255.618 258.578 253.458  1.00  0.00     0.041 C 
ATOM     16  O   UNL     1     256.028 258.748 254.637  1.00  0.00    -0.550 OA
ATOM     17  O   UNL     1     255.626 257.303 252.906  1.00  0.00    -0.550 OA
ENDBRANCH  14  15
ENDBRANCH  13  14
ENDBRANCH  12  13
ENDBRANCH  11  12
ENDBRANCH  10  11
ENDBRANCH   9  10
ENDBRANCH   8   9
ENDBRANCH   7   8
ENDBRANCH   6   7
ENDBRANCH   5   6
ENDBRANCH   4   5
ENDBRANCH   3   4
ENDBRANCH   2   3
ENDBRANCH   1   2
BRANCH   1  18
ATOM     18  C   UNL     1     251.708 255.461 245.677  1.00  0.00     0.000 C 
BRANCH  18  19
ATOM     19  C   UNL     1     252.824 256.171 246.463  1.00  0.00     0.000 C 
BRANCH  19  20
ATOM     20  C   UNL     1     252.441 256.473 247.929  1.00  0.00     0.000 C 
BRANCH  20  21
ATOM     21  C   UNL     1     253.535 257.217 248.719  1.00  0.00     0.000 C 
BRANCH  21  22
ATOM     22  C   UNL     1     254.969 256.981 248.215  1.00  0.00     0.000 C 
BRANCH  22  23
ATOM     23  C   UNL     1     255.931 256.474 249.312  1.00  0.00     0.000 C 
BRANCH  23  24
ATOM     24  C   UNL     1     257.132 255.707 248.741  1.00  0.00    -0.000 C 
BRANCH  24  25
ATOM     25  C   UNL     1     256.763 254.243 248.468  1.00  0.00    -0.000 C 
BRANCH  25  26
ATOM     26  C   UNL     1     255.951 253.651 249.628  1.00  0.00    -0.000 C 
BRANCH  26  27
ATOM     27  C   UNL     1     254.912 252.619 249.155  1.00  0.00    -0.000 C 
BRANCH  27  28
ATOM     28  C   UNL     1     253.848 253.228 248.229  1.00  0.00    -0.000 C 
BRANCH  28  29
ATOM     29  C   UNL     1     253.282 252.168 247.273  1.00  0.00    -0.000 C 
BRANCH  29  30
ATOM     30  C   UNL     1     251.749 252.061 247.339  1.00  0.00    -0.000 C 
BRANCH  30  31
ATOM     31  C   UNL     1     251.144 252.655 248.628  1.00  0.00    -0.003 C 
ATOM     32  C   UNL     1     250.508 251.586 249.515  1.00  0.00     0.004 C 
ENDBRANCH  30  31
ENDBRANCH  29  30
ENDBRANCH  28  29
ENDBRANCH  27  28
ENDBRANCH  26  27
ENDBRANCH  25  26
ENDBRANCH  24  25
ENDBRANCH  23  24
ENDBRANCH  22  23
ENDBRANCH  21  22
ENDBRANCH  20  21
ENDBRANCH  19  20
ENDBRANCH  18  19
ENDBRANCH   1  18
TORSDOF 28
ENDMDL
MODEL 2
REMARK VINA RESULT:    -5.312      1.609      4.810
REMARK INTER + INTRA:         -18.820
REMARK INTER:                 -13.345
REMARK INTRA:                  -5.475
REMARK UNBOUND:                -4.812
REMARK SMILES CCCCCCCCCCCCCCCCCCCCCCCCCCCCCC(=O)[O-]
REMARK SMILES IDX 16 1 17 2 18 3 19 4 20 5 21 6 22 7 23 8 24 9 25 10 26 11
REMARK SMILES IDX 27 12 28 13 29 14 30 15 31 16 32 17 15 18 14 19 13 20 12 21
REMARK SMILES IDX 11 22 10 23 9 24 8 25 7 26 6 27 5 28 4 29 3 30 2 31 1 32
REMARK H PARENT
REMARK Flexibility Score: inf
ROOT
ATOM      1  C   UNL     1     252.299 258.278 247.421  1.00  0.00     0.000 C 
ENDROOT
BRANCH   1   2
ATOM      2  C   UNL     1     253.548 258.380 246.517  1.00  0.00     0.000 C 
BRANCH   2   3
ATOM      3  C   UNL     1     253.819 259.824 246.057  1.00  0.00     0.000 C 
BRANCH   3   4
ATOM      4  C   UNL     1     255.104 260.424 246.658  1.00  0.00     0.000 C 
BRANCH   4   5
ATOM      5  C   UNL     1     254.980 260.837 248.138  1.00  0.00     0.000 C 
BRANCH   5   6
ATOM      6  C   UNL     1     255.789 259.936 249.091  1.00  0.00     0.000 C 
BRANCH   6   7
ATOM      7  C   UNL     1     254.904 259.262 250.155  1.00  0.00     0.000 C 
BRANCH   7   8
ATOM      8  C   UNL     1     255.040 257.729 250.154  1.00  0.00     0.000 C 
BRANCH   8   9
ATOM      9  C   UNL     1     256.016 257.220 249.080  1.00  0.00     0.000 C 
BRANCH   9  10
ATOM     10  C   UNL     1     255.528 255.934 248.392  1.00  0.00     0.000 C 
BRANCH  10  11
ATOM     11  C   UNL     1     256.491 254.753 248.603  1.00  0.00     0.000 C 
BRANCH  11  12
ATOM     12  C   UNL     1     256.054 253.827 249.748  1.00  0.00     0.000 C 
BRANCH  12  13
ATOM     13  C   UNL     1     254.604 254.117 250.164  1.00  0.00     0.006 C 
BRANCH  13  14
ATOM     14  C   UNL     1     254.165 253.278 251.372  1.00  0.00     0.053 C 
BRANCH  14  15
ATOM     15  C   UNL     1     254.862 253.700 252.630  1.00  0.00     0.041 C 
ATOM     16  O   UNL     1     254.623 254.825 253.142  1.00  0.00    -0.550 OA
ATOM     17  O   UNL     1     255.805 252.865 253.217  1.00  0.00    -0.550 OA
ENDBRANCH  14  15
ENDBRANCH  13  14
ENDBRANCH  12  13
ENDBRANCH  11  12
ENDBRANCH  10  11
ENDBRANCH   9  10
ENDBRANCH   8   9
ENDBRANCH   7   8
ENDBRANCH   6   7
ENDBRANCH   5   6
ENDBRANCH   4   5
ENDBRANCH   3   4
ENDBRANCH   2   3
ENDBRANCH   1   2
BRANCH   1  18
ATOM     18  C   UNL     1     251.253 259.380 247.166  1.00  0.00     0.000 C 
BRANCH  18  19
ATOM     19  C   UNL     1     249.832 258.822 246.983  1.00  0.00     0.000 C 
BRANCH  19  20
ATOM     20  C   UNL     1     249.647 257.412 247.584  1.00  0.00     0.000 C 
BRANCH  20  21
ATOM     21  C   UNL     1     249.090 256.377 246.587  1.00  0.00     0.000 C 
BRANCH  21  22
ATOM     22  C   UNL     1     249.949 255.111 246.423  1.00  0.00     0.000 C 
BRANCH  22  23
ATOM     23  C   UNL     1     250.807 255.112 245.139  1.00  0.00     0.000 C 
BRANCH  23  24
ATOM     24  C   UNL     1     252.313 255.157 245.431  1.00  0.00    -0.000 C 
BRANCH  24  25
ATOM     25  C   UNL     1     252.613 254.596 246.827  1.00  0.00    -0.000 C 
BRANCH  25  26
ATOM     26  C   UNL     1     253.511 253.354 246.745  1.00  0.00    -0.000 C 
BRANCH  26  27
ATOM     27  C   UNL     1     253.021 252.209 247.648  1.00  0.00    -0.000 C 
BRANCH  27  28
ATOM     28  C   UNL     1     251.806 251.470 247.066  1.00  0.00    -0.000 C 
BRANCH  28  29
ATOM     29  C   UNL     1     250.586 251.610 247.987  1.00  0.00    -0.000 C 
BRANCH  29  30
ATOM     30  C   UNL     1     250.921 252.288 249.326  1.00  0.00    -0.000 C 
BRANCH  30  31
ATOM     31  C   UNL     1     250.804 251.345 250.542  1.00  0.00    -0.003 C 
ATOM     32  C   UNL     1     249.636 250.370 250.407  1.00  0.00     0.004 C 
ENDBRANCH  30  31
ENDBRANCH  29  30
ENDBRANCH  28  29
ENDBRANCH  27  28
ENDBRANCH  26  27
ENDBRANCH  25  26
ENDBRANCH  24  25
ENDBRANCH  23  24
ENDBRANCH  22  23
ENDBRANCH  21  22
ENDBRANCH  20  21
ENDBRANCH  19  20
ENDBRANCH  18  19
ENDBRANCH   1  18
TORSDOF 28
ENDMDL
MODEL 3
REMARK VINA RESULT:    -5.311      2.349      6.889
REMARK INTER + INTRA:         -18.816
REMARK INTER:                 -14.208
REMARK INTRA:                  -4.608
REMARK UNBOUND:                -4.812
REMARK SMILES CCCCCCCCCCCCCCCCCCCCCCCCCCCCCC(=O)[O-]
REMARK SMILES IDX 16 1 17 2 18 3 19 4 20 5 21 6 22 7 23 8 24 9 25 10 26 11
REMARK SMILES IDX 27 12 28 13 29 14 30 15 31 16 32 17 15 18 14 19 13 20 12 21
REMARK SMILES IDX 11 22 10 23 9 24 8 25 7 26 6 27 5 28 4 29 3 30 2 31 1 32
REMARK H PARENT
REMARK Flexibility Score: inf
ROOT
ATOM      1  C   UNL     1     253.066 260.417 246.918  1.00  0.00     0.000 C 
ENDROOT
BRANCH   1   2
ATOM      2  C   UNL     1     253.248 258.884 246.970  1.00  0.00     0.000 C 
BRANCH   2   3
ATOM      3  C   UNL     1     252.032 258.171 247.586  1.00  0.00     0.000 C 
BRANCH   3   4
ATOM      4  C   UNL     1     250.688 258.630 246.988  1.00  0.00     0.000 C 
BRANCH   4   5
ATOM      5  C   UNL     1     249.472 257.799 247.445  1.00  0.00     0.000 C 
BRANCH   5   6
ATOM      6  C   UNL     1     249.034 256.743 246.413  1.00  0.00     0.000 C 
BRANCH   6   7
ATOM      7  C   UNL     1     249.958 255.511 246.403  1.00  0.00     0.000 C 
BRANCH   7   8
ATOM      8  C   UNL     1     250.701 255.339 245.067  1.00  0.00     0.000 C 
BRANCH   8   9
ATOM      9  C   UNL     1     252.227 255.257 245.243  1.00  0.00     0.000 C 
BRANCH   9  10
ATOM     10  C   UNL     1     252.642 254.887 246.678  1.00  0.00     0.000 C 
BRANCH  10  11
ATOM     11  C   UNL     1     253.896 253.995 246.714  1.00  0.00     0.000 C 
BRANCH  11  12
ATOM     12  C   UNL     1     254.710 254.169 248.005  1.00  0.00     0.000 C 
BRANCH  12  13
ATOM     13  C   UNL     1     255.208 255.615 248.149  1.00  0.00     0.006 C 
BRANCH  13  14
ATOM     14  C   UNL     1     254.797 256.241 249.489  1.00  0.00     0.053 C 
BRANCH  14  15
ATOM     15  C   UNL     1     255.310 255.454 250.656  1.00  0.00     0.041 C 
ATOM     16  O   UNL     1     254.506 254.904 251.454  1.00  0.00    -0.550 OA
ATOM     17  O   UNL     1     256.677 255.357 250.884  1.00  0.00    -0.550 OA
ENDBRANCH  14  15
ENDBRANCH  13  14
ENDBRANCH  12  13
ENDBRANCH  11  12
ENDBRANCH  10  11
ENDBRANCH   9  10
ENDBRANCH   8   9
ENDBRANCH   7   8
ENDBRANCH   6   7
ENDBRANCH   5   6
ENDBRANCH   4   5
ENDBRANCH   3   4
ENDBRANCH   2   3
ENDBRANCH   1   2
BRANCH   1  18
ATOM     18  C   UNL     1     253.992 261.120 245.908  1.00  0.00     0.000 C 
BRANCH  18  19
ATOM     19  C   UNL     1     254.798 260.131 245.049  1.00  0.00     0.000 C 
BRANCH  19  20
ATOM     20  C   UNL     1     256.237 260.608 244.755  1.00  0.00     0.000 C 
BRANCH  20  21
ATOM     21  C   UNL     1     256.741 261.700 245.718  1.00  0.00     0.000 C 
BRANCH  21  22
ATOM     22  C   UNL     1     258.234 262.045 245.579  1.00  0.00     0.000 C 
BRANCH  22  23
ATOM     23  C   UNL     1     259.136 260.805 245.390  1.00  0.00     0.000 C 
BRANCH  23  24
ATOM     24  C   UNL     1     259.852 260.389 246.683  1.00  0.00    -0.000 C 
BRANCH  24  25
ATOM     25  C   UNL     1     259.948 261.570 247.656  1.00  0.00    -0.000 C 
BRANCH  25  26
ATOM     26  C   UNL     1     259.816 261.103 249.112  1.00  0.00    -0.000 C 
BRANCH  26  27
ATOM     27  C   UNL     1     259.477 262.254 250.074  1.00  0.00    -0.000 C 
BRANCH  27  28
ATOM     28  C   UNL     1     258.066 262.820 249.851  1.00  0.00    -0.000 C 
BRANCH  28  29
ATOM     29  C   UNL     1     257.109 262.362 250.961  1.00  0.00    -0.000 C 
BRANCH  29  30
ATOM     30  C   UNL     1     256.352 261.073 250.604  1.00  0.00    -0.000 C 
BRANCH  30  31
ATOM     31  C   UNL     1     256.051 260.931 249.097  1.00  0.00    -0.003 C 
ATOM     32  C   UNL     1     256.371 259.532 248.572  1.00  0.00     0.004 C 
ENDBRANCH  30  31
ENDBRANCH  29  30
ENDBRANCH  28  29
ENDBRANCH  27  28
ENDBRANCH  26  27
ENDBRANCH  25  26
ENDBRANCH  24  25
ENDBRANCH  23  24
ENDBRANCH  22  23
ENDBRANCH  21  22
ENDBRANCH  20  21
ENDBRANCH  19  20
ENDBRANCH  18  19
ENDBRANCH   1  18
TORSDOF 28
ENDMDL
MODEL 4
REMARK VINA RESULT:    -5.263      1.587      6.818
REMARK INTER + INTRA:         -18.689
REMARK INTER:                 -13.281
REMARK INTRA:                  -5.408
REMARK UNBOUND:                -4.812
REMARK SMILES CCCCCCCCCCCCCCCCCCCCCCCCCCCCCC(=O)[O-]
REMARK SMILES IDX 16 1 17 2 18 3 19 4 20 5 21 6 22 7 23 8 24 9 25 10 26 11
REMARK SMILES IDX 27 12 28 13 29 14 30 15 31 16 32 17 15 18 14 19 13 20 12 21
REMARK SMILES IDX 11 22 10 23 9 24 8 25 7 26 6 27 5 28 4 29 3 30 2 31 1 32
REMARK H PARENT
REMARK Flexibility Score: inf
ROOT
ATOM      1  C   UNL     1     252.456 256.412 246.277  1.00  0.00     0.000 C 
ENDROOT
BRANCH   1   2
ATOM      2  C   UNL     1     252.954 255.983 247.676  1.00  0.00     0.000 C 
BRANCH   2   3
ATOM      3  C   UNL     1     251.926 256.287 248.780  1.00  0.00     0.000 C 
BRANCH   3   4
ATOM      4  C   UNL     1     251.468 255.033 249.549  1.00  0.00     0.000 C 
BRANCH   4   5
ATOM      5  C   UNL     1     250.649 254.035 248.706  1.00  0.00     0.000 C 
BRANCH   5   6
ATOM      6  C   UNL     1     251.261 252.622 248.672  1.00  0.00     0.000 C 
BRANCH   6   7
ATOM      7  C   UNL     1     251.906 252.292 247.314  1.00  0.00     0.000 C 
BRANCH   7   8
ATOM      8  C   UNL     1     253.391 251.907 247.441  1.00  0.00     0.000 C 
BRANCH   8   9
ATOM      9  C   UNL     1     254.128 252.728 248.511  1.00  0.00     0.000 C 
BRANCH   9  10
ATOM     10  C   UNL     1     254.770 251.851 249.600  1.00  0.00     0.000 C 
BRANCH  10  11
ATOM     11  C   UNL     1     253.973 251.871 250.916  1.00  0.00     0.000 C 
BRANCH  11  12
ATOM     12  C   UNL     1     254.718 252.591 252.050  1.00  0.00     0.000 C 
BRANCH  12  13
ATOM     13  C   UNL     1     254.061 253.945 252.363  1.00  0.00     0.006 C 
BRANCH  13  14
ATOM     14  C   UNL     1     254.540 255.057 251.420  1.00  0.00     0.053 C 
BRANCH  14  15
ATOM     15  C   UNL     1     256.032 255.191 251.423  1.00  0.00     0.041 C 
ATOM     16  O   UNL     1     256.689 255.012 250.364  1.00  0.00    -0.550 OA
ATOM     17  O   UNL     1     256.702 255.479 252.607  1.00  0.00    -0.550 OA
ENDBRANCH  14  15
ENDBRANCH  13  14
ENDBRANCH  12  13
ENDBRANCH  11  12
ENDBRANCH  10  11
ENDBRANCH   9  10
ENDBRANCH   8   9
ENDBRANCH   7   8
ENDBRANCH   6   7
ENDBRANCH   5   6
ENDBRANCH   4   5
ENDBRANCH   3   4
ENDBRANCH   2   3
ENDBRANCH   1   2
BRANCH   1  18
ATOM     18  C   UNL     1     252.053 255.232 245.371  1.00  0.00     0.000 C 
BRANCH  18  19
ATOM     19  C   UNL     1     250.566 255.261 244.980  1.00  0.00     0.000 C 
BRANCH  19  20
ATOM     20  C   UNL     1     249.677 255.984 246.015  1.00  0.00     0.000 C 
BRANCH  20  21
ATOM     21  C   UNL     1     248.516 256.783 245.392  1.00  0.00     0.000 C 
BRANCH  21  22
ATOM     22  C   UNL     1     248.278 258.169 246.016  1.00  0.00     0.000 C 
BRANCH  22  23
ATOM     23  C   UNL     1     249.279 258.518 247.140  1.00  0.00     0.000 C 
BRANCH  23  24
ATOM     24  C   UNL     1     250.018 259.840 246.888  1.00  0.00    -0.000 C 
BRANCH  24  25
ATOM     25  C   UNL     1     251.517 259.689 247.176  1.00  0.00    -0.000 C 
BRANCH  25  26
ATOM     26  C   UNL     1     252.237 261.042 247.093  1.00  0.00    -0.000 C 
BRANCH  26  27
ATOM     27  C   UNL     1     253.660 260.991 247.676  1.00  0.00    -0.000 C 
BRANCH  27  28
ATOM     28  C   UNL     1     254.241 259.568 247.703  1.00  0.00    -0.000 C 
BRANCH  28  29
ATOM     29  C   UNL     1     255.332 259.442 248.776  1.00  0.00    -0.000 C 
BRANCH  29  30
ATOM     30  C   UNL     1     254.969 258.438 249.883  1.00  0.00    -0.000 C 
BRANCH  30  31
ATOM     31  C   UNL     1     255.119 259.010 251.308  1.00  0.00    -0.003 C 
ATOM     32  C   UNL     1     255.139 260.538 251.319  1.00  0.00     0.004 C 
ENDBRANCH  30  31
ENDBRANCH  29  30
ENDBRANCH  28  29
ENDBRANCH  27  28
ENDBRANCH  26  27
ENDBRANCH  25  26
ENDBRANCH  24  25
ENDBRANCH  23  24
ENDBRANCH  22  23
ENDBRANCH  21  22
ENDBRANCH  20  21
ENDBRANCH  19  20
ENDBRANCH  18  19
ENDBRANCH   1  18
TORSDOF 28
ENDMDL
MODEL 5
REMARK VINA RESULT:    -5.218      2.548      6.806
REMARK INTER + INTRA:         -18.572
REMARK INTER:                 -14.033
REMARK INTRA:                  -4.539
REMARK UNBOUND:                -4.812
REMARK SMILES CCCCCCCCCCCCCCCCCCCCCCCCCCCCCC(=O)[O-]
REMARK SMILES IDX 16 1 17 2 18 3 19 4 20 5 21 6 22 7 23 8 24 9 25 10 26 11
REMARK SMILES IDX 27 12 28 13 29 14 30 15 31 16 32 17 15 18 14 19 13 20 12 21
REMARK SMILES IDX 11 22 10 23 9 24 8 25 7 26 6 27 5 28 4 29 3 30 2 31 1 32
REMARK H PARENT
REMARK Flexibility Score: inf
ROOT
ATOM      1  C   UNL     1     251.837 261.147 247.287  1.00  0.00     0.000 C 
ENDROOT
BRANCH   1   2
ATOM      2  C   UNL     1     251.317 259.756 246.860  1.00  0.00     0.000 C 
BRANCH   2   3
ATOM      3  C   UNL     1     249.830 259.558 247.204  1.00  0.00     0.000 C 
BRANCH   3   4
ATOM      4  C   UNL     1     249.200 258.336 246.507  1.00  0.00     0.000 C 
BRANCH   4   5
ATOM      5  C   UNL     1     248.783 257.203 247.467  1.00  0.00     0.000 C 
BRANCH   5   6
ATOM      6  C   UNL     1     249.487 255.865 247.171  1.00  0.00     0.000 C 
BRANCH   6   7
ATOM      7  C   UNL     1     250.303 255.906 245.866  1.00  0.00     0.000 C 
BRANCH   7   8
ATOM      8  C   UNL     1     251.804 255.658 246.098  1.00  0.00     0.000 C 
BRANCH   8   9
ATOM      9  C   UNL     1     252.314 256.288 247.404  1.00  0.00     0.000 C 
BRANCH   9  10
ATOM     10  C   UNL     1     253.661 257.013 247.231  1.00  0.00     0.000 C 
BRANCH  10  11
ATOM     11  C   UNL     1     254.063 257.810 248.483  1.00  0.00     0.000 C 
BRANCH  11  12
ATOM     12  C   UNL     1     255.544 257.632 248.850  1.00  0.00     0.000 C 
BRANCH  12  13
ATOM     13  C   UNL     1     255.961 256.157 248.745  1.00  0.00     0.006 C 
BRANCH  13  14
ATOM     14  C   UNL     1     255.601 255.358 250.005  1.00  0.00     0.053 C 
BRANCH  14  15
ATOM     15  C   UNL     1     255.035 254.011 249.672  1.00  0.00     0.041 C 
ATOM     16  O   UNL     1     255.795 253.071 249.322  1.00  0.00    -0.550 OA
ATOM     17  O   UNL     1     253.661 253.804 249.713  1.00  0.00    -0.550 OA
ENDBRANCH  14  15
ENDBRANCH  13  14
ENDBRANCH  12  13
ENDBRANCH  11  12
ENDBRANCH  10  11
ENDBRANCH   9  10
ENDBRANCH   8   9
ENDBRANCH   7   8
ENDBRANCH   6   7
ENDBRANCH   5   6
ENDBRANCH   4   5
ENDBRANCH   3   4
ENDBRANCH   2   3
ENDBRANCH   1   2
BRANCH   1  18
ATOM     18  C   UNL     1     253.371 261.225 247.413  1.00  0.00     0.000 C 
BRANCH  18  19
ATOM     19  C   UNL     1     254.098 260.761 246.140  1.00  0.00     0.000 C 
BRANCH  19  20
ATOM     20  C   UNL     1     255.593 260.448 246.371  1.00  0.00     0.000 C 
BRANCH  20  21
ATOM     21  C   UNL     1     256.548 261.527 245.827  1.00  0.00     0.000 C 
BRANCH  21  22
ATOM     22  C   UNL     1     257.333 261.120 244.567  1.00  0.00     0.000 C 
BRANCH  22  23
ATOM     23  C   UNL     1     258.862 261.284 244.715  1.00  0.00     0.000 C 
BRANCH  23  24
ATOM     24  C   UNL     1     259.250 262.528 245.527  1.00  0.00    -0.000 C 
BRANCH  24  25
ATOM     25  C   UNL     1     260.231 262.161 246.647  1.00  0.00    -0.000 C 
BRANCH  25  26
ATOM     26  C   UNL     1     259.967 260.744 247.175  1.00  0.00    -0.000 C 
BRANCH  26  27
ATOM     27  C   UNL     1     259.550 260.734 248.656  1.00  0.00    -0.000 C 
BRANCH  27  28
ATOM     28  C   UNL     1     259.356 262.146 249.230  1.00  0.00    -0.000 C 
BRANCH  28  29
ATOM     29  C   UNL     1     257.926 262.333 249.756  1.00  0.00    -0.000 C 
BRANCH  29  30
ATOM     30  C   UNL     1     257.021 261.122 249.475  1.00  0.00    -0.000 C 
BRANCH  30  31
ATOM     31  C   UNL     1     255.728 261.109 250.316  1.00  0.00    -0.003 C 
ATOM     32  C   UNL     1     255.864 261.926 251.600  1.00  0.00     0.004 C 
ENDBRANCH  30  31
ENDBRANCH  29  30
ENDBRANCH  28  29
ENDBRANCH  27  28
ENDBRANCH  26  27
ENDBRANCH  25  26
ENDBRANCH  24  25
ENDBRANCH  23  24
ENDBRANCH  22  23
ENDBRANCH  21  22
ENDBRANCH  20  21
ENDBRANCH  19  20
ENDBRANCH  18  19
ENDBRANCH   1  18
TORSDOF 28
ENDMDL
MODEL 6
REMARK VINA RESULT:    -5.211      1.821      4.934
REMARK INTER + INTRA:         -18.554
REMARK INTER:                 -13.568
REMARK INTRA:                  -4.986
REMARK UNBOUND:                -4.812
REMARK SMILES CCCCCCCCCCCCCCCCCCCCCCCCCCCCCC(=O)[O-]
REMARK SMILES IDX 16 1 17 2 18 3 19 4 20 5 21 6 22 7 23 8 24 9 25 10 26 11
REMARK SMILES IDX 27 12 28 13 29 14 30 15 31 16 32 17 15 18 14 19 13 20 12 21
REMARK SMILES IDX 11 22 10 23 9 24 8 25 7 26 6 27 5 28 4 29 3 30 2 31 1 32
REMARK H PARENT
REMARK Flexibility Score: inf
ROOT
ATOM      1  C   UNL     1     251.368 258.490 246.851  1.00  0.00     0.000 C 
ENDROOT
BRANCH   1   2
ATOM      2  C   UNL     1     252.643 259.359 246.932  1.00  0.00     0.000 C 
BRANCH   2   3
ATOM      3  C   UNL     1     253.807 258.767 246.118  1.00  0.00     0.000 C 
BRANCH   3   4
ATOM      4  C   UNL     1     254.484 259.792 245.189  1.00  0.00     0.000 C 
BRANCH   4   5
ATOM      5  C   UNL     1     254.895 261.106 245.885  1.00  0.00     0.000 C 
BRANCH   5   6
ATOM      6  C   UNL     1     256.419 261.321 245.927  1.00  0.00     0.000 C 
BRANCH   6   7
ATOM      7  C   UNL     1     257.024 260.976 247.300  1.00  0.00     0.000 C 
BRANCH   7   8
ATOM      8  C   UNL     1     255.953 260.764 248.384  1.00  0.00     0.000 C 
BRANCH   8   9
ATOM      9  C   UNL     1     256.148 259.452 249.162  1.00  0.00     0.000 C 
BRANCH   9  10
ATOM     10  C   UNL     1     254.825 258.866 249.685  1.00  0.00     0.000 C 
BRANCH  10  11
ATOM     11  C   UNL     1     254.696 257.360 249.397  1.00  0.00     0.000 C 
BRANCH  11  12
ATOM     12  C   UNL     1     256.016 256.731 248.926  1.00  0.00     0.000 C 
BRANCH  12  13
ATOM     13  C   UNL     1     256.074 255.240 249.294  1.00  0.00     0.006 C 
BRANCH  13  14
ATOM     14  C   UNL     1     255.307 254.929 250.586  1.00  0.00     0.053 C 
BRANCH  14  15
ATOM     15  C   UNL     1     256.226 254.776 251.760  1.00  0.00     0.041 C 
ATOM     16  O   UNL     1     256.700 255.792 252.333  1.00  0.00    -0.550 OA
ATOM     17  O   UNL     1     256.589 253.508 252.199  1.00  0.00    -0.550 OA
ENDBRANCH  14  15
ENDBRANCH  13  14
ENDBRANCH  12  13
ENDBRANCH  11  12
ENDBRANCH  10  11
ENDBRANCH   9  10
ENDBRANCH   8   9
ENDBRANCH   7   8
ENDBRANCH   6   7
ENDBRANCH   5   6
ENDBRANCH   4   5
ENDBRANCH   3   4
ENDBRANCH   2   3
ENDBRANCH   1   2
BRANCH   1  18
ATOM     18  C   UNL     1     251.593 257.017 247.245  1.00  0.00     0.000 C 
BRANCH  18  19
ATOM     19  C   UNL     1     251.375 256.046 246.072  1.00  0.00     0.000 C 
BRANCH  19  20
ATOM     20  C   UNL     1     252.657 255.291 245.658  1.00  0.00     0.000 C 
BRANCH  20  21
ATOM     21  C   UNL     1     253.543 254.868 246.846  1.00  0.00     0.000 C 
BRANCH  21  22
ATOM     22  C   UNL     1     253.811 253.355 246.945  1.00  0.00     0.000 C 
BRANCH  22  23
ATOM     23  C   UNL     1     253.246 252.714 248.231  1.00  0.00     0.000 C 
BRANCH  23  24
ATOM     24  C   UNL     1     251.711 252.687 248.256  1.00  0.00    -0.000 C 
BRANCH  24  25
ATOM     25  C   UNL     1     251.169 251.658 247.256  1.00  0.00    -0.000 C 
BRANCH  25  26
ATOM     26  C   UNL     1     249.678 251.889 246.975  1.00  0.00    -0.000 C 
BRANCH  26  27
ATOM     27  C   UNL     1     249.371 253.342 246.574  1.00  0.00    -0.000 C 
BRANCH  27  28
ATOM     28  C   UNL     1     248.178 253.931 247.342  1.00  0.00    -0.000 C 
BRANCH  28  29
ATOM     29  C   UNL     1     248.573 255.234 248.053  1.00  0.00    -0.000 C 
BRANCH  29  30
ATOM     30  C   UNL     1     247.730 256.440 247.605  1.00  0.00    -0.000 C 
BRANCH  30  31
ATOM     31  C   UNL     1     247.877 256.771 246.105  1.00  0.00    -0.003 C 
ATOM     32  C   UNL     1     246.563 257.243 245.486  1.00  0.00     0.004 C 
ENDBRANCH  30  31
ENDBRANCH  29  30
ENDBRANCH  28  29
ENDBRANCH  27  28
ENDBRANCH  26  27
ENDBRANCH  25  26
ENDBRANCH  24  25
ENDBRANCH  23  24
ENDBRANCH  22  23
ENDBRANCH  21  22
ENDBRANCH  20  21
ENDBRANCH  19  20
ENDBRANCH  18  19
ENDBRANCH   1  18
TORSDOF 28
ENDMDL
MODEL 7
REMARK VINA RESULT:    -5.208      2.697      6.459
REMARK INTER + INTRA:         -18.545
REMARK INTER:                 -13.185
REMARK INTRA:                  -5.359
REMARK UNBOUND:                -4.812
REMARK SMILES CCCCCCCCCCCCCCCCCCCCCCCCCCCCCC(=O)[O-]
REMARK SMILES IDX 16 1 17 2 18 3 19 4 20 5 21 6 22 7 23 8 24 9 25 10 26 11
REMARK SMILES IDX 27 12 28 13 29 14 30 15 31 16 32 17 15 18 14 19 13 20 12 21
REMARK SMILES IDX 11 22 10 23 9 24 8 25 7 26 6 27 5 28 4 29 3 30 2 31 1 32
REMARK H PARENT
REMARK Flexibility Score: inf
ROOT
ATOM      1  C   UNL     1     250.113 257.701 247.238  1.00  0.00     0.000 C 
ENDROOT
BRANCH   1   2
ATOM      2  C   UNL     1     249.143 257.081 246.208  1.00  0.00     0.000 C 
BRANCH   2   3
ATOM      3  C   UNL     1     249.804 255.964 245.381  1.00  0.00     0.000 C 
BRANCH   3   4
ATOM      4  C   UNL     1     250.769 255.087 246.201  1.00  0.00     0.000 C 
BRANCH   4   5
ATOM      5  C   UNL     1     252.228 255.110 245.701  1.00  0.00     0.000 C 
BRANCH   5   6
ATOM      6  C   UNL     1     253.260 254.923 246.829  1.00  0.00     0.000 C 
BRANCH   6   7
ATOM      7  C   UNL     1     253.961 253.555 246.764  1.00  0.00     0.000 C 
BRANCH   7   8
ATOM      8  C   UNL     1     253.212 252.466 247.553  1.00  0.00     0.000 C 
BRANCH   8   9
ATOM      9  C   UNL     1     253.837 252.197 248.932  1.00  0.00     0.000 C 
BRANCH   9  10
ATOM     10  C   UNL     1     252.802 252.219 250.071  1.00  0.00     0.000 C 
BRANCH  10  11
ATOM     11  C   UNL     1     251.541 253.019 249.703  1.00  0.00     0.000 C 
BRANCH  11  12
ATOM     12  C   UNL     1     251.608 254.482 250.168  1.00  0.00     0.000 C 
BRANCH  12  13
ATOM     13  C   UNL     1     250.328 255.239 249.782  1.00  0.00     0.006 C 
BRANCH  13  14
ATOM     14  C   UNL     1     249.161 254.291 249.474  1.00  0.00     0.053 C 
BRANCH  14  15
ATOM     15  C   UNL     1     248.004 254.508 250.402  1.00  0.00     0.041 C 
ATOM     16  O   UNL     1     246.867 254.793 249.943  1.00  0.00    -0.550 OA
ATOM     17  O   UNL     1     248.190 254.429 251.777  1.00  0.00    -0.550 OA
ENDBRANCH  14  15
ENDBRANCH  13  14
ENDBRANCH  12  13
ENDBRANCH  11  12
ENDBRANCH  10  11
ENDBRANCH   9  10
ENDBRANCH   8   9
ENDBRANCH   7   8
ENDBRANCH   6   7
ENDBRANCH   5   6
ENDBRANCH   4   5
ENDBRANCH   3   4
ENDBRANCH   2   3
ENDBRANCH   1   2
BRANCH   1  18
ATOM     18  C   UNL     1     250.371 259.205 247.025  1.00  0.00     0.000 C 
BRANCH  18  19
ATOM     19  C   UNL     1     251.856 259.580 247.155  1.00  0.00     0.000 C 
BRANCH  19  20
ATOM     20  C   UNL     1     252.798 258.620 246.396  1.00  0.00     0.000 C 
BRANCH  20  21
ATOM     21  C   UNL     1     254.084 259.290 245.874  1.00  0.00     0.000 C 
BRANCH  21  22
ATOM     22  C   UNL     1     254.430 260.631 246.543  1.00  0.00     0.000 C 
BRANCH  22  23
ATOM     23  C   UNL     1     255.948 260.856 246.722  1.00  0.00     0.000 C 
BRANCH  23  24
ATOM     24  C   UNL     1     256.394 260.765 248.188  1.00  0.00    -0.000 C 
BRANCH  24  25
ATOM     25  C   UNL     1     255.185 260.843 249.129  1.00  0.00    -0.000 C 
BRANCH  25  26
ATOM     26  C   UNL     1     255.540 260.329 250.532  1.00  0.00    -0.000 C 
BRANCH  26  27
ATOM     27  C   UNL     1     255.256 258.826 250.700  1.00  0.00    -0.000 C 
BRANCH  27  28
ATOM     28  C   UNL     1     254.208 258.304 249.705  1.00  0.00    -0.000 C 
BRANCH  28  29
ATOM     29  C   UNL     1     254.376 256.796 249.472  1.00  0.00    -0.000 C 
BRANCH  29  30
ATOM     30  C   UNL     1     255.612 256.215 250.179  1.00  0.00    -0.000 C 
BRANCH  30  31
ATOM     31  C   UNL     1     256.041 254.835 249.638  1.00  0.00    -0.003 C 
ATOM     32  C   UNL     1     257.072 254.948 248.516  1.00  0.00     0.004 C 
ENDBRANCH  30  31
ENDBRANCH  29  30
ENDBRANCH  28  29
ENDBRANCH  27  28
ENDBRANCH  26  27
ENDBRANCH  25  26
ENDBRANCH  24  25
ENDBRANCH  23  24
ENDBRANCH  22  23
ENDBRANCH  21  22
ENDBRANCH  20  21
ENDBRANCH  19  20
ENDBRANCH  18  19
ENDBRANCH   1  18
TORSDOF 28
ENDMDL
MODEL 8
REMARK VINA RESULT:    -5.189      2.105      5.273
REMARK INTER + INTRA:         -18.496
REMARK INTER:                 -14.479
REMARK INTRA:                  -4.017
REMARK UNBOUND:                -4.812
REMARK SMILES CCCCCCCCCCCCCCCCCCCCCCCCCCCCCC(=O)[O-]
REMARK SMILES IDX 16 1 17 2 18 3 19 4 20 5 21 6 22 7 23 8 24 9 25 10 26 11
REMARK SMILES IDX 27 12 28 13 29 14 30 15 31 16 32 17 15 18 14 19 13 20 12 21
REMARK SMILES IDX 11 22 10 23 9 24 8 25 7 26 6 27 5 28 4 29 3 30 2 31 1 32
REMARK H PARENT
REMARK Flexibility Score: inf
ROOT
ATOM      1  C   UNL     1     253.435 260.340 247.026  1.00  0.00     0.000 C 
ENDROOT
BRANCH   1   2
ATOM      2  C   UNL     1     254.366 260.055 245.827  1.00  0.00     0.000 C 
BRANCH   2   3
ATOM      3  C   UNL     1     255.684 260.845 245.909  1.00  0.00     0.000 C 
BRANCH   3   4
ATOM      4  C   UNL     1     256.487 260.829 244.594  1.00  0.00     0.000 C 
BRANCH   4   5
ATOM      5  C   UNL     1     257.885 261.473 244.696  1.00  0.00     0.000 C 
BRANCH   5   6
ATOM      6  C   UNL     1     257.857 262.895 245.287  1.00  0.00     0.000 C 
BRANCH   6   7
ATOM      7  C   UNL     1     258.815 263.055 246.481  1.00  0.00     0.000 C 
BRANCH   7   8
ATOM      8  C   UNL     1     259.532 261.743 246.846  1.00  0.00     0.000 C 
BRANCH   8   9
ATOM      9  C   UNL     1     259.100 261.192 248.216  1.00  0.00     0.000 C 
BRANCH   9  10
ATOM     10  C   UNL     1     258.816 262.302 249.243  1.00  0.00     0.000 C 
BRANCH  10  11
ATOM     11  C   UNL     1     257.512 262.060 250.023  1.00  0.00     0.000 C 
BRANCH  11  12
ATOM     12  C   UNL     1     256.696 260.885 249.465  1.00  0.00     0.000 C 
BRANCH  12  13
ATOM     13  C   UNL     1     255.257 260.912 250.003  1.00  0.00     0.006 C 
BRANCH  13  14
ATOM     14  C   UNL     1     255.209 260.919 251.538  1.00  0.00     0.053 C 
BRANCH  14  15
ATOM     15  C   UNL     1     254.903 259.562 252.095  1.00  0.00     0.041 C 
ATOM     16  O   UNL     1     254.487 259.440 253.277  1.00  0.00    -0.550 OA
ATOM     17  O   UNL     1     255.113 258.428 251.320  1.00  0.00    -0.550 OA
ENDBRANCH  14  15
ENDBRANCH  13  14
ENDBRANCH  12  13
ENDBRANCH  11  12
ENDBRANCH  10  11
ENDBRANCH   9  10
ENDBRANCH   8   9
ENDBRANCH   7   8
ENDBRANCH   6   7
ENDBRANCH   5   6
ENDBRANCH   4   5
ENDBRANCH   3   4
ENDBRANCH   2   3
ENDBRANCH   1   2
BRANCH   1  18
ATOM     18  C   UNL     1     252.333 259.282 247.224  1.00  0.00     0.000 C 
BRANCH  18  19
ATOM     19  C   UNL     1     250.927 259.819 246.910  1.00  0.00     0.000 C 
BRANCH  19  20
ATOM     20  C   UNL     1     249.818 258.757 247.067  1.00  0.00     0.000 C 
BRANCH  20  21
ATOM     21  C   UNL     1     250.330 257.305 247.001  1.00  0.00     0.000 C 
BRANCH  21  22
ATOM     22  C   UNL     1     249.666 256.434 245.920  1.00  0.00     0.000 C 
BRANCH  22  23
ATOM     23  C   UNL     1     250.560 255.273 245.431  1.00  0.00     0.000 C 
BRANCH  23  24
ATOM     24  C   UNL     1     252.049 255.511 245.713  1.00  0.00    -0.000 C 
BRANCH  24  25
ATOM     25  C   UNL     1     252.638 254.360 246.537  1.00  0.00    -0.000 C 
BRANCH  25  26
ATOM     26  C   UNL     1     252.189 254.440 248.003  1.00  0.00    -0.000 C 
BRANCH  26  27
ATOM     27  C   UNL     1     253.332 254.845 248.950  1.00  0.00    -0.000 C 
BRANCH  27  28
ATOM     28  C   UNL     1     253.642 256.349 248.900  1.00  0.00    -0.000 C 
BRANCH  28  29
ATOM     29  C   UNL     1     254.929 256.618 248.107  1.00  0.00    -0.000 C 
BRANCH  29  30
ATOM     30  C   UNL     1     255.912 255.436 248.141  1.00  0.00    -0.000 C 
BRANCH  30  31
ATOM     31  C   UNL     1     257.049 255.609 249.169  1.00  0.00    -0.003 C 
ATOM     32  C   UNL     1     256.690 255.024 250.534  1.00  0.00     0.004 C 
ENDBRANCH  30  31
ENDBRANCH  29  30
ENDBRANCH  28  29
ENDBRANCH  27  28
ENDBRANCH  26  27
ENDBRANCH  25  26
ENDBRANCH  24  25
ENDBRANCH  23  24
ENDBRANCH  22  23
ENDBRANCH  21  22
ENDBRANCH  20  21
ENDBRANCH  19  20
ENDBRANCH  18  19
ENDBRANCH   1  18
TORSDOF 28
ENDMDL
MODEL 9
REMARK VINA RESULT:    -5.169      2.225      6.012
REMARK INTER + INTRA:         -18.441
REMARK INTER:                 -13.191
REMARK INTRA:                  -5.250
REMARK UNBOUND:                -4.812
REMARK SMILES CCCCCCCCCCCCCCCCCCCCCCCCCCCCCC(=O)[O-]
REMARK SMILES IDX 16 1 17 2 18 3 19 4 20 5 21 6 22 7 23 8 24 9 25 10 26 11
REMARK SMILES IDX 27 12 28 13 29 14 30 15 31 16 32 17 15 18 14 19 13 20 12 21
REMARK SMILES IDX 11 22 10 23 9 24 8 25 7 26 6 27 5 28 4 29 3 30 2 31 1 32
REMARK H PARENT
REMARK Flexibility Score: inf
ROOT
ATOM      1  C   UNL     1     251.390 259.770 246.855  1.00  0.00     0.000 C 
ENDROOT
BRANCH   1   2
ATOM      2  C   UNL     1     251.930 261.173 247.209  1.00  0.00     0.000 C 
BRANCH   2   3
ATOM      3  C   UNL     1     253.457 261.179 247.404  1.00  0.00     0.000 C 
BRANCH   3   4
ATOM      4  C   UNL     1     254.136 259.876 246.938  1.00  0.00     0.000 C 
BRANCH   4   5
ATOM      5  C   UNL     1     254.731 259.027 248.080  1.00  0.00     0.000 C 
BRANCH   5   6
ATOM      6  C   UNL     1     254.426 257.524 247.943  1.00  0.00     0.000 C 
BRANCH   6   7
ATOM      7  C   UNL     1     253.222 257.087 248.796  1.00  0.00     0.000 C 
BRANCH   7   8
ATOM      8  C   UNL     1     252.121 256.406 247.964  1.00  0.00     0.000 C 
BRANCH   8   9
ATOM      9  C   UNL     1     252.532 256.192 246.498  1.00  0.00     0.000 C 
BRANCH   9  10
ATOM     10  C   UNL     1     252.554 254.707 246.096  1.00  0.00     0.000 C 
BRANCH  10  11
ATOM     11  C   UNL     1     253.774 253.963 246.663  1.00  0.00     0.000 C 
BRANCH  11  12
ATOM     12  C   UNL     1     253.384 252.753 247.526  1.00  0.00     0.000 C 
BRANCH  12  13
ATOM     13  C   UNL     1     253.670 253.023 249.011  1.00  0.00     0.006 C 
BRANCH  13  14
ATOM     14  C   UNL     1     254.919 253.892 249.215  1.00  0.00     0.053 C 
BRANCH  14  15
ATOM     15  C   UNL     1     255.113 254.265 250.653  1.00  0.00     0.041 C 
ATOM     16  O   UNL     1     256.238 254.120 251.201  1.00  0.00    -0.550 OA
ATOM     17  O   UNL     1     254.041 254.739 251.401  1.00  0.00    -0.550 OA
ENDBRANCH  14  15
ENDBRANCH  13  14
ENDBRANCH  12  13
ENDBRANCH  11  12
ENDBRANCH  10  11
ENDBRANCH   9  10
ENDBRANCH   8   9
ENDBRANCH   7   8
ENDBRANCH   6   7
ENDBRANCH   5   6
ENDBRANCH   4   5
ENDBRANCH   3   4
ENDBRANCH   2   3
ENDBRANCH   1   2
BRANCH   1  18
ATOM     18  C   UNL     1     249.901 259.572 247.198  1.00  0.00     0.000 C 
BRANCH  18  19
ATOM     19  C   UNL     1     248.984 260.575 246.478  1.00  0.00     0.000 C 
BRANCH  19  20
ATOM     20  C   UNL     1     248.087 259.921 245.405  1.00  0.00     0.000 C 
BRANCH  20  21
ATOM     21  C   UNL     1     247.491 258.565 245.831  1.00  0.00     0.000 C 
BRANCH  21  22
ATOM     22  C   UNL     1     247.932 257.367 244.972  1.00  0.00     0.000 C 
BRANCH  22  23
ATOM     23  C   UNL     1     248.833 256.367 245.730  1.00  0.00     0.000 C 
BRANCH  23  24
ATOM     24  C   UNL     1     248.549 256.335 247.238  1.00  0.00    -0.000 C 
BRANCH  24  25
ATOM     25  C   UNL     1     248.539 254.893 247.759  1.00  0.00    -0.000 C 
BRANCH  25  26
ATOM     26  C   UNL     1     248.986 253.906 246.672  1.00  0.00    -0.000 C 
BRANCH  26  27
ATOM     27  C   UNL     1     249.675 252.659 247.253  1.00  0.00    -0.000 C 
BRANCH  27  28
ATOM     28  C   UNL     1     249.868 252.741 248.775  1.00  0.00    -0.000 C 
BRANCH  28  29
ATOM     29  C   UNL     1     250.308 251.385 249.345  1.00  0.00    -0.000 C 
BRANCH  29  30
ATOM     30  C   UNL     1     250.617 251.441 250.851  1.00  0.00    -0.000 C 
BRANCH  30  31
ATOM     31  C   UNL     1     250.152 250.189 251.623  1.00  0.00    -0.003 C 
ATOM     32  C   UNL     1     249.012 249.461 250.913  1.00  0.00     0.004 C 
ENDBRANCH  30  31
ENDBRANCH  29  30
ENDBRANCH  28  29
ENDBRANCH  27  28
ENDBRANCH  26  27
ENDBRANCH  25  26
ENDBRANCH  24  25
ENDBRANCH  23  24
ENDBRANCH  22  23
ENDBRANCH  21  22
ENDBRANCH  20  21
ENDBRANCH  19  20
ENDBRANCH  18  19
ENDBRANCH   1  18
TORSDOF 28
ENDMDL
