MODEL 1
REMARK VINA RESULT:    -4.642      0.000      0.000
REMARK INTER + INTRA:          -4.914
REMARK INTER:                  -4.914
REMARK INTRA:                   0.000
REMARK UNBOUND:                 0.000
REMARK SMILES Cc1cc(O)c(C)c(C)c1O
REMARK SMILES IDX 1 1 2 2 3 3 4 4 6 5 8 6 10 7 9 8 7 9 11 10 5 12
REMARK H PARENT 11 11 5 13
REMARK Flexibility Score: inf
ROOT
ATOM      1  C   UNL     1      18.289  29.124  30.044  1.00  0.00     0.048 C 
ATOM      2  C   UNL     1      18.713  28.494  31.343  1.00  0.00    -0.005 A 
ATOM      3  C   UNL     1      19.513  27.348  31.335  1.00  0.00     0.053 A 
ATOM      4  C   UNL     1      19.948  26.767  32.525  1.00  0.00     0.119 A 
ATOM      5  C   UNL     1      19.592  27.346  33.767  1.00  0.00    -0.003 A 
ATOM      6  C   UNL     1      18.676  28.436  33.787  1.00  0.00    -0.002 A 
ATOM      7  C   UNL     1      18.299  29.048  32.565  1.00  0.00     0.121 A 
ATOM      8  C   UNL     1      18.113  28.956  35.091  1.00  0.00     0.049 C 
ATOM      9  C   UNL     1      20.175  26.789  35.047  1.00  0.00     0.049 C 
ENDROOT
BRANCH   7  10
ATOM     10  O   UNL     1      17.525  30.214  32.533  1.00  0.00    -0.507 OA
ATOM     11  H   UNL     1      17.117  30.640  33.354  1.00  0.00     0.293 HD
ENDBRANCH   7  10
BRANCH   4  12
ATOM     12  O   UNL     1      20.721  25.607  32.433  1.00  0.00    -0.508 OA
ATOM     13  H   UNL     1      21.680  25.598  32.112  1.00  0.00     0.293 HD
ENDBRANCH   4  12
TORSDOF 2
ENDMDL
MODEL 2
REMARK VINA RESULT:    -4.613      1.780      2.834
REMARK INTER + INTRA:          -4.883
REMARK INTER:                  -4.883
REMARK INTRA:                   0.000
REMARK UNBOUND:                 0.000
REMARK SMILES Cc1cc(O)c(C)c(C)c1O
REMARK SMILES IDX 1 1 2 2 3 3 4 4 6 5 8 6 10 7 9 8 7 9 11 10 5 12
REMARK H PARENT 11 11 5 13
REMARK Flexibility Score: inf
ROOT
ATOM      1  C   UNL     1      16.801  31.171  33.606  1.00  0.00     0.048 C 
ATOM      2  C   UNL     1      17.618  29.974  33.199  1.00  0.00    -0.005 A 
ATOM      3  C   UNL     1      17.664  29.584  31.858  1.00  0.00     0.053 A 
ATOM      4  C   UNL     1      18.443  28.501  31.451  1.00  0.00     0.119 A 
ATOM      5  C   UNL     1      19.212  27.787  32.400  1.00  0.00    -0.003 A 
ATOM      6  C   UNL     1      19.072  28.097  33.782  1.00  0.00    -0.002 A 
ATOM      7  C   UNL     1      18.327  29.242  34.164  1.00  0.00     0.121 A 
ATOM      8  C   UNL     1      19.718  27.235  34.844  1.00  0.00     0.049 C 
ATOM      9  C   UNL     1      20.155  26.698  31.933  1.00  0.00     0.049 C 
ENDROOT
BRANCH   7  10
ATOM     10  O   UNL     1      18.282  29.682  35.492  1.00  0.00    -0.507 OA
ATOM     11  H   UNL     1      17.506  29.504  36.117  1.00  0.00     0.293 HD
ENDBRANCH   7  10
BRANCH   4  12
ATOM     12  O   UNL     1      18.414  28.157  30.097  1.00  0.00    -0.508 OA
ATOM     13  H   UNL     1      18.999  27.440  29.689  1.00  0.00     0.293 HD
ENDBRANCH   4  12
TORSDOF 2
ENDMDL
MODEL 3
REMARK VINA RESULT:    -4.604      3.161      4.929
REMARK INTER + INTRA:          -4.873
REMARK INTER:                  -4.873
REMARK INTRA:                   0.000
REMARK UNBOUND:                 0.000
REMARK SMILES Cc1cc(O)c(C)c(C)c1O
REMARK SMILES IDX 1 1 2 2 3 3 4 4 6 5 8 6 10 7 9 8 7 9 11 10 5 12
REMARK H PARENT 11 11 5 13
REMARK Flexibility Score: inf
ROOT
ATOM      1  C   UNL     1      18.257  26.766  28.832  1.00  0.00     0.048 C 
ATOM      2  C   UNL     1      18.272  28.182  29.343  1.00  0.00    -0.005 A 
ATOM      3  C   UNL     1      18.007  28.441  30.690  1.00  0.00     0.053 A 
ATOM      4  C   UNL     1      18.052  29.740  31.194  1.00  0.00     0.119 A 
ATOM      5  C   UNL     1      18.383  30.819  30.341  1.00  0.00    -0.003 A 
ATOM      6  C   UNL     1      18.530  30.580  28.945  1.00  0.00    -0.002 A 
ATOM      7  C   UNL     1      18.545  29.245  28.467  1.00  0.00     0.121 A 
ATOM      8  C   UNL     1      18.686  31.726  27.970  1.00  0.00     0.049 C 
ATOM      9  C   UNL     1      18.559  32.207  30.920  1.00  0.00     0.049 C 
ENDROOT
BRANCH   7  10
ATOM     10  O   UNL     1      18.836  28.944  27.132  1.00  0.00    -0.507 OA
ATOM     11  H   UNL     1      19.670  28.455  26.836  1.00  0.00     0.293 HD
ENDBRANCH   7  10
BRANCH   4  12
ATOM     12  O   UNL     1      17.747  29.920  32.546  1.00  0.00    -0.508 OA
ATOM     13  H   UNL     1      17.660  29.158  33.206  1.00  0.00     0.293 HD
ENDBRANCH   4  12
TORSDOF 2
ENDMDL
MODEL 4
REMARK VINA RESULT:    -4.601      1.049      3.225
REMARK INTER + INTRA:          -4.870
REMARK INTER:                  -4.870
REMARK INTRA:                   0.000
REMARK UNBOUND:                 0.000
REMARK SMILES Cc1cc(O)c(C)c(C)c1O
REMARK SMILES IDX 1 1 2 2 3 3 4 4 6 5 8 6 10 7 9 8 7 9 11 10 5 12
REMARK H PARENT 11 11 5 13
REMARK Flexibility Score: inf
ROOT
ATOM      1  C   UNL     1      18.371  28.403  29.320  1.00  0.00     0.048 C 
ATOM      2  C   UNL     1      18.386  28.589  30.814  1.00  0.00    -0.005 A 
ATOM      3  C   UNL     1      17.680  29.646  31.393  1.00  0.00     0.053 A 
ATOM      4  C   UNL     1      17.650  29.816  32.776  1.00  0.00     0.119 A 
ATOM      5  C   UNL     1      18.328  28.903  33.618  1.00  0.00    -0.003 A 
ATOM      6  C   UNL     1      19.151  27.900  33.031  1.00  0.00    -0.002 A 
ATOM      7  C   UNL     1      19.115  27.706  31.627  1.00  0.00     0.121 A 
ATOM      8  C   UNL     1      20.049  27.031  33.885  1.00  0.00     0.049 C 
ATOM      9  C   UNL     1      18.182  29.017  35.120  1.00  0.00     0.049 C 
ENDROOT
BRANCH   7  10
ATOM     10  O   UNL     1      19.784  26.641  31.013  1.00  0.00    -0.507 OA
ATOM     11  H   UNL     1      20.505  26.095  31.465  1.00  0.00     0.293 HD
ENDBRANCH   7  10
BRANCH   4  12
ATOM     12  O   UNL     1      16.945  30.915  33.276  1.00  0.00    -0.508 OA
ATOM     13  H   UNL     1      17.161  31.366  34.155  1.00  0.00     0.293 HD
ENDBRANCH   4  12
TORSDOF 2
ENDMDL
MODEL 5
REMARK VINA RESULT:    -4.573      1.472      4.237
REMARK INTER + INTRA:          -4.840
REMARK INTER:                  -4.840
REMARK INTRA:                   0.000
REMARK UNBOUND:                 0.000
REMARK SMILES Cc1cc(O)c(C)c(C)c1O
REMARK SMILES IDX 1 1 2 2 3 3 4 4 6 5 8 6 10 7 9 8 7 9 11 10 5 12
REMARK H PARENT 11 11 5 13
REMARK Flexibility Score: inf
ROOT
ATOM      1  C   UNL     1      20.254  26.450  34.674  1.00  0.00     0.048 C 
ATOM      2  C   UNL     1      19.415  27.606  34.199  1.00  0.00    -0.005 A 
ATOM      3  C   UNL     1      18.882  28.507  35.125  1.00  0.00     0.053 A 
ATOM      4  C   UNL     1      18.132  29.606  34.707  1.00  0.00     0.119 A 
ATOM      5  C   UNL     1      17.914  29.831  33.327  1.00  0.00    -0.003 A 
ATOM      6  C   UNL     1      18.346  28.852  32.388  1.00  0.00    -0.002 A 
ATOM      7  C   UNL     1      19.161  27.779  32.830  1.00  0.00     0.121 A 
ATOM      8  C   UNL     1      17.962  28.949  30.928  1.00  0.00     0.049 C 
ATOM      9  C   UNL     1      17.214  31.094  32.875  1.00  0.00     0.049 C 
ENDROOT
BRANCH   7  10
ATOM     10  O   UNL     1      19.739  26.874  31.931  1.00  0.00    -0.507 OA
ATOM     11  H   UNL     1      20.460  27.124  31.268  1.00  0.00     0.293 HD
ENDBRANCH   7  10
BRANCH   4  12
ATOM     12  O   UNL     1      17.610  30.445  35.695  1.00  0.00    -0.508 OA
ATOM     13  H   UNL     1      17.914  31.399  35.838  1.00  0.00     0.293 HD
ENDBRANCH   4  12
TORSDOF 2
ENDMDL
MODEL 6
REMARK VINA RESULT:    -4.538      2.984      4.858
REMARK INTER + INTRA:          -4.803
REMARK INTER:                  -4.803
REMARK INTRA:                   0.000
REMARK UNBOUND:                 0.000
REMARK SMILES Cc1cc(O)c(C)c(C)c1O
REMARK SMILES IDX 1 1 2 2 3 3 4 4 6 5 8 6 10 7 9 8 7 9 11 10 5 12
REMARK H PARENT 11 11 5 13
REMARK Flexibility Score: inf
ROOT
ATOM      1  C   UNL     1      17.698  30.249  32.380  1.00  0.00     0.048 C 
ATOM      2  C   UNL     1      18.034  29.809  30.980  1.00  0.00    -0.005 A 
ATOM      3  C   UNL     1      18.045  28.449  30.659  1.00  0.00     0.053 A 
ATOM      4  C   UNL     1      18.318  28.020  29.361  1.00  0.00     0.119 A 
ATOM      5  C   UNL     1      18.574  28.967  28.341  1.00  0.00    -0.003 A 
ATOM      6  C   UNL     1      18.688  30.344  28.686  1.00  0.00    -0.002 A 
ATOM      7  C   UNL     1      18.344  30.762  29.996  1.00  0.00     0.121 A 
ATOM      8  C   UNL     1      19.156  31.365  27.672  1.00  0.00     0.049 C 
ATOM      9  C   UNL     1      18.738  28.502  26.910  1.00  0.00     0.049 C 
ENDROOT
BRANCH   7  10
ATOM     10  O   UNL     1      18.291  32.116  30.348  1.00  0.00    -0.507 OA
ATOM     11  H   UNL     1      17.501  32.717  30.152  1.00  0.00     0.293 HD
ENDBRANCH   7  10
BRANCH   4  12
ATOM     12  O   UNL     1      18.338  26.643  29.127  1.00  0.00    -0.508 OA
ATOM     13  H   UNL     1      19.128  26.154  28.727  1.00  0.00     0.293 HD
ENDBRANCH   4  12
TORSDOF 2
ENDMDL
MODEL 7
REMARK VINA RESULT:    -4.503      2.650      4.773
REMARK INTER + INTRA:          -4.767
REMARK INTER:                  -4.767
REMARK INTRA:                   0.000
REMARK UNBOUND:                 0.000
REMARK SMILES Cc1cc(O)c(C)c(C)c1O
REMARK SMILES IDX 1 1 2 2 3 3 4 4 6 5 8 6 10 7 9 8 7 9 11 10 5 12
REMARK H PARENT 11 11 5 13
REMARK Flexibility Score: inf
ROOT
ATOM      1  C   UNL     1      18.432  28.051  26.899  1.00  0.00     0.048 C 
ATOM      2  C   UNL     1      18.435  28.897  28.144  1.00  0.00    -0.005 A 
ATOM      3  C   UNL     1      18.436  30.291  28.040  1.00  0.00     0.053 A 
ATOM      4  C   UNL     1      18.402  31.095  29.178  1.00  0.00     0.119 A 
ATOM      5  C   UNL     1      18.350  30.503  30.462  1.00  0.00    -0.003 A 
ATOM      6  C   UNL     1      18.475  29.090  30.580  1.00  0.00    -0.002 A 
ATOM      7  C   UNL     1      18.443  28.291  29.410  1.00  0.00     0.121 A 
ATOM      8  C   UNL     1      18.625  28.431  31.934  1.00  0.00     0.049 C 
ATOM      9  C   UNL     1      18.180  31.379  31.685  1.00  0.00     0.049 C 
ENDROOT
BRANCH   7  10
ATOM     10  O   UNL     1      18.409  26.893  29.473  1.00  0.00    -0.507 OA
ATOM     11  H   UNL     1      17.922  26.375  30.192  1.00  0.00     0.293 HD
ENDBRANCH   7  10
BRANCH   4  12
ATOM     12  O   UNL     1      18.435  32.480  28.991  1.00  0.00    -0.508 OA
ATOM     13  H   UNL     1      18.796  33.129  29.678  1.00  0.00     0.293 HD
ENDBRANCH   4  12
TORSDOF 2
ENDMDL
MODEL 8
REMARK VINA RESULT:    -4.502     10.864     11.116
REMARK INTER + INTRA:          -4.766
REMARK INTER:                  -4.766
REMARK INTRA:                   0.000
REMARK UNBOUND:                 0.000
REMARK SMILES Cc1cc(O)c(C)c(C)c1O
REMARK SMILES IDX 1 1 2 2 3 3 4 4 6 5 8 6 10 7 9 8 7 9 11 10 5 12
REMARK H PARENT 11 11 5 13
REMARK Flexibility Score: inf
ROOT
ATOM      1  C   UNL     1      11.232  20.696  35.666  1.00  0.00     0.048 C 
ATOM      2  C   UNL     1      12.401  20.133  36.429  1.00  0.00    -0.005 A 
ATOM      3  C   UNL     1      13.422  19.464  35.748  1.00  0.00     0.053 A 
ATOM      4  C   UNL     1      14.532  18.965  36.428  1.00  0.00     0.119 A 
ATOM      5  C   UNL     1      14.645  19.145  37.827  1.00  0.00    -0.003 A 
ATOM      6  C   UNL     1      13.553  19.712  38.544  1.00  0.00    -0.002 A 
ATOM      7  C   UNL     1      12.465  20.269  37.824  1.00  0.00     0.121 A 
ATOM      8  C   UNL     1      13.545  19.742  40.056  1.00  0.00     0.049 C 
ATOM      9  C   UNL     1      15.912  18.719  38.537  1.00  0.00     0.049 C 
ENDROOT
BRANCH   7  10
ATOM     10  O   UNL     1      11.440  20.973  38.468  1.00  0.00    -0.507 OA
ATOM     11  H   UNL     1      10.595  21.280  38.007  1.00  0.00     0.293 HD
ENDBRANCH   7  10
BRANCH   4  12
ATOM     12  O   UNL     1      15.496  18.285  35.679  1.00  0.00    -0.508 OA
ATOM     13  H   UNL     1      16.440  18.117  36.002  1.00  0.00     0.293 HD
ENDBRANCH   4  12
TORSDOF 2
ENDMDL
MODEL 9
REMARK VINA RESULT:    -4.483      1.226      2.939
REMARK INTER + INTRA:          -4.745
REMARK INTER:                  -4.745
REMARK INTRA:                   0.000
REMARK UNBOUND:                 0.000
REMARK SMILES Cc1cc(O)c(C)c(C)c1O
REMARK SMILES IDX 1 1 2 2 3 3 4 4 6 5 8 6 10 7 9 8 7 9 11 10 5 12
REMARK H PARENT 11 11 5 13
REMARK Flexibility Score: inf
ROOT
ATOM      1  C   UNL     1      17.464  29.916  34.976  1.00  0.00     0.048 C 
ATOM      2  C   UNL     1      18.320  28.899  34.271  1.00  0.00    -0.005 A 
ATOM      3  C   UNL     1      19.110  28.016  35.012  1.00  0.00     0.053 A 
ATOM      4  C   UNL     1      19.882  27.042  34.382  1.00  0.00     0.119 A 
ATOM      5  C   UNL     1      19.864  26.925  32.972  1.00  0.00    -0.003 A 
ATOM      6  C   UNL     1      19.162  27.898  32.205  1.00  0.00    -0.002 A 
ATOM      7  C   UNL     1      18.333  28.838  32.868  1.00  0.00     0.121 A 
ATOM      8  C   UNL     1      19.277  27.933  30.697  1.00  0.00     0.049 C 
ATOM      9  C   UNL     1      20.600  25.784  32.305  1.00  0.00     0.049 C 
ENDROOT
BRANCH   7  10
ATOM     10  O   UNL     1      17.505  29.717  32.161  1.00  0.00    -0.507 OA
ATOM     11  H   UNL     1      17.284  30.654  32.471  1.00  0.00     0.293 HD
ENDBRANCH   7  10
BRANCH   4  12
ATOM     12  O   UNL     1      20.667  26.216  35.192  1.00  0.00    -0.508 OA
ATOM     13  H   UNL     1      21.433  26.553  35.760  1.00  0.00     0.293 HD
ENDBRANCH   4  12
TORSDOF 2
ENDMDL
