MODEL 1
REMARK VINA RESULT:    -3.253      0.000      0.000
REMARK INTER + INTRA:          -4.404
REMARK INTER:                  -4.203
REMARK INTRA:                  -0.200
REMARK UNBOUND:                -0.200
REMARK SMILES CCCCCCC(=O)[O-]
REMARK SMILES IDX 5 1 6 2 7 3 8 4 9 5 4 6 3 7 2 8 1 9
REMARK H PARENT
REMARK Flexibility Score: inf
ROOT
ATOM      1  C   UNL     1      61.701  32.981  60.374  1.00  0.00     0.006 C 
ENDROOT
BRANCH   1   2
ATOM      2  C   UNL     1      62.490  31.713  60.725  1.00  0.00     0.053 C 
BRANCH   2   3
ATOM      3  C   UNL     1      61.621  30.745  61.464  1.00  0.00     0.041 C 
ATOM      4  O   UNL     1      60.491  31.104  61.887  1.00  0.00    -0.550 OA
ATOM      5  O   UNL     1      62.040  29.433  61.645  1.00  0.00    -0.550 OA
ENDBRANCH   2   3
ENDBRANCH   1   2
BRANCH   1   6
ATOM      6  C   UNL     1      62.571  34.251  60.387  1.00  0.00     0.000 C 
BRANCH   6   7
ATOM      7  C   UNL     1      64.020  34.043  60.864  1.00  0.00    -0.000 C 
BRANCH   7   8
ATOM      8  C   UNL     1      64.582  35.255  61.620  1.00  0.00    -0.003 C 
ATOM      9  C   UNL     1      63.698  36.483  61.426  1.00  0.00     0.004 C 
ENDBRANCH   7   8
ENDBRANCH   6   7
ENDBRANCH   1   6
TORSDOF 5
ENDMDL
MODEL 2
REMARK VINA RESULT:    -3.156     12.700     14.064
REMARK INTER + INTRA:          -4.278
REMARK INTER:                  -4.109
REMARK INTRA:                  -0.169
REMARK UNBOUND:                -0.200
REMARK SMILES CCCCCCC(=O)[O-]
REMARK SMILES IDX 5 1 6 2 7 3 8 4 9 5 4 6 3 7 2 8 1 9
REMARK H PARENT
REMARK Flexibility Score: inf
ROOT
ATOM      1  C   UNL     1      58.160  29.009  50.665  1.00  0.00     0.006 C 
ENDROOT
BRANCH   1   2
ATOM      2  C   UNL     1      58.966  28.896  49.364  1.00  0.00     0.053 C 
BRANCH   2   3
ATOM      3  C   UNL     1      59.902  27.731  49.430  1.00  0.00     0.041 C 
ATOM      4  O   UNL     1      59.451  26.555  49.420  1.00  0.00    -0.550 OA
ATOM      5  O   UNL     1      61.275  27.941  49.452  1.00  0.00    -0.550 OA
ENDBRANCH   2   3
ENDBRANCH   1   2
BRANCH   1   6
ATOM      6  C   UNL     1      56.645  28.843  50.447  1.00  0.00     0.000 C 
BRANCH   6   7
ATOM      7  C   UNL     1      56.154  27.386  50.373  1.00  0.00    -0.000 C 
BRANCH   7   8
ATOM      8  C   UNL     1      54.678  27.270  49.966  1.00  0.00    -0.003 C 
ATOM      9  C   UNL     1      54.403  25.944  49.262  1.00  0.00     0.004 C 
ENDBRANCH   7   8
ENDBRANCH   6   7
ENDBRANCH   1   6
TORSDOF 5
ENDMDL
MODEL 3
REMARK VINA RESULT:    -3.152      1.275      1.749
REMARK INTER + INTRA:          -4.274
REMARK INTER:                  -4.136
REMARK INTRA:                  -0.138
REMARK UNBOUND:                -0.200
REMARK SMILES CCCCCCC(=O)[O-]
REMARK SMILES IDX 5 1 6 2 7 3 8 4 9 5 4 6 3 7 2 8 1 9
REMARK H PARENT
REMARK Flexibility Score: inf
ROOT
ATOM      1  C   UNL     1      61.146  32.056  60.289  1.00  0.00     0.006 C 
ENDROOT
BRANCH   1   2
ATOM      2  C   UNL     1      61.100  31.169  61.540  1.00  0.00     0.053 C 
BRANCH   2   3
ATOM      3  C   UNL     1      62.010  29.992  61.379  1.00  0.00     0.041 C 
ATOM      4  O   UNL     1      61.546  28.877  61.025  1.00  0.00    -0.550 OA
ATOM      5  O   UNL     1      63.377  30.140  61.573  1.00  0.00    -0.550 OA
ENDBRANCH   2   3
ENDBRANCH   1   2
BRANCH   1   6
ATOM      6  C   UNL     1      62.256  33.121  60.350  1.00  0.00     0.000 C 
BRANCH   6   7
ATOM      7  C   UNL     1      61.759  34.577  60.389  1.00  0.00    -0.000 C 
BRANCH   7   8
ATOM      8  C   UNL     1      62.828  35.563  60.881  1.00  0.00    -0.003 C 
ATOM      9  C   UNL     1      64.124  34.838  61.234  1.00  0.00     0.004 C 
ENDBRANCH   7   8
ENDBRANCH   6   7
ENDBRANCH   1   6
TORSDOF 5
ENDMDL
MODEL 4
REMARK VINA RESULT:    -3.120     13.143     14.098
REMARK INTER + INTRA:          -4.232
REMARK INTER:                  -4.014
REMARK INTRA:                  -0.218
REMARK UNBOUND:                -0.200
REMARK SMILES CCCCCCC(=O)[O-]
REMARK SMILES IDX 5 1 6 2 7 3 8 4 9 5 4 6 3 7 2 8 1 9
REMARK H PARENT
REMARK Flexibility Score: inf
ROOT
ATOM      1  C   UNL     1      56.016  27.963  50.385  1.00  0.00     0.006 C 
ENDROOT
BRANCH   1   2
ATOM      2  C   UNL     1      55.766  26.497  50.009  1.00  0.00     0.053 C 
BRANCH   2   3
ATOM      3  C   UNL     1      54.355  26.310  49.548  1.00  0.00     0.041 C 
ATOM      4  O   UNL     1      53.904  25.153  49.341  1.00  0.00    -0.550 OA
ATOM      5  O   UNL     1      53.522  27.411  49.395  1.00  0.00    -0.550 OA
ENDBRANCH   2   3
ENDBRANCH   1   2
BRANCH   1   6
ATOM      6  C   UNL     1      57.387  28.185  51.050  1.00  0.00     0.000 C 
BRANCH   6   7
ATOM      7  C   UNL     1      58.122  29.465  50.614  1.00  0.00    -0.000 C 
BRANCH   7   8
ATOM      8  C   UNL     1      58.870  29.302  49.282  1.00  0.00    -0.003 C 
ATOM      9  C   UNL     1      59.716  28.032  49.279  1.00  0.00     0.004 C 
ENDBRANCH   7   8
ENDBRANCH   6   7
ENDBRANCH   1   6
TORSDOF 5
ENDMDL
MODEL 5
REMARK VINA RESULT:    -3.092     13.414     14.795
REMARK INTER + INTRA:          -4.197
REMARK INTER:                  -4.010
REMARK INTRA:                  -0.186
REMARK UNBOUND:                -0.200
REMARK SMILES CCCCCCC(=O)[O-]
REMARK SMILES IDX 5 1 6 2 7 3 8 4 9 5 4 6 3 7 2 8 1 9
REMARK H PARENT
REMARK Flexibility Score: inf
ROOT
ATOM      1  C   UNL     1      57.004  26.835  50.479  1.00  0.00     0.006 C 
ENDROOT
BRANCH   1   2
ATOM      2  C   UNL     1      57.340  28.323  50.322  1.00  0.00     0.053 C 
BRANCH   2   3
ATOM      3  C   UNL     1      58.616  28.492  49.560  1.00  0.00     0.041 C 
ATOM      4  O   UNL     1      58.947  29.625  49.122  1.00  0.00    -0.550 OA
ATOM      5  O   UNL     1      59.465  27.408  49.377  1.00  0.00    -0.550 OA
ENDBRANCH   2   3
ENDBRANCH   1   2
BRANCH   1   6
ATOM      6  C   UNL     1      55.566  26.495  50.044  1.00  0.00     0.000 C 
BRANCH   6   7
ATOM      7  C   UNL     1      54.598  27.691  50.010  1.00  0.00    -0.000 C 
BRANCH   7   8
ATOM      8  C   UNL     1      53.181  27.302  49.563  1.00  0.00    -0.003 C 
ATOM      9  C   UNL     1      53.180  25.953  48.849  1.00  0.00     0.004 C 
ENDBRANCH   7   8
ENDBRANCH   6   7
ENDBRANCH   1   6
TORSDOF 5
ENDMDL
MODEL 6
REMARK VINA RESULT:    -3.058      3.140      5.120
REMARK INTER + INTRA:          -4.152
REMARK INTER:                  -4.018
REMARK INTRA:                  -0.134
REMARK UNBOUND:                -0.200
REMARK SMILES CCCCCCC(=O)[O-]
REMARK SMILES IDX 5 1 6 2 7 3 8 4 9 5 4 6 3 7 2 8 1 9
REMARK H PARENT
REMARK Flexibility Score: inf
ROOT
ATOM      1  C   UNL     1      62.811  33.966  60.308  1.00  0.00     0.006 C 
ENDROOT
BRANCH   1   2
ATOM      2  C   UNL     1      64.118  34.430  60.963  1.00  0.00     0.053 C 
BRANCH   2   3
ATOM      3  C   UNL     1      63.971  35.822  61.491  1.00  0.00     0.041 C 
ATOM      4  O   UNL     1      64.954  36.407  62.017  1.00  0.00    -0.550 OA
ATOM      5  O   UNL     1      62.761  36.492  61.358  1.00  0.00    -0.550 OA
ENDBRANCH   2   3
ENDBRANCH   1   2
BRANCH   1   6
ATOM      6  C   UNL     1      62.561  32.455  60.474  1.00  0.00     0.000 C 
BRANCH   6   7
ATOM      7  C   UNL     1      61.082  32.050  60.597  1.00  0.00    -0.000 C 
BRANCH   7   8
ATOM      8  C   UNL     1      60.847  30.949  61.642  1.00  0.00    -0.003 C 
ATOM      9  C   UNL     1      62.009  29.960  61.669  1.00  0.00     0.004 C 
ENDBRANCH   7   8
ENDBRANCH   6   7
ENDBRANCH   1   6
TORSDOF 5
ENDMDL
MODEL 7
REMARK VINA RESULT:    -2.970      0.751      1.662
REMARK INTER + INTRA:          -4.039
REMARK INTER:                  -3.817
REMARK INTRA:                  -0.221
REMARK UNBOUND:                -0.200
REMARK SMILES CCCCCCC(=O)[O-]
REMARK SMILES IDX 5 1 6 2 7 3 8 4 9 5 4 6 3 7 2 8 1 9
REMARK H PARENT
REMARK Flexibility Score: inf
ROOT
ATOM      1  C   UNL     1      63.716  31.948  60.347  1.00  0.00     0.006 C 
ENDROOT
BRANCH   1   2
ATOM      2  C   UNL     1      62.246  31.583  60.107  1.00  0.00     0.053 C 
BRANCH   2   3
ATOM      3  C   UNL     1      61.681  30.880  61.301  1.00  0.00     0.041 C 
ATOM      4  O   UNL     1      62.275  29.884  61.790  1.00  0.00    -0.550 OA
ATOM      5  O   UNL     1      60.523  31.355  61.903  1.00  0.00    -0.550 OA
ENDBRANCH   2   3
ENDBRANCH   1   2
BRANCH   1   6
ATOM      6  C   UNL     1      63.897  33.373  60.901  1.00  0.00     0.000 C 
BRANCH   6   7
ATOM      7  C   UNL     1      62.756  34.351  60.566  1.00  0.00    -0.000 C 
BRANCH   7   8
ATOM      8  C   UNL     1      63.022  35.777  61.070  1.00  0.00    -0.003 C 
ATOM      9  C   UNL     1      64.435  35.908  61.632  1.00  0.00     0.004 C 
ENDBRANCH   7   8
ENDBRANCH   6   7
ENDBRANCH   1   6
TORSDOF 5
ENDMDL
MODEL 8
REMARK VINA RESULT:    -2.919      2.506      4.704
REMARK INTER + INTRA:          -3.972
REMARK INTER:                  -3.682
REMARK INTRA:                  -0.291
REMARK UNBOUND:                -0.200
REMARK SMILES CCCCCCC(=O)[O-]
REMARK SMILES IDX 5 1 6 2 7 3 8 4 9 5 4 6 3 7 2 8 1 9
REMARK H PARENT
REMARK Flexibility Score: inf
ROOT
ATOM      1  C   UNL     1      61.915  32.378  59.801  1.00  0.00     0.006 C 
ENDROOT
BRANCH   1   2
ATOM      2  C   UNL     1      62.413  33.655  60.492  1.00  0.00     0.053 C 
BRANCH   2   3
ATOM      3  C   UNL     1      63.875  33.549  60.790  1.00  0.00     0.041 C 
ATOM      4  O   UNL     1      64.518  32.520  60.454  1.00  0.00    -0.550 OA
ATOM      5  O   UNL     1      64.538  34.608  61.397  1.00  0.00    -0.550 OA
ENDBRANCH   2   3
ENDBRANCH   1   2
BRANCH   1   6
ATOM      6  C   UNL     1      60.751  31.705  60.553  1.00  0.00     0.000 C 
BRANCH   6   7
ATOM      7  C   UNL     1      61.167  30.855  61.767  1.00  0.00    -0.000 C 
BRANCH   7   8
ATOM      8  C   UNL     1      62.399  29.980  61.492  1.00  0.00    -0.003 C 
ATOM      9  C   UNL     1      62.002  28.522  61.283  1.00  0.00     0.004 C 
ENDBRANCH   7   8
ENDBRANCH   6   7
ENDBRANCH   1   6
TORSDOF 5
ENDMDL
MODEL 9
REMARK VINA RESULT:    -2.915     12.546     13.349
REMARK INTER + INTRA:          -3.968
REMARK INTER:                  -3.734
REMARK INTRA:                  -0.234
REMARK UNBOUND:                -0.200
REMARK SMILES CCCCCCC(=O)[O-]
REMARK SMILES IDX 5 1 6 2 7 3 8 4 9 5 4 6 3 7 2 8 1 9
REMARK H PARENT
REMARK Flexibility Score: inf
ROOT
ATOM      1  C   UNL     1      58.894  29.278  49.336  1.00  0.00     0.006 C 
ENDROOT
BRANCH   1   2
ATOM      2  C   UNL     1      59.643  27.942  49.248  1.00  0.00     0.053 C 
BRANCH   2   3
ATOM      3  C   UNL     1      61.045  28.097  49.745  1.00  0.00     0.041 C 
ATOM      4  O   UNL     1      61.842  27.122  49.707  1.00  0.00    -0.550 OA
ATOM      5  O   UNL     1      61.487  29.330  50.205  1.00  0.00    -0.550 OA
ENDBRANCH   2   3
ENDBRANCH   1   2
BRANCH   1   6
ATOM      6  C   UNL     1      57.698  29.231  50.306  1.00  0.00     0.000 C 
BRANCH   6   7
ATOM      7  C   UNL     1      57.267  27.819  50.740  1.00  0.00    -0.000 C 
BRANCH   7   8
ATOM      8  C   UNL     1      55.869  27.437  50.232  1.00  0.00    -0.003 C 
ATOM      9  C   UNL     1      54.861  28.548  50.507  1.00  0.00     0.004 C 
ENDBRANCH   7   8
ENDBRANCH   6   7
ENDBRANCH   1   6
TORSDOF 5
ENDMDL
