MODEL 1
REMARK VINA RESULT:    -7.059      0.000      0.000
REMARK INTER + INTRA:         -14.992
REMARK INTER:                 -11.599
REMARK INTRA:                  -3.393
REMARK UNBOUND:                -3.393
REMARK SMILES C[C@H]1O[C@H](OC[C@@H]2O[C@H](Oc3c(-c4ccc(O)c(O)c4)oc4cc(O)cc(O)c4c3=O)[C@@H](O)[C@H](O)[C@H]2O)[C@@H](O)[C@@H](O)[C@H]1O
REMARK SMILES IDX 7 1 36 2 34 3 32 4 9 5 8 6 6 7 5 8 4 9 1 10 2 11 42 12 3 13
REMARK SMILES IDX 40 14 38 15 43 16 41 18 39 20 37 22 35 24 10 26 11 27 12 28
REMARK SMILES IDX 30 29 21 30 29 31 31 32 22 33 27 34 23 35 26 36 24 37 13 38
REMARK SMILES IDX 20 39 14 40 18 41 15 42 16 43 19 44 17 46 28 48 25 50 33 52
REMARK H PARENT 43 17 41 19 39 21 37 23 35 25 19 45 17 47 28 49 25 51 33 53
REMARK Flexibility Score: inf
ROOT
ATOM      1  C   UNL     1     140.417 137.276 152.528  1.00  0.00     0.180 C 
ATOM      2  C   UNL     1     139.219 137.148 151.557  1.00  0.00     0.177 C 
ATOM      3  C   UNL     1     138.422 135.847 151.771  1.00  0.00     0.180 C 
ATOM      4  C   UNL     1     138.163 135.583 153.272  1.00  0.00     0.214 C 
ATOM      5  C   UNL     1     139.412 135.829 154.147  1.00  0.00     0.339 C 
ATOM      6  O   UNL     1     140.056 137.067 153.886  1.00  0.00    -0.332 OA
ENDROOT
BRANCH   1   7
ATOM      7  C   UNL     1     141.678 136.489 152.095  1.00  0.00     0.198 C 
BRANCH   7   8
ATOM      8  O   UNL     1     141.705 136.425 150.682  1.00  0.00    -0.347 OA
BRANCH   8   9
ATOM      9  C   UNL     1     142.119 135.168 150.170  1.00  0.00     0.281 C 
ATOM     10  C   UNL     1     140.255 133.750 147.279  1.00  0.00     0.041 C 
ATOM     11  C   UNL     1     141.326 134.597 147.969  1.00  0.00     0.150 C 
ATOM     12  C   UNL     1     142.736 134.146 147.540  1.00  0.00     0.174 C 
ATOM     13  O   UNL     1     141.125 134.526 149.370  1.00  0.00    -0.344 OA
ATOM     14  C   UNL     1     143.765 135.096 148.149  1.00  0.00     0.179 C 
ATOM     15  C   UNL     1     143.605 135.169 149.680  1.00  0.00     0.202 C 
BRANCH  12  16
ATOM     16  O   UNL     1     143.010 132.803 147.876  1.00  0.00    -0.388 OA
ATOM     17  H   UNL     1     143.981 132.647 147.768  1.00  0.00     0.211 HD
ENDBRANCH  12  16
BRANCH  14  18
ATOM     18  O   UNL     1     145.059 134.668 147.805  1.00  0.00    -0.387 OA
ATOM     19  H   UNL     1     145.272 133.889 148.386  1.00  0.00     0.211 HD
ENDBRANCH  14  18
BRANCH  15  20
ATOM     20  O   UNL     1     144.305 134.096 150.267  1.00  0.00    -0.385 OA
ATOM     21  H   UNL     1     145.059 134.489 150.784  1.00  0.00     0.211 HD
ENDBRANCH  15  20
ENDBRANCH   8   9
ENDBRANCH   7   8
ENDBRANCH   1   7
BRANCH   2  22
ATOM     22  O   UNL     1     138.370 138.254 151.758  1.00  0.00    -0.387 OA
ATOM     23  H   UNL     1     137.525 138.070 151.272  1.00  0.00     0.211 HD
ENDBRANCH   2  22
BRANCH   3  24
ATOM     24  O   UNL     1     139.028 134.760 151.112  1.00  0.00    -0.387 OA
ATOM     25  H   UNL     1     138.871 133.934 151.632  1.00  0.00     0.211 HD
ENDBRANCH   3  24
BRANCH   5  26
ATOM     26  O   UNL     1     140.328 134.729 154.096  1.00  0.00    -0.454 OA
BRANCH  26  27
ATOM     27  C   UNL     1     140.360 133.680 155.039  1.00  0.00     0.214 A 
ATOM     28  C   UNL     1     140.464 132.346 154.588  1.00  0.00     0.180 A 
ATOM     29  C   UNL     1     140.251 133.905 156.431  1.00  0.00     0.239 A 
ATOM     30  O   UNL     1     140.394 131.342 155.456  1.00  0.00    -0.452 OA
ATOM     31  C   UNL     1     140.173 132.809 157.315  1.00  0.00     0.111 A 
ATOM     32  O   UNL     1     140.233 135.081 156.882  1.00  0.00    -0.285 OA
ATOM     33  C   UNL     1     140.246 131.513 156.764  1.00  0.00     0.146 A 
ATOM     34  C   UNL     1     140.008 132.954 158.717  1.00  0.00     0.134 A 
ATOM     35  C   UNL     1     140.161 130.388 157.590  1.00  0.00     0.094 A 
ATOM     36  C   UNL     1     139.926 131.812 159.530  1.00  0.00     0.093 A 
ATOM     37  C   UNL     1     140.002 130.536 158.972  1.00  0.00     0.123 A 
BRANCH  28  38
ATOM     38  C   UNL     1     140.602 132.001 153.155  1.00  0.00     0.025 A 
ATOM     39  C   UNL     1     141.853 132.004 152.515  1.00  0.00     0.062 A 
ATOM     40  C   UNL     1     139.468 131.605 152.430  1.00  0.00     0.016 A 
ATOM     41  C   UNL     1     141.964 131.643 151.166  1.00  0.00     0.158 A 
ATOM     42  C   UNL     1     139.576 131.248 151.085  1.00  0.00     0.051 A 
ATOM     43  C   UNL     1     140.823 131.267 150.447  1.00  0.00     0.157 A 
BRANCH  41  44
ATOM     44  O   UNL     1     143.207 131.648 150.537  1.00  0.00    -0.504 OA
ATOM     45  H   UNL     1     143.291 131.562 149.528  1.00  0.00     0.293 HD
ENDBRANCH  41  44
BRANCH  43  46
ATOM     46  O   UNL     1     140.936 130.910 149.105  1.00  0.00    -0.504 OA
ATOM     47  H   UNL     1     140.375 131.355 148.390  1.00  0.00     0.293 HD
ENDBRANCH  43  46
ENDBRANCH  28  38
BRANCH  34  48
ATOM     48  O   UNL     1     139.916 134.216 159.305  1.00  0.00    -0.507 OA
ATOM     49  H   UNL     1     139.494 134.350 160.217  1.00  0.00     0.293 HD
ENDBRANCH  34  48
BRANCH  37  50
ATOM     50  O   UNL     1     139.916 129.419 159.800  1.00  0.00    -0.508 OA
ATOM     51  H   UNL     1     140.677 129.159 160.418  1.00  0.00     0.293 HD
ENDBRANCH  37  50
ENDBRANCH  26  27
ENDBRANCH   5  26
BRANCH   4  52
ATOM     52  O   UNL     1     137.127 136.422 153.723  1.00  0.00    -0.384 OA
ATOM     53  H   UNL     1     136.438 136.430 153.010  1.00  0.00     0.211 HD
ENDBRANCH   4  52
TORSDOF 16
ENDMDL
MODEL 2
REMARK VINA RESULT:    -7.027      4.509      9.422
REMARK INTER + INTRA:         -14.939
REMARK INTER:                 -12.941
REMARK INTRA:                  -1.998
REMARK UNBOUND:                -3.393
REMARK SMILES C[C@H]1O[C@H](OC[C@@H]2O[C@H](Oc3c(-c4ccc(O)c(O)c4)oc4cc(O)cc(O)c4c3=O)[C@@H](O)[C@H](O)[C@H]2O)[C@@H](O)[C@@H](O)[C@H]1O
REMARK SMILES IDX 7 1 36 2 34 3 32 4 9 5 8 6 6 7 5 8 4 9 1 10 2 11 42 12 3 13
REMARK SMILES IDX 40 14 38 15 43 16 41 18 39 20 37 22 35 24 10 26 11 27 12 28
REMARK SMILES IDX 30 29 21 30 29 31 31 32 22 33 27 34 23 35 26 36 24 37 13 38
REMARK SMILES IDX 20 39 14 40 18 41 15 42 16 43 19 44 17 46 28 48 25 50 33 52
REMARK H PARENT 43 17 41 19 39 21 37 23 35 25 19 45 17 47 28 49 25 51 33 53
REMARK Flexibility Score: inf
ROOT
ATOM      1  C   UNL     1     137.493 128.598 155.892  1.00  0.00     0.180 C 
ATOM      2  C   UNL     1     137.229 127.465 154.872  1.00  0.00     0.177 C 
ATOM      3  C   UNL     1     137.882 127.740 153.503  1.00  0.00     0.180 C 
ATOM      4  C   UNL     1     139.335 128.243 153.660  1.00  0.00     0.214 C 
ATOM      5  C   UNL     1     139.482 129.309 154.769  1.00  0.00     0.339 C 
ATOM      6  O   UNL     1     138.867 128.944 155.995  1.00  0.00    -0.332 OA
ENDROOT
BRANCH   1   7
ATOM      7  C   UNL     1     136.555 129.822 155.745  1.00  0.00     0.198 C 
BRANCH   7   8
ATOM      8  O   UNL     1     135.393 129.416 155.046  1.00  0.00    -0.347 OA
BRANCH   8   9
ATOM      9  C   UNL     1     134.243 130.191 155.344  1.00  0.00     0.281 C 
ATOM     10  C   UNL     1     132.142 131.372 152.509  1.00  0.00     0.041 C 
ATOM     11  C   UNL     1     132.607 130.391 153.588  1.00  0.00     0.150 C 
ATOM     12  C   UNL     1     131.462 130.082 154.572  1.00  0.00     0.174 C 
ATOM     13  O   UNL     1     133.753 130.931 154.225  1.00  0.00    -0.344 OA
ATOM     14  C   UNL     1     131.929 129.007 155.551  1.00  0.00     0.179 C 
ATOM     15  C   UNL     1     133.224 129.441 156.265  1.00  0.00     0.202 C 
BRANCH  12  16
ATOM     16  O   UNL     1     130.992 131.228 155.248  1.00  0.00    -0.388 OA
ATOM     17  H   UNL     1     130.896 131.006 156.208  1.00  0.00     0.211 HD
ENDBRANCH  12  16
BRANCH  14  18
ATOM     18  O   UNL     1     130.910 128.749 156.484  1.00  0.00    -0.387 OA
ATOM     19  H   UNL     1     131.102 127.860 156.887  1.00  0.00     0.211 HD
ENDBRANCH  14  18
BRANCH  15  20
ATOM     20  O   UNL     1     132.891 130.249 157.370  1.00  0.00    -0.385 OA
ATOM     21  H   UNL     1     133.745 130.598 157.743  1.00  0.00     0.211 HD
ENDBRANCH  15  20
ENDBRANCH   8   9
ENDBRANCH   7   8
ENDBRANCH   1   7
BRANCH   2  22
ATOM     22  O   UNL     1     137.745 126.266 155.402  1.00  0.00    -0.387 OA
ATOM     23  H   UNL     1     138.725 126.272 155.249  1.00  0.00     0.211 HD
ENDBRANCH   2  22
BRANCH   3  24
ATOM     24  O   UNL     1     137.082 128.589 152.715  1.00  0.00    -0.387 OA
ATOM     25  H   UNL     1     137.632 129.337 152.378  1.00  0.00     0.211 HD
ENDBRANCH   3  24
BRANCH   5  26
ATOM     26  O   UNL     1     139.065 130.606 154.326  1.00  0.00    -0.454 OA
BRANCH  26  27
ATOM     27  C   UNL     1     139.950 131.646 153.972  1.00  0.00     0.214 A 
ATOM     28  C   UNL     1     140.362 132.570 154.955  1.00  0.00     0.180 A 
ATOM     29  C   UNL     1     140.417 131.829 152.649  1.00  0.00     0.239 A 
ATOM     30  O   UNL     1     141.114 133.613 154.617  1.00  0.00    -0.452 OA
ATOM     31  C   UNL     1     141.206 132.954 152.334  1.00  0.00     0.111 A 
ATOM     32  O   UNL     1     140.136 130.985 151.757  1.00  0.00    -0.285 OA
ATOM     33  C   UNL     1     141.533 133.843 153.379  1.00  0.00     0.146 A 
ATOM     34  C   UNL     1     141.667 133.235 151.021  1.00  0.00     0.134 A 
ATOM     35  C   UNL     1     142.302 134.982 153.124  1.00  0.00     0.094 A 
ATOM     36  C   UNL     1     142.440 134.383 150.785  1.00  0.00     0.093 A 
ATOM     37  C   UNL     1     142.756 135.253 151.828  1.00  0.00     0.123 A 
BRANCH  28  38
ATOM     38  C   UNL     1     139.947 132.459 156.373  1.00  0.00     0.025 A 
ATOM     39  C   UNL     1     138.592 132.467 156.744  1.00  0.00     0.062 A 
ATOM     40  C   UNL     1     140.923 132.285 157.365  1.00  0.00     0.016 A 
ATOM     41  C   UNL     1     138.221 132.328 158.088  1.00  0.00     0.158 A 
ATOM     42  C   UNL     1     140.557 132.150 158.705  1.00  0.00     0.051 A 
ATOM     43  C   UNL     1     139.205 132.173 159.072  1.00  0.00     0.157 A 
BRANCH  41  44
ATOM     44  O   UNL     1     136.876 132.337 158.452  1.00  0.00    -0.504 OA
ATOM     45  H   UNL     1     136.224 131.646 158.092  1.00  0.00     0.293 HD
ENDBRANCH  41  44
BRANCH  43  46
ATOM     46  O   UNL     1     138.834 132.038 160.408  1.00  0.00    -0.504 OA
ATOM     47  H   UNL     1     138.747 131.129 160.844  1.00  0.00     0.293 HD
ENDBRANCH  43  46
ENDBRANCH  28  38
BRANCH  34  48
ATOM     48  O   UNL     1     141.357 132.392 149.953  1.00  0.00    -0.507 OA
ATOM     49  H   UNL     1     140.671 131.650 150.042  1.00  0.00     0.293 HD
ENDBRANCH  34  48
BRANCH  37  50
ATOM     50  O   UNL     1     143.523 136.386 151.568  1.00  0.00    -0.508 OA
ATOM     51  H   UNL     1     143.883 136.966 152.317  1.00  0.00     0.293 HD
ENDBRANCH  37  50
ENDBRANCH  26  27
ENDBRANCH   5  26
BRANCH   4  52
ATOM     52  O   UNL     1     140.176 127.158 153.967  1.00  0.00    -0.384 OA
ATOM     53  H   UNL     1     140.360 127.208 154.940  1.00  0.00     0.211 HD
ENDBRANCH   4  52
TORSDOF 16
ENDMDL
MODEL 3
REMARK VINA RESULT:    -6.997      5.352      9.756
REMARK INTER + INTRA:         -14.889
REMARK INTER:                 -11.993
REMARK INTRA:                  -2.896
REMARK UNBOUND:                -3.393
REMARK SMILES C[C@H]1O[C@H](OC[C@@H]2O[C@H](Oc3c(-c4ccc(O)c(O)c4)oc4cc(O)cc(O)c4c3=O)[C@@H](O)[C@H](O)[C@H]2O)[C@@H](O)[C@@H](O)[C@H]1O
REMARK SMILES IDX 7 1 36 2 34 3 32 4 9 5 8 6 6 7 5 8 4 9 1 10 2 11 42 12 3 13
REMARK SMILES IDX 40 14 38 15 43 16 41 18 39 20 37 22 35 24 10 26 11 27 12 28
REMARK SMILES IDX 30 29 21 30 29 31 31 32 22 33 27 34 23 35 26 36 24 37 13 38
REMARK SMILES IDX 20 39 14 40 18 41 15 42 16 43 19 44 17 46 28 48 25 50 33 52
REMARK H PARENT 43 17 41 19 39 21 37 23 35 25 19 45 17 47 28 49 25 51 33 53
REMARK Flexibility Score: inf
ROOT
ATOM      1  C   UNL     1     134.494 129.229 156.098  1.00  0.00     0.180 C 
ATOM      2  C   UNL     1     133.023 129.709 156.089  1.00  0.00     0.177 C 
ATOM      3  C   UNL     1     132.400 129.676 154.681  1.00  0.00     0.180 C 
ATOM      4  C   UNL     1     132.731 128.356 153.947  1.00  0.00     0.214 C 
ATOM      5  C   UNL     1     134.211 127.939 154.103  1.00  0.00     0.339 C 
ATOM      6  O   UNL     1     134.675 127.981 155.444  1.00  0.00    -0.332 OA
ENDROOT
BRANCH   1   7
ATOM      7  C   UNL     1     135.521 130.307 155.672  1.00  0.00     0.198 C 
BRANCH   7   8
ATOM      8  O   UNL     1     136.082 130.879 156.839  1.00  0.00    -0.347 OA
BRANCH   8   9
ATOM      9  C   UNL     1     137.499 130.844 156.873  1.00  0.00     0.281 C 
ATOM     10  C   UNL     1     139.362 133.578 155.169  1.00  0.00     0.041 C 
ATOM     11  C   UNL     1     138.631 132.900 156.330  1.00  0.00     0.150 C 
ATOM     12  C   UNL     1     139.565 132.747 157.547  1.00  0.00     0.174 C 
ATOM     13  O   UNL     1     138.110 131.663 155.874  1.00  0.00    -0.344 OA
ATOM     14  C   UNL     1     138.763 132.185 158.718  1.00  0.00     0.179 C 
ATOM     15  C   UNL     1     138.075 130.862 158.327  1.00  0.00     0.202 C 
BRANCH  12  16
ATOM     16  O   UNL     1     140.702 131.957 157.272  1.00  0.00    -0.388 OA
ATOM     17  H   UNL     1     140.707 131.745 156.306  1.00  0.00     0.211 HD
ENDBRANCH  12  16
BRANCH  14  18
ATOM     18  O   UNL     1     139.613 131.996 159.820  1.00  0.00    -0.387 OA
ATOM     19  H   UNL     1     139.036 131.770 160.598  1.00  0.00     0.211 HD
ENDBRANCH  14  18
BRANCH  15  20
ATOM     20  O   UNL     1     138.990 129.803 158.495  1.00  0.00    -0.385 OA
ATOM     21  H   UNL     1     138.898 129.212 157.700  1.00  0.00     0.211 HD
ENDBRANCH  15  20
ENDBRANCH   8   9
ENDBRANCH   7   8
ENDBRANCH   1   7
BRANCH   2  22
ATOM     22  O   UNL     1     132.282 128.872 156.947  1.00  0.00    -0.387 OA
ATOM     23  H   UNL     1     132.926 128.276 157.409  1.00  0.00     0.211 HD
ENDBRANCH   2  22
BRANCH   3  24
ATOM     24  O   UNL     1     132.743 130.824 153.941  1.00  0.00    -0.387 OA
ATOM     25  H   UNL     1     133.695 131.040 154.095  1.00  0.00     0.211 HD
ENDBRANCH   3  24
BRANCH   5  26
ATOM     26  O   UNL     1     135.069 128.666 153.216  1.00  0.00    -0.454 OA
BRANCH  26  27
ATOM     27  C   UNL     1     135.625 128.131 152.035  1.00  0.00     0.214 A 
ATOM     28  C   UNL     1     136.958 127.669 152.043  1.00  0.00     0.180 A 
ATOM     29  C   UNL     1     134.908 128.073 150.816  1.00  0.00     0.239 A 
ATOM     30  O   UNL     1     137.528 127.256 150.916  1.00  0.00    -0.452 OA
ATOM     31  C   UNL     1     135.555 127.635 149.643  1.00  0.00     0.111 A 
ATOM     32  O   UNL     1     133.693 128.404 150.781  1.00  0.00    -0.285 OA
ATOM     33  C   UNL     1     136.902 127.231 149.745  1.00  0.00     0.146 A 
ATOM     34  C   UNL     1     134.921 127.602 148.374  1.00  0.00     0.134 A 
ATOM     35  C   UNL     1     137.599 126.799 148.613  1.00  0.00     0.094 A 
ATOM     36  C   UNL     1     135.636 127.163 147.249  1.00  0.00     0.093 A 
ATOM     37  C   UNL     1     136.968 126.764 147.365  1.00  0.00     0.123 A 
BRANCH  28  38
ATOM     38  C   UNL     1     137.790 127.666 153.269  1.00  0.00     0.025 A 
ATOM     39  C   UNL     1     138.646 128.737 153.577  1.00  0.00     0.062 A 
ATOM     40  C   UNL     1     137.681 126.600 154.174  1.00  0.00     0.016 A 
ATOM     41  C   UNL     1     139.400 128.728 154.758  1.00  0.00     0.158 A 
ATOM     42  C   UNL     1     138.433 126.588 155.349  1.00  0.00     0.051 A 
ATOM     43  C   UNL     1     139.297 127.650 155.645  1.00  0.00     0.157 A 
BRANCH  41  44
ATOM     44  O   UNL     1     140.248 129.792 155.060  1.00  0.00    -0.504 OA
ATOM     45  H   UNL     1     140.262 130.215 155.983  1.00  0.00     0.293 HD
ENDBRANCH  41  44
BRANCH  43  46
ATOM     46  O   UNL     1     140.049 127.643 156.818  1.00  0.00    -0.504 OA
ATOM     47  H   UNL     1     139.615 127.747 157.726  1.00  0.00     0.293 HD
ENDBRANCH  43  46
ENDBRANCH  28  38
BRANCH  34  48
ATOM     48  O   UNL     1     133.594 128.006 148.222  1.00  0.00    -0.507 OA
ATOM     49  H   UNL     1     133.266 128.901 148.567  1.00  0.00     0.293 HD
ENDBRANCH  34  48
BRANCH  37  50
ATOM     50  O   UNL     1     137.657 126.335 146.233  1.00  0.00    -0.508 OA
ATOM     51  H   UNL     1     138.668 126.274 146.220  1.00  0.00     0.293 HD
ENDBRANCH  37  50
ENDBRANCH  26  27
ENDBRANCH   5  26
BRANCH   4  52
ATOM     52  O   UNL     1     131.919 127.323 154.451  1.00  0.00    -0.384 OA
ATOM     53  H   UNL     1     132.531 126.611 154.767  1.00  0.00     0.211 HD
ENDBRANCH   4  52
TORSDOF 16
ENDMDL
MODEL 4
REMARK VINA RESULT:    -6.870      4.347      8.241
REMARK INTER + INTRA:         -14.681
REMARK INTER:                 -12.849
REMARK INTRA:                  -1.831
REMARK UNBOUND:                -3.393
REMARK SMILES C[C@H]1O[C@H](OC[C@@H]2O[C@H](Oc3c(-c4ccc(O)c(O)c4)oc4cc(O)cc(O)c4c3=O)[C@@H](O)[C@H](O)[C@H]2O)[C@@H](O)[C@@H](O)[C@H]1O
REMARK SMILES IDX 7 1 36 2 34 3 32 4 9 5 8 6 6 7 5 8 4 9 1 10 2 11 42 12 3 13
REMARK SMILES IDX 40 14 38 15 43 16 41 18 39 20 37 22 35 24 10 26 11 27 12 28
REMARK SMILES IDX 30 29 21 30 29 31 31 32 22 33 27 34 23 35 26 36 24 37 13 38
REMARK SMILES IDX 20 39 14 40 18 41 15 42 16 43 19 44 17 46 28 48 25 50 33 52
REMARK H PARENT 43 17 41 19 39 21 37 23 35 25 19 45 17 47 28 49 25 51 33 53
REMARK Flexibility Score: inf
ROOT
ATOM      1  C   UNL     1     138.748 135.845 154.524  1.00  0.00     0.180 C 
ATOM      2  C   UNL     1     140.124 135.675 155.209  1.00  0.00     0.177 C 
ATOM      3  C   UNL     1     140.252 134.331 155.952  1.00  0.00     0.180 C 
ATOM      4  C   UNL     1     139.726 133.158 155.093  1.00  0.00     0.214 C 
ATOM      5  C   UNL     1     138.389 133.484 154.390  1.00  0.00     0.339 C 
ATOM      6  O   UNL     1     138.388 134.732 153.716  1.00  0.00    -0.332 OA
ENDROOT
BRANCH   1   7
ATOM      7  C   UNL     1     137.615 136.316 155.469  1.00  0.00     0.198 C 
BRANCH   7   8
ATOM      8  O   UNL     1     136.912 137.369 154.838  1.00  0.00    -0.347 OA
BRANCH   8   9
ATOM      9  C   UNL     1     136.722 138.509 155.661  1.00  0.00     0.281 C 
ATOM     10  C   UNL     1     138.309 141.709 154.617  1.00  0.00     0.041 C 
ATOM     11  C   UNL     1     137.211 140.643 154.658  1.00  0.00     0.150 C 
ATOM     12  C   UNL     1     135.895 141.237 155.197  1.00  0.00     0.174 C 
ATOM     13  O   UNL     1     137.677 139.545 155.422  1.00  0.00    -0.344 OA
ATOM     14  C   UNL     1     134.800 140.178 155.101  1.00  0.00     0.179 C 
ATOM     15  C   UNL     1     135.215 138.890 155.837  1.00  0.00     0.202 C 
BRANCH  12  16
ATOM     16  O   UNL     1     136.016 141.739 156.511  1.00  0.00    -0.388 OA
ATOM     17  H   UNL     1     135.113 141.772 156.915  1.00  0.00     0.211 HD
ENDBRANCH  12  16
BRANCH  14  18
ATOM     18  O   UNL     1     133.605 140.692 155.634  1.00  0.00    -0.387 OA
ATOM     19  H   UNL     1     133.850 141.468 156.205  1.00  0.00     0.211 HD
ENDBRANCH  14  18
BRANCH  15  20
ATOM     20  O   UNL     1     134.911 139.025 157.207  1.00  0.00    -0.385 OA
ATOM     21  H   UNL     1     133.983 138.690 157.333  1.00  0.00     0.211 HD
ENDBRANCH  15  20
ENDBRANCH   8   9
ENDBRANCH   7   8
ENDBRANCH   1   7
BRANCH   2  22
ATOM     22  O   UNL     1     141.123 135.758 154.219  1.00  0.00    -0.387 OA
ATOM     23  H   UNL     1     140.795 135.261 153.426  1.00  0.00     0.211 HD
ENDBRANCH   2  22
BRANCH   3  24
ATOM     24  O   UNL     1     139.661 134.393 157.229  1.00  0.00    -0.387 OA
ATOM     25  H   UNL     1     138.679 134.344 157.137  1.00  0.00     0.211 HD
ENDBRANCH   3  24
BRANCH   5  26
ATOM     26  O   UNL     1     137.272 133.354 155.278  1.00  0.00    -0.454 OA
BRANCH  26  27
ATOM     27  C   UNL     1     136.368 132.271 155.262  1.00  0.00     0.214 A 
ATOM     28  C   UNL     1     136.472 131.267 156.249  1.00  0.00     0.180 A 
ATOM     29  C   UNL     1     135.376 132.123 154.265  1.00  0.00     0.239 A 
ATOM     30  O   UNL     1     135.695 130.190 156.189  1.00  0.00    -0.452 OA
ATOM     31  C   UNL     1     134.579 130.960 154.235  1.00  0.00     0.111 A 
ATOM     32  O   UNL     1     135.198 133.031 153.410  1.00  0.00    -0.285 OA
ATOM     33  C   UNL     1     134.785 129.995 155.243  1.00  0.00     0.146 A 
ATOM     34  C   UNL     1     133.602 130.715 153.236  1.00  0.00     0.134 A 
ATOM     35  C   UNL     1     134.033 128.816 155.258  1.00  0.00     0.094 A 
ATOM     36  C   UNL     1     132.855 129.526 153.269  1.00  0.00     0.093 A 
ATOM     37  C   UNL     1     133.069 128.581 154.272  1.00  0.00     0.123 A 
BRANCH  28  38
ATOM     38  C   UNL     1     137.462 131.333 157.348  1.00  0.00     0.025 A 
ATOM     39  C   UNL     1     137.167 131.968 158.566  1.00  0.00     0.062 A 
ATOM     40  C   UNL     1     138.705 130.699 157.195  1.00  0.00     0.016 A 
ATOM     41  C   UNL     1     138.108 131.991 159.604  1.00  0.00     0.158 A 
ATOM     42  C   UNL     1     139.645 130.724 158.226  1.00  0.00     0.051 A 
ATOM     43  C   UNL     1     139.351 131.371 159.434  1.00  0.00     0.157 A 
BRANCH  41  44
ATOM     44  O   UNL     1     137.810 132.622 160.810  1.00  0.00    -0.504 OA
ATOM     45  H   UNL     1     138.114 132.238 161.700  1.00  0.00     0.293 HD
ENDBRANCH  41  44
BRANCH  43  46
ATOM     46  O   UNL     1     140.286 131.397 160.466  1.00  0.00    -0.504 OA
ATOM     47  H   UNL     1     140.592 130.548 160.925  1.00  0.00     0.293 HD
ENDBRANCH  43  46
ENDBRANCH  28  38
BRANCH  34  48
ATOM     48  O   UNL     1     133.373 131.635 152.212  1.00  0.00    -0.507 OA
ATOM     49  H   UNL     1     133.319 131.348 151.240  1.00  0.00     0.293 HD
ENDBRANCH  34  48
BRANCH  37  50
ATOM     50  O   UNL     1     132.316 127.408 154.281  1.00  0.00    -0.508 OA
ATOM     51  H   UNL     1     132.669 126.556 154.702  1.00  0.00     0.293 HD
ENDBRANCH  37  50
ENDBRANCH  26  27
ENDBRANCH   5  26
BRANCH   4  52
ATOM     52  O   UNL     1     140.680 132.833 154.111  1.00  0.00    -0.384 OA
ATOM     53  H   UNL     1     140.512 131.891 153.853  1.00  0.00     0.211 HD
ENDBRANCH   4  52
TORSDOF 16
ENDMDL
MODEL 5
REMARK VINA RESULT:    -6.855      4.244      8.115
REMARK INTER + INTRA:         -14.656
REMARK INTER:                 -12.587
REMARK INTRA:                  -2.068
REMARK UNBOUND:                -3.393
REMARK SMILES C[C@H]1O[C@H](OC[C@@H]2O[C@H](Oc3c(-c4ccc(O)c(O)c4)oc4cc(O)cc(O)c4c3=O)[C@@H](O)[C@H](O)[C@H]2O)[C@@H](O)[C@@H](O)[C@H]1O
REMARK SMILES IDX 7 1 36 2 34 3 32 4 9 5 8 6 6 7 5 8 4 9 1 10 2 11 42 12 3 13
REMARK SMILES IDX 40 14 38 15 43 16 41 18 39 20 37 22 35 24 10 26 11 27 12 28
REMARK SMILES IDX 30 29 21 30 29 31 31 32 22 33 27 34 23 35 26 36 24 37 13 38
REMARK SMILES IDX 20 39 14 40 18 41 15 42 16 43 19 44 17 46 28 48 25 50 33 52
REMARK H PARENT 43 17 41 19 39 21 37 23 35 25 19 45 17 47 28 49 25 51 33 53
REMARK Flexibility Score: inf
ROOT
ATOM      1  C   UNL     1     138.738 135.848 154.372  1.00  0.00     0.180 C 
ATOM      2  C   UNL     1     140.110 135.729 155.076  1.00  0.00     0.177 C 
ATOM      3  C   UNL     1     140.249 134.426 155.885  1.00  0.00     0.180 C 
ATOM      4  C   UNL     1     139.745 133.205 155.081  1.00  0.00     0.214 C 
ATOM      5  C   UNL     1     138.409 133.478 154.353  1.00  0.00     0.339 C 
ATOM      6  O   UNL     1     138.399 134.692 153.618  1.00  0.00    -0.332 OA
ENDROOT
BRANCH   1   7
ATOM      7  C   UNL     1     137.592 136.350 155.284  1.00  0.00     0.198 C 
BRANCH   7   8
ATOM      8  O   UNL     1     136.407 136.427 154.515  1.00  0.00    -0.347 OA
BRANCH   8   9
ATOM      9  C   UNL     1     135.905 137.745 154.361  1.00  0.00     0.281 C 
ATOM     10  C   UNL     1     132.353 138.386 155.266  1.00  0.00     0.041 C 
ATOM     11  C   UNL     1     133.856 138.249 155.521  1.00  0.00     0.150 C 
ATOM     12  C   UNL     1     134.441 139.574 156.050  1.00  0.00     0.174 C 
ATOM     13  O   UNL     1     134.478 137.807 154.327  1.00  0.00    -0.344 OA
ATOM     14  C   UNL     1     135.908 139.356 156.411  1.00  0.00     0.179 C 
ATOM     15  C   UNL     1     136.692 138.800 155.206  1.00  0.00     0.202 C 
BRANCH  12  16
ATOM     16  O   UNL     1     134.284 140.645 155.144  1.00  0.00    -0.388 OA
ATOM     17  H   UNL     1     133.881 140.292 154.312  1.00  0.00     0.211 HD
ENDBRANCH  12  16
BRANCH  14  18
ATOM     18  O   UNL     1     136.467 140.569 156.850  1.00  0.00    -0.387 OA
ATOM     19  H   UNL     1     137.004 140.365 157.662  1.00  0.00     0.211 HD
ENDBRANCH  14  18
BRANCH  15  20
ATOM     20  O   UNL     1     137.093 139.872 154.384  1.00  0.00    -0.385 OA
ATOM     21  H   UNL     1     136.683 140.696 154.761  1.00  0.00     0.211 HD
ENDBRANCH  15  20
ENDBRANCH   8   9
ENDBRANCH   7   8
ENDBRANCH   1   7
BRANCH   2  22
ATOM     22  O   UNL     1     141.116 135.776 154.090  1.00  0.00    -0.387 OA
ATOM     23  H   UNL     1     140.866 135.129 153.381  1.00  0.00     0.211 HD
ENDBRANCH   2  22
BRANCH   3  24
ATOM     24  O   UNL     1     139.647 134.543 157.153  1.00  0.00    -0.387 OA
ATOM     25  H   UNL     1     139.241 133.677 157.403  1.00  0.00     0.211 HD
ENDBRANCH   3  24
BRANCH   5  26
ATOM     26  O   UNL     1     137.286 133.378 155.238  1.00  0.00    -0.454 OA
BRANCH  26  27
ATOM     27  C   UNL     1     136.381 132.296 155.250  1.00  0.00     0.214 A 
ATOM     28  C   UNL     1     136.489 131.314 156.258  1.00  0.00     0.180 A 
ATOM     29  C   UNL     1     135.383 132.129 154.262  1.00  0.00     0.239 A 
ATOM     30  O   UNL     1     135.710 130.237 156.226  1.00  0.00    -0.452 OA
ATOM     31  C   UNL     1     134.584 130.967 154.263  1.00  0.00     0.111 A 
ATOM     32  O   UNL     1     135.201 133.018 153.389  1.00  0.00    -0.285 OA
ATOM     33  C   UNL     1     134.794 130.023 155.290  1.00  0.00     0.146 A 
ATOM     34  C   UNL     1     133.601 130.701 153.275  1.00  0.00     0.134 A 
ATOM     35  C   UNL     1     134.041 128.846 155.335  1.00  0.00     0.094 A 
ATOM     36  C   UNL     1     132.853 129.515 153.337  1.00  0.00     0.093 A 
ATOM     37  C   UNL     1     133.071 128.592 154.360  1.00  0.00     0.123 A 
BRANCH  28  38
ATOM     38  C   UNL     1     137.486 131.403 157.350  1.00  0.00     0.025 A 
ATOM     39  C   UNL     1     137.179 132.014 158.578  1.00  0.00     0.062 A 
ATOM     40  C   UNL     1     138.748 130.815 157.180  1.00  0.00     0.016 A 
ATOM     41  C   UNL     1     138.127 132.058 159.608  1.00  0.00     0.158 A 
ATOM     42  C   UNL     1     139.695 130.860 158.204  1.00  0.00     0.051 A 
ATOM     43  C   UNL     1     139.389 131.483 159.421  1.00  0.00     0.157 A 
BRANCH  41  44
ATOM     44  O   UNL     1     137.818 132.665 160.823  1.00  0.00    -0.504 OA
ATOM     45  H   UNL     1     138.442 132.603 161.623  1.00  0.00     0.293 HD
ENDBRANCH  41  44
BRANCH  43  46
ATOM     46  O   UNL     1     140.331 131.531 160.446  1.00  0.00    -0.504 OA
ATOM     47  H   UNL     1     140.314 132.260 161.148  1.00  0.00     0.293 HD
ENDBRANCH  43  46
ENDBRANCH  28  38
BRANCH  34  48
ATOM     48  O   UNL     1     133.368 131.599 152.232  1.00  0.00    -0.507 OA
ATOM     49  H   UNL     1     133.951 132.416 152.091  1.00  0.00     0.293 HD
ENDBRANCH  34  48
BRANCH  37  50
ATOM     50  O   UNL     1     132.317 127.420 154.399  1.00  0.00    -0.508 OA
ATOM     51  H   UNL     1     131.306 127.444 154.473  1.00  0.00     0.293 HD
ENDBRANCH  37  50
ENDBRANCH  26  27
ENDBRANCH   5  26
BRANCH   4  52
ATOM     52  O   UNL     1     140.711 132.844 154.123  1.00  0.00    -0.384 OA
ATOM     53  H   UNL     1     140.369 133.151 153.246  1.00  0.00     0.211 HD
ENDBRANCH   4  52
TORSDOF 16
ENDMDL
MODEL 6
REMARK VINA RESULT:    -6.820      5.838     10.171
REMARK INTER + INTRA:         -14.599
REMARK INTER:                 -11.631
REMARK INTRA:                  -2.968
REMARK UNBOUND:                -3.393
REMARK SMILES C[C@H]1O[C@H](OC[C@@H]2O[C@H](Oc3c(-c4ccc(O)c(O)c4)oc4cc(O)cc(O)c4c3=O)[C@@H](O)[C@H](O)[C@H]2O)[C@@H](O)[C@@H](O)[C@H]1O
REMARK SMILES IDX 7 1 36 2 34 3 32 4 9 5 8 6 6 7 5 8 4 9 1 10 2 11 42 12 3 13
REMARK SMILES IDX 40 14 38 15 43 16 41 18 39 20 37 22 35 24 10 26 11 27 12 28
REMARK SMILES IDX 30 29 21 30 29 31 31 32 22 33 27 34 23 35 26 36 24 37 13 38
REMARK SMILES IDX 20 39 14 40 18 41 15 42 16 43 19 44 17 46 28 48 25 50 33 52
REMARK H PARENT 43 17 41 19 39 21 37 23 35 25 19 45 17 47 28 49 25 51 33 53
REMARK Flexibility Score: inf
ROOT
ATOM      1  C   UNL     1     134.669 128.937 155.904  1.00  0.00     0.180 C 
ATOM      2  C   UNL     1     133.429 129.722 156.395  1.00  0.00     0.177 C 
ATOM      3  C   UNL     1     132.504 130.147 155.239  1.00  0.00     0.180 C 
ATOM      4  C   UNL     1     132.274 128.988 154.242  1.00  0.00     0.214 C 
ATOM      5  C   UNL     1     133.575 128.228 153.899  1.00  0.00     0.339 C 
ATOM      6  O   UNL     1     134.338 127.861 155.037  1.00  0.00    -0.332 OA
ENDROOT
BRANCH   1   7
ATOM      7  C   UNL     1     135.821 129.826 155.375  1.00  0.00     0.198 C 
BRANCH   7   8
ATOM      8  O   UNL     1     135.753 131.083 156.024  1.00  0.00    -0.347 OA
BRANCH   8   9
ATOM      9  C   UNL     1     136.996 131.533 156.539  1.00  0.00     0.281 C 
ATOM     10  C   UNL     1     137.190 132.389 160.154  1.00  0.00     0.041 C 
ATOM     11  C   UNL     1     137.246 131.469 158.933  1.00  0.00     0.150 C 
ATOM     12  C   UNL     1     138.637 130.818 158.805  1.00  0.00     0.174 C 
ATOM     13  O   UNL     1     136.878 132.217 157.787  1.00  0.00    -0.344 OA
ATOM     14  C   UNL     1     138.609 129.815 157.654  1.00  0.00     0.179 C 
ATOM     15  C   UNL     1     138.148 130.491 156.348  1.00  0.00     0.202 C 
BRANCH  12  16
ATOM     16  O   UNL     1     139.674 131.762 158.643  1.00  0.00    -0.388 OA
ATOM     17  H   UNL     1     140.528 131.273 158.544  1.00  0.00     0.211 HD
ENDBRANCH  12  16
BRANCH  14  18
ATOM     18  O   UNL     1     139.886 129.248 157.496  1.00  0.00    -0.387 OA
ATOM     19  H   UNL     1     140.282 129.163 158.405  1.00  0.00     0.211 HD
ENDBRANCH  14  18
BRANCH  15  20
ATOM     20  O   UNL     1     139.256 131.107 155.734  1.00  0.00    -0.385 OA
ATOM     21  H   UNL     1     139.997 130.444 155.737  1.00  0.00     0.211 HD
ENDBRANCH  15  20
ENDBRANCH   8   9
ENDBRANCH   7   8
ENDBRANCH   1   7
BRANCH   2  22
ATOM     22  O   UNL     1     132.713 128.900 157.287  1.00  0.00    -0.387 OA
ATOM     23  H   UNL     1     133.105 129.028 158.189  1.00  0.00     0.211 HD
ENDBRANCH   2  22
BRANCH   3  24
ATOM     24  O   UNL     1     132.964 131.327 154.622  1.00  0.00    -0.387 OA
ATOM     25  H   UNL     1     132.559 132.109 155.070  1.00  0.00     0.211 HD
ENDBRANCH   3  24
BRANCH   5  26
ATOM     26  O   UNL     1     134.364 128.926 152.927  1.00  0.00    -0.454 OA
BRANCH  26  27
ATOM     27  C   UNL     1     134.572 128.479 151.606  1.00  0.00     0.214 A 
ATOM     28  C   UNL     1     135.872 128.118 151.193  1.00  0.00     0.180 A 
ATOM     29  C   UNL     1     133.529 128.414 150.652  1.00  0.00     0.239 A 
ATOM     30  O   UNL     1     136.103 127.792 149.925  1.00  0.00    -0.452 OA
ATOM     31  C   UNL     1     133.821 128.071 149.316  1.00  0.00     0.111 A 
ATOM     32  O   UNL     1     132.341 128.654 150.996  1.00  0.00    -0.285 OA
ATOM     33  C   UNL     1     135.159 127.764 148.992  1.00  0.00     0.146 A 
ATOM     34  C   UNL     1     132.840 128.037 148.292  1.00  0.00     0.134 A 
ATOM     35  C   UNL     1     135.511 127.429 147.681  1.00  0.00     0.094 A 
ATOM     36  C   UNL     1     133.212 127.697 146.981  1.00  0.00     0.093 A 
ATOM     37  C   UNL     1     134.539 127.395 146.676  1.00  0.00     0.123 A 
BRANCH  28  38
ATOM     38  C   UNL     1     137.031 128.132 152.115  1.00  0.00     0.025 A 
ATOM     39  C   UNL     1     137.963 129.183 152.108  1.00  0.00     0.062 A 
ATOM     40  C   UNL     1     137.172 127.103 153.059  1.00  0.00     0.016 A 
ATOM     41  C   UNL     1     139.034 129.191 153.012  1.00  0.00     0.158 A 
ATOM     42  C   UNL     1     138.240 127.108 153.958  1.00  0.00     0.051 A 
ATOM     43  C   UNL     1     139.175 128.151 153.937  1.00  0.00     0.157 A 
BRANCH  41  44
ATOM     44  O   UNL     1     139.956 130.235 153.000  1.00  0.00    -0.504 OA
ATOM     45  H   UNL     1     139.807 131.070 152.441  1.00  0.00     0.293 HD
ENDBRANCH  41  44
BRANCH  43  46
ATOM     46  O   UNL     1     140.242 128.160 154.833  1.00  0.00    -0.504 OA
ATOM     47  H   UNL     1     140.121 127.899 155.804  1.00  0.00     0.293 HD
ENDBRANCH  43  46
ENDBRANCH  28  38
BRANCH  34  48
ATOM     48  O   UNL     1     131.506 128.346 148.562  1.00  0.00    -0.507 OA
ATOM     49  H   UNL     1     130.923 127.741 149.129  1.00  0.00     0.293 HD
ENDBRANCH  34  48
BRANCH  37  50
ATOM     50  O   UNL     1     134.883 127.061 145.367  1.00  0.00    -0.508 OA
ATOM     51  H   UNL     1     135.589 127.580 144.857  1.00  0.00     0.293 HD
ENDBRANCH  37  50
ENDBRANCH  26  27
ENDBRANCH   5  26
BRANCH   4  52
ATOM     52  O   UNL     1     131.353 128.076 154.790  1.00  0.00    -0.384 OA
ATOM     53  H   UNL     1     130.480 128.543 154.827  1.00  0.00     0.211 HD
ENDBRANCH   4  52
TORSDOF 16
ENDMDL
MODEL 7
REMARK VINA RESULT:    -6.787      1.793      8.642
REMARK INTER + INTRA:         -14.545
REMARK INTER:                 -11.740
REMARK INTRA:                  -2.805
REMARK UNBOUND:                -3.393
REMARK SMILES C[C@H]1O[C@H](OC[C@@H]2O[C@H](Oc3c(-c4ccc(O)c(O)c4)oc4cc(O)cc(O)c4c3=O)[C@@H](O)[C@H](O)[C@H]2O)[C@@H](O)[C@@H](O)[C@H]1O
REMARK SMILES IDX 7 1 36 2 34 3 32 4 9 5 8 6 6 7 5 8 4 9 1 10 2 11 42 12 3 13
REMARK SMILES IDX 40 14 38 15 43 16 41 18 39 20 37 22 35 24 10 26 11 27 12 28
REMARK SMILES IDX 30 29 21 30 29 31 31 32 22 33 27 34 23 35 26 36 24 37 13 38
REMARK SMILES IDX 20 39 14 40 18 41 15 42 16 43 19 44 17 46 28 48 25 50 33 52
REMARK H PARENT 43 17 41 19 39 21 37 23 35 25 19 45 17 47 28 49 25 51 33 53
REMARK Flexibility Score: inf
ROOT
ATOM      1  C   UNL     1     139.208 130.630 153.392  1.00  0.00     0.180 C 
ATOM      2  C   UNL     1     137.751 131.144 153.469  1.00  0.00     0.177 C 
ATOM      3  C   UNL     1     137.582 132.538 152.835  1.00  0.00     0.180 C 
ATOM      4  C   UNL     1     138.307 132.631 151.473  1.00  0.00     0.214 C 
ATOM      5  C   UNL     1     139.720 132.006 151.503  1.00  0.00     0.339 C 
ATOM      6  O   UNL     1     139.758 130.712 152.085  1.00  0.00    -0.332 OA
ENDROOT
BRANCH   1   7
ATOM      7  C   UNL     1     140.142 131.190 154.493  1.00  0.00     0.198 C 
BRANCH   7   8
ATOM      8  O   UNL     1     139.964 130.420 155.667  1.00  0.00    -0.347 OA
BRANCH   8   9
ATOM      9  C   UNL     1     139.215 131.076 156.677  1.00  0.00     0.281 C 
ATOM     10  C   UNL     1     139.550 129.860 160.178  1.00  0.00     0.041 C 
ATOM     11  C   UNL     1     139.919 130.693 158.948  1.00  0.00     0.150 C 
ATOM     12  C   UNL     1     139.835 132.199 159.265  1.00  0.00     0.174 C 
ATOM     13  O   UNL     1     139.081 130.306 157.873  1.00  0.00    -0.344 OA
ATOM     14  C   UNL     1     140.333 132.986 158.055  1.00  0.00     0.179 C 
ATOM     15  C   UNL     1     139.545 132.602 156.788  1.00  0.00     0.202 C 
BRANCH  12  16
ATOM     16  O   UNL     1     138.541 132.609 159.653  1.00  0.00    -0.388 OA
ATOM     17  H   UNL     1     138.029 131.807 159.923  1.00  0.00     0.211 HD
ENDBRANCH  12  16
BRANCH  14  18
ATOM     18  O   UNL     1     140.217 134.363 158.313  1.00  0.00    -0.387 OA
ATOM     19  H   UNL     1     141.035 134.797 157.949  1.00  0.00     0.211 HD
ENDBRANCH  14  18
BRANCH  15  20
ATOM     20  O   UNL     1     138.354 133.355 156.741  1.00  0.00    -0.385 OA
ATOM     21  H   UNL     1     137.981 133.367 157.664  1.00  0.00     0.211 HD
ENDBRANCH  15  20
ENDBRANCH   8   9
ENDBRANCH   7   8
ENDBRANCH   1   7
BRANCH   2  22
ATOM     22  O   UNL     1     136.923 130.223 152.797  1.00  0.00    -0.387 OA
ATOM     23  H   UNL     1     137.450 129.844 152.046  1.00  0.00     0.211 HD
ENDBRANCH   2  22
BRANCH   3  24
ATOM     24  O   UNL     1     137.952 133.558 153.732  1.00  0.00    -0.387 OA
ATOM     25  H   UNL     1     137.289 134.289 153.687  1.00  0.00     0.211 HD
ENDBRANCH   3  24
BRANCH   5  26
ATOM     26  O   UNL     1     140.684 132.886 152.094  1.00  0.00    -0.454 OA
BRANCH  26  27
ATOM     27  C   UNL     1     141.506 133.768 151.361  1.00  0.00     0.214 A 
ATOM     28  C   UNL     1     141.384 135.160 151.565  1.00  0.00     0.180 A 
ATOM     29  C   UNL     1     142.430 133.317 150.390  1.00  0.00     0.239 A 
ATOM     30  O   UNL     1     142.077 136.007 150.812  1.00  0.00    -0.452 OA
ATOM     31  C   UNL     1     143.138 134.252 149.608  1.00  0.00     0.111 A 
ATOM     32  O   UNL     1     142.625 132.083 150.229  1.00  0.00    -0.285 OA
ATOM     33  C   UNL     1     142.919 135.622 149.860  1.00  0.00     0.146 A 
ATOM     34  C   UNL     1     144.040 133.877 148.579  1.00  0.00     0.134 A 
ATOM     35  C   UNL     1     143.584 136.595 149.109  1.00  0.00     0.094 A 
ATOM     36  C   UNL     1     144.701 134.869 147.836  1.00  0.00     0.093 A 
ATOM     37  C   UNL     1     144.475 136.220 148.097  1.00  0.00     0.123 A 
BRANCH  28  38
ATOM     38  C   UNL     1     140.462 135.737 152.570  1.00  0.00     0.025 A 
ATOM     39  C   UNL     1     140.717 135.632 153.948  1.00  0.00     0.062 A 
ATOM     40  C   UNL     1     139.337 136.456 152.139  1.00  0.00     0.016 A 
ATOM     41  C   UNL     1     139.847 136.214 154.879  1.00  0.00     0.158 A 
ATOM     42  C   UNL     1     138.467 137.034 153.066  1.00  0.00     0.051 A 
ATOM     43  C   UNL     1     138.718 136.914 154.439  1.00  0.00     0.157 A 
BRANCH  41  44
ATOM     44  O   UNL     1     140.104 136.106 156.244  1.00  0.00    -0.504 OA
ATOM     45  H   UNL     1     140.197 135.202 156.698  1.00  0.00     0.293 HD
ENDBRANCH  41  44
BRANCH  43  46
ATOM     46  O   UNL     1     137.853 137.489 155.367  1.00  0.00    -0.504 OA
ATOM     47  H   UNL     1     137.478 136.957 156.143  1.00  0.00     0.293 HD
ENDBRANCH  43  46
ENDBRANCH  28  38
BRANCH  34  48
ATOM     48  O   UNL     1     144.278 132.534 148.284  1.00  0.00    -0.507 OA
ATOM     49  H   UNL     1     143.748 132.042 147.573  1.00  0.00     0.293 HD
ENDBRANCH  34  48
BRANCH  37  50
ATOM     50  O   UNL     1     145.141 137.185 147.344  1.00  0.00    -0.508 OA
ATOM     51  H   UNL     1     145.285 138.124 147.697  1.00  0.00     0.293 HD
ENDBRANCH  37  50
ENDBRANCH  26  27
ENDBRANCH   5  26
BRANCH   4  52
ATOM     52  O   UNL     1     137.546 131.971 150.490  1.00  0.00    -0.384 OA
ATOM     53  H   UNL     1     138.108 131.230 150.148  1.00  0.00     0.211 HD
ENDBRANCH   4  52
TORSDOF 16
ENDMDL
MODEL 8
REMARK VINA RESULT:    -6.694      5.924     10.597
REMARK INTER + INTRA:         -14.392
REMARK INTER:                 -13.029
REMARK INTRA:                  -1.363
REMARK UNBOUND:                -3.393
REMARK SMILES C[C@H]1O[C@H](OC[C@@H]2O[C@H](Oc3c(-c4ccc(O)c(O)c4)oc4cc(O)cc(O)c4c3=O)[C@@H](O)[C@H](O)[C@H]2O)[C@@H](O)[C@@H](O)[C@H]1O
REMARK SMILES IDX 7 1 36 2 34 3 32 4 9 5 8 6 6 7 5 8 4 9 1 10 2 11 42 12 3 13
REMARK SMILES IDX 40 14 38 15 43 16 41 18 39 20 37 22 35 24 10 26 11 27 12 28
REMARK SMILES IDX 30 29 21 30 29 31 31 32 22 33 27 34 23 35 26 36 24 37 13 38
REMARK SMILES IDX 20 39 14 40 18 41 15 42 16 43 19 44 17 46 28 48 25 50 33 52
REMARK H PARENT 43 17 41 19 39 21 37 23 35 25 19 45 17 47 28 49 25 51 33 53
REMARK Flexibility Score: inf
ROOT
ATOM      1  C   UNL     1     138.586 129.265 154.319  1.00  0.00     0.180 C 
ATOM      2  C   UNL     1     138.833 127.998 155.171  1.00  0.00     0.177 C 
ATOM      3  C   UNL     1     137.836 126.868 154.851  1.00  0.00     0.180 C 
ATOM      4  C   UNL     1     137.658 126.686 153.326  1.00  0.00     0.214 C 
ATOM      5  C   UNL     1     137.509 128.029 152.577  1.00  0.00     0.339 C 
ATOM      6  O   UNL     1     138.493 128.990 152.928  1.00  0.00    -0.332 OA
ENDROOT
BRANCH   1   7
ATOM      7  C   UNL     1     137.454 130.181 154.846  1.00  0.00     0.198 C 
BRANCH   7   8
ATOM      8  O   UNL     1     137.428 130.094 156.259  1.00  0.00    -0.347 OA
BRANCH   8   9
ATOM      9  C   UNL     1     137.774 131.303 156.916  1.00  0.00     0.281 C 
ATOM     10  C   UNL     1     137.218 131.523 160.589  1.00  0.00     0.041 C 
ATOM     11  C   UNL     1     137.993 131.190 159.312  1.00  0.00     0.150 C 
ATOM     12  C   UNL     1     139.321 131.972 159.262  1.00  0.00     0.174 C 
ATOM     13  O   UNL     1     137.157 131.448 158.197  1.00  0.00    -0.344 OA
ATOM     14  C   UNL     1     140.116 131.515 158.041  1.00  0.00     0.179 C 
ATOM     15  C   UNL     1     139.285 131.675 156.753  1.00  0.00     0.202 C 
BRANCH  12  16
ATOM     16  O   UNL     1     139.136 133.371 159.266  1.00  0.00    -0.388 OA
ATOM     17  H   UNL     1     138.741 133.635 158.398  1.00  0.00     0.211 HD
ENDBRANCH  12  16
BRANCH  14  18
ATOM     18  O   UNL     1     141.309 132.254 157.957  1.00  0.00    -0.387 OA
ATOM     19  H   UNL     1     141.494 132.400 156.990  1.00  0.00     0.211 HD
ENDBRANCH  14  18
BRANCH  15  20
ATOM     20  O   UNL     1     139.406 133.000 156.290  1.00  0.00    -0.385 OA
ATOM     21  H   UNL     1     140.240 133.044 155.748  1.00  0.00     0.211 HD
ENDBRANCH  15  20
ENDBRANCH   8   9
ENDBRANCH   7   8
ENDBRANCH   1   7
BRANCH   2  22
ATOM     22  O   UNL     1     140.145 127.548 154.922  1.00  0.00    -0.387 OA
ATOM     23  H   UNL     1     140.762 128.142 155.421  1.00  0.00     0.211 HD
ENDBRANCH   2  22
BRANCH   3  24
ATOM     24  O   UNL     1     136.618 127.049 155.535  1.00  0.00    -0.387 OA
ATOM     25  H   UNL     1     136.804 127.263 156.482  1.00  0.00     0.211 HD
ENDBRANCH   3  24
BRANCH   5  26
ATOM     26  O   UNL     1     136.182 128.558 152.684  1.00  0.00    -0.454 OA
BRANCH  26  27
ATOM     27  C   UNL     1     135.129 128.244 151.800  1.00  0.00     0.214 A 
ATOM     28  C   UNL     1     133.793 128.425 152.220  1.00  0.00     0.180 A 
ATOM     29  C   UNL     1     135.354 127.711 150.509  1.00  0.00     0.239 A 
ATOM     30  O   UNL     1     132.790 128.038 151.437  1.00  0.00    -0.452 OA
ATOM     31  C   UNL     1     134.260 127.308 149.716  1.00  0.00     0.111 A 
ATOM     32  O   UNL     1     136.528 127.604 150.065  1.00  0.00    -0.285 OA
ATOM     33  C   UNL     1     132.963 127.493 150.240  1.00  0.00     0.146 A 
ATOM     34  C   UNL     1     134.407 126.715 148.435  1.00  0.00     0.134 A 
ATOM     35  C   UNL     1     131.840 127.101 149.505  1.00  0.00     0.094 A 
ATOM     36  C   UNL     1     133.267 126.330 147.711  1.00  0.00     0.093 A 
ATOM     37  C   UNL     1     131.991 126.520 148.241  1.00  0.00     0.123 A 
BRANCH  28  38
ATOM     38  C   UNL     1     133.447 128.992 153.543  1.00  0.00     0.025 A 
ATOM     39  C   UNL     1     132.859 130.263 153.666  1.00  0.00     0.062 A 
ATOM     40  C   UNL     1     133.656 128.225 154.698  1.00  0.00     0.016 A 
ATOM     41  C   UNL     1     132.510 130.767 154.926  1.00  0.00     0.158 A 
ATOM     42  C   UNL     1     133.312 128.726 155.955  1.00  0.00     0.051 A 
ATOM     43  C   UNL     1     132.740 129.999 156.074  1.00  0.00     0.157 A 
BRANCH  41  44
ATOM     44  O   UNL     1     131.928 132.027 155.043  1.00  0.00    -0.504 OA
ATOM     45  H   UNL     1     132.482 132.877 154.975  1.00  0.00     0.293 HD
ENDBRANCH  41  44
BRANCH  43  46
ATOM     46  O   UNL     1     132.395 130.504 157.325  1.00  0.00    -0.504 OA
ATOM     47  H   UNL     1     131.469 130.867 157.513  1.00  0.00     0.293 HD
ENDBRANCH  43  46
ENDBRANCH  28  38
BRANCH  34  48
ATOM     48  O   UNL     1     135.670 126.500 147.882  1.00  0.00    -0.507 OA
ATOM     49  H   UNL     1     135.822 126.510 146.880  1.00  0.00     0.293 HD
ENDBRANCH  34  48
BRANCH  37  50
ATOM     50  O   UNL     1     130.876 126.127 147.503  1.00  0.00    -0.508 OA
ATOM     51  H   UNL     1     130.305 125.339 147.786  1.00  0.00     0.293 HD
ENDBRANCH  37  50
ENDBRANCH  26  27
ENDBRANCH   5  26
BRANCH   4  52
ATOM     52  O   UNL     1     138.771 126.002 152.803  1.00  0.00    -0.384 OA
ATOM     53  H   UNL     1     138.542 125.038 152.813  1.00  0.00     0.211 HD
ENDBRANCH   4  52
TORSDOF 16
ENDMDL
MODEL 9
REMARK VINA RESULT:    -6.644      3.239      5.647
REMARK INTER + INTRA:         -14.309
REMARK INTER:                 -12.037
REMARK INTRA:                  -2.272
REMARK UNBOUND:                -3.393
REMARK SMILES C[C@H]1O[C@H](OC[C@@H]2O[C@H](Oc3c(-c4ccc(O)c(O)c4)oc4cc(O)cc(O)c4c3=O)[C@@H](O)[C@H](O)[C@H]2O)[C@@H](O)[C@@H](O)[C@H]1O
REMARK SMILES IDX 7 1 36 2 34 3 32 4 9 5 8 6 6 7 5 8 4 9 1 10 2 11 42 12 3 13
REMARK SMILES IDX 40 14 38 15 43 16 41 18 39 20 37 22 35 24 10 26 11 27 12 28
REMARK SMILES IDX 30 29 21 30 29 31 31 32 22 33 27 34 23 35 26 36 24 37 13 38
REMARK SMILES IDX 20 39 14 40 18 41 15 42 16 43 19 44 17 46 28 48 25 50 33 52
REMARK H PARENT 43 17 41 19 39 21 37 23 35 25 19 45 17 47 28 49 25 51 33 53
REMARK Flexibility Score: inf
ROOT
ATOM      1  C   UNL     1     140.813 134.560 155.202  1.00  0.00     0.180 C 
ATOM      2  C   UNL     1     140.366 135.832 154.444  1.00  0.00     0.177 C 
ATOM      3  C   UNL     1     138.945 135.705 153.863  1.00  0.00     0.180 C 
ATOM      4  C   UNL     1     137.964 135.100 154.893  1.00  0.00     0.214 C 
ATOM      5  C   UNL     1     138.560 133.889 155.646  1.00  0.00     0.339 C 
ATOM      6  O   UNL     1     139.861 134.122 156.162  1.00  0.00    -0.332 OA
ENDROOT
BRANCH   1   7
ATOM      7  C   UNL     1     141.340 133.424 154.291  1.00  0.00     0.198 C 
BRANCH   7   8
ATOM      8  O   UNL     1     141.823 133.999 153.091  1.00  0.00    -0.347 OA
BRANCH   8   9
ATOM      9  C   UNL     1     141.837 133.105 151.990  1.00  0.00     0.281 C 
ATOM     10  C   UNL     1     139.517 133.774 149.159  1.00  0.00     0.041 C 
ATOM     11  C   UNL     1     140.816 133.898 149.958  1.00  0.00     0.150 C 
ATOM     12  C   UNL     1     142.017 133.412 149.123  1.00  0.00     0.174 C 
ATOM     13  O   UNL     1     140.666 133.190 151.176  1.00  0.00    -0.344 OA
ATOM     14  C   UNL     1     143.301 133.673 149.908  1.00  0.00     0.179 C 
ATOM     15  C   UNL     1     143.238 133.011 151.298  1.00  0.00     0.202 C 
BRANCH  12  16
ATOM     16  O   UNL     1     141.910 132.058 148.741  1.00  0.00    -0.388 OA
ATOM     17  H   UNL     1     142.776 131.774 148.357  1.00  0.00     0.211 HD
ENDBRANCH  12  16
BRANCH  14  18
ATOM     18  O   UNL     1     144.401 133.191 149.178  1.00  0.00    -0.387 OA
ATOM     19  H   UNL     1     144.946 132.640 149.802  1.00  0.00     0.211 HD
ENDBRANCH  14  18
BRANCH  15  20
ATOM     20  O   UNL     1     143.627 131.662 151.183  1.00  0.00    -0.385 OA
ATOM     21  H   UNL     1     144.107 131.425 152.022  1.00  0.00     0.211 HD
ENDBRANCH  15  20
ENDBRANCH   8   9
ENDBRANCH   7   8
ENDBRANCH   1   7
BRANCH   2  22
ATOM     22  O   UNL     1     140.407 136.917 155.343  1.00  0.00    -0.387 OA
ATOM     23  H   UNL     1     141.362 137.118 155.521  1.00  0.00     0.211 HD
ENDBRANCH   2  22
BRANCH   3  24
ATOM     24  O   UNL     1     138.954 135.018 152.634  1.00  0.00    -0.387 OA
ATOM     25  H   UNL     1     138.561 134.120 152.758  1.00  0.00     0.211 HD
ENDBRANCH   3  24
BRANCH   5  26
ATOM     26  O   UNL     1     138.501 132.690 154.863  1.00  0.00    -0.454 OA
BRANCH  26  27
ATOM     27  C   UNL     1     137.456 131.745 154.937  1.00  0.00     0.214 A 
ATOM     28  C   UNL     1     137.296 130.980 156.113  1.00  0.00     0.180 A 
ATOM     29  C   UNL     1     136.577 131.498 153.857  1.00  0.00     0.239 A 
ATOM     30  O   UNL     1     136.381 130.016 156.161  1.00  0.00    -0.452 OA
ATOM     31  C   UNL     1     135.627 130.461 153.950  1.00  0.00     0.111 A 
ATOM     32  O   UNL     1     136.635 132.209 152.819  1.00  0.00    -0.285 OA
ATOM     33  C   UNL     1     135.569 129.725 155.152  1.00  0.00     0.146 A 
ATOM     34  C   UNL     1     134.747 130.117 152.891  1.00  0.00     0.134 A 
ATOM     35  C   UNL     1     134.656 128.677 155.298  1.00  0.00     0.094 A 
ATOM     36  C   UNL     1     133.836 129.062 153.055  1.00  0.00     0.093 A 
ATOM     37  C   UNL     1     133.789 128.345 154.251  1.00  0.00     0.123 A 
BRANCH  28  38
ATOM     38  C   UNL     1     138.150 131.171 157.307  1.00  0.00     0.025 A 
ATOM     39  C   UNL     1     137.667 131.812 158.460  1.00  0.00     0.062 A 
ATOM     40  C   UNL     1     139.452 130.650 157.313  1.00  0.00     0.016 A 
ATOM     41  C   UNL     1     138.482 131.953 159.591  1.00  0.00     0.158 A 
ATOM     42  C   UNL     1     140.268 130.793 158.437  1.00  0.00     0.051 A 
ATOM     43  C   UNL     1     139.787 131.446 159.579  1.00  0.00     0.157 A 
BRANCH  41  44
ATOM     44  O   UNL     1     137.999 132.591 160.732  1.00  0.00    -0.504 OA
ATOM     45  H   UNL     1     138.053 132.153 161.648  1.00  0.00     0.293 HD
ENDBRANCH  41  44
BRANCH  43  46
ATOM     46  O   UNL     1     140.597 131.590 160.704  1.00  0.00    -0.504 OA
ATOM     47  H   UNL     1     141.020 132.478 160.941  1.00  0.00     0.293 HD
ENDBRANCH  43  46
ENDBRANCH  28  38
BRANCH  34  48
ATOM     48  O   UNL     1     134.778 130.807 151.678  1.00  0.00    -0.507 OA
ATOM     49  H   UNL     1     134.041 130.704 150.987  1.00  0.00     0.293 HD
ENDBRANCH  34  48
BRANCH  37  50
ATOM     50  O   UNL     1     132.877 127.301 154.389  1.00  0.00    -0.508 OA
ATOM     51  H   UNL     1     131.984 127.436 154.849  1.00  0.00     0.293 HD
ENDBRANCH  37  50
ENDBRANCH  26  27
ENDBRANCH   5  26
BRANCH   4  52
ATOM     52  O   UNL     1     137.610 136.083 155.836  1.00  0.00    -0.384 OA
ATOM     53  H   UNL     1     136.638 136.244 155.725  1.00  0.00     0.211 HD
ENDBRANCH   4  52
TORSDOF 16
ENDMDL
