MODEL 1
REMARK VINA RESULT:    44.738      0.000      0.000
REMARK INTER + INTRA:          54.016
REMARK INTER:                  53.892
REMARK INTRA:                   0.125
REMARK UNBOUND:                 0.125
REMARK SMILES O=c1c(O)c(-c2ccc(O)c(O)c2)oc2cc(O)cc(O)c12
REMARK SMILES IDX 5 1 3 2 2 3 1 4 22 5 20 6 19 7 17 8 16 9 15 10 14 11 6 12
REMARK SMILES IDX 7 13 8 14 9 15 13 16 11 17 10 18 12 20 4 22 21 24 18 26
REMARK H PARENT 10 19 12 21 4 23 21 25 18 27
REMARK Flexibility Score: inf
ROOT
ATOM      1  C   UNL     1      11.788 -22.987 -16.335  1.00  0.00     0.180 A 
ATOM      2  C   UNL     1      11.979 -24.378 -16.280  1.00  0.00     0.208 A 
ATOM      3  C   UNL     1      13.207 -24.878 -15.816  1.00  0.00     0.238 A 
ATOM      4  O   UNL     1      13.353 -26.124 -15.716  1.00  0.00    -0.285 OA
ATOM      5  C   UNL     1      14.233 -23.982 -15.430  1.00  0.00     0.111 A 
ATOM      6  C   UNL     1      15.529 -24.378 -14.984  1.00  0.00     0.134 A 
ATOM      7  C   UNL     1      16.420 -23.409 -14.504  1.00  0.00     0.093 A 
ATOM      8  C   UNL     1      16.086 -22.055 -14.515  1.00  0.00     0.123 A 
ATOM      9  C   UNL     1      14.844 -21.652 -15.005  1.00  0.00     0.094 A 
ATOM     10  C   UNL     1      13.920 -22.597 -15.457  1.00  0.00     0.146 A 
ATOM     11  O   UNL     1      12.745 -22.174 -15.905  1.00  0.00    -0.452 OA
ENDROOT
BRANCH   1  12
ATOM     12  C   UNL     1      10.531 -22.384 -16.836  1.00  0.00     0.025 A 
ATOM     13  C   UNL     1      10.544 -21.271 -17.691  1.00  0.00     0.016 A 
ATOM     14  C   UNL     1       9.345 -20.706 -18.132  1.00  0.00     0.051 A 
ATOM     15  C   UNL     1       8.115 -21.230 -17.720  1.00  0.00     0.157 A 
ATOM     16  C   UNL     1       9.298 -22.898 -16.404  1.00  0.00     0.062 A 
ATOM     17  C   UNL     1       8.091 -22.338 -16.841  1.00  0.00     0.158 A 
BRANCH  15  18
ATOM     18  O   UNL     1       6.954 -20.620 -18.200  1.00  0.00    -0.504 OA
ATOM     19  H   UNL     1       6.943 -19.746 -18.706  1.00  0.00     0.293 HD
ENDBRANCH  15  18
BRANCH  17  20
ATOM     20  O   UNL     1       6.903 -22.908 -16.380  1.00  0.00    -0.504 OA
ATOM     21  H   UNL     1       6.301 -23.492 -16.942  1.00  0.00     0.293 HD
ENDBRANCH  17  20
ENDBRANCH   1  12
BRANCH   2  22
ATOM     22  O   UNL     1      10.946 -25.246 -16.644  1.00  0.00    -0.502 OA
ATOM     23  H   UNL     1      11.031 -26.253 -16.573  1.00  0.00     0.293 HD
ENDBRANCH   2  22
BRANCH   6  24
ATOM     24  O   UNL     1      15.998 -25.694 -15.017  1.00  0.00    -0.507 OA
ATOM     25  H   UNL     1      15.600 -26.459 -14.492  1.00  0.00     0.293 HD
ENDBRANCH   6  24
BRANCH   8  26
ATOM     26  O   UNL     1      17.003 -21.117 -14.044  1.00  0.00    -0.508 OA
ATOM     27  H   UNL     1      16.776 -20.490 -13.282  1.00  0.00     0.293 HD
ENDBRANCH   8  26
TORSDOF 6
ENDMDL
MODEL 2
REMARK VINA RESULT:    45.678      2.258      3.819
REMARK INTER + INTRA:          55.149
REMARK INTER:                  54.678
REMARK INTRA:                   0.471
REMARK UNBOUND:                 0.125
REMARK SMILES O=c1c(O)c(-c2ccc(O)c(O)c2)oc2cc(O)cc(O)c12
REMARK SMILES IDX 5 1 3 2 2 3 1 4 22 5 20 6 19 7 17 8 16 9 15 10 14 11 6 12
REMARK SMILES IDX 7 13 8 14 9 15 13 16 11 17 10 18 12 20 4 22 21 24 18 26
REMARK H PARENT 10 19 12 21 4 23 21 25 18 27
REMARK Flexibility Score: inf
ROOT
ATOM      1  C   UNL     1      14.439 -23.871 -15.449  1.00  0.00     0.180 A 
ATOM      2  C   UNL     1      15.458 -24.750 -15.041  1.00  0.00     0.208 A 
ATOM      3  C   UNL     1      16.585 -24.228 -14.384  1.00  0.00     0.238 A 
ATOM      4  O   UNL     1      17.467 -25.026 -13.971  1.00  0.00    -0.285 OA
ATOM      5  C   UNL     1      16.686 -22.834 -14.158  1.00  0.00     0.111 A 
ATOM      6  C   UNL     1      17.801 -22.193 -13.539  1.00  0.00     0.134 A 
ATOM      7  C   UNL     1      17.737 -20.824 -13.250  1.00  0.00     0.093 A 
ATOM      8  C   UNL     1      16.629 -20.062 -13.617  1.00  0.00     0.123 A 
ATOM      9  C   UNL     1      15.559 -20.667 -14.276  1.00  0.00     0.094 A 
ATOM     10  C   UNL     1      15.577 -22.038 -14.545  1.00  0.00     0.146 A 
ATOM     11  O   UNL     1      14.535 -22.577 -15.165  1.00  0.00    -0.452 OA
ENDROOT
BRANCH   1  12
ATOM     12  C   UNL     1      13.234 -24.342 -16.169  1.00  0.00     0.025 A 
ATOM     13  C   UNL     1      13.013 -25.707 -16.409  1.00  0.00     0.016 A 
ATOM     14  C   UNL     1      11.880 -26.125 -17.111  1.00  0.00     0.051 A 
ATOM     15  C   UNL     1      10.957 -25.193 -17.596  1.00  0.00     0.157 A 
ATOM     16  C   UNL     1      12.320 -23.404 -16.673  1.00  0.00     0.062 A 
ATOM     17  C   UNL     1      11.182 -23.814 -17.378  1.00  0.00     0.158 A 
BRANCH  15  18
ATOM     18  O   UNL     1       9.844 -25.678 -18.286  1.00  0.00    -0.504 OA
ATOM     19  H   UNL     1       9.045 -25.113 -18.537  1.00  0.00     0.293 HD
ENDBRANCH  15  18
BRANCH  17  20
ATOM     20  O   UNL     1      10.310 -22.826 -17.841  1.00  0.00    -0.504 OA
ATOM     21  H   UNL     1       9.501 -22.503 -17.331  1.00  0.00     0.293 HD
ENDBRANCH  17  20
ENDBRANCH   1  12
BRANCH   2  22
ATOM     22  O   UNL     1      15.327 -26.125 -15.252  1.00  0.00    -0.502 OA
ATOM     23  H   UNL     1      16.111 -26.763 -15.187  1.00  0.00     0.293 HD
ENDBRANCH   2  22
BRANCH   6  24
ATOM     24  O   UNL     1      18.995 -22.844 -13.215  1.00  0.00    -0.507 OA
ATOM     25  H   UNL     1      19.223 -23.205 -12.302  1.00  0.00     0.293 HD
ENDBRANCH   6  24
BRANCH   8  26
ATOM     26  O   UNL     1      16.605 -18.699 -13.327  1.00  0.00    -0.508 OA
ATOM     27  H   UNL     1      15.734 -18.199 -13.199  1.00  0.00     0.293 HD
ENDBRANCH   8  26
TORSDOF 6
ENDMDL
MODEL 3
REMARK VINA RESULT:    46.797      0.786      1.472
REMARK INTER + INTRA:          56.497
REMARK INTER:                  56.044
REMARK INTRA:                   0.453
REMARK UNBOUND:                 0.125
REMARK SMILES O=c1c(O)c(-c2ccc(O)c(O)c2)oc2cc(O)cc(O)c12
REMARK SMILES IDX 5 1 3 2 2 3 1 4 22 5 20 6 19 7 17 8 16 9 15 10 14 11 6 12
REMARK SMILES IDX 7 13 8 14 9 15 13 16 11 17 10 18 12 20 4 22 21 24 18 26
REMARK H PARENT 10 19 12 21 4 23 21 25 18 27
REMARK Flexibility Score: inf
ROOT
ATOM      1  C   UNL     1      12.100 -23.033 -16.246  1.00  0.00     0.180 A 
ATOM      2  C   UNL     1      12.321 -24.419 -16.165  1.00  0.00     0.208 A 
ATOM      3  C   UNL     1      13.557 -24.884 -15.686  1.00  0.00     0.238 A 
ATOM      4  O   UNL     1      13.729 -26.125 -15.563  1.00  0.00    -0.285 OA
ATOM      5  C   UNL     1      14.561 -23.959 -15.311  1.00  0.00     0.111 A 
ATOM      6  C   UNL     1      15.864 -24.319 -14.852  1.00  0.00     0.134 A 
ATOM      7  C   UNL     1      16.731 -23.322 -14.385  1.00  0.00     0.093 A 
ATOM      8  C   UNL     1      16.368 -21.977 -14.423  1.00  0.00     0.123 A 
ATOM      9  C   UNL     1      15.120 -21.609 -14.926  1.00  0.00     0.094 A 
ATOM     10  C   UNL     1      14.219 -22.582 -15.365  1.00  0.00     0.146 A 
ATOM     11  O   UNL     1      13.038 -22.192 -15.827  1.00  0.00    -0.452 OA
ENDROOT
BRANCH   1  12
ATOM     12  C   UNL     1      10.834 -22.467 -16.764  1.00  0.00     0.025 A 
ATOM     13  C   UNL     1       9.714 -23.278 -17.005  1.00  0.00     0.016 A 
ATOM     14  C   UNL     1       8.539 -22.725 -17.516  1.00  0.00     0.051 A 
ATOM     15  C   UNL     1       8.460 -21.359 -17.808  1.00  0.00     0.157 A 
ATOM     16  C   UNL     1      10.764 -21.100 -17.076  1.00  0.00     0.062 A 
ATOM     17  C   UNL     1       9.589 -20.536 -17.589  1.00  0.00     0.158 A 
BRANCH  15  18
ATOM     18  O   UNL     1       7.254 -20.869 -18.312  1.00  0.00    -0.504 OA
ATOM     19  H   UNL     1       7.179 -20.300 -19.144  1.00  0.00     0.293 HD
ENDBRANCH  15  18
BRANCH  17  20
ATOM     20  O   UNL     1       9.589 -19.167 -17.864  1.00  0.00    -0.504 OA
ATOM     21  H   UNL     1       9.957 -18.762 -18.712  1.00  0.00     0.293 HD
ENDBRANCH  17  20
ENDBRANCH   1  12
BRANCH   2  22
ATOM     22  O   UNL     1      11.309 -25.315 -16.518  1.00  0.00    -0.502 OA
ATOM     23  H   UNL     1      11.179 -25.643 -17.468  1.00  0.00     0.293 HD
ENDBRANCH   2  22
BRANCH   6  24
ATOM     24  O   UNL     1      16.361 -25.625 -14.859  1.00  0.00    -0.507 OA
ATOM     25  H   UNL     1      17.339 -25.868 -14.833  1.00  0.00     0.293 HD
ENDBRANCH   6  24
BRANCH   8  26
ATOM     26  O   UNL     1      17.262 -21.011 -13.965  1.00  0.00    -0.508 OA
ATOM     27  H   UNL     1      18.257 -21.082 -14.141  1.00  0.00     0.293 HD
ENDBRANCH   8  26
TORSDOF 6
ENDMDL
MODEL 4
REMARK VINA RESULT:    47.072      1.337      6.713
REMARK INTER + INTRA:          56.828
REMARK INTER:                  56.384
REMARK INTRA:                   0.444
REMARK UNBOUND:                 0.125
REMARK SMILES O=c1c(O)c(-c2ccc(O)c(O)c2)oc2cc(O)cc(O)c12
REMARK SMILES IDX 5 1 3 2 2 3 1 4 22 5 20 6 19 7 17 8 16 9 15 10 14 11 6 12
REMARK SMILES IDX 7 13 8 14 9 15 13 16 11 17 10 18 12 20 4 22 21 24 18 26
REMARK H PARENT 10 19 12 21 4 23 21 25 18 27
REMARK Flexibility Score: inf
ROOT
ATOM      1  C   UNL     1      13.785 -23.309 -15.685  1.00  0.00     0.180 A 
ATOM      2  C   UNL     1      13.455 -24.646 -15.964  1.00  0.00     0.208 A 
ATOM      3  C   UNL     1      12.213 -24.932 -16.555  1.00  0.00     0.238 A 
ATOM      4  O   UNL     1      11.946 -26.125 -16.854  1.00  0.00    -0.285 OA
ATOM      5  C   UNL     1      11.311 -23.879 -16.845  1.00  0.00     0.111 A 
ATOM      6  C   UNL     1      10.011 -24.057 -17.405  1.00  0.00     0.134 A 
ATOM      7  C   UNL     1       9.257 -22.933 -17.770  1.00  0.00     0.093 A 
ATOM      8  C   UNL     1       9.727 -21.643 -17.533  1.00  0.00     0.123 A 
ATOM      9  C   UNL     1      10.972 -21.458 -16.930  1.00  0.00     0.094 A 
ATOM     10  C   UNL     1      11.764 -22.558 -16.589  1.00  0.00     0.146 A 
ATOM     11  O   UNL     1      12.945 -22.339 -16.027  1.00  0.00    -0.452 OA
ENDROOT
BRANCH   1  12
ATOM     12  C   UNL     1      15.064 -22.932 -15.040  1.00  0.00     0.025 A 
ATOM     13  C   UNL     1      16.108 -23.857 -14.891  1.00  0.00     0.016 A 
ATOM     14  C   UNL     1      17.296 -23.485 -14.258  1.00  0.00     0.051 A 
ATOM     15  C   UNL     1      17.460 -22.191 -13.751  1.00  0.00     0.157 A 
ATOM     16  C   UNL     1      15.217 -21.640 -14.513  1.00  0.00     0.062 A 
ATOM     17  C   UNL     1      16.405 -21.257 -13.877  1.00  0.00     0.158 A 
BRANCH  15  18
ATOM     18  O   UNL     1      18.673 -21.882 -13.133  1.00  0.00    -0.504 OA
ATOM     19  H   UNL     1      19.200 -21.039 -13.314  1.00  0.00     0.293 HD
ENDBRANCH  15  18
BRANCH  17  20
ATOM     20  O   UNL     1      16.491 -19.952 -13.388  1.00  0.00    -0.504 OA
ATOM     21  H   UNL     1      17.353 -19.513 -13.099  1.00  0.00     0.293 HD
ENDBRANCH  17  20
ENDBRANCH   1  12
BRANCH   2  22
ATOM     22  O   UNL     1      14.368 -25.669 -15.692  1.00  0.00    -0.502 OA
ATOM     23  H   UNL     1      14.307 -26.582 -16.125  1.00  0.00     0.293 HD
ENDBRANCH   2  22
BRANCH   6  24
ATOM     24  O   UNL     1       9.408 -25.303 -17.599  1.00  0.00    -0.507 OA
ATOM     25  H   UNL     1       9.043 -25.885 -16.860  1.00  0.00     0.293 HD
ENDBRANCH   6  24
BRANCH   8  26
ATOM     26  O   UNL     1       8.944 -20.549 -17.894  1.00  0.00    -0.508 OA
ATOM     27  H   UNL     1       8.061 -20.664 -18.376  1.00  0.00     0.293 HD
ENDBRANCH   8  26
TORSDOF 6
ENDMDL
