MODEL 1
REMARK VINA RESULT:    -4.910      0.000      0.000
REMARK INTER + INTRA:          -7.947
REMARK INTER:                  -7.493
REMARK INTRA:                  -0.454
REMARK UNBOUND:                -0.454
REMARK SMILES O=C([O-])CCCCCCCCC(=O)[O-]
REMARK SMILES IDX 7 1 6 2 5 3 4 4 2 5 1 6 3 7 8 8 9 9 10 10 11 11 12 12 13 13
REMARK SMILES IDX 14 14
REMARK H PARENT
REMARK Flexibility Score: inf
ROOT
ATOM      1  C   UNL     1      -1.917  11.109  -7.268  1.00  0.00     0.000 C 
ENDROOT
BRANCH   1   2
ATOM      2  C   UNL     1      -0.912  11.903  -8.117  1.00  0.00     0.000 C 
BRANCH   2   3
ATOM      3  C   UNL     1       0.544  11.664  -7.690  1.00  0.00     0.006 C 
BRANCH   3   4
ATOM      4  C   UNL     1       1.003  10.255  -8.076  1.00  0.00     0.053 C 
BRANCH   4   5
ATOM      5  C   UNL     1       2.492  10.209  -8.216  1.00  0.00     0.041 C 
ATOM      6  O   UNL     1       3.229  10.662  -7.302  1.00  0.00    -0.550 OA
ATOM      7  O   UNL     1       3.068   9.621  -9.335  1.00  0.00    -0.550 OA
ENDBRANCH   4   5
ENDBRANCH   3   4
ENDBRANCH   2   3
ENDBRANCH   1   2
BRANCH   1   8
ATOM      8  C   UNL     1      -3.192  10.745  -8.044  1.00  0.00     0.000 C 
BRANCH   8   9
ATOM      9  C   UNL     1      -3.092  11.202  -9.507  1.00  0.00     0.000 C 
BRANCH   9  10
ATOM     10  C   UNL     1      -4.155  10.549 -10.410  1.00  0.00     0.006 C 
BRANCH  10  11
ATOM     11  C   UNL     1      -3.967   9.037 -10.616  1.00  0.00     0.053 C 
BRANCH  11  12
ATOM     12  C   UNL     1      -5.269   8.298 -10.583  1.00  0.00     0.041 C 
ATOM     13  O   UNL     1      -6.296   8.848 -10.106  1.00  0.00    -0.550 OA
ATOM     14  O   UNL     1      -5.339   6.992 -11.048  1.00  0.00    -0.550 OA
ENDBRANCH  11  12
ENDBRANCH  10  11
ENDBRANCH   9  10
ENDBRANCH   8   9
ENDBRANCH   1   8
TORSDOF 9
ENDMDL
MODEL 2
REMARK VINA RESULT:    -4.786      0.508      6.912
REMARK INTER + INTRA:          -7.759
REMARK INTER:                  -7.434
REMARK INTRA:                  -0.325
REMARK UNBOUND:                -0.454
REMARK SMILES O=C([O-])CCCCCCCCC(=O)[O-]
REMARK SMILES IDX 7 1 6 2 5 3 4 4 2 5 1 6 3 7 8 8 9 9 10 10 11 11 12 12 13 13
REMARK SMILES IDX 14 14
REMARK H PARENT
REMARK Flexibility Score: inf
ROOT
ATOM      1  C   UNL     1      -3.259  11.188  -8.475  1.00  0.00     0.000 C 
ENDROOT
BRANCH   1   2
ATOM      2  C   UNL     1      -3.364  11.013  -9.998  1.00  0.00     0.000 C 
BRANCH   2   3
ATOM      3  C   UNL     1      -4.523  10.094 -10.410  1.00  0.00     0.006 C 
BRANCH   3   4
ATOM      4  C   UNL     1      -4.079   8.629 -10.433  1.00  0.00     0.053 C 
BRANCH   4   5
ATOM      5  C   UNL     1      -5.251   7.729 -10.666  1.00  0.00     0.041 C 
ATOM      6  O   UNL     1      -6.346   7.952 -10.085  1.00  0.00    -0.550 OA
ATOM      7  O   UNL     1      -5.151   6.673 -11.562  1.00  0.00    -0.550 OA
ENDBRANCH   4   5
ENDBRANCH   3   4
ENDBRANCH   2   3
ENDBRANCH   1   2
BRANCH   1   8
ATOM      8  C   UNL     1      -1.867  10.831  -7.931  1.00  0.00     0.000 C 
BRANCH   8   9
ATOM      9  C   UNL     1      -0.857  11.949  -8.234  1.00  0.00     0.000 C 
BRANCH   9  10
ATOM     10  C   UNL     1       0.515  11.706  -7.580  1.00  0.00     0.006 C 
BRANCH  10  11
ATOM     11  C   UNL     1       1.027  10.261  -7.702  1.00  0.00     0.053 C 
BRANCH  11  12
ATOM     12  C   UNL     1       2.470  10.207  -8.101  1.00  0.00     0.041 C 
ATOM     13  O   UNL     1       3.351  10.712  -7.358  1.00  0.00    -0.550 OA
ATOM     14  O   UNL     1       2.835   9.628  -9.309  1.00  0.00    -0.550 OA
ENDBRANCH  11  12
ENDBRANCH  10  11
ENDBRANCH   9  10
ENDBRANCH   8   9
ENDBRANCH   1   8
TORSDOF 9
ENDMDL
MODEL 3
REMARK VINA RESULT:    -4.762      0.981      7.176
REMARK INTER + INTRA:          -7.721
REMARK INTER:                  -7.423
REMARK INTRA:                  -0.298
REMARK UNBOUND:                -0.454
REMARK SMILES O=C([O-])CCCCCCCCC(=O)[O-]
REMARK SMILES IDX 7 1 6 2 5 3 4 4 2 5 1 6 3 7 8 8 9 9 10 10 11 11 12 12 13 13
REMARK SMILES IDX 14 14
REMARK H PARENT
REMARK Flexibility Score: inf
ROOT
ATOM      1  C   UNL     1      -2.719  10.837  -9.170  1.00  0.00     0.000 C 
ENDROOT
BRANCH   1   2
ATOM      2  C   UNL     1      -4.146  11.387  -9.322  1.00  0.00     0.000 C 
BRANCH   2   3
ATOM      3  C   UNL     1      -4.855  10.856 -10.576  1.00  0.00     0.006 C 
BRANCH   3   4
ATOM      4  C   UNL     1      -6.232  10.286 -10.226  1.00  0.00     0.053 C 
BRANCH   4   5
ATOM      5  C   UNL     1      -6.146   8.809  -9.999  1.00  0.00     0.041 C 
ATOM      6  O   UNL     1      -5.411   8.097 -10.732  1.00  0.00    -0.550 OA
ATOM      7  O   UNL     1      -6.839   8.225  -8.947  1.00  0.00    -0.550 OA
ENDBRANCH   4   5
ENDBRANCH   3   4
ENDBRANCH   2   3
ENDBRANCH   1   2
BRANCH   1   8
ATOM      8  C   UNL     1      -1.765  11.837  -8.498  1.00  0.00     0.000 C 
BRANCH   8   9
ATOM      9  C   UNL     1      -0.994  11.171  -7.349  1.00  0.00     0.000 C 
BRANCH   9  10
ATOM     10  C   UNL     1       0.533  11.262  -7.524  1.00  0.00     0.006 C 
BRANCH  10  11
ATOM     11  C   UNL     1       1.181   9.994  -8.102  1.00  0.00     0.053 C 
BRANCH  11  12
ATOM     12  C   UNL     1       2.659  10.150  -8.287  1.00  0.00     0.041 C 
ATOM     13  O   UNL     1       3.349  10.723  -7.404  1.00  0.00    -0.550 OA
ATOM     14  O   UNL     1       3.267   9.692  -9.448  1.00  0.00    -0.550 OA
ENDBRANCH  11  12
ENDBRANCH  10  11
ENDBRANCH   9  10
ENDBRANCH   8   9
ENDBRANCH   1   8
TORSDOF 9
ENDMDL
MODEL 4
REMARK VINA RESULT:    -4.718      1.243      1.476
REMARK INTER + INTRA:          -7.655
REMARK INTER:                  -7.245
REMARK INTRA:                  -0.410
REMARK UNBOUND:                -0.454
REMARK SMILES O=C([O-])CCCCCCCCC(=O)[O-]
REMARK SMILES IDX 7 1 6 2 5 3 4 4 2 5 1 6 3 7 8 8 9 9 10 10 11 11 12 12 13 13
REMARK SMILES IDX 14 14
REMARK H PARENT
REMARK Flexibility Score: inf
ROOT
ATOM      1  C   UNL     1      -1.346  11.399  -8.494  1.00  0.00     0.000 C 
ENDROOT
BRANCH   1   2
ATOM      2  C   UNL     1      -0.131  11.960  -7.738  1.00  0.00     0.000 C 
BRANCH   2   3
ATOM      3  C   UNL     1       0.695  10.864  -7.048  1.00  0.00     0.006 C 
BRANCH   3   4
ATOM      4  C   UNL     1       1.319   9.919  -8.078  1.00  0.00     0.053 C 
BRANCH   4   5
ATOM      5  C   UNL     1       2.781  10.202  -8.230  1.00  0.00     0.041 C 
ATOM      6  O   UNL     1       3.407  10.807  -7.321  1.00  0.00    -0.550 OA
ATOM      7  O   UNL     1       3.463   9.753  -9.354  1.00  0.00    -0.550 OA
ENDBRANCH   4   5
ENDBRANCH   3   4
ENDBRANCH   2   3
ENDBRANCH   1   2
BRANCH   1   8
ATOM      8  C   UNL     1      -2.545  12.360  -8.485  1.00  0.00     0.000 C 
BRANCH   8   9
ATOM      9  C   UNL     1      -3.864  11.591  -8.662  1.00  0.00     0.000 C 
BRANCH   9  10
ATOM     10  C   UNL     1      -3.683  10.265  -9.423  1.00  0.00     0.006 C 
BRANCH  10  11
ATOM     11  C   UNL     1      -4.625  10.092 -10.625  1.00  0.00     0.053 C 
BRANCH  11  12
ATOM     12  C   UNL     1      -6.067  10.148 -10.223  1.00  0.00     0.041 C 
ATOM     13  O   UNL     1      -6.791  11.107 -10.596  1.00  0.00    -0.550 OA
ATOM     14  O   UNL     1      -6.600   9.157  -9.409  1.00  0.00    -0.550 OA
ENDBRANCH  11  12
ENDBRANCH  10  11
ENDBRANCH   9  10
ENDBRANCH   8   9
ENDBRANCH   1   8
TORSDOF 9
ENDMDL
MODEL 5
REMARK VINA RESULT:    -4.523     11.956     14.037
REMARK INTER + INTRA:          -7.356
REMARK INTER:                  -6.760
REMARK INTRA:                  -0.596
REMARK UNBOUND:                -0.454
REMARK SMILES O=C([O-])CCCCCCCCC(=O)[O-]
REMARK SMILES IDX 7 1 6 2 5 3 4 4 2 5 1 6 3 7 8 8 9 9 10 10 11 11 12 12 13 13
REMARK SMILES IDX 14 14
REMARK H PARENT
REMARK Flexibility Score: inf
ROOT
ATOM      1  C   UNL     1      -1.018   5.201 -19.661  1.00  0.00     0.000 C 
ENDROOT
BRANCH   1   2
ATOM      2  C   UNL     1      -2.050   6.209 -19.132  1.00  0.00     0.000 C 
BRANCH   2   3
ATOM      3  C   UNL     1      -2.725   7.009 -20.256  1.00  0.00     0.006 C 
BRANCH   3   4
ATOM      4  C   UNL     1      -2.759   6.204 -21.557  1.00  0.00     0.053 C 
BRANCH   4   5
ATOM      5  C   UNL     1      -4.020   5.402 -21.645  1.00  0.00     0.041 C 
ATOM      6  O   UNL     1      -5.133   5.946 -21.425  1.00  0.00    -0.550 OA
ATOM      7  O   UNL     1      -3.970   4.065 -22.018  1.00  0.00    -0.550 OA
ENDBRANCH   4   5
ENDBRANCH   3   4
ENDBRANCH   2   3
ENDBRANCH   1   2
BRANCH   1   8
ATOM      8  C   UNL     1       0.338   5.309 -18.945  1.00  0.00     0.000 C 
BRANCH   8   9
ATOM      9  C   UNL     1       1.493   5.311 -19.958  1.00  0.00     0.000 C 
BRANCH   9  10
ATOM     10  C   UNL     1       1.497   4.063 -20.860  1.00  0.00     0.006 C 
BRANCH  10  11
ATOM     11  C   UNL     1       2.122   2.817 -20.212  1.00  0.00     0.053 C 
BRANCH  11  12
ATOM     12  C   UNL     1       1.222   1.623 -20.305  1.00  0.00     0.041 C 
ATOM     13  O   UNL     1      -0.026   1.762 -20.208  1.00  0.00    -0.550 OA
ATOM     14  O   UNL     1       1.763   0.355 -20.464  1.00  0.00    -0.550 OA
ENDBRANCH  11  12
ENDBRANCH  10  11
ENDBRANCH   9  10
ENDBRANCH   8   9
ENDBRANCH   1   8
TORSDOF 9
ENDMDL
MODEL 6
REMARK VINA RESULT:    -4.470     11.919     13.611
REMARK INTER + INTRA:          -7.276
REMARK INTER:                  -6.854
REMARK INTRA:                  -0.422
REMARK UNBOUND:                -0.454
REMARK SMILES O=C([O-])CCCCCCCCC(=O)[O-]
REMARK SMILES IDX 7 1 6 2 5 3 4 4 2 5 1 6 3 7 8 8 9 9 10 10 11 11 12 12 13 13
REMARK SMILES IDX 14 14
REMARK H PARENT
REMARK Flexibility Score: inf
ROOT
ATOM      1  C   UNL     1       1.078   4.939 -19.955  1.00  0.00     0.000 C 
ENDROOT
BRANCH   1   2
ATOM      2  C   UNL     1       1.676   3.749 -20.721  1.00  0.00     0.000 C 
BRANCH   2   3
ATOM      3  C   UNL     1       2.070   2.588 -19.796  1.00  0.00     0.006 C 
BRANCH   3   4
ATOM      4  C   UNL     1       1.100   1.413 -19.949  1.00  0.00     0.053 C 
BRANCH   4   5
ATOM      5  C   UNL     1       1.568   0.482 -21.023  1.00  0.00     0.041 C 
ATOM      6  O   UNL     1       0.825   0.222 -22.005  1.00  0.00    -0.550 OA
ATOM      7  O   UNL     1       2.846  -0.060 -20.965  1.00  0.00    -0.550 OA
ENDBRANCH   4   5
ENDBRANCH   3   4
ENDBRANCH   2   3
ENDBRANCH   1   2
BRANCH   1   8
ATOM      8  C   UNL     1      -0.451   4.851 -19.821  1.00  0.00     0.000 C 
BRANCH   8   9
ATOM      9  C   UNL     1      -0.957   5.778 -18.706  1.00  0.00     0.000 C 
BRANCH   9  10
ATOM     10  C   UNL     1      -2.395   6.273 -18.949  1.00  0.00     0.006 C 
BRANCH  10  11
ATOM     11  C   UNL     1      -2.587   7.033 -20.272  1.00  0.00     0.053 C 
BRANCH  11  12
ATOM     12  C   UNL     1      -3.433   6.268 -21.243  1.00  0.00     0.041 C 
ATOM     13  O   UNL     1      -2.917   5.775 -22.279  1.00  0.00    -0.550 OA
ATOM     14  O   UNL     1      -4.796   6.131 -21.018  1.00  0.00    -0.550 OA
ENDBRANCH  11  12
ENDBRANCH  10  11
ENDBRANCH   9  10
ENDBRANCH   8   9
ENDBRANCH   1   8
TORSDOF 9
ENDMDL
MODEL 7
REMARK VINA RESULT:    -4.411      1.897      2.604
REMARK INTER + INTRA:          -7.186
REMARK INTER:                  -6.831
REMARK INTRA:                  -0.355
REMARK UNBOUND:                -0.454
REMARK SMILES O=C([O-])CCCCCCCCC(=O)[O-]
REMARK SMILES IDX 7 1 6 2 5 3 4 4 2 5 1 6 3 7 8 8 9 9 10 10 11 11 12 12 13 13
REMARK SMILES IDX 14 14
REMARK H PARENT
REMARK Flexibility Score: inf
ROOT
ATOM      1  C   UNL     1      -2.319  10.855  -8.025  1.00  0.00     0.000 C 
ENDROOT
BRANCH   1   2
ATOM      2  C   UNL     1      -1.309  11.898  -7.522  1.00  0.00     0.000 C 
BRANCH   2   3
ATOM      3  C   UNL     1       0.119  11.624  -8.016  1.00  0.00     0.006 C 
BRANCH   3   4
ATOM      4  C   UNL     1       0.748  10.455  -7.252  1.00  0.00     0.053 C 
BRANCH   4   5
ATOM      5  C   UNL     1       2.096  10.127  -7.812  1.00  0.00     0.041 C 
ATOM      6  O   UNL     1       2.197   9.569  -8.936  1.00  0.00    -0.550 OA
ATOM      7  O   UNL     1       3.244  10.483  -7.116  1.00  0.00    -0.550 OA
ENDBRANCH   4   5
ENDBRANCH   3   4
ENDBRANCH   2   3
ENDBRANCH   1   2
BRANCH   1   8
ATOM      8  C   UNL     1      -2.959  11.246  -9.366  1.00  0.00     0.000 C 
BRANCH   8   9
ATOM      9  C   UNL     1      -4.104  10.287  -9.727  1.00  0.00     0.000 C 
BRANCH   9  10
ATOM     10  C   UNL     1      -5.081  10.886 -10.755  1.00  0.00     0.006 C 
BRANCH  10  11
ATOM     11  C   UNL     1      -6.537  10.968 -10.270  1.00  0.00     0.053 C 
BRANCH  11  12
ATOM     12  C   UNL     1      -6.641  11.563  -8.899  1.00  0.00     0.041 C 
ATOM     13  O   UNL     1      -7.042  10.862  -7.934  1.00  0.00    -0.550 OA
ATOM     14  O   UNL     1      -6.326  12.900  -8.696  1.00  0.00    -0.550 OA
ENDBRANCH  11  12
ENDBRANCH  10  11
ENDBRANCH   9  10
ENDBRANCH   8   9
ENDBRANCH   1   8
TORSDOF 9
ENDMDL
MODEL 8
REMARK VINA RESULT:    -4.328      1.982      7.082
REMARK INTER + INTRA:          -7.060
REMARK INTER:                  -6.731
REMARK INTRA:                  -0.329
REMARK UNBOUND:                -0.454
REMARK SMILES O=C([O-])CCCCCCCCC(=O)[O-]
REMARK SMILES IDX 7 1 6 2 5 3 4 4 2 5 1 6 3 7 8 8 9 9 10 10 11 11 12 12 13 13
REMARK SMILES IDX 14 14
REMARK H PARENT
REMARK Flexibility Score: inf
ROOT
ATOM      1  C   UNL     1      -3.644  11.317  -9.074  1.00  0.00     0.000 C 
ENDROOT
BRANCH   1   2
ATOM      2  C   UNL     1      -3.799  10.533 -10.387  1.00  0.00     0.000 C 
BRANCH   2   3
ATOM      3  C   UNL     1      -4.920   9.485 -10.322  1.00  0.00     0.006 C 
BRANCH   3   4
ATOM      4  C   UNL     1      -4.349   8.067 -10.413  1.00  0.00     0.053 C 
BRANCH   4   5
ATOM      5  C   UNL     1      -5.426   7.091 -10.770  1.00  0.00     0.041 C 
ATOM      6  O   UNL     1      -6.530   7.117 -10.167  1.00  0.00    -0.550 OA
ATOM      7  O   UNL     1      -5.228   6.185 -11.804  1.00  0.00    -0.550 OA
ENDBRANCH   4   5
ENDBRANCH   3   4
ENDBRANCH   2   3
ENDBRANCH   1   2
BRANCH   1   8
ATOM      8  C   UNL     1      -2.216  11.844  -8.862  1.00  0.00     0.000 C 
BRANCH   8   9
ATOM      9  C   UNL     1      -1.515  11.084  -7.726  1.00  0.00     0.000 C 
BRANCH   9  10
ATOM     10  C   UNL     1      -0.035  10.789  -8.031  1.00  0.00     0.006 C 
BRANCH  10  11
ATOM     11  C   UNL     1       0.940  11.877  -7.552  1.00  0.00     0.053 C 
BRANCH  11  12
ATOM     12  C   UNL     1       0.619  12.348  -6.167  1.00  0.00     0.041 C 
ATOM     13  O   UNL     1       0.118  13.489  -5.987  1.00  0.00    -0.550 OA
ATOM     14  O   UNL     1       0.906  11.541  -5.074  1.00  0.00    -0.550 OA
ENDBRANCH  11  12
ENDBRANCH  10  11
ENDBRANCH   9  10
ENDBRANCH   8   9
ENDBRANCH   1   8
TORSDOF 9
ENDMDL
MODEL 9
REMARK VINA RESULT:    -4.275     11.744     13.030
REMARK INTER + INTRA:          -6.978
REMARK INTER:                  -6.251
REMARK INTRA:                  -0.727
REMARK UNBOUND:                -0.454
REMARK SMILES O=C([O-])CCCCCCCCC(=O)[O-]
REMARK SMILES IDX 7 1 6 2 5 3 4 4 2 5 1 6 3 7 8 8 9 9 10 10 11 11 12 12 13 13
REMARK SMILES IDX 14 14
REMARK H PARENT
REMARK Flexibility Score: inf
ROOT
ATOM      1  C   UNL     1      -0.671   5.472 -19.094  1.00  0.00     0.000 C 
ENDROOT
BRANCH   1   2
ATOM      2  C   UNL     1      -0.212   5.549 -20.558  1.00  0.00     0.000 C 
BRANCH   2   3
ATOM      3  C   UNL     1       0.159   4.176 -21.137  1.00  0.00     0.006 C 
BRANCH   3   4
ATOM      4  C   UNL     1       0.051   3.085 -20.068  1.00  0.00     0.053 C 
BRANCH   4   5
ATOM      5  C   UNL     1       1.312   2.281 -20.010  1.00  0.00     0.041 C 
ATOM      6  O   UNL     1       1.274   1.065 -19.685  1.00  0.00    -0.550 OA
ATOM      7  O   UNL     1       2.524   2.861 -20.362  1.00  0.00    -0.550 OA
ENDBRANCH   4   5
ENDBRANCH   3   4
ENDBRANCH   2   3
ENDBRANCH   1   2
BRANCH   1   8
ATOM      8  C   UNL     1      -2.043   6.126 -18.867  1.00  0.00     0.000 C 
BRANCH   8   9
ATOM      9  C   UNL     1      -2.524   6.844 -20.138  1.00  0.00     0.000 C 
BRANCH   9  10
ATOM     10  C   UNL     1      -3.840   6.263 -20.688  1.00  0.00     0.006 C 
BRANCH  10  11
ATOM     11  C   UNL     1      -3.659   5.026 -21.584  1.00  0.00     0.053 C 
BRANCH  11  12
ATOM     12  C   UNL     1      -4.908   4.203 -21.666  1.00  0.00     0.041 C 
ATOM     13  O   UNL     1      -6.004   4.675 -21.266  1.00  0.00    -0.550 OA
ATOM     14  O   UNL     1      -4.853   2.904 -22.152  1.00  0.00    -0.550 OA
ENDBRANCH  11  12
ENDBRANCH  10  11
ENDBRANCH   9  10
ENDBRANCH   8   9
ENDBRANCH   1   8
TORSDOF 9
ENDMDL
