MODEL 1
REMARK VINA RESULT:    -4.840      0.000      0.000
REMARK INTER + INTRA:          -4.840
REMARK INTER:                  -4.840
REMARK INTRA:                   0.000
REMARK UNBOUND:                 0.000
REMARK SMILES CC1=CC(=O)[C@@H]2C[C@H]1C2(C)C
REMARK SMILES IDX 1 1 2 2 3 3 4 4 5 5 6 6 7 7 8 8 9 9 10 10 11 11
REMARK H PARENT
REMARK Flexibility Score: inf
ROOT
ATOM      1  C   UNL     1     -28.651  -0.890  -5.327  1.00  0.00     0.040 C 
ATOM      2  C   UNL     1     -27.506  -0.891  -4.365  1.00  0.00    -0.066 C 
ATOM      3  C   UNL     1     -26.617  -1.923  -4.321  1.00  0.00     0.047 C 
ATOM      4  C   UNL     1     -25.496  -1.792  -3.336  1.00  0.00     0.159 C 
ATOM      5  O   UNL     1     -24.590  -2.658  -3.229  1.00  0.00    -0.295 OA
ATOM      6  C   UNL     1     -25.529  -0.530  -2.472  1.00  0.00     0.067 C 
ATOM      7  C   UNL     1     -27.000  -0.427  -2.010  1.00  0.00     0.021 C 
ATOM      8  C   UNL     1     -27.285   0.263  -3.364  1.00  0.00     0.022 C 
ATOM      9  C   UNL     1     -25.791   0.694  -3.393  1.00  0.00    -0.019 C 
ATOM     10  C   UNL     1     -25.550   2.042  -2.666  1.00  0.00     0.012 C 
ATOM     11  C   UNL     1     -25.068   0.751  -4.770  1.00  0.00     0.012 C 
ENDROOT
TORSDOF 0
ENDMDL
MODEL 2
REMARK VINA RESULT:    -4.706      1.347      3.563
REMARK INTER + INTRA:          -4.706
REMARK INTER:                  -4.706
REMARK INTRA:                   0.000
REMARK UNBOUND:                 0.000
REMARK SMILES CC1=CC(=O)[C@@H]2C[C@H]1C2(C)C
REMARK SMILES IDX 1 1 2 2 3 3 4 4 5 5 6 6 7 7 8 8 9 9 10 10 11 11
REMARK H PARENT
REMARK Flexibility Score: inf
ROOT
ATOM      1  C   UNL     1     -24.561   3.191  -1.596  1.00  0.00     0.040 C 
ATOM      2  C   UNL     1     -24.666   1.849  -2.246  1.00  0.00    -0.066 C 
ATOM      3  C   UNL     1     -23.757   0.865  -1.994  1.00  0.00     0.047 C 
ATOM      4  C   UNL     1     -23.989  -0.445  -2.683  1.00  0.00     0.159 C 
ATOM      5  O   UNL     1     -23.243  -1.442  -2.500  1.00  0.00    -0.295 OA
ATOM      6  C   UNL     1     -25.196  -0.487  -3.621  1.00  0.00     0.067 C 
ATOM      7  C   UNL     1     -25.088   0.822  -4.434  1.00  0.00     0.021 C 
ATOM      8  C   UNL     1     -25.794   1.516  -3.247  1.00  0.00     0.022 C 
ATOM      9  C   UNL     1     -26.416   0.137  -2.885  1.00  0.00    -0.019 C 
ATOM     10  C   UNL     1     -27.750  -0.123  -3.630  1.00  0.00     0.012 C 
ATOM     11  C   UNL     1     -26.626  -0.204  -1.382  1.00  0.00     0.012 C 
ENDROOT
TORSDOF 0
ENDMDL
MODEL 3
REMARK VINA RESULT:    -4.691      1.993      3.766
REMARK INTER + INTRA:          -4.691
REMARK INTER:                  -4.691
REMARK INTRA:                   0.000
REMARK UNBOUND:                 0.000
REMARK SMILES CC1=CC(=O)[C@@H]2C[C@H]1C2(C)C
REMARK SMILES IDX 1 1 2 2 3 3 4 4 5 5 6 6 7 7 8 8 9 9 10 10 11 11
REMARK H PARENT
REMARK Flexibility Score: inf
ROOT
ATOM      1  C   UNL     1     -25.499   0.625   0.344  1.00  0.00     0.040 C 
ATOM      2  C   UNL     1     -25.638   0.603  -1.145  1.00  0.00    -0.066 C 
ATOM      3  C   UNL     1     -25.075   1.568  -1.924  1.00  0.00     0.047 C 
ATOM      4  C   UNL     1     -25.258   1.417  -3.404  1.00  0.00     0.159 C 
ATOM      5  O   UNL     1     -24.752   2.221  -4.229  1.00  0.00    -0.295 OA
ATOM      6  C   UNL     1     -26.100   0.218  -3.840  1.00  0.00     0.067 C 
ATOM      7  C   UNL     1     -27.321   0.250  -2.894  1.00  0.00     0.021 C 
ATOM      8  C   UNL     1     -26.439  -0.500  -1.870  1.00  0.00     0.022 C 
ATOM      9  C   UNL     1     -25.607  -1.040  -3.069  1.00  0.00    -0.019 C 
ATOM     10  C   UNL     1     -26.190  -2.353  -3.649  1.00  0.00     0.012 C 
ATOM     11  C   UNL     1     -24.075  -1.233  -2.874  1.00  0.00     0.012 C 
ENDROOT
TORSDOF 0
ENDMDL
MODEL 4
REMARK VINA RESULT:    -4.675      2.885      4.118
REMARK INTER + INTRA:          -4.675
REMARK INTER:                  -4.675
REMARK INTRA:                   0.000
REMARK UNBOUND:                 0.000
REMARK SMILES CC1=CC(=O)[C@@H]2C[C@H]1C2(C)C
REMARK SMILES IDX 1 1 2 2 3 3 4 4 5 5 6 6 7 7 8 8 9 9 10 10 11 11
REMARK H PARENT
REMARK Flexibility Score: inf
ROOT
ATOM      1  C   UNL     1     -23.142  -1.909  -2.798  1.00  0.00     0.040 C 
ATOM      2  C   UNL     1     -23.656  -0.537  -2.496  1.00  0.00    -0.066 C 
ATOM      3  C   UNL     1     -24.083   0.295  -3.487  1.00  0.00     0.047 C 
ATOM      4  C   UNL     1     -24.605   1.631  -3.053  1.00  0.00     0.159 C 
ATOM      5  O   UNL     1     -25.064   2.471  -3.870  1.00  0.00    -0.295 OA
ATOM      6  C   UNL     1     -24.541   1.901  -1.549  1.00  0.00     0.067 C 
ATOM      7  C   UNL     1     -23.124   1.438  -1.142  1.00  0.00     0.021 C 
ATOM      8  C   UNL     1     -23.711   0.011  -1.054  1.00  0.00     0.022 C 
ATOM      9  C   UNL     1     -25.102   0.660  -0.799  1.00  0.00    -0.019 C 
ATOM     10  C   UNL     1     -25.355   0.944   0.703  1.00  0.00     0.012 C 
ATOM     11  C   UNL     1     -26.360  -0.047  -1.379  1.00  0.00     0.012 C 
ENDROOT
TORSDOF 0
ENDMDL
MODEL 5
REMARK VINA RESULT:    -4.671      1.977      3.459
REMARK INTER + INTRA:          -4.671
REMARK INTER:                  -4.671
REMARK INTRA:                   0.000
REMARK UNBOUND:                 0.000
REMARK SMILES CC1=CC(=O)[C@@H]2C[C@H]1C2(C)C
REMARK SMILES IDX 1 1 2 2 3 3 4 4 5 5 6 6 7 7 8 8 9 9 10 10 11 11
REMARK H PARENT
REMARK Flexibility Score: inf
ROOT
ATOM      1  C   UNL     1     -23.243  -1.719  -2.829  1.00  0.00     0.040 C 
ATOM      2  C   UNL     1     -24.408  -0.782  -2.859  1.00  0.00    -0.066 C 
ATOM      3  C   UNL     1     -24.266   0.537  -2.545  1.00  0.00     0.047 C 
ATOM      4  C   UNL     1     -25.502   1.379  -2.643  1.00  0.00     0.159 C 
ATOM      5  O   UNL     1     -25.490   2.617  -2.418  1.00  0.00    -0.295 OA
ATOM      6  C   UNL     1     -26.775   0.629  -3.037  1.00  0.00     0.067 C 
ATOM      7  C   UNL     1     -26.754  -0.640  -2.157  1.00  0.00     0.021 C 
ATOM      8  C   UNL     1     -25.828  -1.262  -3.227  1.00  0.00     0.022 C 
ATOM      9  C   UNL     1     -26.455  -0.280  -4.258  1.00  0.00    -0.019 C 
ATOM     10  C   UNL     1     -27.736  -0.854  -4.917  1.00  0.00     0.012 C 
ATOM     11  C   UNL     1     -25.543   0.287  -5.383  1.00  0.00     0.012 C 
ENDROOT
TORSDOF 0
ENDMDL
MODEL 6
REMARK VINA RESULT:    -4.654      3.561      4.700
REMARK INTER + INTRA:          -4.654
REMARK INTER:                  -4.654
REMARK INTRA:                   0.000
REMARK UNBOUND:                 0.000
REMARK SMILES CC1=CC(=O)[C@@H]2C[C@H]1C2(C)C
REMARK SMILES IDX 1 1 2 2 3 3 4 4 5 5 6 6 7 7 8 8 9 9 10 10 11 11
REMARK H PARENT
REMARK Flexibility Score: inf
ROOT
ATOM      1  C   UNL     1     -24.097   0.435  -3.022  1.00  0.00     0.040 C 
ATOM      2  C   UNL     1     -23.983   0.538  -1.535  1.00  0.00    -0.066 C 
ATOM      3  C   UNL     1     -23.243  -0.352  -0.816  1.00  0.00     0.047 C 
ATOM      4  C   UNL     1     -23.182  -0.123   0.664  1.00  0.00     0.159 C 
ATOM      5  O   UNL     1     -22.500  -0.852   1.429  1.00  0.00    -0.295 OA
ATOM      6  C   UNL     1     -24.004   1.060   1.177  1.00  0.00     0.067 C 
ATOM      7  C   UNL     1     -25.364   0.916   0.457  1.00  0.00     0.021 C 
ATOM      8  C   UNL     1     -24.710   1.644  -0.739  1.00  0.00     0.022 C 
ATOM      9  C   UNL     1     -23.719   2.291   0.271  1.00  0.00    -0.019 C 
ATOM     10  C   UNL     1     -24.268   3.609   0.875  1.00  0.00     0.012 C 
ATOM     11  C   UNL     1     -22.256   2.544  -0.194  1.00  0.00     0.012 C 
ENDROOT
TORSDOF 0
ENDMDL
MODEL 7
REMARK VINA RESULT:    -4.643      2.411      3.643
REMARK INTER + INTRA:          -4.643
REMARK INTER:                  -4.643
REMARK INTRA:                   0.000
REMARK UNBOUND:                 0.000
REMARK SMILES CC1=CC(=O)[C@@H]2C[C@H]1C2(C)C
REMARK SMILES IDX 1 1 2 2 3 3 4 4 5 5 6 6 7 7 8 8 9 9 10 10 11 11
REMARK H PARENT
REMARK Flexibility Score: inf
ROOT
ATOM      1  C   UNL     1     -24.687   2.457  -4.248  1.00  0.00     0.040 C 
ATOM      2  C   UNL     1     -24.963   1.694  -2.991  1.00  0.00    -0.066 C 
ATOM      3  C   UNL     1     -26.079   0.923  -2.860  1.00  0.00     0.047 C 
ATOM      4  C   UNL     1     -26.226   0.183  -1.565  1.00  0.00     0.159 C 
ATOM      5  O   UNL     1     -27.191  -0.592  -1.340  1.00  0.00    -0.295 OA
ATOM      6  C   UNL     1     -25.120   0.435  -0.539  1.00  0.00     0.067 C 
ATOM      7  C   UNL     1     -24.933   1.968  -0.554  1.00  0.00     0.021 C 
ATOM      8  C   UNL     1     -24.012   1.757  -1.777  1.00  0.00     0.022 C 
ATOM      9  C   UNL     1     -23.745   0.316  -1.254  1.00  0.00    -0.019 C 
ATOM     10  C   UNL     1     -22.563   0.260  -0.253  1.00  0.00     0.012 C 
ATOM     11  C   UNL     1     -23.551  -0.821  -2.298  1.00  0.00     0.012 C 
ENDROOT
TORSDOF 0
ENDMDL
MODEL 8
REMARK VINA RESULT:    -4.571      1.978      3.724
REMARK INTER + INTRA:          -4.571
REMARK INTER:                  -4.571
REMARK INTRA:                   0.000
REMARK UNBOUND:                 0.000
REMARK SMILES CC1=CC(=O)[C@@H]2C[C@H]1C2(C)C
REMARK SMILES IDX 1 1 2 2 3 3 4 4 5 5 6 6 7 7 8 8 9 9 10 10 11 11
REMARK H PARENT
REMARK Flexibility Score: inf
ROOT
ATOM      1  C   UNL     1     -23.117   0.733  -0.461  1.00  0.00     0.040 C 
ATOM      2  C   UNL     1     -24.219   0.390  -1.412  1.00  0.00    -0.066 C 
ATOM      3  C   UNL     1     -25.498   0.203  -0.980  1.00  0.00     0.047 C 
ATOM      4  C   UNL     1     -26.517  -0.104  -2.034  1.00  0.00     0.159 C 
ATOM      5  O   UNL     1     -27.737  -0.257  -1.766  1.00  0.00    -0.295 OA
ATOM      6  C   UNL     1     -25.971  -0.216  -3.458  1.00  0.00     0.067 C 
ATOM      7  C   UNL     1     -24.704  -1.087  -3.310  1.00  0.00     0.021 C 
ATOM      8  C   UNL     1     -23.961   0.213  -2.924  1.00  0.00     0.022 C 
ATOM      9  C   UNL     1     -25.038   0.998  -3.728  1.00  0.00    -0.019 C 
ATOM     10  C   UNL     1     -24.670   1.138  -5.227  1.00  0.00     0.012 C 
ATOM     11  C   UNL     1     -25.474   2.396  -3.203  1.00  0.00     0.012 C 
ENDROOT
TORSDOF 0
ENDMDL
MODEL 9
REMARK VINA RESULT:    -4.509      2.079      3.732
REMARK INTER + INTRA:          -4.509
REMARK INTER:                  -4.509
REMARK INTRA:                   0.000
REMARK UNBOUND:                 0.000
REMARK SMILES CC1=CC(=O)[C@@H]2C[C@H]1C2(C)C
REMARK SMILES IDX 1 1 2 2 3 3 4 4 5 5 6 6 7 7 8 8 9 9 10 10 11 11
REMARK H PARENT
REMARK Flexibility Score: inf
ROOT
ATOM      1  C   UNL     1     -24.560   2.485  -5.175  1.00  0.00     0.040 C 
ATOM      2  C   UNL     1     -24.716   1.696  -3.914  1.00  0.00    -0.066 C 
ATOM      3  C   UNL     1     -24.868   2.310  -2.707  1.00  0.00     0.047 C 
ATOM      4  C   UNL     1     -25.047   1.410  -1.523  1.00  0.00     0.159 C 
ATOM      5  O   UNL     1     -25.237   1.856  -0.362  1.00  0.00    -0.295 OA
ATOM      6  C   UNL     1     -24.985  -0.088  -1.825  1.00  0.00     0.067 C 
ATOM      7  C   UNL     1     -23.755  -0.236  -2.749  1.00  0.00     0.021 C 
ATOM      8  C   UNL     1     -24.693   0.153  -3.914  1.00  0.00     0.022 C 
ATOM      9  C   UNL     1     -25.880  -0.382  -3.061  1.00  0.00    -0.019 C 
ATOM     10  C   UNL     1     -26.120  -1.899  -3.269  1.00  0.00     0.012 C 
ATOM     11  C   UNL     1     -27.251   0.346  -3.171  1.00  0.00     0.012 C 
ENDROOT
TORSDOF 0
ENDMDL
