MODEL 1
REMARK VINA RESULT:    -6.640      0.000      0.000
REMARK INTER + INTRA:          -8.113
REMARK INTER:                  -7.804
REMARK INTRA:                  -0.309
REMARK UNBOUND:                -0.309
REMARK SMILES O=c1cc(-c2ccc(O)c(O)c2)oc2cc(O)cc(O)c12
REMARK SMILES IDX 4 1 3 2 2 3 1 4 21 5 19 6 18 7 16 8 15 9 14 10 13 11 5 12
REMARK SMILES IDX 6 13 7 14 8 15 12 16 10 17 9 18 11 20 20 22 17 24
REMARK H PARENT 9 19 11 21 20 23 17 25
REMARK Flexibility Score: inf
ROOT
ATOM      1  C   UNL     1      15.762  15.671  11.735  1.00  0.00     0.138 A 
ATOM      2  C   UNL     1      16.573  15.674  10.589  1.00  0.00     0.100 A 
ATOM      3  C   UNL     1      16.031  16.071   9.366  1.00  0.00     0.197 A 
ATOM      4  O   UNL     1      16.768  16.069   8.342  1.00  0.00    -0.289 OA
ATOM      5  C   UNL     1      14.679  16.460   9.297  1.00  0.00     0.107 A 
ATOM      6  C   UNL     1      14.053  16.877   8.099  1.00  0.00     0.134 A 
ATOM      7  C   UNL     1      12.700  17.244   8.113  1.00  0.00     0.093 A 
ATOM      8  C   UNL     1      11.962  17.201   9.298  1.00  0.00     0.123 A 
ATOM      9  C   UNL     1      12.576  16.790  10.487  1.00  0.00     0.094 A 
ATOM     10  C   UNL     1      13.924  16.421  10.493  1.00  0.00     0.146 A 
ATOM     11  O   UNL     1      14.485  16.035  11.634  1.00  0.00    -0.456 OA
ENDROOT
BRANCH   1  12
ATOM     12  C   UNL     1      16.283  15.257  13.063  1.00  0.00     0.021 A 
ATOM     13  C   UNL     1      17.377  14.380  13.187  1.00  0.00     0.016 A 
ATOM     14  C   UNL     1      17.853  14.015  14.449  1.00  0.00     0.051 A 
ATOM     15  C   UNL     1      17.254  14.522  15.606  1.00  0.00     0.157 A 
ATOM     16  C   UNL     1      15.693  15.774  14.230  1.00  0.00     0.062 A 
ATOM     17  C   UNL     1      16.170  15.407  15.497  1.00  0.00     0.158 A 
BRANCH  15  18
ATOM     18  O   UNL     1      17.750  14.138  16.851  1.00  0.00    -0.504 OA
ATOM     19  H   UNL     1      18.702  13.812  16.974  1.00  0.00     0.293 HD
ENDBRANCH  15  18
BRANCH  17  20
ATOM     20  O   UNL     1      15.569  15.919  16.647  1.00  0.00    -0.504 OA
ATOM     21  H   UNL     1      16.038  16.599  17.234  1.00  0.00     0.293 HD
ENDBRANCH  17  20
ENDBRANCH   1  12
BRANCH   6  22
ATOM     22  O   UNL     1      14.763  16.931   6.898  1.00  0.00    -0.507 OA
ATOM     23  H   UNL     1      15.318  17.739   6.643  1.00  0.00     0.293 HD
ENDBRANCH   6  22
BRANCH   8  24
ATOM     24  O   UNL     1      10.619  17.570   9.285  1.00  0.00    -0.508 OA
ATOM     25  H   UNL     1      10.167  17.897   8.439  1.00  0.00     0.293 HD
ENDBRANCH   8  24
TORSDOF 5
ENDMDL
MODEL 2
REMARK VINA RESULT:    -6.583      2.050      6.959
REMARK INTER + INTRA:          -8.046
REMARK INTER:                  -7.757
REMARK INTRA:                  -0.289
REMARK UNBOUND:                -0.309
REMARK SMILES O=c1cc(-c2ccc(O)c(O)c2)oc2cc(O)cc(O)c12
REMARK SMILES IDX 4 1 3 2 2 3 1 4 21 5 19 6 18 7 16 8 15 9 14 10 13 11 5 12
REMARK SMILES IDX 6 13 7 14 8 15 12 16 10 17 9 18 11 20 20 22 17 24
REMARK H PARENT 9 19 11 21 20 23 17 25
REMARK Flexibility Score: inf
ROOT
ATOM      1  C   UNL     1      14.815  15.528  12.628  1.00  0.00     0.138 A 
ATOM      2  C   UNL     1      15.740  14.571  12.180  1.00  0.00     0.100 A 
ATOM      3  C   UNL     1      16.707  14.087  13.062  1.00  0.00     0.197 A 
ATOM      4  O   UNL     1      17.534  13.228  12.651  1.00  0.00    -0.289 OA
ATOM      5  C   UNL     1      16.743  14.566  14.386  1.00  0.00     0.107 A 
ATOM      6  C   UNL     1      17.688  14.126  15.344  1.00  0.00     0.134 A 
ATOM      7  C   UNL     1      17.661  14.657  16.642  1.00  0.00     0.093 A 
ATOM      8  C   UNL     1      16.711  15.617  17.000  1.00  0.00     0.123 A 
ATOM      9  C   UNL     1      15.773  16.055  16.058  1.00  0.00     0.094 A 
ATOM     10  C   UNL     1      15.784  15.537  14.759  1.00  0.00     0.146 A 
ATOM     11  O   UNL     1      14.882  15.968  13.883  1.00  0.00    -0.456 OA
ENDROOT
BRANCH   1  12
ATOM     12  C   UNL     1      13.765  16.081  11.734  1.00  0.00     0.021 A 
ATOM     13  C   UNL     1      14.068  16.561  10.446  1.00  0.00     0.016 A 
ATOM     14  C   UNL     1      13.059  17.067   9.622  1.00  0.00     0.051 A 
ATOM     15  C   UNL     1      11.733  17.095  10.063  1.00  0.00     0.157 A 
ATOM     16  C   UNL     1      12.427  16.099  12.166  1.00  0.00     0.062 A 
ATOM     17  C   UNL     1      11.414  16.608  11.340  1.00  0.00     0.158 A 
BRANCH  15  18
ATOM     18  O   UNL     1      10.749  17.607   9.218  1.00  0.00    -0.504 OA
ATOM     19  H   UNL     1      10.965  17.971   8.298  1.00  0.00     0.293 HD
ENDBRANCH  15  18
BRANCH  17  20
ATOM     20  O   UNL     1      10.093  16.630  11.785  1.00  0.00    -0.504 OA
ATOM     21  H   UNL     1       9.857  16.885  12.737  1.00  0.00     0.293 HD
ENDBRANCH  17  20
ENDBRANCH   1  12
BRANCH   6  22
ATOM     22  O   UNL     1      18.650  13.170  15.016  1.00  0.00    -0.507 OA
ATOM     23  H   UNL     1      19.408  12.938  15.647  1.00  0.00     0.293 HD
ENDBRANCH   6  22
BRANCH   8  24
ATOM     24  O   UNL     1      16.706  16.128  18.296  1.00  0.00    -0.508 OA
ATOM     25  H   UNL     1      16.246  17.003  18.519  1.00  0.00     0.293 HD
ENDBRANCH   8  24
TORSDOF 5
ENDMDL
MODEL 3
REMARK VINA RESULT:    -6.573      1.621      3.240
REMARK INTER + INTRA:          -8.035
REMARK INTER:                  -7.741
REMARK INTRA:                  -0.293
REMARK UNBOUND:                -0.309
REMARK SMILES O=c1cc(-c2ccc(O)c(O)c2)oc2cc(O)cc(O)c12
REMARK SMILES IDX 4 1 3 2 2 3 1 4 21 5 19 6 18 7 16 8 15 9 14 10 13 11 5 12
REMARK SMILES IDX 6 13 7 14 8 15 12 16 10 17 9 18 11 20 20 22 17 24
REMARK H PARENT 9 19 11 21 20 23 17 25
REMARK Flexibility Score: inf
ROOT
ATOM      1  C   UNL     1      15.575  16.080  12.960  1.00  0.00     0.138 A 
ATOM      2  C   UNL     1      14.194  16.243  12.763  1.00  0.00     0.100 A 
ATOM      3  C   UNL     1      13.724  16.663  11.517  1.00  0.00     0.197 A 
ATOM      4  O   UNL     1      12.482  16.807  11.350  1.00  0.00    -0.289 OA
ATOM      5  C   UNL     1      14.639  16.920  10.478  1.00  0.00     0.107 A 
ATOM      6  C   UNL     1      14.246  17.346   9.187  1.00  0.00     0.134 A 
ATOM      7  C   UNL     1      15.221  17.587   8.208  1.00  0.00     0.093 A 
ATOM      8  C   UNL     1      16.577  17.411   8.494  1.00  0.00     0.123 A 
ATOM      9  C   UNL     1      16.972  16.988   9.768  1.00  0.00     0.094 A 
ATOM     10  C   UNL     1      16.015  16.742  10.758  1.00  0.00     0.146 A 
ATOM     11  O   UNL     1      16.415  16.341  11.960  1.00  0.00    -0.456 OA
ENDROOT
BRANCH   1  12
ATOM     12  C   UNL     1      16.133  15.638  14.263  1.00  0.00     0.021 A 
ATOM     13  C   UNL     1      15.667  16.162  15.484  1.00  0.00     0.016 A 
ATOM     14  C   UNL     1      16.203  15.720  16.696  1.00  0.00     0.051 A 
ATOM     15  C   UNL     1      17.205  14.746  16.713  1.00  0.00     0.157 A 
ATOM     16  C   UNL     1      17.132  14.648  14.288  1.00  0.00     0.062 A 
ATOM     17  C   UNL     1      17.672  14.205  15.505  1.00  0.00     0.158 A 
BRANCH  15  18
ATOM     18  O   UNL     1      17.722  14.327  17.939  1.00  0.00    -0.504 OA
ATOM     19  H   UNL     1      18.718  14.273  18.113  1.00  0.00     0.293 HD
ENDBRANCH  15  18
BRANCH  17  20
ATOM     20  O   UNL     1      18.669  13.231  15.515  1.00  0.00    -0.504 OA
ATOM     21  H   UNL     1      19.043  12.844  14.656  1.00  0.00     0.293 HD
ENDBRANCH  17  20
ENDBRANCH   1  12
BRANCH   6  22
ATOM     22  O   UNL     1      12.900  17.532   8.872  1.00  0.00    -0.507 OA
ATOM     23  H   UNL     1      12.164  17.047   9.371  1.00  0.00     0.293 HD
ENDBRANCH   6  22
BRANCH   8  24
ATOM     24  O   UNL     1      17.525  17.656   7.503  1.00  0.00    -0.508 OA
ATOM     25  H   UNL     1      17.257  17.805   6.537  1.00  0.00     0.293 HD
ENDBRANCH   8  24
TORSDOF 5
ENDMDL
MODEL 4
REMARK VINA RESULT:    -6.572      1.548      2.173
REMARK INTER + INTRA:          -8.033
REMARK INTER:                  -7.763
REMARK INTRA:                  -0.271
REMARK UNBOUND:                -0.309
REMARK SMILES O=c1cc(-c2ccc(O)c(O)c2)oc2cc(O)cc(O)c12
REMARK SMILES IDX 4 1 3 2 2 3 1 4 21 5 19 6 18 7 16 8 15 9 14 10 13 11 5 12
REMARK SMILES IDX 6 13 7 14 8 15 12 16 10 17 9 18 11 20 20 22 17 24
REMARK H PARENT 9 19 11 21 20 23 17 25
REMARK Flexibility Score: inf
ROOT
ATOM      1  C   UNL     1      15.573  15.827  13.203  1.00  0.00     0.138 A 
ATOM      2  C   UNL     1      16.304  16.307  12.104  1.00  0.00     0.100 A 
ATOM      3  C   UNL     1      15.625  16.753  10.970  1.00  0.00     0.197 A 
ATOM      4  O   UNL     1      16.290  17.181   9.988  1.00  0.00    -0.289 OA
ATOM      5  C   UNL     1      14.217  16.715  10.942  1.00  0.00     0.107 A 
ATOM      6  C   UNL     1      13.452  17.149   9.834  1.00  0.00     0.134 A 
ATOM      7  C   UNL     1      12.052  17.073   9.882  1.00  0.00     0.093 A 
ATOM      8  C   UNL     1      11.404  16.570  11.014  1.00  0.00     0.123 A 
ATOM      9  C   UNL     1      12.156  16.140  12.113  1.00  0.00     0.094 A 
ATOM     10  C   UNL     1      13.552  16.209  12.084  1.00  0.00     0.146 A 
ATOM     11  O   UNL     1      14.243  15.794  13.141  1.00  0.00    -0.456 OA
ENDROOT
BRANCH   1  12
ATOM     12  C   UNL     1      16.241  15.337  14.435  1.00  0.00     0.021 A 
ATOM     13  C   UNL     1      15.875  15.804  15.712  1.00  0.00     0.016 A 
ATOM     14  C   UNL     1      16.514  15.318  16.855  1.00  0.00     0.051 A 
ATOM     15  C   UNL     1      17.521  14.355  16.748  1.00  0.00     0.157 A 
ATOM     16  C   UNL     1      17.246  14.358  14.335  1.00  0.00     0.062 A 
ATOM     17  C   UNL     1      17.889  13.871  15.483  1.00  0.00     0.158 A 
BRANCH  15  18
ATOM     18  O   UNL     1      18.142  13.891  17.907  1.00  0.00    -0.504 OA
ATOM     19  H   UNL     1      17.684  13.248  18.542  1.00  0.00     0.293 HD
ENDBRANCH  15  18
BRANCH  17  20
ATOM     20  O   UNL     1      18.891  12.908  15.368  1.00  0.00    -0.504 OA
ATOM     21  H   UNL     1      18.974  12.323  14.545  1.00  0.00     0.293 HD
ENDBRANCH  17  20
ENDBRANCH   1  12
BRANCH   6  22
ATOM     22  O   UNL     1      14.069  17.655   8.689  1.00  0.00    -0.507 OA
ATOM     23  H   UNL     1      13.933  17.233   7.779  1.00  0.00     0.293 HD
ENDBRANCH   6  22
BRANCH   8  24
ATOM     24  O   UNL     1      10.013  16.505  11.037  1.00  0.00    -0.508 OA
ATOM     25  H   UNL     1       9.469  17.022  11.717  1.00  0.00     0.293 HD
ENDBRANCH   8  24
TORSDOF 5
ENDMDL
MODEL 5
REMARK VINA RESULT:    -6.391      1.513      6.863
REMARK INTER + INTRA:          -7.821
REMARK INTER:                  -7.508
REMARK INTRA:                  -0.313
REMARK UNBOUND:                -0.309
REMARK SMILES O=c1cc(-c2ccc(O)c(O)c2)oc2cc(O)cc(O)c12
REMARK SMILES IDX 4 1 3 2 2 3 1 4 21 5 19 6 18 7 16 8 15 9 14 10 13 11 5 12
REMARK SMILES IDX 6 13 7 14 8 15 12 16 10 17 9 18 11 20 20 22 17 24
REMARK H PARENT 9 19 11 21 20 23 17 25
REMARK Flexibility Score: inf
ROOT
ATOM      1  C   UNL     1      15.861  15.497  11.855  1.00  0.00     0.138 A 
ATOM      2  C   UNL     1      16.881  14.552  11.656  1.00  0.00     0.100 A 
ATOM      3  C   UNL     1      17.557  14.029  12.760  1.00  0.00     0.197 A 
ATOM      4  O   UNL     1      18.472  13.182  12.572  1.00  0.00    -0.289 OA
ATOM      5  C   UNL     1      17.208  14.458  14.056  1.00  0.00     0.107 A 
ATOM      6  C   UNL     1      17.841  13.978  15.227  1.00  0.00     0.134 A 
ATOM      7  C   UNL     1      17.439  14.459  16.481  1.00  0.00     0.093 A 
ATOM      8  C   UNL     1      16.420  15.410  16.587  1.00  0.00     0.123 A 
ATOM      9  C   UNL     1      15.791  15.888  15.433  1.00  0.00     0.094 A 
ATOM     10  C   UNL     1      16.177  15.419  14.173  1.00  0.00     0.146 A 
ATOM     11  O   UNL     1      15.563  15.888  13.092  1.00  0.00    -0.456 OA
ENDROOT
BRANCH   1  12
ATOM     12  C   UNL     1      15.110  16.088  10.719  1.00  0.00     0.021 A 
ATOM     13  C   UNL     1      15.614  16.062   9.404  1.00  0.00     0.016 A 
ATOM     14  C   UNL     1      14.881  16.617   8.352  1.00  0.00     0.051 A 
ATOM     15  C   UNL     1      13.633  17.200   8.590  1.00  0.00     0.157 A 
ATOM     16  C   UNL     1      13.848  16.664  10.948  1.00  0.00     0.062 A 
ATOM     17  C   UNL     1      13.112  17.224   9.893  1.00  0.00     0.158 A 
BRANCH  15  18
ATOM     18  O   UNL     1      12.926  17.748   7.520  1.00  0.00    -0.504 OA
ATOM     19  H   UNL     1      13.345  17.874   6.606  1.00  0.00     0.293 HD
ENDBRANCH  15  18
BRANCH  17  20
ATOM     20  O   UNL     1      11.866  17.800  10.137  1.00  0.00    -0.504 OA
ATOM     21  H   UNL     1      11.182  17.921   9.398  1.00  0.00     0.293 HD
ENDBRANCH  17  20
ENDBRANCH   1  12
BRANCH   6  22
ATOM     22  O   UNL     1      18.861  13.029  15.154  1.00  0.00    -0.507 OA
ATOM     23  H   UNL     1      19.214  12.693  14.266  1.00  0.00     0.293 HD
ENDBRANCH   6  22
BRANCH   8  24
ATOM     24  O   UNL     1      16.040  15.872  17.845  1.00  0.00    -0.508 OA
ATOM     25  H   UNL     1      15.364  15.373  18.412  1.00  0.00     0.293 HD
ENDBRANCH   8  24
TORSDOF 5
ENDMDL
MODEL 6
REMARK VINA RESULT:    -6.381      1.415      2.202
REMARK INTER + INTRA:          -7.809
REMARK INTER:                  -7.538
REMARK INTRA:                  -0.271
REMARK UNBOUND:                -0.309
REMARK SMILES O=c1cc(-c2ccc(O)c(O)c2)oc2cc(O)cc(O)c12
REMARK SMILES IDX 4 1 3 2 2 3 1 4 21 5 19 6 18 7 16 8 15 9 14 10 13 11 5 12
REMARK SMILES IDX 6 13 7 14 8 15 12 16 10 17 9 18 11 20 20 22 17 24
REMARK H PARENT 9 19 11 21 20 23 17 25
REMARK Flexibility Score: inf
ROOT
ATOM      1  C   UNL     1      16.546  16.238  12.165  1.00  0.00     0.138 A 
ATOM      2  C   UNL     1      17.743  16.562  11.504  1.00  0.00     0.100 A 
ATOM      3  C   UNL     1      17.708  16.912  10.153  1.00  0.00     0.197 A 
ATOM      4  O   UNL     1      18.788  17.200   9.569  1.00  0.00    -0.289 OA
ATOM      5  C   UNL     1      16.475  16.933   9.472  1.00  0.00     0.107 A 
ATOM      6  C   UNL     1      16.351  17.279   8.105  1.00  0.00     0.134 A 
ATOM      7  C   UNL     1      15.087  17.271   7.498  1.00  0.00     0.093 A 
ATOM      8  C   UNL     1      13.948  16.924   8.228  1.00  0.00     0.123 A 
ATOM      9  C   UNL     1      14.064  16.582   9.580  1.00  0.00     0.094 A 
ATOM     10  C   UNL     1      15.315  16.585  10.204  1.00  0.00     0.146 A 
ATOM     11  O   UNL     1      15.399  16.258  11.489  1.00  0.00    -0.456 OA
ENDROOT
BRANCH   1  12
ATOM     12  C   UNL     1      16.523  15.856  13.599  1.00  0.00     0.021 A 
ATOM     13  C   UNL     1      15.654  16.477  14.517  1.00  0.00     0.016 A 
ATOM     14  C   UNL     1      15.645  16.091  15.859  1.00  0.00     0.051 A 
ATOM     15  C   UNL     1      16.494  15.075  16.309  1.00  0.00     0.157 A 
ATOM     16  C   UNL     1      17.364  14.826  14.055  1.00  0.00     0.062 A 
ATOM     17  C   UNL     1      17.358  14.438  15.404  1.00  0.00     0.158 A 
BRANCH  15  18
ATOM     18  O   UNL     1      16.464  14.713  17.655  1.00  0.00    -0.504 OA
ATOM     19  H   UNL     1      17.185  15.000  18.306  1.00  0.00     0.293 HD
ENDBRANCH  15  18
BRANCH  17  20
ATOM     20  O   UNL     1      18.205  13.422  15.844  1.00  0.00    -0.504 OA
ATOM     21  H   UNL     1      18.300  13.199  16.828  1.00  0.00     0.293 HD
ENDBRANCH  17  20
ENDBRANCH   1  12
BRANCH   6  22
ATOM     22  O   UNL     1      17.471  17.629   7.349  1.00  0.00    -0.507 OA
ATOM     23  H   UNL     1      17.452  18.404   6.697  1.00  0.00     0.293 HD
ENDBRANCH   6  22
BRANCH   8  24
ATOM     24  O   UNL     1      12.704  16.923   7.601  1.00  0.00    -0.508 OA
ATOM     25  H   UNL     1      12.117  17.749   7.587  1.00  0.00     0.293 HD
ENDBRANCH   8  24
TORSDOF 5
ENDMDL
MODEL 7
REMARK VINA RESULT:    -6.316      1.464      1.872
REMARK INTER + INTRA:          -7.732
REMARK INTER:                  -7.446
REMARK INTRA:                  -0.286
REMARK UNBOUND:                -0.309
REMARK SMILES O=c1cc(-c2ccc(O)c(O)c2)oc2cc(O)cc(O)c12
REMARK SMILES IDX 4 1 3 2 2 3 1 4 21 5 19 6 18 7 16 8 15 9 14 10 13 11 5 12
REMARK SMILES IDX 6 13 7 14 8 15 12 16 10 17 9 18 11 20 20 22 17 24
REMARK H PARENT 9 19 11 21 20 23 17 25
REMARK Flexibility Score: inf
ROOT
ATOM      1  C   UNL     1      15.670  15.094  11.774  1.00  0.00     0.138 A 
ATOM      2  C   UNL     1      16.059  15.640  10.539  1.00  0.00     0.100 A 
ATOM      3  C   UNL     1      15.118  16.319   9.763  1.00  0.00     0.197 A 
ATOM      4  O   UNL     1      15.476  16.804   8.655  1.00  0.00    -0.289 OA
ATOM      5  C   UNL     1      13.794  16.445  10.226  1.00  0.00     0.107 A 
ATOM      6  C   UNL     1      12.781  17.118   9.504  1.00  0.00     0.134 A 
ATOM      7  C   UNL     1      11.484  17.196  10.032  1.00  0.00     0.093 A 
ATOM      8  C   UNL     1      11.181  16.613  11.266  1.00  0.00     0.123 A 
ATOM      9  C   UNL     1      12.179  15.947  11.986  1.00  0.00     0.094 A 
ATOM     10  C   UNL     1      13.478  15.860  11.476  1.00  0.00     0.146 A 
ATOM     11  O   UNL     1      14.409  15.223  12.179  1.00  0.00    -0.456 OA
ENDROOT
BRANCH   1  12
ATOM     12  C   UNL     1      16.627  14.360  12.641  1.00  0.00     0.021 A 
ATOM     13  C   UNL     1      17.421  13.309  12.143  1.00  0.00     0.016 A 
ATOM     14  C   UNL     1      18.320  12.643  12.979  1.00  0.00     0.051 A 
ATOM     15  C   UNL     1      18.449  13.015  14.320  1.00  0.00     0.157 A 
ATOM     16  C   UNL     1      16.772  14.739  13.987  1.00  0.00     0.062 A 
ATOM     17  C   UNL     1      17.673  14.069  14.828  1.00  0.00     0.158 A 
BRANCH  15  18
ATOM     18  O   UNL     1      19.354  12.330  15.130  1.00  0.00    -0.504 OA
ATOM     19  H   UNL     1      19.618  12.668  16.047  1.00  0.00     0.293 HD
ENDBRANCH  15  18
BRANCH  17  20
ATOM     20  O   UNL     1      17.799  14.448  16.164  1.00  0.00    -0.504 OA
ATOM     21  H   UNL     1      17.863  15.422  16.436  1.00  0.00     0.293 HD
ENDBRANCH  17  20
ENDBRANCH   1  12
BRANCH   6  22
ATOM     22  O   UNL     1      13.052  17.709   8.269  1.00  0.00    -0.507 OA
ATOM     23  H   UNL     1      13.037  18.714   8.144  1.00  0.00     0.293 HD
ENDBRANCH   6  22
BRANCH   8  24
ATOM     24  O   UNL     1       9.885  16.704  11.769  1.00  0.00    -0.508 OA
ATOM     25  H   UNL     1       9.670  16.457  12.727  1.00  0.00     0.293 HD
ENDBRANCH   8  24
TORSDOF 5
ENDMDL
MODEL 8
REMARK VINA RESULT:    -6.250      1.010      2.655
REMARK INTER + INTRA:          -7.656
REMARK INTER:                  -7.367
REMARK INTRA:                  -0.289
REMARK UNBOUND:                -0.309
REMARK SMILES O=c1cc(-c2ccc(O)c(O)c2)oc2cc(O)cc(O)c12
REMARK SMILES IDX 4 1 3 2 2 3 1 4 21 5 19 6 18 7 16 8 15 9 14 10 13 11 5 12
REMARK SMILES IDX 6 13 7 14 8 15 12 16 10 17 9 18 11 20 20 22 17 24
REMARK H PARENT 9 19 11 21 20 23 17 25
REMARK Flexibility Score: inf
ROOT
ATOM      1  C   UNL     1      14.796  15.897  12.305  1.00  0.00     0.138 A 
ATOM      2  C   UNL     1      13.473  16.302  12.544  1.00  0.00     0.100 A 
ATOM      3  C   UNL     1      12.698  16.776  11.485  1.00  0.00     0.197 A 
ATOM      4  O   UNL     1      11.511  17.139  11.710  1.00  0.00    -0.289 OA
ATOM      5  C   UNL     1      13.253  16.844  10.192  1.00  0.00     0.107 A 
ATOM      6  C   UNL     1      12.537  17.310   9.064  1.00  0.00     0.134 A 
ATOM      7  C   UNL     1      13.164  17.352   7.811  1.00  0.00     0.093 A 
ATOM      8  C   UNL     1      14.491  16.939   7.663  1.00  0.00     0.123 A 
ATOM      9  C   UNL     1      15.205  16.477   8.775  1.00  0.00     0.094 A 
ATOM     10  C   UNL     1      14.596  16.427  10.033  1.00  0.00     0.146 A 
ATOM     11  O   UNL     1      15.294  15.983  11.073  1.00  0.00    -0.456 OA
ENDROOT
BRANCH   1  12
ATOM     12  C   UNL     1      15.668  15.386  13.393  1.00  0.00     0.021 A 
ATOM     13  C   UNL     1      16.767  14.547  13.128  1.00  0.00     0.016 A 
ATOM     14  C   UNL     1      17.577  14.089  14.171  1.00  0.00     0.051 A 
ATOM     15  C   UNL     1      17.311  14.465  15.491  1.00  0.00     0.157 A 
ATOM     16  C   UNL     1      15.414  15.772  14.721  1.00  0.00     0.062 A 
ATOM     17  C   UNL     1      16.226  15.311  15.769  1.00  0.00     0.158 A 
BRANCH  15  18
ATOM     18  O   UNL     1      18.137  13.991  16.510  1.00  0.00    -0.504 OA
ATOM     19  H   UNL     1      19.147  14.039  16.451  1.00  0.00     0.293 HD
ENDBRANCH  15  18
BRANCH  17  20
ATOM     20  O   UNL     1      15.958  15.693  17.083  1.00  0.00    -0.504 OA
ATOM     21  H   UNL     1      16.689  16.029  17.699  1.00  0.00     0.293 HD
ENDBRANCH  17  20
ENDBRANCH   1  12
BRANCH   6  22
ATOM     22  O   UNL     1      11.211  17.729   9.179  1.00  0.00    -0.507 OA
ATOM     23  H   UNL     1      10.668  17.556  10.016  1.00  0.00     0.293 HD
ENDBRANCH   6  22
BRANCH   8  24
ATOM     24  O   UNL     1      15.091  16.991   6.408  1.00  0.00    -0.508 OA
ATOM     25  H   UNL     1      15.898  16.421   6.181  1.00  0.00     0.293 HD
ENDBRANCH   8  24
TORSDOF 5
ENDMDL
MODEL 9
REMARK VINA RESULT:    -6.028      2.143      6.924
REMARK INTER + INTRA:          -7.394
REMARK INTER:                  -7.123
REMARK INTRA:                  -0.271
REMARK UNBOUND:                -0.309
REMARK SMILES O=c1cc(-c2ccc(O)c(O)c2)oc2cc(O)cc(O)c12
REMARK SMILES IDX 4 1 3 2 2 3 1 4 21 5 19 6 18 7 16 8 15 9 14 10 13 11 5 12
REMARK SMILES IDX 6 13 7 14 8 15 12 16 10 17 9 18 11 20 20 22 17 24
REMARK H PARENT 9 19 11 21 20 23 17 25
REMARK Flexibility Score: inf
ROOT
ATOM      1  C   UNL     1      14.913  15.208  12.137  1.00  0.00     0.138 A 
ATOM      2  C   UNL     1      15.274  15.589  13.440  1.00  0.00     0.100 A 
ATOM      3  C   UNL     1      16.322  14.928  14.082  1.00  0.00     0.197 A 
ATOM      4  O   UNL     1      16.639  15.277  15.252  1.00  0.00    -0.289 OA
ATOM      5  C   UNL     1      17.000  13.887  13.417  1.00  0.00     0.107 A 
ATOM      6  C   UNL     1      18.073  13.168  13.995  1.00  0.00     0.134 A 
ATOM      7  C   UNL     1      18.692  12.141  13.269  1.00  0.00     0.093 A 
ATOM      8  C   UNL     1      18.260  11.819  11.979  1.00  0.00     0.123 A 
ATOM      9  C   UNL     1      17.200  12.527  11.402  1.00  0.00     0.094 A 
ATOM     10  C   UNL     1      16.571  13.555  12.110  1.00  0.00     0.146 A 
ATOM     11  O   UNL     1      15.567  14.214  11.540  1.00  0.00    -0.456 OA
ENDROOT
BRANCH   1  12
ATOM     12  C   UNL     1      13.806  15.874  11.405  1.00  0.00     0.021 A 
ATOM     13  C   UNL     1      13.976  16.373  10.099  1.00  0.00     0.016 A 
ATOM     14  C   UNL     1      12.913  16.985   9.430  1.00  0.00     0.051 A 
ATOM     15  C   UNL     1      11.664  17.105  10.045  1.00  0.00     0.157 A 
ATOM     16  C   UNL     1      12.542  15.985  12.013  1.00  0.00     0.062 A 
ATOM     17  C   UNL     1      11.476  16.602  11.342  1.00  0.00     0.158 A 
BRANCH  15  18
ATOM     18  O   UNL     1      10.624  17.723   9.353  1.00  0.00    -0.504 OA
ATOM     19  H   UNL     1      10.179  18.569   9.691  1.00  0.00     0.293 HD
ENDBRANCH  15  18
BRANCH  17  20
ATOM     20  O   UNL     1      10.231  16.715  11.961  1.00  0.00    -0.504 OA
ATOM     21  H   UNL     1      10.013  17.488  12.579  1.00  0.00     0.293 HD
ENDBRANCH  17  20
ENDBRANCH   1  12
BRANCH   6  22
ATOM     22  O   UNL     1      18.526  13.466  15.281  1.00  0.00    -0.507 OA
ATOM     23  H   UNL     1      18.376  12.834  16.059  1.00  0.00     0.293 HD
ENDBRANCH   6  22
BRANCH   8  24
ATOM     24  O   UNL     1      18.893  10.794  11.279  1.00  0.00    -0.508 OA
ATOM     25  H   UNL     1      19.286   9.990  11.756  1.00  0.00     0.293 HD
ENDBRANCH   8  24
TORSDOF 5
ENDMDL
