MODEL 1
REMARK VINA RESULT:    -3.638      0.000      0.000
REMARK INTER + INTRA:          -3.638
REMARK INTER:                  -3.638
REMARK INTRA:                   0.000
REMARK UNBOUND:                 0.000
REMARK SMILES c1ccc2ccccc2c1
REMARK SMILES IDX 2 1 1 2 10 3 9 4 8 5 7 6 6 7 5 8 4 9 3 10
REMARK H PARENT
REMARK Flexibility Score: inf
ROOT
ATOM      1  C   UNL     1      75.612  87.298  74.635  1.00  0.00     0.001 A 
ATOM      2  C   UNL     1      74.864  87.139  73.466  1.00  0.00     0.001 A 
ATOM      3  C   UNL     1      74.237  88.241  72.876  1.00  0.00     0.009 A 
ATOM      4  C   UNL     1      74.356  89.513  73.456  1.00  0.00    -0.018 A 
ATOM      5  C   UNL     1      73.732  90.628  72.875  1.00  0.00     0.009 A 
ATOM      6  C   UNL     1      73.860  91.889  73.463  1.00  0.00     0.001 A 
ATOM      7  C   UNL     1      74.608  92.048  74.632  1.00  0.00     0.001 A 
ATOM      8  C   UNL     1      75.235  90.946  75.222  1.00  0.00     0.009 A 
ATOM      9  C   UNL     1      75.116  89.674  74.642  1.00  0.00    -0.018 A 
ATOM     10  C   UNL     1      75.740  88.559  75.223  1.00  0.00     0.009 A 
ENDROOT
TORSDOF 0
ENDMDL
MODEL 2
REMARK VINA RESULT:    -3.634      0.129      2.083
REMARK INTER + INTRA:          -3.634
REMARK INTER:                  -3.634
REMARK INTRA:                   0.000
REMARK UNBOUND:                 0.000
REMARK SMILES c1ccc2ccccc2c1
REMARK SMILES IDX 2 1 1 2 10 3 9 4 8 5 7 6 6 7 5 8 4 9 3 10
REMARK H PARENT
REMARK Flexibility Score: inf
ROOT
ATOM      1  C   UNL     1      74.924  87.140  73.649  1.00  0.00     0.001 A 
ATOM      2  C   UNL     1      75.658  87.374  74.815  1.00  0.00     0.001 A 
ATOM      3  C   UNL     1      75.750  88.666  75.341  1.00  0.00     0.009 A 
ATOM      4  C   UNL     1      75.105  89.735  74.700  1.00  0.00    -0.018 A 
ATOM      5  C   UNL     1      75.189  91.037  75.218  1.00  0.00     0.009 A 
ATOM      6  C   UNL     1      74.540  92.092  74.570  1.00  0.00     0.001 A 
ATOM      7  C   UNL     1      73.806  91.858  73.404  1.00  0.00     0.001 A 
ATOM      8  C   UNL     1      73.714  90.566  72.878  1.00  0.00     0.009 A 
ATOM      9  C   UNL     1      74.359  89.497  73.519  1.00  0.00    -0.018 A 
ATOM     10  C   UNL     1      74.276  88.195  73.002  1.00  0.00     0.009 A 
ENDROOT
TORSDOF 0
ENDMDL
MODEL 3
REMARK VINA RESULT:    -3.632      0.111      3.435
REMARK INTER + INTRA:          -3.632
REMARK INTER:                  -3.632
REMARK INTRA:                   0.000
REMARK UNBOUND:                 0.000
REMARK SMILES c1ccc2ccccc2c1
REMARK SMILES IDX 2 1 1 2 10 3 9 4 8 5 7 6 6 7 5 8 4 9 3 10
REMARK H PARENT
REMARK Flexibility Score: inf
ROOT
ATOM      1  C   UNL     1      74.713  92.059  74.656  1.00  0.00     0.001 A 
ATOM      2  C   UNL     1      73.979  91.948  73.472  1.00  0.00     0.001 A 
ATOM      3  C   UNL     1      73.791  90.698  72.876  1.00  0.00     0.009 A 
ATOM      4  C   UNL     1      74.339  89.547  73.464  1.00  0.00    -0.018 A 
ATOM      5  C   UNL     1      74.158  88.285  72.876  1.00  0.00     0.009 A 
ATOM      6  C   UNL     1      74.708  87.148  73.472  1.00  0.00     0.001 A 
ATOM      7  C   UNL     1      75.442  87.259  74.656  1.00  0.00     0.001 A 
ATOM      8  C   UNL     1      75.630  88.509  75.253  1.00  0.00     0.009 A 
ATOM      9  C   UNL     1      75.082  89.660  74.665  1.00  0.00    -0.018 A 
ATOM     10  C   UNL     1      75.263  90.921  75.253  1.00  0.00     0.009 A 
ENDROOT
TORSDOF 0
ENDMDL
MODEL 4
REMARK VINA RESULT:    -3.486      0.238      4.022
REMARK INTER + INTRA:          -3.486
REMARK INTER:                  -3.486
REMARK INTRA:                   0.000
REMARK UNBOUND:                 0.000
REMARK SMILES c1ccc2ccccc2c1
REMARK SMILES IDX 2 1 1 2 10 3 9 4 8 5 7 6 6 7 5 8 4 9 3 10
REMARK H PARENT
REMARK Flexibility Score: inf
ROOT
ATOM      1  C   UNL     1      74.130  91.788  73.505  1.00  0.00     0.001 A 
ATOM      2  C   UNL     1      74.795  91.918  74.726  1.00  0.00     0.001 A 
ATOM      3  C   UNL     1      75.340  90.794  75.354  1.00  0.00     0.009 A 
ATOM      4  C   UNL     1      75.220  89.529  74.760  1.00  0.00    -0.018 A 
ATOM      5  C   UNL     1      75.762  88.391  75.379  1.00  0.00     0.009 A 
ATOM      6  C   UNL     1      75.636  87.137  74.776  1.00  0.00     0.001 A 
ATOM      7  C   UNL     1      74.971  87.007  73.554  1.00  0.00     0.001 A 
ATOM      8  C   UNL     1      74.426  88.131  72.927  1.00  0.00     0.009 A 
ATOM      9  C   UNL     1      74.546  89.397  73.521  1.00  0.00    -0.018 A 
ATOM     10  C   UNL     1      74.004  90.534  72.901  1.00  0.00     0.009 A 
ENDROOT
TORSDOF 0
ENDMDL
MODEL 5
REMARK VINA RESULT:    -3.302      1.254      3.067
REMARK INTER + INTRA:          -3.302
REMARK INTER:                  -3.302
REMARK INTRA:                   0.000
REMARK UNBOUND:                 0.000
REMARK SMILES c1ccc2ccccc2c1
REMARK SMILES IDX 2 1 1 2 10 3 9 4 8 5 7 6 6 7 5 8 4 9 3 10
REMARK H PARENT
REMARK Flexibility Score: inf
ROOT
ATOM      1  C   UNL     1      76.216  91.303  77.155  1.00  0.00     0.001 A 
ATOM      2  C   UNL     1      76.515  89.945  77.015  1.00  0.00     0.001 A 
ATOM      3  C   UNL     1      76.036  89.229  75.914  1.00  0.00     0.009 A 
ATOM      4  C   UNL     1      75.251  89.871  74.944  1.00  0.00    -0.018 A 
ATOM      5  C   UNL     1      74.763  89.164  73.834  1.00  0.00     0.009 A 
ATOM      6  C   UNL     1      73.983  89.817  72.875  1.00  0.00     0.001 A 
ATOM      7  C   UNL     1      73.684  91.174  73.015  1.00  0.00     0.001 A 
ATOM      8  C   UNL     1      74.163  91.890  74.116  1.00  0.00     0.009 A 
ATOM      9  C   UNL     1      74.948  91.248  75.086  1.00  0.00    -0.018 A 
ATOM     10  C   UNL     1      75.436  91.955  76.196  1.00  0.00     0.009 A 
ENDROOT
TORSDOF 0
ENDMDL
MODEL 6
REMARK VINA RESULT:    -3.295      0.924      2.585
REMARK INTER + INTRA:          -3.295
REMARK INTER:                  -3.295
REMARK INTRA:                   0.000
REMARK UNBOUND:                 0.000
REMARK SMILES c1ccc2ccccc2c1
REMARK SMILES IDX 2 1 1 2 10 3 9 4 8 5 7 6 6 7 5 8 4 9 3 10
REMARK H PARENT
REMARK Flexibility Score: inf
ROOT
ATOM      1  C   UNL     1      76.414  88.410  75.786  1.00  0.00     0.001 A 
ATOM      2  C   UNL     1      76.647  89.551  76.557  1.00  0.00     0.001 A 
ATOM      3  C   UNL     1      76.034  90.763  76.225  1.00  0.00     0.009 A 
ATOM      4  C   UNL     1      75.181  90.839  75.113  1.00  0.00    -0.018 A 
ATOM      5  C   UNL     1      74.559  92.049  74.768  1.00  0.00     0.009 A 
ATOM      6  C   UNL     1      73.711  92.109  73.659  1.00  0.00     0.001 A 
ATOM      7  C   UNL     1      73.477  90.968  72.888  1.00  0.00     0.001 A 
ATOM      8  C   UNL     1      74.090  89.757  73.220  1.00  0.00     0.009 A 
ATOM      9  C   UNL     1      74.944  89.681  74.332  1.00  0.00    -0.018 A 
ATOM     10  C   UNL     1      75.566  88.471  74.677  1.00  0.00     0.009 A 
ENDROOT
TORSDOF 0
ENDMDL
MODEL 7
REMARK VINA RESULT:    -3.229      1.124      3.528
REMARK INTER + INTRA:          -3.229
REMARK INTER:                  -3.229
REMARK INTRA:                   0.000
REMARK UNBOUND:                 0.000
REMARK SMILES c1ccc2ccccc2c1
REMARK SMILES IDX 2 1 1 2 10 3 9 4 8 5 7 6 6 7 5 8 4 9 3 10
REMARK H PARENT
REMARK Flexibility Score: inf
ROOT
ATOM      1  C   UNL     1      73.872  90.303  72.875  1.00  0.00     0.001 A 
ATOM      2  C   UNL     1      73.759  91.645  73.244  1.00  0.00     0.001 A 
ATOM      3  C   UNL     1      74.352  92.103  74.425  1.00  0.00     0.009 A 
ATOM      4  C   UNL     1      75.064  91.214  75.246  1.00  0.00    -0.018 A 
ATOM      5  C   UNL     1      75.664  91.660  76.434  1.00  0.00     0.009 A 
ATOM      6  C   UNL     1      76.371  90.765  77.241  1.00  0.00     0.001 A 
ATOM      7  C   UNL     1      76.484  89.422  76.871  1.00  0.00     0.001 A 
ATOM      8  C   UNL     1      75.891  88.965  75.691  1.00  0.00     0.009 A 
ATOM      9  C   UNL     1      75.179  89.853  74.870  1.00  0.00    -0.018 A 
ATOM     10  C   UNL     1      74.579  89.407  73.682  1.00  0.00     0.009 A 
ENDROOT
TORSDOF 0
ENDMDL
MODEL 8
REMARK VINA RESULT:    -3.044     22.679     24.001
REMARK INTER + INTRA:          -3.044
REMARK INTER:                  -3.044
REMARK INTRA:                   0.000
REMARK UNBOUND:                 0.000
REMARK SMILES c1ccc2ccccc2c1
REMARK SMILES IDX 2 1 1 2 10 3 9 4 8 5 7 6 6 7 5 8 4 9 3 10
REMARK H PARENT
REMARK Flexibility Score: inf
ROOT
ATOM      1  C   UNL     1      90.970  84.753  90.481  1.00  0.00     0.001 A 
ATOM      2  C   UNL     1      91.345  84.569  91.814  1.00  0.00     0.001 A 
ATOM      3  C   UNL     1      91.358  85.653  92.697  1.00  0.00     0.009 A 
ATOM      4  C   UNL     1      90.992  86.931  92.249  1.00  0.00    -0.018 A 
ATOM      5  C   UNL     1      91.000  88.028  93.125  1.00  0.00     0.009 A 
ATOM      6  C   UNL     1      90.633  89.296  92.665  1.00  0.00     0.001 A 
ATOM      7  C   UNL     1      90.257  89.479  91.332  1.00  0.00     0.001 A 
ATOM      8  C   UNL     1      90.245  88.396  90.449  1.00  0.00     0.009 A 
ATOM      9  C   UNL     1      90.610  87.117  90.897  1.00  0.00    -0.018 A 
ATOM     10  C   UNL     1      90.603  86.020  90.021  1.00  0.00     0.009 A 
ENDROOT
TORSDOF 0
ENDMDL
