MODEL 1
REMARK VINA RESULT:    -6.291      0.000      0.000
REMARK INTER + INTRA:          -7.658
REMARK INTER:                  -7.394
REMARK INTRA:                  -0.263
REMARK UNBOUND:                -0.263
REMARK SMILES O=c1cc(-c2ccc(O)c(O)c2)oc2cc(O)cc(O)c12
REMARK SMILES IDX 4 1 3 2 2 3 1 4 21 5 19 6 18 7 16 8 15 9 14 10 13 11 5 12
REMARK SMILES IDX 6 13 7 14 8 15 12 16 10 17 9 18 11 20 20 22 17 24
REMARK H PARENT 9 19 11 21 20 23 17 25
REMARK Flexibility Score: inf
ROOT
ATOM      1  C   UNL     1      -9.377   8.578   6.232  1.00  0.00     0.138 A 
ATOM      2  C   UNL     1     -10.641   9.169   6.100  1.00  0.00     0.100 A 
ATOM      3  C   UNL     1     -11.784   8.368   6.119  1.00  0.00     0.197 A 
ATOM      4  O   UNL     1     -12.905   8.933   6.053  1.00  0.00    -0.289 OA
ATOM      5  C   UNL     1     -11.656   6.962   6.236  1.00  0.00     0.107 A 
ATOM      6  C   UNL     1     -12.748   6.042   6.233  1.00  0.00     0.134 A 
ATOM      7  C   UNL     1     -12.503   4.681   6.454  1.00  0.00     0.093 A 
ATOM      8  C   UNL     1     -11.206   4.198   6.620  1.00  0.00     0.123 A 
ATOM      9  C   UNL     1     -10.127   5.082   6.575  1.00  0.00     0.094 A 
ATOM     10  C   UNL     1     -10.339   6.450   6.391  1.00  0.00     0.146 A 
ATOM     11  O   UNL     1      -9.286   7.259   6.372  1.00  0.00    -0.456 OA
ENDROOT
BRANCH   1  12
ATOM     12  C   UNL     1      -8.130   9.382   6.215  1.00  0.00     0.021 A 
ATOM     13  C   UNL     1      -7.430   9.543   5.008  1.00  0.00     0.016 A 
ATOM     14  C   UNL     1      -6.250  10.289   4.966  1.00  0.00     0.051 A 
ATOM     15  C   UNL     1      -5.738  10.881   6.125  1.00  0.00     0.157 A 
ATOM     16  C   UNL     1      -7.606   9.966   7.384  1.00  0.00     0.062 A 
ATOM     17  C   UNL     1      -6.422  10.713   7.351  1.00  0.00     0.158 A 
BRANCH  15  18
ATOM     18  O   UNL     1      -4.557  11.619   6.013  1.00  0.00    -0.504 OA
ATOM     19  H   UNL     1      -4.278  12.114   5.178  1.00  0.00     0.293 HD
ENDBRANCH  15  18
BRANCH  17  20
ATOM     20  O   UNL     1      -5.963  11.259   8.551  1.00  0.00    -0.504 OA
ATOM     21  H   UNL     1      -6.522  11.843   9.156  1.00  0.00     0.293 HD
ENDBRANCH  17  20
ENDBRANCH   1  12
BRANCH   6  22
ATOM     22  O   UNL     1     -14.078   6.404   5.996  1.00  0.00    -0.507 OA
ATOM     23  H   UNL     1     -14.477   6.584   5.089  1.00  0.00     0.293 HD
ENDBRANCH   6  22
BRANCH   8  24
ATOM     24  O   UNL     1     -11.000   2.835   6.822  1.00  0.00    -0.508 OA
ATOM     25  H   UNL     1     -11.645   2.143   6.459  1.00  0.00     0.293 HD
ENDBRANCH   8  24
TORSDOF 5
ENDMDL
MODEL 2
REMARK VINA RESULT:    -6.041      1.774      6.832
REMARK INTER + INTRA:          -7.364
REMARK INTER:                  -7.100
REMARK INTRA:                  -0.265
REMARK UNBOUND:                -0.263
REMARK SMILES O=c1cc(-c2ccc(O)c(O)c2)oc2cc(O)cc(O)c12
REMARK SMILES IDX 4 1 3 2 2 3 1 4 21 5 19 6 18 7 16 8 15 9 14 10 13 11 5 12
REMARK SMILES IDX 6 13 7 14 8 15 12 16 10 17 9 18 11 20 20 22 17 24
REMARK H PARENT 9 19 11 21 20 23 17 25
REMARK Flexibility Score: inf
ROOT
ATOM      1  C   UNL     1     -10.178   7.499   6.676  1.00  0.00     0.138 A 
ATOM      2  C   UNL     1     -10.957   8.494   6.070  1.00  0.00     0.100 A 
ATOM      3  C   UNL     1     -10.343   9.645   5.574  1.00  0.00     0.197 A 
ATOM      4  O   UNL     1     -11.062  10.494   4.987  1.00  0.00    -0.289 OA
ATOM      5  C   UNL     1      -8.945   9.815   5.719  1.00  0.00     0.107 A 
ATOM      6  C   UNL     1      -8.214  10.962   5.282  1.00  0.00     0.134 A 
ATOM      7  C   UNL     1      -6.818  10.973   5.393  1.00  0.00     0.093 A 
ATOM      8  C   UNL     1      -6.131   9.908   5.972  1.00  0.00     0.123 A 
ATOM      9  C   UNL     1      -6.839   8.803   6.448  1.00  0.00     0.094 A 
ATOM     10  C   UNL     1      -8.229   8.746   6.322  1.00  0.00     0.146 A 
ATOM     11  O   UNL     1      -8.864   7.668   6.771  1.00  0.00    -0.456 OA
ENDROOT
BRANCH   1  12
ATOM     12  C   UNL     1     -10.779   6.257   7.223  1.00  0.00     0.021 A 
ATOM     13  C   UNL     1     -11.263   6.248   8.541  1.00  0.00     0.016 A 
ATOM     14  C   UNL     1     -11.826   5.091   9.083  1.00  0.00     0.051 A 
ATOM     15  C   UNL     1     -11.912   3.917   8.327  1.00  0.00     0.157 A 
ATOM     16  C   UNL     1     -10.853   5.072   6.467  1.00  0.00     0.062 A 
ATOM     17  C   UNL     1     -11.414   3.906   7.004  1.00  0.00     0.158 A 
BRANCH  15  18
ATOM     18  O   UNL     1     -12.493   2.797   8.926  1.00  0.00    -0.504 OA
ATOM     19  H   UNL     1     -12.396   2.566   9.904  1.00  0.00     0.293 HD
ENDBRANCH  15  18
BRANCH  17  20
ATOM     20  O   UNL     1     -11.450   2.768   6.195  1.00  0.00    -0.504 OA
ATOM     21  H   UNL     1     -12.153   2.599   5.490  1.00  0.00     0.293 HD
ENDBRANCH  17  20
ENDBRANCH   1  12
BRANCH   6  22
ATOM     22  O   UNL     1      -8.806  12.116   4.760  1.00  0.00    -0.507 OA
ATOM     23  H   UNL     1      -9.334  12.789   5.294  1.00  0.00     0.293 HD
ENDBRANCH   6  22
BRANCH   8  24
ATOM     24  O   UNL     1      -4.743   9.961   6.079  1.00  0.00    -0.508 OA
ATOM     25  H   UNL     1      -4.240   9.382   6.741  1.00  0.00     0.293 HD
ENDBRANCH   8  24
TORSDOF 5
ENDMDL
MODEL 3
REMARK VINA RESULT:    -5.928      1.226      2.717
REMARK INTER + INTRA:          -7.231
REMARK INTER:                  -6.967
REMARK INTRA:                  -0.264
REMARK UNBOUND:                -0.263
REMARK SMILES O=c1cc(-c2ccc(O)c(O)c2)oc2cc(O)cc(O)c12
REMARK SMILES IDX 4 1 3 2 2 3 1 4 21 5 19 6 18 7 16 8 15 9 14 10 13 11 5 12
REMARK SMILES IDX 6 13 7 14 8 15 12 16 10 17 9 18 11 20 20 22 17 24
REMARK H PARENT 9 19 11 21 20 23 17 25
REMARK Flexibility Score: inf
ROOT
ATOM      1  C   UNL     1      -9.068   8.469   6.310  1.00  0.00     0.138 A 
ATOM      2  C   UNL     1      -8.895   7.093   6.519  1.00  0.00     0.100 A 
ATOM      3  C   UNL     1     -10.007   6.250   6.521  1.00  0.00     0.197 A 
ATOM      4  O   UNL     1      -9.815   5.015   6.655  1.00  0.00    -0.289 OA
ATOM      5  C   UNL     1     -11.304   6.794   6.348  1.00  0.00     0.107 A 
ATOM      6  C   UNL     1     -12.514   6.036   6.366  1.00  0.00     0.134 A 
ATOM      7  C   UNL     1     -13.730   6.672   6.086  1.00  0.00     0.093 A 
ATOM      8  C   UNL     1     -13.788   8.044   5.845  1.00  0.00     0.123 A 
ATOM      9  C   UNL     1     -12.618   8.804   5.876  1.00  0.00     0.094 A 
ATOM     10  C   UNL     1     -11.385   8.194   6.117  1.00  0.00     0.146 A 
ATOM     11  O   UNL     1     -10.292   8.950   6.119  1.00  0.00    -0.456 OA
ENDROOT
BRANCH   1  12
ATOM     12  C   UNL     1      -7.921   9.411   6.302  1.00  0.00     0.021 A 
ATOM     13  C   UNL     1      -7.305   9.736   5.083  1.00  0.00     0.016 A 
ATOM     14  C   UNL     1      -6.220  10.613   5.048  1.00  0.00     0.051 A 
ATOM     15  C   UNL     1      -5.720  11.179   6.226  1.00  0.00     0.157 A 
ATOM     16  C   UNL     1      -7.410   9.968   7.489  1.00  0.00     0.062 A 
ATOM     17  C   UNL     1      -6.320  10.847   7.463  1.00  0.00     0.158 A 
BRANCH  15  18
ATOM     18  O   UNL     1      -4.637  12.054   6.121  1.00  0.00    -0.504 OA
ATOM     19  H   UNL     1      -3.683  11.801   6.339  1.00  0.00     0.293 HD
ENDBRANCH  15  18
BRANCH  17  20
ATOM     20  O   UNL     1      -5.866  11.358   8.681  1.00  0.00    -0.504 OA
ATOM     21  H   UNL     1      -5.623  12.327   8.831  1.00  0.00     0.293 HD
ENDBRANCH  17  20
ENDBRANCH   1  12
BRANCH   6  22
ATOM     22  O   UNL     1     -12.581   4.674   6.672  1.00  0.00    -0.507 OA
ATOM     23  H   UNL     1     -12.542   4.286   7.602  1.00  0.00     0.293 HD
ENDBRANCH   6  22
BRANCH   8  24
ATOM     24  O   UNL     1     -15.018   8.645   5.586  1.00  0.00    -0.508 OA
ATOM     25  H   UNL     1     -15.088   9.627   5.348  1.00  0.00     0.293 HD
ENDBRANCH   8  24
TORSDOF 5
ENDMDL
MODEL 4
REMARK VINA RESULT:    -5.601     17.551     19.524
REMARK INTER + INTRA:          -6.847
REMARK INTER:                  -6.563
REMARK INTRA:                  -0.284
REMARK UNBOUND:                -0.263
REMARK SMILES O=c1cc(-c2ccc(O)c(O)c2)oc2cc(O)cc(O)c12
REMARK SMILES IDX 4 1 3 2 2 3 1 4 21 5 19 6 18 7 16 8 15 9 14 10 13 11 5 12
REMARK SMILES IDX 6 13 7 14 8 15 12 16 10 17 9 18 11 20 20 22 17 24
REMARK H PARENT 9 19 11 21 20 23 17 25
REMARK Flexibility Score: inf
ROOT
ATOM      1  C   UNL     1     -11.960  -1.582  -9.698  1.00  0.00     0.138 A 
ATOM      2  C   UNL     1     -10.627  -1.617 -10.129  1.00  0.00     0.100 A 
ATOM      3  C   UNL     1      -9.925  -2.824 -10.103  1.00  0.00     0.197 A 
ATOM      4  O   UNL     1      -8.748  -2.835 -10.547  1.00  0.00    -0.289 OA
ATOM      5  C   UNL     1     -10.553  -3.993  -9.610  1.00  0.00     0.107 A 
ATOM      6  C   UNL     1      -9.926  -5.272  -9.506  1.00  0.00     0.134 A 
ATOM      7  C   UNL     1     -10.680  -6.378  -9.094  1.00  0.00     0.093 A 
ATOM      8  C   UNL     1     -12.019  -6.244  -8.729  1.00  0.00     0.123 A 
ATOM      9  C   UNL     1     -12.628  -4.989  -8.779  1.00  0.00     0.094 A 
ATOM     10  C   UNL     1     -11.914  -3.872  -9.219  1.00  0.00     0.146 A 
ATOM     11  O   UNL     1     -12.537  -2.699  -9.269  1.00  0.00    -0.456 OA
ENDROOT
BRANCH   1  12
ATOM     12  C   UNL     1     -12.751  -0.326  -9.700  1.00  0.00     0.021 A 
ATOM     13  C   UNL     1     -14.117  -0.372 -10.021  1.00  0.00     0.016 A 
ATOM     14  C   UNL     1     -14.882   0.796 -10.037  1.00  0.00     0.051 A 
ATOM     15  C   UNL     1     -14.303   2.034  -9.744  1.00  0.00     0.157 A 
ATOM     16  C   UNL     1     -12.164   0.922  -9.419  1.00  0.00     0.062 A 
ATOM     17  C   UNL     1     -12.924   2.099  -9.436  1.00  0.00     0.158 A 
BRANCH  15  18
ATOM     18  O   UNL     1     -15.125   3.162  -9.771  1.00  0.00    -0.504 OA
ATOM     19  H   UNL     1     -15.992   3.241  -9.260  1.00  0.00     0.293 HD
ENDBRANCH  15  18
BRANCH  17  20
ATOM     20  O   UNL     1     -12.272   3.300  -9.149  1.00  0.00    -0.504 OA
ATOM     21  H   UNL     1     -11.447   3.370  -8.570  1.00  0.00     0.293 HD
ENDBRANCH  17  20
ENDBRANCH   1  12
BRANCH   6  22
ATOM     22  O   UNL     1      -8.573  -5.505  -9.769  1.00  0.00    -0.507 OA
ATOM     23  H   UNL     1      -8.125  -6.408  -9.747  1.00  0.00     0.293 HD
ENDBRANCH   6  22
BRANCH   8  24
ATOM     24  O   UNL     1     -12.733  -7.363  -8.309  1.00  0.00    -0.508 OA
ATOM     25  H   UNL     1     -13.687  -7.290  -7.977  1.00  0.00     0.293 HD
ENDBRANCH   8  24
TORSDOF 5
ENDMDL
MODEL 5
REMARK VINA RESULT:    -5.533      2.623      6.799
REMARK INTER + INTRA:          -6.766
REMARK INTER:                  -6.500
REMARK INTRA:                  -0.267
REMARK UNBOUND:                -0.263
REMARK SMILES O=c1cc(-c2ccc(O)c(O)c2)oc2cc(O)cc(O)c12
REMARK SMILES IDX 4 1 3 2 2 3 1 4 21 5 19 6 18 7 16 8 15 9 14 10 13 11 5 12
REMARK SMILES IDX 6 13 7 14 8 15 12 16 10 17 9 18 11 20 20 22 17 24
REMARK H PARENT 9 19 11 21 20 23 17 25
REMARK Flexibility Score: inf
ROOT
ATOM      1  C   UNL     1     -12.159   7.486   6.463  1.00  0.00     0.138 A 
ATOM      2  C   UNL     1     -13.412   7.955   6.045  1.00  0.00     0.100 A 
ATOM      3  C   UNL     1     -13.516   9.214   5.452  1.00  0.00     0.197 A 
ATOM      4  O   UNL     1     -14.645   9.583   5.038  1.00  0.00    -0.289 OA
ATOM      5  C   UNL     1     -12.362  10.022   5.310  1.00  0.00     0.107 A 
ATOM      6  C   UNL     1     -12.351  11.336   4.752  1.00  0.00     0.134 A 
ATOM      7  C   UNL     1     -11.131  12.000   4.574  1.00  0.00     0.093 A 
ATOM      8  C   UNL     1      -9.930  11.425   4.984  1.00  0.00     0.123 A 
ATOM      9  C   UNL     1      -9.933  10.162   5.577  1.00  0.00     0.094 A 
ATOM     10  C   UNL     1     -11.129   9.458   5.738  1.00  0.00     0.146 A 
ATOM     11  O   UNL     1     -11.087   8.251   6.290  1.00  0.00    -0.456 OA
ENDROOT
BRANCH   1  12
ATOM     12  C   UNL     1     -11.993   6.157   7.103  1.00  0.00     0.021 A 
ATOM     13  C   UNL     1     -11.873   6.074   8.499  1.00  0.00     0.016 A 
ATOM     14  C   UNL     1     -11.708   4.837   9.125  1.00  0.00     0.051 A 
ATOM     15  C   UNL     1     -11.650   3.658   8.374  1.00  0.00     0.157 A 
ATOM     16  C   UNL     1     -11.920   4.972   6.345  1.00  0.00     0.062 A 
ATOM     17  C   UNL     1     -11.752   3.728   6.965  1.00  0.00     0.158 A 
BRANCH  15  18
ATOM     18  O   UNL     1     -11.490   2.453   9.062  1.00  0.00    -0.504 OA
ATOM     19  H   UNL     1     -11.519   2.370  10.068  1.00  0.00     0.293 HD
ENDBRANCH  15  18
BRANCH  17  20
ATOM     20  O   UNL     1     -11.686   2.597   6.148  1.00  0.00    -0.504 OA
ATOM     21  H   UNL     1     -11.179   1.757   6.388  1.00  0.00     0.293 HD
ENDBRANCH  17  20
ENDBRANCH   1  12
BRANCH   6  22
ATOM     22  O   UNL     1     -13.502  12.039   4.380  1.00  0.00    -0.507 OA
ATOM     23  H   UNL     1     -13.887  12.070   3.449  1.00  0.00     0.293 HD
ENDBRANCH   6  22
BRANCH   8  24
ATOM     24  O   UNL     1      -8.737  12.122   4.805  1.00  0.00    -0.508 OA
ATOM     25  H   UNL     1      -8.339  12.263   3.884  1.00  0.00     0.293 HD
ENDBRANCH   8  24
TORSDOF 5
ENDMDL
MODEL 6
REMARK VINA RESULT:    -5.238      2.369      6.837
REMARK INTER + INTRA:          -6.421
REMARK INTER:                  -6.151
REMARK INTRA:                  -0.270
REMARK UNBOUND:                -0.263
REMARK SMILES O=c1cc(-c2ccc(O)c(O)c2)oc2cc(O)cc(O)c12
REMARK SMILES IDX 4 1 3 2 2 3 1 4 21 5 19 6 18 7 16 8 15 9 14 10 13 11 5 12
REMARK SMILES IDX 6 13 7 14 8 15 12 16 10 17 9 18 11 20 20 22 17 24
REMARK H PARENT 9 19 11 21 20 23 17 25
REMARK Flexibility Score: inf
ROOT
ATOM      1  C   UNL     1     -10.789   7.612   6.531  1.00  0.00     0.138 A 
ATOM      2  C   UNL     1      -9.528   8.165   6.266  1.00  0.00     0.100 A 
ATOM      3  C   UNL     1      -9.438   9.439   5.704  1.00  0.00     0.197 A 
ATOM      4  O   UNL     1      -8.293   9.930   5.529  1.00  0.00    -0.289 OA
ATOM      5  C   UNL     1     -10.618  10.147   5.372  1.00  0.00     0.107 A 
ATOM      6  C   UNL     1     -10.649  11.439   4.764  1.00  0.00     0.134 A 
ATOM      7  C   UNL     1     -11.878  12.082   4.573  1.00  0.00     0.093 A 
ATOM      8  C   UNL     1     -13.079  11.461   4.914  1.00  0.00     0.123 A 
ATOM      9  C   UNL     1     -13.063  10.178   5.463  1.00  0.00     0.094 A 
ATOM     10  C   UNL     1     -11.852   9.523   5.699  1.00  0.00     0.146 A 
ATOM     11  O   UNL     1     -11.881   8.310   6.240  1.00  0.00    -0.456 OA
ENDROOT
BRANCH   1  12
ATOM     12  C   UNL     1     -10.942   6.260   7.125  1.00  0.00     0.021 A 
ATOM     13  C   UNL     1     -10.569   6.048   8.462  1.00  0.00     0.016 A 
ATOM     14  C   UNL     1     -10.697   4.784   9.042  1.00  0.00     0.051 A 
ATOM     15  C   UNL     1     -11.190   3.705   8.302  1.00  0.00     0.157 A 
ATOM     16  C   UNL     1     -11.425   5.170   6.376  1.00  0.00     0.062 A 
ATOM     17  C   UNL     1     -11.554   3.899   6.949  1.00  0.00     0.158 A 
BRANCH  15  18
ATOM     18  O   UNL     1     -11.299   2.469   8.944  1.00  0.00    -0.504 OA
ATOM     19  H   UNL     1     -10.537   2.014   9.426  1.00  0.00     0.293 HD
ENDBRANCH  15  18
BRANCH  17  20
ATOM     20  O   UNL     1     -12.038   2.867   6.143  1.00  0.00    -0.504 OA
ATOM     21  H   UNL     1     -12.402   3.002   5.211  1.00  0.00     0.293 HD
ENDBRANCH  17  20
ENDBRANCH   1  12
BRANCH   6  22
ATOM     22  O   UNL     1      -9.514  12.119   4.310  1.00  0.00    -0.507 OA
ATOM     23  H   UNL     1      -8.566  11.908   4.580  1.00  0.00     0.293 HD
ENDBRANCH   6  22
BRANCH   8  24
ATOM     24  O   UNL     1     -14.283  12.125   4.695  1.00  0.00    -0.508 OA
ATOM     25  H   UNL     1     -14.573  12.404   3.765  1.00  0.00     0.293 HD
ENDBRANCH   8  24
TORSDOF 5
ENDMDL
MODEL 7
REMARK VINA RESULT:    -5.144      5.050      7.133
REMARK INTER + INTRA:          -6.309
REMARK INTER:                  -6.012
REMARK INTRA:                  -0.297
REMARK UNBOUND:                -0.263
REMARK SMILES O=c1cc(-c2ccc(O)c(O)c2)oc2cc(O)cc(O)c12
REMARK SMILES IDX 4 1 3 2 2 3 1 4 21 5 19 6 18 7 16 8 15 9 14 10 13 11 5 12
REMARK SMILES IDX 6 13 7 14 8 15 12 16 10 17 9 18 11 20 20 22 17 24
REMARK H PARENT 9 19 11 21 20 23 17 25
REMARK Flexibility Score: inf
ROOT
ATOM      1  C   UNL     1     -13.343   7.385   6.696  1.00  0.00     0.138 A 
ATOM      2  C   UNL     1     -13.800   7.918   7.909  1.00  0.00     0.100 A 
ATOM      3  C   UNL     1     -14.292   9.224   7.948  1.00  0.00     0.197 A 
ATOM      4  O   UNL     1     -14.746   9.654   9.039  1.00  0.00    -0.289 OA
ATOM      5  C   UNL     1     -14.293  10.011   6.770  1.00  0.00     0.107 A 
ATOM      6  C   UNL     1     -14.739  11.365   6.697  1.00  0.00     0.134 A 
ATOM      7  C   UNL     1     -14.783  12.010   5.454  1.00  0.00     0.093 A 
ATOM      8  C   UNL     1     -14.346  11.372   4.294  1.00  0.00     0.123 A 
ATOM      9  C   UNL     1     -13.861  10.066   4.362  1.00  0.00     0.094 A 
ATOM     10  C   UNL     1     -13.836   9.382   5.580  1.00  0.00     0.146 A 
ATOM     11  O   UNL     1     -13.383   8.133   5.599  1.00  0.00    -0.456 OA
ENDROOT
BRANCH   1  12
ATOM     12  C   UNL     1     -12.807   6.004   6.599  1.00  0.00     0.021 A 
ATOM     13  C   UNL     1     -12.447   5.491   5.342  1.00  0.00     0.016 A 
ATOM     14  C   UNL     1     -11.947   4.193   5.223  1.00  0.00     0.051 A 
ATOM     15  C   UNL     1     -11.803   3.376   6.349  1.00  0.00     0.157 A 
ATOM     16  C   UNL     1     -12.675   5.177   7.731  1.00  0.00     0.062 A 
ATOM     17  C   UNL     1     -12.177   3.873   7.619  1.00  0.00     0.158 A 
BRANCH  15  18
ATOM     18  O   UNL     1     -11.290   2.091   6.161  1.00  0.00    -0.504 OA
ATOM     19  H   UNL     1     -11.647   1.267   6.624  1.00  0.00     0.293 HD
ENDBRANCH  15  18
BRANCH  17  20
ATOM     20  O   UNL     1     -12.078   3.112   8.785  1.00  0.00    -0.504 OA
ATOM     21  H   UNL     1     -12.870   2.713   9.267  1.00  0.00     0.293 HD
ENDBRANCH  17  20
ENDBRANCH   1  12
BRANCH   6  22
ATOM     22  O   UNL     1     -15.124  12.125   7.806  1.00  0.00    -0.507 OA
ATOM     23  H   UNL     1     -14.562  12.839   8.242  1.00  0.00     0.293 HD
ENDBRANCH   6  22
BRANCH   8  24
ATOM     24  O   UNL     1     -14.391  12.051   3.078  1.00  0.00    -0.508 OA
ATOM     25  H   UNL     1     -13.695  12.745   2.833  1.00  0.00     0.293 HD
ENDBRANCH   8  24
TORSDOF 5
ENDMDL
MODEL 8
REMARK VINA RESULT:    -5.090      1.766      2.859
REMARK INTER + INTRA:          -6.246
REMARK INTER:                  -5.937
REMARK INTRA:                  -0.309
REMARK UNBOUND:                -0.263
REMARK SMILES O=c1cc(-c2ccc(O)c(O)c2)oc2cc(O)cc(O)c12
REMARK SMILES IDX 4 1 3 2 2 3 1 4 21 5 19 6 18 7 16 8 15 9 14 10 13 11 5 12
REMARK SMILES IDX 6 13 7 14 8 15 12 16 10 17 9 18 11 20 20 22 17 24
REMARK H PARENT 9 19 11 21 20 23 17 25
REMARK Flexibility Score: inf
ROOT
ATOM      1  C   UNL     1      -9.430   7.491   6.562  1.00  0.00     0.138 A 
ATOM      2  C   UNL     1      -9.272   6.616   7.645  1.00  0.00     0.100 A 
ATOM      3  C   UNL     1     -10.116   5.511   7.770  1.00  0.00     0.197 A 
ATOM      4  O   UNL     1      -9.914   4.715   8.722  1.00  0.00    -0.289 OA
ATOM      5  C   UNL     1     -11.147   5.302   6.821  1.00  0.00     0.107 A 
ATOM      6  C   UNL     1     -12.088   4.229   6.865  1.00  0.00     0.134 A 
ATOM      7  C   UNL     1     -13.002   4.071   5.815  1.00  0.00     0.093 A 
ATOM      8  C   UNL     1     -13.047   4.975   4.755  1.00  0.00     0.123 A 
ATOM      9  C   UNL     1     -12.165   6.056   4.728  1.00  0.00     0.094 A 
ATOM     10  C   UNL     1     -11.219   6.223   5.741  1.00  0.00     0.146 A 
ATOM     11  O   UNL     1     -10.385   7.255   5.668  1.00  0.00    -0.456 OA
ENDROOT
BRANCH   1  12
ATOM     12  C   UNL     1      -8.564   8.683   6.383  1.00  0.00     0.021 A 
ATOM     13  C   UNL     1      -7.280   8.693   6.952  1.00  0.00     0.016 A 
ATOM     14  C   UNL     1      -6.448   9.804   6.805  1.00  0.00     0.051 A 
ATOM     15  C   UNL     1      -6.879  10.931   6.097  1.00  0.00     0.157 A 
ATOM     16  C   UNL     1      -9.003   9.822   5.683  1.00  0.00     0.062 A 
ATOM     17  C   UNL     1      -8.176  10.942   5.534  1.00  0.00     0.158 A 
BRANCH  15  18
ATOM     18  O   UNL     1      -5.995  12.006   5.982  1.00  0.00    -0.504 OA
ATOM     19  H   UNL     1      -4.993  11.926   6.080  1.00  0.00     0.293 HD
ENDBRANCH  15  18
BRANCH  17  20
ATOM     20  O   UNL     1      -8.681  12.036   4.829  1.00  0.00    -0.504 OA
ATOM     21  H   UNL     1      -9.459  12.599   5.142  1.00  0.00     0.293 HD
ENDBRANCH  17  20
ENDBRANCH   1  12
BRANCH   6  22
ATOM     22  O   UNL     1     -12.184   3.313   7.916  1.00  0.00    -0.507 OA
ATOM     23  H   UNL     1     -11.978   3.516   8.882  1.00  0.00     0.293 HD
ENDBRANCH   6  22
BRANCH   8  24
ATOM     24  O   UNL     1     -13.980   4.794   3.737  1.00  0.00    -0.508 OA
ATOM     25  H   UNL     1     -13.721   4.874   2.760  1.00  0.00     0.293 HD
ENDBRANCH   8  24
TORSDOF 5
ENDMDL
MODEL 9
REMARK VINA RESULT:    -4.866      2.361      6.741
REMARK INTER + INTRA:          -5.982
REMARK INTER:                  -5.706
REMARK INTRA:                  -0.277
REMARK UNBOUND:                -0.263
REMARK SMILES O=c1cc(-c2ccc(O)c(O)c2)oc2cc(O)cc(O)c12
REMARK SMILES IDX 4 1 3 2 2 3 1 4 21 5 19 6 18 7 16 8 15 9 14 10 13 11 5 12
REMARK SMILES IDX 6 13 7 14 8 15 12 16 10 17 9 18 11 20 20 22 17 24
REMARK H PARENT 9 19 11 21 20 23 17 25
REMARK Flexibility Score: inf
ROOT
ATOM      1  C   UNL     1     -11.676   7.154   6.319  1.00  0.00     0.138 A 
ATOM      2  C   UNL     1     -12.892   7.730   6.708  1.00  0.00     0.100 A 
ATOM      3  C   UNL     1     -13.001   9.119   6.797  1.00  0.00     0.197 A 
ATOM      4  O   UNL     1     -14.121   9.608   7.096  1.00  0.00    -0.289 OA
ATOM      5  C   UNL     1     -11.873   9.932   6.529  1.00  0.00     0.107 A 
ATOM      6  C   UNL     1     -11.856  11.357   6.620  1.00  0.00     0.134 A 
ATOM      7  C   UNL     1     -10.708  12.059   6.234  1.00  0.00     0.093 A 
ATOM      8  C   UNL     1      -9.559  11.390   5.816  1.00  0.00     0.123 A 
ATOM      9  C   UNL     1      -9.547   9.995   5.771  1.00  0.00     0.094 A 
ATOM     10  C   UNL     1     -10.688   9.266   6.116  1.00  0.00     0.146 A 
ATOM     11  O   UNL     1     -10.641   7.940   6.042  1.00  0.00    -0.456 OA
ENDROOT
BRANCH   1  12
ATOM     12  C   UNL     1     -11.504   5.683   6.211  1.00  0.00     0.021 A 
ATOM     13  C   UNL     1     -11.659   4.886   7.356  1.00  0.00     0.016 A 
ATOM     14  C   UNL     1     -11.495   3.501   7.284  1.00  0.00     0.051 A 
ATOM     15  C   UNL     1     -11.165   2.883   6.074  1.00  0.00     0.157 A 
ATOM     16  C   UNL     1     -11.157   5.063   4.996  1.00  0.00     0.062 A 
ATOM     17  C   UNL     1     -10.989   3.675   4.916  1.00  0.00     0.158 A 
BRANCH  15  18
ATOM     18  O   UNL     1     -11.022   1.494   6.068  1.00  0.00    -0.504 OA
ATOM     19  H   UNL     1     -11.769   0.848   6.282  1.00  0.00     0.293 HD
ENDBRANCH  15  18
BRANCH  17  20
ATOM     20  O   UNL     1     -10.643   3.132   3.677  1.00  0.00    -0.504 OA
ATOM     21  H   UNL     1      -9.694   2.932   3.393  1.00  0.00     0.293 HD
ENDBRANCH  17  20
ENDBRANCH   1  12
BRANCH   6  22
ATOM     22  O   UNL     1     -12.922  12.124   7.100  1.00  0.00    -0.507 OA
ATOM     23  H   UNL     1     -13.213  12.173   8.064  1.00  0.00     0.293 HD
ENDBRANCH   6  22
BRANCH   8  24
ATOM     24  O   UNL     1      -8.429  12.121   5.455  1.00  0.00    -0.508 OA
ATOM     25  H   UNL     1      -8.336  13.102   5.692  1.00  0.00     0.293 HD
ENDBRANCH   8  24
TORSDOF 5
ENDMDL
