MODEL 1
REMARK VINA RESULT:    -4.405      0.000      0.000
REMARK INTER + INTRA:          -9.788
REMARK INTER:                  -7.623
REMARK INTRA:                  -2.165
REMARK UNBOUND:                -2.165
REMARK SMILES CCCCCCCCCCCCCCO
REMARK SMILES IDX 8 1 7 2 6 3 5 4 4 5 3 6 2 7 1 8 9 9 10 10 11 11 12 12 13 13
REMARK SMILES IDX 14 14 15 15
REMARK H PARENT 15 16
REMARK Flexibility Score: inf
ROOT
ATOM      1  C   UNL     1     200.606 203.293 232.021  1.00  0.00     0.000 C 
ENDROOT
BRANCH   1   2
ATOM      2  C   UNL     1     201.019 203.755 233.428  1.00  0.00    -0.000 C 
BRANCH   2   3
ATOM      3  C   UNL     1     202.327 203.107 233.932  1.00  0.00    -0.000 C 
BRANCH   3   4
ATOM      4  C   UNL     1     203.513 204.089 233.898  1.00  0.00    -0.000 C 
BRANCH   4   5
ATOM      5  C   UNL     1     203.065 205.554 233.780  1.00  0.00    -0.000 C 
BRANCH   5   6
ATOM      6  C   UNL     1     203.734 206.284 232.602  1.00  0.00    -0.000 C 
BRANCH   6   7
ATOM      7  C   UNL     1     204.779 205.414 231.888  1.00  0.00    -0.003 C 
ATOM      8  C   UNL     1     204.919 205.757 230.407  1.00  0.00     0.004 C 
ENDBRANCH   6   7
ENDBRANCH   5   6
ENDBRANCH   4   5
ENDBRANCH   3   4
ENDBRANCH   2   3
ENDBRANCH   1   2
BRANCH   1   9
ATOM      9  C   UNL     1     200.954 204.317 230.927  1.00  0.00     0.000 C 
BRANCH   9  10
ATOM     10  C   UNL     1     201.905 203.730 229.863  1.00  0.00     0.000 C 
BRANCH  10  11
ATOM     11  C   UNL     1     202.528 202.384 230.271  1.00  0.00     0.000 C 
BRANCH  11  12
ATOM     12  C   UNL     1     204.035 202.314 229.990  1.00  0.00     0.002 C 
BRANCH  12  13
ATOM     13  C   UNL     1     204.752 201.467 231.048  1.00  0.00     0.028 C 
BRANCH  13  14
ATOM     14  C   UNL     1     206.273 201.573 230.901  1.00  0.00     0.156 C 
BRANCH  14  15
ATOM     15  O   UNL     1     206.610 202.710 230.154  1.00  0.00    -0.396 OA
ATOM     16  H   UNL     1     206.048 203.452 230.499  1.00  0.00     0.210 HD
ENDBRANCH  14  15
ENDBRANCH  13  14
ENDBRANCH  12  13
ENDBRANCH  11  12
ENDBRANCH  10  11
ENDBRANCH   9  10
ENDBRANCH   1   9
TORSDOF 13
ENDMDL
MODEL 2
REMARK VINA RESULT:    -4.379      1.813      3.332
REMARK INTER + INTRA:          -9.743
REMARK INTER:                  -7.616
REMARK INTRA:                  -2.127
REMARK UNBOUND:                -2.165
REMARK SMILES CCCCCCCCCCCCCCO
REMARK SMILES IDX 8 1 7 2 6 3 5 4 4 5 3 6 2 7 1 8 9 9 10 10 11 11 12 12 13 13
REMARK SMILES IDX 14 14 15 15
REMARK H PARENT 15 16
REMARK Flexibility Score: inf
ROOT
ATOM      1  C   UNL     1     202.227 203.819 229.828  1.00  0.00     0.000 C 
ENDROOT
BRANCH   1   2
ATOM      2  C   UNL     1     203.620 204.430 230.054  1.00  0.00    -0.000 C 
BRANCH   2   3
ATOM      3  C   UNL     1     204.691 203.394 230.459  1.00  0.00    -0.000 C 
BRANCH   3   4
ATOM      4  C   UNL     1     204.997 203.434 231.967  1.00  0.00    -0.000 C 
BRANCH   4   5
ATOM      5  C   UNL     1     204.690 204.801 232.598  1.00  0.00    -0.000 C 
BRANCH   5   6
ATOM      6  C   UNL     1     203.820 204.688 233.862  1.00  0.00    -0.000 C 
BRANCH   6   7
ATOM      7  C   UNL     1     203.017 205.967 234.140  1.00  0.00    -0.003 C 
ATOM      8  C   UNL     1     201.802 205.718 235.031  1.00  0.00     0.004 C 
ENDBRANCH   6   7
ENDBRANCH   5   6
ENDBRANCH   4   5
ENDBRANCH   3   4
ENDBRANCH   2   3
ENDBRANCH   1   2
BRANCH   1   9
ATOM      9  C   UNL     1     201.114 204.575 230.574  1.00  0.00     0.000 C 
BRANCH   9  10
ATOM     10  C   UNL     1     200.713 203.872 231.888  1.00  0.00     0.000 C 
BRANCH  10  11
ATOM     11  C   UNL     1     200.870 202.342 231.839  1.00  0.00     0.000 C 
BRANCH  11  12
ATOM     12  C   UNL     1     201.838 201.807 232.903  1.00  0.00     0.002 C 
BRANCH  12  13
ATOM     13  C   UNL     1     202.494 200.501 232.442  1.00  0.00     0.028 C 
BRANCH  13  14
ATOM     14  C   UNL     1     202.271 200.270 230.944  1.00  0.00     0.156 C 
BRANCH  14  15
ATOM     15  O   UNL     1     203.480 199.933 230.321  1.00  0.00    -0.396 OA
ATOM     16  H   UNL     1     203.637 200.615 229.617  1.00  0.00     0.210 HD
ENDBRANCH  14  15
ENDBRANCH  13  14
ENDBRANCH  12  13
ENDBRANCH  11  12
ENDBRANCH  10  11
ENDBRANCH   9  10
ENDBRANCH   1   9
TORSDOF 13
ENDMDL
MODEL 3
REMARK VINA RESULT:    -4.363      2.605      4.740
REMARK INTER + INTRA:          -9.716
REMARK INTER:                  -7.878
REMARK INTRA:                  -1.838
REMARK UNBOUND:                -2.165
REMARK SMILES CCCCCCCCCCCCCCO
REMARK SMILES IDX 8 1 7 2 6 3 5 4 4 5 3 6 2 7 1 8 9 9 10 10 11 11 12 12 13 13
REMARK SMILES IDX 14 14 15 15
REMARK H PARENT 15 16
REMARK Flexibility Score: inf
ROOT
ATOM      1  C   UNL     1     204.846 201.456 231.483  1.00  0.00     0.000 C 
ENDROOT
BRANCH   1   2
ATOM      2  C   UNL     1     205.362 202.217 230.251  1.00  0.00    -0.000 C 
BRANCH   2   3
ATOM      3  C   UNL     1     204.238 202.811 229.375  1.00  0.00    -0.000 C 
BRANCH   3   4
ATOM      4  C   UNL     1     203.705 204.142 229.937  1.00  0.00    -0.000 C 
BRANCH   4   5
ATOM      5  C   UNL     1     204.824 205.158 230.212  1.00  0.00    -0.000 C 
BRANCH   5   6
ATOM      6  C   UNL     1     204.661 205.864 231.570  1.00  0.00    -0.000 C 
BRANCH   6   7
ATOM      7  C   UNL     1     204.582 204.874 232.742  1.00  0.00    -0.003 C 
ATOM      8  C   UNL     1     203.414 205.165 233.682  1.00  0.00     0.004 C 
ENDBRANCH   6   7
ENDBRANCH   5   6
ENDBRANCH   4   5
ENDBRANCH   3   4
ENDBRANCH   2   3
ENDBRANCH   1   2
BRANCH   1   9
ATOM      9  C   UNL     1     203.578 200.634 231.192  1.00  0.00     0.000 C 
BRANCH   9  10
ATOM     10  C   UNL     1     202.639 200.560 232.414  1.00  0.00     0.000 C 
BRANCH  10  11
ATOM     11  C   UNL     1     201.899 201.878 232.702  1.00  0.00     0.000 C 
BRANCH  11  12
ATOM     12  C   UNL     1     201.005 202.326 231.538  1.00  0.00     0.002 C 
BRANCH  12  13
ATOM     13  C   UNL     1     200.482 203.749 231.763  1.00  0.00     0.028 C 
BRANCH  13  14
ATOM     14  C   UNL     1     199.604 203.823 233.016  1.00  0.00     0.156 C 
BRANCH  14  15
ATOM     15  O   UNL     1     198.290 204.164 232.666  1.00  0.00    -0.396 OA
ATOM     16  H   UNL     1     198.314 204.449 231.716  1.00  0.00     0.210 HD
ENDBRANCH  14  15
ENDBRANCH  13  14
ENDBRANCH  12  13
ENDBRANCH  11  12
ENDBRANCH  10  11
ENDBRANCH   9  10
ENDBRANCH   1   9
TORSDOF 13
ENDMDL
MODEL 4
REMARK VINA RESULT:    -4.353      2.579      4.451
REMARK INTER + INTRA:          -9.699
REMARK INTER:                  -7.790
REMARK INTRA:                  -1.909
REMARK UNBOUND:                -2.165
REMARK SMILES CCCCCCCCCCCCCCO
REMARK SMILES IDX 8 1 7 2 6 3 5 4 4 5 3 6 2 7 1 8 9 9 10 10 11 11 12 12 13 13
REMARK SMILES IDX 14 14 15 15
REMARK H PARENT 15 16
REMARK Flexibility Score: inf
ROOT
ATOM      1  C   UNL     1     204.619 204.945 230.235  1.00  0.00     0.000 C 
ENDROOT
BRANCH   1   2
ATOM      2  C   UNL     1     203.633 205.675 231.163  1.00  0.00    -0.000 C 
BRANCH   2   3
ATOM      3  C   UNL     1     203.939 205.484 232.664  1.00  0.00    -0.000 C 
BRANCH   3   4
ATOM      4  C   UNL     1     205.023 204.418 232.905  1.00  0.00    -0.000 C 
BRANCH   4   5
ATOM      5  C   UNL     1     204.453 203.115 233.487  1.00  0.00    -0.000 C 
BRANCH   5   6
ATOM      6  C   UNL     1     205.224 201.869 233.017  1.00  0.00    -0.000 C 
BRANCH   6   7
ATOM      7  C   UNL     1     206.354 202.213 232.034  1.00  0.00    -0.003 C 
ATOM      8  C   UNL     1     206.217 201.481 230.700  1.00  0.00     0.004 C 
ENDBRANCH   6   7
ENDBRANCH   5   6
ENDBRANCH   4   5
ENDBRANCH   3   4
ENDBRANCH   2   3
ENDBRANCH   1   2
BRANCH   1   9
ATOM      9  C   UNL     1     203.960 203.807 229.437  1.00  0.00     0.000 C 
BRANCH   9  10
ATOM     10  C   UNL     1     202.469 203.633 229.796  1.00  0.00     0.000 C 
BRANCH  10  11
ATOM     11  C   UNL     1     202.196 202.444 230.733  1.00  0.00     0.000 C 
BRANCH  11  12
ATOM     12  C   UNL     1     200.777 202.456 231.316  1.00  0.00     0.002 C 
BRANCH  12  13
ATOM     13  C   UNL     1     200.537 203.719 232.150  1.00  0.00     0.028 C 
BRANCH  13  14
ATOM     14  C   UNL     1     199.376 203.521 233.130  1.00  0.00     0.156 C 
BRANCH  14  15
ATOM     15  O   UNL     1     198.251 204.237 232.698  1.00  0.00    -0.396 OA
ATOM     16  H   UNL     1     198.572 204.889 232.021  1.00  0.00     0.210 HD
ENDBRANCH  14  15
ENDBRANCH  13  14
ENDBRANCH  12  13
ENDBRANCH  11  12
ENDBRANCH  10  11
ENDBRANCH   9  10
ENDBRANCH   1   9
TORSDOF 13
ENDMDL
MODEL 5
REMARK VINA RESULT:    -4.333      2.011      4.079
REMARK INTER + INTRA:          -9.663
REMARK INTER:                  -7.590
REMARK INTRA:                  -2.074
REMARK UNBOUND:                -2.165
REMARK SMILES CCCCCCCCCCCCCCO
REMARK SMILES IDX 8 1 7 2 6 3 5 4 4 5 3 6 2 7 1 8 9 9 10 10 11 11 12 12 13 13
REMARK SMILES IDX 14 14 15 15
REMARK H PARENT 15 16
REMARK Flexibility Score: inf
ROOT
ATOM      1  C   UNL     1     201.990 202.845 230.146  1.00  0.00     0.000 C 
ENDROOT
BRANCH   1   2
ATOM      2  C   UNL     1     201.089 204.082 230.298  1.00  0.00    -0.000 C 
BRANCH   2   3
ATOM      3  C   UNL     1     200.417 204.191 231.683  1.00  0.00    -0.000 C 
BRANCH   3   4
ATOM      4  C   UNL     1     200.648 202.934 232.542  1.00  0.00    -0.000 C 
BRANCH   4   5
ATOM      5  C   UNL     1     201.522 203.213 233.775  1.00  0.00    -0.000 C 
BRANCH   5   6
ATOM      6  C   UNL     1     201.315 204.629 234.340  1.00  0.00    -0.000 C 
BRANCH   6   7
ATOM      7  C   UNL     1     202.318 204.972 235.451  1.00  0.00    -0.003 C 
ATOM      8  C   UNL     1     203.497 204.003 235.500  1.00  0.00     0.004 C 
ENDBRANCH   6   7
ENDBRANCH   5   6
ENDBRANCH   4   5
ENDBRANCH   3   4
ENDBRANCH   2   3
ENDBRANCH   1   2
BRANCH   1   9
ATOM      9  C   UNL     1     203.471 203.206 229.939  1.00  0.00     0.000 C 
BRANCH   9  10
ATOM     10  C   UNL     1     204.334 202.846 231.166  1.00  0.00     0.000 C 
BRANCH  10  11
ATOM     11  C   UNL     1     204.797 204.072 231.973  1.00  0.00     0.000 C 
BRANCH  11  12
ATOM     12  C   UNL     1     204.570 205.395 231.231  1.00  0.00     0.002 C 
BRANCH  12  13
ATOM     13  C   UNL     1     203.680 206.338 232.049  1.00  0.00     0.028 C 
BRANCH  13  14
ATOM     14  C   UNL     1     204.471 206.998 233.183  1.00  0.00     0.156 C 
BRANCH  14  15
ATOM     15  O   UNL     1     204.944 208.253 232.777  1.00  0.00    -0.396 OA
ATOM     16  H   UNL     1     205.477 208.102 231.952  1.00  0.00     0.210 HD
ENDBRANCH  14  15
ENDBRANCH  13  14
ENDBRANCH  12  13
ENDBRANCH  11  12
ENDBRANCH  10  11
ENDBRANCH   9  10
ENDBRANCH   1   9
TORSDOF 13
ENDMDL
MODEL 6
REMARK VINA RESULT:    -4.319      2.121      5.139
REMARK INTER + INTRA:          -9.641
REMARK INTER:                  -7.663
REMARK INTRA:                  -1.978
REMARK UNBOUND:                -2.165
REMARK SMILES CCCCCCCCCCCCCCO
REMARK SMILES IDX 8 1 7 2 6 3 5 4 4 5 3 6 2 7 1 8 9 9 10 10 11 11 12 12 13 13
REMARK SMILES IDX 14 14 15 15
REMARK H PARENT 15 16
REMARK Flexibility Score: inf
ROOT
ATOM      1  C   UNL     1     205.458 202.105 232.480  1.00  0.00     0.000 C 
ENDROOT
BRANCH   1   2
ATOM      2  C   UNL     1     205.691 201.313 231.183  1.00  0.00    -0.000 C 
BRANCH   2   3
ATOM      3  C   UNL     1     205.793 202.202 229.925  1.00  0.00    -0.000 C 
BRANCH   3   4
ATOM      4  C   UNL     1     204.723 203.308 229.907  1.00  0.00    -0.000 C 
BRANCH   4   5
ATOM      5  C   UNL     1     203.451 202.889 229.153  1.00  0.00    -0.000 C 
BRANCH   5   6
ATOM      6  C   UNL     1     202.175 203.085 229.991  1.00  0.00    -0.000 C 
BRANCH   6   7
ATOM      7  C   UNL     1     201.810 201.838 230.809  1.00  0.00    -0.003 C 
ATOM      8  C   UNL     1     202.207 200.539 230.112  1.00  0.00     0.004 C 
ENDBRANCH   6   7
ENDBRANCH   5   6
ENDBRANCH   4   5
ENDBRANCH   3   4
ENDBRANCH   2   3
ENDBRANCH   1   2
BRANCH   1   9
ATOM      9  C   UNL     1     204.453 201.425 233.425  1.00  0.00     0.000 C 
BRANCH   9  10
ATOM     10  C   UNL     1     203.427 202.424 233.999  1.00  0.00     0.000 C 
BRANCH  10  11
ATOM     11  C   UNL     1     203.950 203.869 234.074  1.00  0.00     0.000 C 
BRANCH  11  12
ATOM     12  C   UNL     1     203.268 204.803 233.066  1.00  0.00     0.002 C 
BRANCH  12  13
ATOM     13  C   UNL     1     204.253 205.852 232.536  1.00  0.00     0.028 C 
BRANCH  13  14
ATOM     14  C   UNL     1     204.030 207.209 233.210  1.00  0.00     0.156 C 
BRANCH  14  15
ATOM     15  O   UNL     1     204.961 208.143 232.736  1.00  0.00    -0.396 OA
ATOM     16  H   UNL     1     205.861 207.774 232.937  1.00  0.00     0.210 HD
ENDBRANCH  14  15
ENDBRANCH  13  14
ENDBRANCH  12  13
ENDBRANCH  11  12
ENDBRANCH  10  11
ENDBRANCH   9  10
ENDBRANCH   1   9
TORSDOF 13
ENDMDL
MODEL 7
REMARK VINA RESULT:    -4.310      2.462      4.855
REMARK INTER + INTRA:          -9.625
REMARK INTER:                  -7.739
REMARK INTRA:                  -1.886
REMARK UNBOUND:                -2.165
REMARK SMILES CCCCCCCCCCCCCCO
REMARK SMILES IDX 8 1 7 2 6 3 5 4 4 5 3 6 2 7 1 8 9 9 10 10 11 11 12 12 13 13
REMARK SMILES IDX 14 14 15 15
REMARK H PARENT 15 16
REMARK Flexibility Score: inf
ROOT
ATOM      1  C   UNL     1     205.422 202.182 229.921  1.00  0.00     0.000 C 
ENDROOT
BRANCH   1   2
ATOM      2  C   UNL     1     206.292 201.552 231.022  1.00  0.00    -0.000 C 
BRANCH   2   3
ATOM      3  C   UNL     1     206.682 202.540 232.142  1.00  0.00    -0.000 C 
BRANCH   3   4
ATOM      4  C   UNL     1     206.119 202.118 233.511  1.00  0.00    -0.000 C 
BRANCH   4   5
ATOM      5  C   UNL     1     204.650 202.530 233.699  1.00  0.00    -0.000 C 
BRANCH   5   6
ATOM      6  C   UNL     1     203.768 201.370 234.193  1.00  0.00    -0.000 C 
BRANCH   6   7
ATOM      7  C   UNL     1     204.390 199.995 233.907  1.00  0.00    -0.003 C 
ATOM      8  C   UNL     1     203.727 199.282 232.731  1.00  0.00     0.004 C 
ENDBRANCH   6   7
ENDBRANCH   5   6
ENDBRANCH   4   5
ENDBRANCH   3   4
ENDBRANCH   2   3
ENDBRANCH   1   2
BRANCH   1   9
ATOM      9  C   UNL     1     203.929 201.845 230.071  1.00  0.00     0.000 C 
BRANCH   9  10
ATOM     10  C   UNL     1     203.037 203.101 229.974  1.00  0.00     0.000 C 
BRANCH  10  11
ATOM     11  C   UNL     1     203.820 204.421 230.085  1.00  0.00     0.000 C 
BRANCH  11  12
ATOM     12  C   UNL     1     203.569 205.155 231.409  1.00  0.00     0.002 C 
BRANCH  12  13
ATOM     13  C   UNL     1     204.726 206.105 231.738  1.00  0.00     0.028 C 
BRANCH  13  14
ATOM     14  C   UNL     1     204.420 206.935 232.989  1.00  0.00     0.156 C 
BRANCH  14  15
ATOM     15  O   UNL     1     205.006 208.203 232.883  1.00  0.00    -0.396 OA
ATOM     16  H   UNL     1     205.553 208.195 232.054  1.00  0.00     0.210 HD
ENDBRANCH  14  15
ENDBRANCH  13  14
ENDBRANCH  12  13
ENDBRANCH  11  12
ENDBRANCH  10  11
ENDBRANCH   9  10
ENDBRANCH   1   9
TORSDOF 13
ENDMDL
MODEL 8
REMARK VINA RESULT:    -4.307      2.176      4.799
REMARK INTER + INTRA:          -9.619
REMARK INTER:                  -7.699
REMARK INTRA:                  -1.919
REMARK UNBOUND:                -2.165
REMARK SMILES CCCCCCCCCCCCCCO
REMARK SMILES IDX 8 1 7 2 6 3 5 4 4 5 3 6 2 7 1 8 9 9 10 10 11 11 12 12 13 13
REMARK SMILES IDX 14 14 15 15
REMARK H PARENT 15 16
REMARK Flexibility Score: inf
ROOT
ATOM      1  C   UNL     1     201.385 203.738 230.024  1.00  0.00     0.000 C 
ENDROOT
BRANCH   1   2
ATOM      2  C   UNL     1     202.872 203.755 229.631  1.00  0.00    -0.000 C 
BRANCH   2   3
ATOM      3  C   UNL     1     203.482 202.348 229.458  1.00  0.00    -0.000 C 
BRANCH   3   4
ATOM      4  C   UNL     1     204.658 202.102 230.420  1.00  0.00    -0.000 C 
BRANCH   4   5
ATOM      5  C   UNL     1     204.481 200.825 231.258  1.00  0.00    -0.000 C 
BRANCH   5   6
ATOM      6  C   UNL     1     203.033 200.304 231.243  1.00  0.00    -0.000 C 
BRANCH   6   7
ATOM      7  C   UNL     1     202.507 199.988 232.651  1.00  0.00    -0.003 C 
ATOM      8  C   UNL     1     203.478 200.411 233.751  1.00  0.00     0.004 C 
ENDBRANCH   6   7
ENDBRANCH   5   6
ENDBRANCH   4   5
ENDBRANCH   3   4
ENDBRANCH   2   3
ENDBRANCH   1   2
BRANCH   1   9
ATOM      9  C   UNL     1     201.118 204.395 231.389  1.00  0.00     0.000 C 
BRANCH   9  10
ATOM     10  C   UNL     1     201.790 203.626 232.546  1.00  0.00     0.000 C 
BRANCH  10  11
ATOM     11  C   UNL     1     202.638 204.519 233.467  1.00  0.00     0.000 C 
BRANCH  11  12
ATOM     12  C   UNL     1     204.111 204.586 233.043  1.00  0.00     0.002 C 
BRANCH  12  13
ATOM     13  C   UNL     1     204.408 205.890 232.293  1.00  0.00     0.028 C 
BRANCH  13  14
ATOM     14  C   UNL     1     204.177 207.108 233.192  1.00  0.00     0.156 C 
BRANCH  14  15
ATOM     15  O   UNL     1     204.986 208.175 232.778  1.00  0.00    -0.396 OA
ATOM     16  H   UNL     1     205.925 207.902 232.947  1.00  0.00     0.210 HD
ENDBRANCH  14  15
ENDBRANCH  13  14
ENDBRANCH  12  13
ENDBRANCH  11  12
ENDBRANCH  10  11
ENDBRANCH   9  10
ENDBRANCH   1   9
TORSDOF 13
ENDMDL
MODEL 9
REMARK VINA RESULT:    -4.272      2.420      4.862
REMARK INTER + INTRA:          -9.558
REMARK INTER:                  -7.692
REMARK INTRA:                  -1.866
REMARK UNBOUND:                -2.165
REMARK SMILES CCCCCCCCCCCCCCO
REMARK SMILES IDX 8 1 7 2 6 3 5 4 4 5 3 6 2 7 1 8 9 9 10 10 11 11 12 12 13 13
REMARK SMILES IDX 14 14 15 15
REMARK H PARENT 15 16
REMARK Flexibility Score: inf
ROOT
ATOM      1  C   UNL     1     206.623 201.551 231.574  1.00  0.00     0.000 C 
ENDROOT
BRANCH   1   2
ATOM      2  C   UNL     1     206.352 202.551 232.710  1.00  0.00    -0.000 C 
BRANCH   2   3
ATOM      3  C   UNL     1     205.639 201.925 233.927  1.00  0.00    -0.000 C 
BRANCH   3   4
ATOM      4  C   UNL     1     204.174 201.564 233.621  1.00  0.00    -0.000 C 
BRANCH   4   5
ATOM      5  C   UNL     1     203.853 200.091 233.924  1.00  0.00    -0.000 C 
BRANCH   5   6
ATOM      6  C   UNL     1     203.005 199.432 232.821  1.00  0.00    -0.000 C 
BRANCH   6   7
ATOM      7  C   UNL     1     203.267 200.040 231.435  1.00  0.00    -0.003 C 
ATOM      8  C   UNL     1     201.980 200.355 230.677  1.00  0.00     0.004 C 
ENDBRANCH   6   7
ENDBRANCH   5   6
ENDBRANCH   4   5
ENDBRANCH   3   4
ENDBRANCH   2   3
ENDBRANCH   1   2
BRANCH   1   9
ATOM      9  C   UNL     1     206.145 202.057 230.202  1.00  0.00     0.000 C 
BRANCH   9  10
ATOM     10  C   UNL     1     205.194 203.266 230.329  1.00  0.00     0.000 C 
BRANCH  10  11
ATOM     11  C   UNL     1     203.958 203.174 229.416  1.00  0.00     0.000 C 
BRANCH  11  12
ATOM     12  C   UNL     1     202.804 204.073 229.881  1.00  0.00     0.002 C 
BRANCH  12  13
ATOM     13  C   UNL     1     202.660 204.036 231.407  1.00  0.00     0.028 C 
BRANCH  13  14
ATOM     14  C   UNL     1     202.880 205.424 232.016  1.00  0.00     0.156 C 
BRANCH  14  15
ATOM     15  O   UNL     1     202.950 206.391 231.005  1.00  0.00    -0.396 OA
ATOM     16  H   UNL     1     202.550 207.220 231.377  1.00  0.00     0.210 HD
ENDBRANCH  14  15
ENDBRANCH  13  14
ENDBRANCH  12  13
ENDBRANCH  11  12
ENDBRANCH  10  11
ENDBRANCH   9  10
ENDBRANCH   1   9
TORSDOF 13
ENDMDL
