MODEL 1
REMARK VINA RESULT:     0.000      0.000      0.000
REMARK INTER + INTRA:          -1.535
REMARK INTER:                   0.000
REMARK INTRA:                  -1.535
REMARK UNBOUND:                -1.535
REMARK SMILES CCCCCCCCCCC(=O)[O-]
REMARK SMILES IDX 7 1 8 2 9 3 10 4 11 5 12 6 13 7 6 8 5 9 4 10 3 11 2 12 1 13
REMARK H PARENT
REMARK Flexibility Score: inf
ROOT
ATOM      1  C   UNL     1     179.569 183.622 187.033  1.00  0.00     0.000 C 
ENDROOT
BRANCH   1   2
ATOM      2  C   UNL     1     180.945 184.311 187.052  1.00  0.00     0.000 C 
BRANCH   2   3
ATOM      3  C   UNL     1     181.544 184.411 188.461  1.00  0.00     0.006 C 
BRANCH   3   4
ATOM      4  C   UNL     1     182.679 183.401 188.649  1.00  0.00     0.053 C 
BRANCH   4   5
ATOM      5  C   UNL     1     182.527 182.678 189.949  1.00  0.00     0.041 C 
ATOM      6  O   UNL     1     181.594 182.982 190.738  1.00  0.00    -0.550 OA
ATOM      7  O   UNL     1     183.384 181.633 190.268  1.00  0.00    -0.550 OA
ENDBRANCH   4   5
ENDBRANCH   3   4
ENDBRANCH   2   3
ENDBRANCH   1   2
BRANCH   1   8
ATOM      8  C   UNL     1     178.938 183.462 188.433  1.00  0.00     0.000 C 
BRANCH   8   9
ATOM      9  C   UNL     1     178.727 181.987 188.809  1.00  0.00    -0.000 C 
BRANCH   9  10
ATOM     10  C   UNL     1     179.376 181.058 187.776  1.00  0.00    -0.000 C 
BRANCH  10  11
ATOM     11  C   UNL     1     180.373 180.101 188.447  1.00  0.00    -0.000 C 
BRANCH  11  12
ATOM     12  C   UNL     1     181.654 179.907 187.621  1.00  0.00    -0.003 C 
ATOM     13  C   UNL     1     181.614 180.651 186.286  1.00  0.00     0.004 C 
ENDBRANCH  11  12
ENDBRANCH  10  11
ENDBRANCH   9  10
ENDBRANCH   8   9
ENDBRANCH   1   8
TORSDOF 9
ENDMDL
MODEL 2
REMARK VINA RESULT:     0.001      3.377      4.388
REMARK INTER + INTRA:          -1.534
REMARK INTER:                   0.000
REMARK INTRA:                  -1.534
REMARK UNBOUND:                -1.535
REMARK SMILES CCCCCCCCCCC(=O)[O-]
REMARK SMILES IDX 7 1 8 2 9 3 10 4 11 5 12 6 13 7 6 8 5 9 4 10 3 11 2 12 1 13
REMARK H PARENT
REMARK Flexibility Score: inf
ROOT
ATOM      1  C   UNL     1     180.595 181.572 183.436  1.00  0.00     0.000 C 
ENDROOT
BRANCH   1   2
ATOM      2  C   UNL     1     181.591 181.952 184.546  1.00  0.00     0.000 C 
BRANCH   2   3
ATOM      3  C   UNL     1     180.990 181.836 185.953  1.00  0.00     0.006 C 
BRANCH   3   4
ATOM      4  C   UNL     1     181.537 180.607 186.684  1.00  0.00     0.053 C 
BRANCH   4   5
ATOM      5  C   UNL     1     180.426 179.847 187.336  1.00  0.00     0.041 C 
ATOM      6  O   UNL     1     179.243 180.275 187.273  1.00  0.00    -0.550 OA
ATOM      7  O   UNL     1     180.688 178.640 187.971  1.00  0.00    -0.550 OA
ENDBRANCH   4   5
ENDBRANCH   3   4
ENDBRANCH   2   3
ENDBRANCH   1   2
BRANCH   1   8
ATOM      8  C   UNL     1     179.137 181.448 183.928  1.00  0.00     0.000 C 
BRANCH   8   9
ATOM      9  C   UNL     1     178.579 180.030 183.738  1.00  0.00    -0.000 C 
BRANCH   9  10
ATOM     10  C   UNL     1     179.685 179.056 183.313  1.00  0.00    -0.000 C 
BRANCH  10  11
ATOM     11  C   UNL     1     179.793 177.883 184.299  1.00  0.00    -0.000 C 
BRANCH  11  12
ATOM     12  C   UNL     1     181.249 177.478 184.579  1.00  0.00    -0.003 C 
ATOM     13  C   UNL     1     182.255 178.301 183.775  1.00  0.00     0.004 C 
ENDBRANCH  11  12
ENDBRANCH  10  11
ENDBRANCH   9  10
ENDBRANCH   8   9
ENDBRANCH   1   8
TORSDOF 9
ENDMDL
MODEL 3
REMARK VINA RESULT:     0.001      5.496      7.276
REMARK INTER + INTRA:          -1.533
REMARK INTER:                   0.000
REMARK INTRA:                  -1.533
REMARK UNBOUND:                -1.535
REMARK SMILES CCCCCCCCCCC(=O)[O-]
REMARK SMILES IDX 7 1 8 2 9 3 10 4 11 5 12 6 13 7 6 8 5 9 4 10 3 11 2 12 1 13
REMARK H PARENT
REMARK Flexibility Score: inf
ROOT
ATOM      1  C   UNL     1     181.957 185.919 191.154  1.00  0.00     0.000 C 
ENDROOT
BRANCH   1   2
ATOM      2  C   UNL     1     182.880 187.086 191.545  1.00  0.00     0.000 C 
BRANCH   2   3
ATOM      3  C   UNL     1     182.446 188.423 190.929  1.00  0.00     0.006 C 
BRANCH   3   4
ATOM      4  C   UNL     1     181.794 189.327 191.979  1.00  0.00     0.053 C 
BRANCH   4   5
ATOM      5  C   UNL     1     180.531 189.922 191.446  1.00  0.00     0.041 C 
ATOM      6  O   UNL     1     180.168 189.687 190.263  1.00  0.00    -0.550 OA
ATOM      7  O   UNL     1     179.726 190.698 192.270  1.00  0.00    -0.550 OA
ENDBRANCH   4   5
ENDBRANCH   3   4
ENDBRANCH   2   3
ENDBRANCH   1   2
BRANCH   1   8
ATOM      8  C   UNL     1     180.998 186.252 189.991  1.00  0.00     0.000 C 
BRANCH   8   9
ATOM      9  C   UNL     1     179.523 186.162 190.412  1.00  0.00    -0.000 C 
BRANCH   9  10
ATOM     10  C   UNL     1     179.394 185.953 191.925  1.00  0.00    -0.000 C 
BRANCH  10  11
ATOM     11  C   UNL     1     178.530 187.053 192.561  1.00  0.00    -0.000 C 
BRANCH  11  12
ATOM     12  C   UNL     1     179.082 187.530 193.913  1.00  0.00    -0.003 C 
ATOM     13  C   UNL     1     180.334 186.766 194.343  1.00  0.00     0.004 C 
ENDBRANCH  11  12
ENDBRANCH  10  11
ENDBRANCH   9  10
ENDBRANCH   8   9
ENDBRANCH   1   8
TORSDOF 9
ENDMDL
MODEL 4
REMARK VINA RESULT:     0.002      5.204      6.779
REMARK INTER + INTRA:          -1.532
REMARK INTER:                   0.000
REMARK INTRA:                  -1.532
REMARK UNBOUND:                -1.535
REMARK SMILES CCCCCCCCCCC(=O)[O-]
REMARK SMILES IDX 7 1 8 2 9 3 10 4 11 5 12 6 13 7 6 8 5 9 4 10 3 11 2 12 1 13
REMARK H PARENT
REMARK Flexibility Score: inf
ROOT
ATOM      1  C   UNL     1     177.328 186.438 192.658  1.00  0.00     0.000 C 
ENDROOT
BRANCH   1   2
ATOM      2  C   UNL     1     177.711 186.452 194.148  1.00  0.00     0.000 C 
BRANCH   2   3
ATOM      3  C   UNL     1     177.453 185.108 194.843  1.00  0.00     0.006 C 
BRANCH   3   4
ATOM      4  C   UNL     1     176.838 184.096 193.871  1.00  0.00     0.053 C 
BRANCH   4   5
ATOM      5  C   UNL     1     177.294 182.711 194.200  1.00  0.00     0.041 C 
ATOM      6  O   UNL     1     177.476 181.868 193.282  1.00  0.00    -0.550 OA
ATOM      7  O   UNL     1     177.566 182.363 195.517  1.00  0.00    -0.550 OA
ENDBRANCH   4   5
ENDBRANCH   3   4
ENDBRANCH   2   3
ENDBRANCH   1   2
BRANCH   1   8
ATOM      8  C   UNL     1     178.362 187.134 191.746  1.00  0.00     0.000 C 
BRANCH   8   9
ATOM      9  C   UNL     1     179.657 186.318 191.610  1.00  0.00    -0.000 C 
BRANCH   9  10
ATOM     10  C   UNL     1     179.357 184.877 191.180  1.00  0.00    -0.000 C 
BRANCH  10  11
ATOM     11  C   UNL     1     180.146 183.873 192.035  1.00  0.00    -0.000 C 
BRANCH  11  12
ATOM     12  C   UNL     1     180.830 184.533 193.241  1.00  0.00    -0.003 C 
ATOM     13  C   UNL     1     180.884 183.618 194.464  1.00  0.00     0.004 C 
ENDBRANCH  11  12
ENDBRANCH  10  11
ENDBRANCH   9  10
ENDBRANCH   8   9
ENDBRANCH   1   8
TORSDOF 9
ENDMDL
MODEL 5
REMARK VINA RESULT:     0.002      7.141      8.946
REMARK INTER + INTRA:          -1.531
REMARK INTER:                   0.000
REMARK INTRA:                  -1.531
REMARK UNBOUND:                -1.535
REMARK SMILES CCCCCCCCCCC(=O)[O-]
REMARK SMILES IDX 7 1 8 2 9 3 10 4 11 5 12 6 13 7 6 8 5 9 4 10 3 11 2 12 1 13
REMARK H PARENT
REMARK Flexibility Score: inf
ROOT
ATOM      1  C   UNL     1     175.932 184.886 186.795  1.00  0.00     0.000 C 
ENDROOT
BRANCH   1   2
ATOM      2  C   UNL     1     174.860 185.331 187.804  1.00  0.00     0.000 C 
BRANCH   2   3
ATOM      3  C   UNL     1     174.214 186.673 187.435  1.00  0.00     0.006 C 
BRANCH   3   4
ATOM      4  C   UNL     1     174.877 187.280 186.195  1.00  0.00     0.053 C 
BRANCH   4   5
ATOM      5  C   UNL     1     173.878 188.044 185.387  1.00  0.00     0.041 C 
ATOM      6  O   UNL     1     173.961 188.065 184.131  1.00  0.00    -0.550 OA
ATOM      7  O   UNL     1     172.823 188.691 186.017  1.00  0.00    -0.550 OA
ENDBRANCH   4   5
ENDBRANCH   3   4
ENDBRANCH   2   3
ENDBRANCH   1   2
BRANCH   1   8
ATOM      8  C   UNL     1     175.876 183.381 186.456  1.00  0.00     0.000 C 
BRANCH   8   9
ATOM      9  C   UNL     1     174.743 183.049 185.474  1.00  0.00    -0.000 C 
BRANCH   9  10
ATOM     10  C   UNL     1     174.728 184.033 184.298  1.00  0.00    -0.000 C 
BRANCH  10  11
ATOM     11  C   UNL     1     173.310 184.570 184.048  1.00  0.00    -0.000 C 
BRANCH  11  12
ATOM     12  C   UNL     1     172.347 184.256 185.203  1.00  0.00    -0.003 C 
ATOM     13  C   UNL     1     171.313 185.359 185.426  1.00  0.00     0.004 C 
ENDBRANCH  11  12
ENDBRANCH  10  11
ENDBRANCH   9  10
ENDBRANCH   8   9
ENDBRANCH   1   8
TORSDOF 9
ENDMDL
MODEL 6
REMARK VINA RESULT:     0.003     10.745     12.593
REMARK INTER + INTRA:          -1.531
REMARK INTER:                   0.000
REMARK INTRA:                  -1.531
REMARK UNBOUND:                -1.535
REMARK SMILES CCCCCCCCCCC(=O)[O-]
REMARK SMILES IDX 7 1 8 2 9 3 10 4 11 5 12 6 13 7 6 8 5 9 4 10 3 11 2 12 1 13
REMARK H PARENT
REMARK Flexibility Score: inf
ROOT
ATOM      1  C   UNL     1     175.562 190.702 187.548  1.00  0.00     0.000 C 
ENDROOT
BRANCH   1   2
ATOM      2  C   UNL     1     175.423 190.684 189.080  1.00  0.00     0.000 C 
BRANCH   2   3
ATOM      3  C   UNL     1     175.384 192.091 189.692  1.00  0.00     0.006 C 
BRANCH   3   4
ATOM      4  C   UNL     1     175.569 193.164 188.616  1.00  0.00     0.053 C 
BRANCH   4   5
ATOM      5  C   UNL     1     174.793 194.394 188.964  1.00  0.00     0.041 C 
ATOM      6  O   UNL     1     174.270 195.092 188.056  1.00  0.00    -0.550 OA
ATOM      7  O   UNL     1     174.604 194.744 190.294  1.00  0.00    -0.550 OA
ENDBRANCH   4   5
ENDBRANCH   3   4
ENDBRANCH   2   3
ENDBRANCH   1   2
BRANCH   1   8
ATOM      8  C   UNL     1     174.656 189.677 186.832  1.00  0.00     0.000 C 
BRANCH   8   9
ATOM      9  C   UNL     1     173.183 190.113 186.819  1.00  0.00    -0.000 C 
BRANCH   9  10
ATOM     10  C   UNL     1     173.042 191.559 186.329  1.00  0.00    -0.000 C 
BRANCH  10  11
ATOM     11  C   UNL     1     172.119 192.366 187.256  1.00  0.00    -0.000 C 
BRANCH  11  12
ATOM     12  C   UNL     1     171.803 191.627 188.565  1.00  0.00    -0.003 C 
ATOM     13  C   UNL     1     171.658 192.572 189.757  1.00  0.00     0.004 C 
ENDBRANCH  11  12
ENDBRANCH  10  11
ENDBRANCH   9  10
ENDBRANCH   8   9
ENDBRANCH   1   8
TORSDOF 9
ENDMDL
MODEL 7
REMARK VINA RESULT:     0.003     10.279     12.284
REMARK INTER + INTRA:          -1.530
REMARK INTER:                   0.000
REMARK INTRA:                  -1.530
REMARK UNBOUND:                -1.535
REMARK SMILES CCCCCCCCCCC(=O)[O-]
REMARK SMILES IDX 7 1 8 2 9 3 10 4 11 5 12 6 13 7 6 8 5 9 4 10 3 11 2 12 1 13
REMARK H PARENT
REMARK Flexibility Score: inf
ROOT
ATOM      1  C   UNL     1     175.748 189.898 192.283  1.00  0.00     0.000 C 
ENDROOT
BRANCH   1   2
ATOM      2  C   UNL     1     175.736 191.004 193.352  1.00  0.00     0.000 C 
BRANCH   2   3
ATOM      3  C   UNL     1     174.587 192.003 193.165  1.00  0.00     0.006 C 
BRANCH   3   4
ATOM      4  C   UNL     1     173.667 191.574 192.018  1.00  0.00     0.053 C 
BRANCH   4   5
ATOM      5  C   UNL     1     173.111 192.772 191.317  1.00  0.00     0.041 C 
ATOM      6  O   UNL     1     172.894 193.836 191.954  1.00  0.00    -0.550 OA
ATOM      7  O   UNL     1     172.878 192.731 189.948  1.00  0.00    -0.550 OA
ENDBRANCH   4   5
ENDBRANCH   3   4
ENDBRANCH   2   3
ENDBRANCH   1   2
BRANCH   1   8
ATOM      8  C   UNL     1     177.158 189.566 191.750  1.00  0.00     0.000 C 
BRANCH   8   9
ATOM      9  C   UNL     1     177.658 190.611 190.741  1.00  0.00    -0.000 C 
BRANCH   9  10
ATOM     10  C   UNL     1     176.574 190.942 189.708  1.00  0.00    -0.000 C 
BRANCH  10  11
ATOM     11  C   UNL     1     176.412 192.460 189.547  1.00  0.00    -0.000 C 
BRANCH  11  12
ATOM     12  C   UNL     1     177.124 193.252 190.655  1.00  0.00    -0.003 C 
ATOM     13  C   UNL     1     176.380 194.530 191.039  1.00  0.00     0.004 C 
ENDBRANCH  11  12
ENDBRANCH  10  11
ENDBRANCH   9  10
ENDBRANCH   8   9
ENDBRANCH   1   8
TORSDOF 9
ENDMDL
MODEL 8
REMARK VINA RESULT:     0.004      6.124      7.458
REMARK INTER + INTRA:          -1.529
REMARK INTER:                   0.000
REMARK INTRA:                  -1.529
REMARK UNBOUND:                -1.535
REMARK SMILES CCCCCCCCCCC(=O)[O-]
REMARK SMILES IDX 7 1 8 2 9 3 10 4 11 5 12 6 13 7 6 8 5 9 4 10 3 11 2 12 1 13
REMARK H PARENT
REMARK Flexibility Score: inf
ROOT
ATOM      1  C   UNL     1     180.506 183.062 193.323  1.00  0.00     0.000 C 
ENDROOT
BRANCH   1   2
ATOM      2  C   UNL     1     179.928 184.478 193.480  1.00  0.00     0.000 C 
BRANCH   2   3
ATOM      3  C   UNL     1     179.844 184.931 194.944  1.00  0.00     0.006 C 
BRANCH   3   4
ATOM      4  C   UNL     1     180.355 183.837 195.886  1.00  0.00     0.053 C 
BRANCH   4   5
ATOM      5  C   UNL     1     179.605 183.868 197.180  1.00  0.00     0.041 C 
ATOM      6  O   UNL     1     179.170 184.959 197.634  1.00  0.00    -0.550 OA
ATOM      7  O   UNL     1     179.342 182.687 197.860  1.00  0.00    -0.550 OA
ENDBRANCH   4   5
ENDBRANCH   3   4
ENDBRANCH   2   3
ENDBRANCH   1   2
BRANCH   1   8
ATOM      8  C   UNL     1     179.730 182.183 192.319  1.00  0.00     0.000 C 
BRANCH   8   9
ATOM      9  C   UNL     1     178.303 181.877 192.798  1.00  0.00    -0.000 C 
BRANCH   9  10
ATOM     10  C   UNL     1     178.318 181.171 194.159  1.00  0.00    -0.000 C 
BRANCH  10  11
ATOM     11  C   UNL     1     177.271 181.776 195.105  1.00  0.00    -0.000 C 
BRANCH  11  12
ATOM     12  C   UNL     1     176.605 183.033 194.524  1.00  0.00    -0.003 C 
ATOM     13  C   UNL     1     176.246 184.061 195.596  1.00  0.00     0.004 C 
ENDBRANCH  11  12
ENDBRANCH  10  11
ENDBRANCH   9  10
ENDBRANCH   8   9
ENDBRANCH   1   8
TORSDOF 9
ENDMDL
MODEL 9
REMARK VINA RESULT:     0.004     10.680     12.714
REMARK INTER + INTRA:          -1.529
REMARK INTER:                   0.000
REMARK INTRA:                  -1.529
REMARK UNBOUND:                -1.535
REMARK SMILES CCCCCCCCCCC(=O)[O-]
REMARK SMILES IDX 7 1 8 2 9 3 10 4 11 5 12 6 13 7 6 8 5 9 4 10 3 11 2 12 1 13
REMARK H PARENT
REMARK Flexibility Score: inf
ROOT
ATOM      1  C   UNL     1     184.096 190.995 191.815  1.00  0.00     0.000 C 
ENDROOT
BRANCH   1   2
ATOM      2  C   UNL     1     183.891 190.703 193.312  1.00  0.00     0.000 C 
BRANCH   2   3
ATOM      3  C   UNL     1     183.229 191.866 194.062  1.00  0.00     0.006 C 
BRANCH   3   4
ATOM      4  C   UNL     1     182.836 192.989 193.097  1.00  0.00     0.053 C 
BRANCH   4   5
ATOM      5  C   UNL     1     182.969 194.322 193.763  1.00  0.00     0.041 C 
ATOM      6  O   UNL     1     182.764 194.436 195.000  1.00  0.00    -0.550 OA
ATOM      7  O   UNL     1     183.370 195.430 193.028  1.00  0.00    -0.550 OA
ENDBRANCH   4   5
ENDBRANCH   3   4
ENDBRANCH   2   3
ENDBRANCH   1   2
BRANCH   1   8
ATOM      8  C   UNL     1     185.467 190.533 191.276  1.00  0.00     0.000 C 
BRANCH   8   9
ATOM      9  C   UNL     1     186.602 191.483 191.687  1.00  0.00    -0.000 C 
BRANCH   9  10
ATOM     10  C   UNL     1     186.216 192.945 191.432  1.00  0.00    -0.000 C 
BRANCH  10  11
ATOM     11  C   UNL     1     186.524 193.818 192.658  1.00  0.00    -0.000 C 
BRANCH  11  12
ATOM     12  C   UNL     1     186.836 192.986 193.911  1.00  0.00    -0.003 C 
ATOM     13  C   UNL     1     186.337 193.645 195.197  1.00  0.00     0.004 C 
ENDBRANCH  11  12
ENDBRANCH  10  11
ENDBRANCH   9  10
ENDBRANCH   8   9
ENDBRANCH   1   8
TORSDOF 9
ENDMDL
