MODEL 1
REMARK VINA RESULT:     4.580      0.000      0.000
REMARK INTER + INTRA:           5.473
REMARK INTER:                   4.982
REMARK INTRA:                   0.491
REMARK UNBOUND:                 0.491
REMARK SMILES C[C@@H]1[C@H]2C3=CC[C@H]4[C@@]5(C)CC[C@H](O)C(C)(C)[C@@H]5CC[C@]4(C)[C@@]3(C)CC[C@]2(C(=O)[O-])CC[C@@H]1C
REMARK SMILES IDX 26 1 30 2 25 3 3 4 31 5 24 6 4 7 2 8 32 9 22 10 5 11 1 12
REMARK SMILES IDX 33 13 23 14 20 15 6 16 7 17 19 18 21 19 8 20 18 21 17 22
REMARK SMILES IDX 10 23 9 24 14 25 11 26 12 27 15 28 16 29 27 30 28 31 29 32
REMARK SMILES IDX 13 33
REMARK H PARENT 13 34
REMARK Flexibility Score: inf
ROOT
ATOM      1  C   UNL     1      40.406  22.836  -2.592  1.00  0.00     0.017 C 
ATOM      2  C   UNL     1      40.466  24.031  -1.599  1.00  0.00     0.014 C 
ATOM      3  C   UNL     1      40.880  23.374  -3.967  1.00  0.00     0.014 C 
ATOM      4  C   UNL     1      41.383  21.688  -2.165  1.00  0.00     0.030 C 
ATOM      5  C   UNL     1      40.228  23.596  -0.156  1.00  0.00     0.004 C 
ATOM      6  C   UNL     1      40.850  22.304  -5.064  1.00  0.00     0.013 C 
ATOM      7  C   UNL     1      41.309  20.560  -3.233  1.00  0.00    -0.063 C 
ATOM      8  C   UNL     1      41.249  21.309  -0.635  1.00  0.00    -0.003 C 
ATOM      9  C   UNL     1      41.276  22.572   0.287  1.00  0.00    -0.011 C 
ATOM     10  C   UNL     1      41.576  20.952  -4.707  1.00  0.00    -0.006 C 
ATOM     11  C   UNL     1      41.220  19.249  -2.882  1.00  0.00    -0.027 C 
ATOM     12  C   UNL     1      42.317  20.285  -0.150  1.00  0.00     0.008 C 
ATOM     13  C   UNL     1      42.666  23.246   0.416  1.00  0.00     0.008 C 
ATOM     14  C   UNL     1      43.125  21.192  -4.798  1.00  0.00     0.017 C 
ATOM     15  C   UNL     1      41.060  19.797  -5.713  1.00  0.00    -0.020 C 
ATOM     16  C   UNL     1      41.277  18.073  -3.828  1.00  0.00     0.032 C 
ATOM     17  C   UNL     1      41.715  18.432  -5.269  1.00  0.00     0.006 C 
ATOM     18  C   UNL     1      41.414  20.161  -7.219  1.00  0.00     0.008 C 
ATOM     19  C   UNL     1      39.495  19.646  -5.592  1.00  0.00     0.012 C 
ATOM     20  C   UNL     1      41.684  17.190  -6.298  1.00  0.00    -0.025 C 
ATOM     21  C   UNL     1      41.990  19.007  -8.064  1.00  0.00     0.005 C 
ATOM     22  C   UNL     1      41.257  17.697  -7.723  1.00  0.00     0.003 C 
ATOM     23  C   UNL     1      40.681  16.056  -5.902  1.00  0.00     0.010 C 
ATOM     24  C   UNL     1      43.125  16.574  -6.265  1.00  0.00     0.012 C 
ATOM     25  C   UNL     1      41.147  16.617  -8.869  1.00  0.00    -0.006 C 
ATOM     26  C   UNL     1      40.556  14.938  -6.958  1.00  0.00     0.033 C 
ATOM     27  C   UNL     1      40.204  15.474  -8.359  1.00  0.00     0.120 C 
ATOM     28  C   UNL     1      40.465  17.253 -10.118  1.00  0.00     0.014 C 
ATOM     29  C   UNL     1      42.521  16.056  -9.325  1.00  0.00     0.014 C 
ENDROOT
BRANCH   1  30
ATOM     30  C   UNL     1      38.954  22.371  -2.686  1.00  0.00     0.048 C 
ATOM     31  O   UNL     1      38.685  21.143  -2.567  1.00  0.00    -0.550 OA
ATOM     32  O   UNL     1      37.916  23.255  -2.940  1.00  0.00    -0.550 OA
ENDBRANCH   1  30
BRANCH  27  33
ATOM     33  O   UNL     1      40.199  14.402  -9.273  1.00  0.00    -0.393 OA
ATOM     34  H   UNL     1      40.186  14.797 -10.190  1.00  0.00     0.210 HD
ENDBRANCH  27  33
TORSDOF 2
ENDMDL
