MODEL 1
REMARK VINA RESULT:    -3.889      0.000      0.000
REMARK INTER + INTRA:          -4.472
REMARK INTER:                  -4.343
REMARK INTRA:                  -0.129
REMARK UNBOUND:                -0.129
REMARK SMILES O=C([O-])C=Cc1ccccc1
REMARK SMILES IDX 4 1 5 2 2 3 1 4 3 5 6 6 7 7 11 8 8 9 10 10 9 11
REMARK H PARENT
REMARK Flexibility Score: inf
ROOT
ATOM      1  C   UNL     1    -116.800  -5.011 -45.709  1.00  0.00     0.025 C 
ATOM      2  C   UNL     1    -116.643  -4.633 -46.988  1.00  0.00     0.010 C 
ENDROOT
BRANCH   1   3
ATOM      3  C   UNL     1    -118.002  -4.670 -44.932  1.00  0.00     0.064 C 
ATOM      4  O   UNL     1    -118.146  -5.065 -43.744  1.00  0.00    -0.545 OA
ATOM      5  O   UNL     1    -118.996  -3.896 -45.517  1.00  0.00    -0.545 OA
ENDBRANCH   1   3
BRANCH   2   6
ATOM      6  C   UNL     1    -115.454  -4.946 -47.826  1.00  0.00    -0.026 A 
ATOM      7  C   UNL     1    -115.621  -5.829 -48.910  1.00  0.00     0.008 A 
ATOM      8  C   UNL     1    -114.172  -4.401 -47.590  1.00  0.00     0.008 A 
ATOM      9  C   UNL     1    -114.541  -6.161 -49.734  1.00  0.00     0.001 A 
ATOM     10  C   UNL     1    -113.096  -4.738 -48.419  1.00  0.00     0.001 A 
ATOM     11  C   UNL     1    -113.280  -5.616 -49.488  1.00  0.00     0.000 A 
ENDBRANCH   2   6
TORSDOF 2
ENDMDL
MODEL 2
REMARK VINA RESULT:    -3.869      0.151      1.464
REMARK INTER + INTRA:          -4.450
REMARK INTER:                  -4.316
REMARK INTRA:                  -0.134
REMARK UNBOUND:                -0.129
REMARK SMILES O=C([O-])C=Cc1ccccc1
REMARK SMILES IDX 4 1 5 2 2 3 1 4 3 5 6 6 7 7 11 8 8 9 10 10 9 11
REMARK H PARENT
REMARK Flexibility Score: inf
ROOT
ATOM      1  C   UNL     1    -116.756  -4.975 -45.729  1.00  0.00     0.025 C 
ATOM      2  C   UNL     1    -116.616  -4.665 -47.027  1.00  0.00     0.010 C 
ENDROOT
BRANCH   1   3
ATOM      3  C   UNL     1    -117.966  -4.629 -44.966  1.00  0.00     0.064 C 
ATOM      4  O   UNL     1    -118.104  -4.985 -43.764  1.00  0.00    -0.545 OA
ATOM      5  O   UNL     1    -118.974  -3.898 -45.579  1.00  0.00    -0.545 OA
ENDBRANCH   1   3
BRANCH   2   6
ATOM      6  C   UNL     1    -115.419  -4.985 -47.853  1.00  0.00    -0.026 A 
ATOM      7  C   UNL     1    -114.192  -4.396 -47.497  1.00  0.00     0.008 A 
ATOM      8  C   UNL     1    -115.456  -5.847 -48.971  1.00  0.00     0.008 A 
ATOM      9  C   UNL     1    -113.033  -4.658 -48.234  1.00  0.00     0.001 A 
ATOM     10  C   UNL     1    -114.292  -6.105 -49.704  1.00  0.00     0.001 A 
ATOM     11  C   UNL     1    -113.083  -5.511 -49.337  1.00  0.00     0.000 A 
ENDBRANCH   2   6
TORSDOF 2
ENDMDL
MODEL 3
REMARK VINA RESULT:    -3.768      4.225      5.559
REMARK INTER + INTRA:          -4.337
REMARK INTER:                  -4.191
REMARK INTRA:                  -0.146
REMARK UNBOUND:                -0.129
REMARK SMILES O=C([O-])C=Cc1ccccc1
REMARK SMILES IDX 4 1 5 2 2 3 1 4 3 5 6 6 7 7 11 8 8 9 10 10 9 11
REMARK H PARENT
REMARK Flexibility Score: inf
ROOT
ATOM      1  C   UNL     1    -113.667  -5.937 -49.416  1.00  0.00     0.025 C 
ATOM      2  C   UNL     1    -112.618  -5.105 -49.323  1.00  0.00     0.010 C 
ENDROOT
BRANCH   1   3
ATOM      3  C   UNL     1    -113.847  -6.847 -50.559  1.00  0.00     0.064 C 
ATOM      4  O   UNL     1    -113.421  -6.547 -51.706  1.00  0.00    -0.545 OA
ATOM      5  O   UNL     1    -114.495  -8.060 -50.370  1.00  0.00    -0.545 OA
ENDBRANCH   1   3
BRANCH   2   6
ATOM      6  C   UNL     1    -112.379  -4.161 -48.196  1.00  0.00    -0.026 A 
ATOM      7  C   UNL     1    -113.170  -4.296 -47.040  1.00  0.00     0.008 A 
ATOM      8  C   UNL     1    -111.402  -3.142 -48.231  1.00  0.00     0.008 A 
ATOM      9  C   UNL     1    -112.993  -3.440 -45.949  1.00  0.00     0.001 A 
ATOM     10  C   UNL     1    -111.230  -2.289 -47.135  1.00  0.00     0.001 A 
ATOM     11  C   UNL     1    -112.023  -2.437 -45.997  1.00  0.00     0.000 A 
ENDBRANCH   2   6
TORSDOF 2
ENDMDL
MODEL 4
REMARK VINA RESULT:    -3.714      6.385      8.025
REMARK INTER + INTRA:          -4.276
REMARK INTER:                  -4.136
REMARK INTRA:                  -0.140
REMARK UNBOUND:                -0.129
REMARK SMILES O=C([O-])C=Cc1ccccc1
REMARK SMILES IDX 4 1 5 2 2 3 1 4 3 5 6 6 7 7 11 8 8 9 10 10 9 11
REMARK H PARENT
REMARK Flexibility Score: inf
ROOT
ATOM      1  C   UNL     1    -111.929  -4.276 -53.082  1.00  0.00     0.025 C 
ATOM      2  C   UNL     1    -112.301  -5.552 -53.270  1.00  0.00     0.010 C 
ENDROOT
BRANCH   1   3
ATOM      3  C   UNL     1    -111.079  -3.557 -54.044  1.00  0.00     0.064 C 
ATOM      4  O   UNL     1    -111.293  -2.348 -54.328  1.00  0.00    -0.545 OA
ATOM      5  O   UNL     1    -110.020  -4.221 -54.649  1.00  0.00    -0.545 OA
ENDBRANCH   1   3
BRANCH   2   6
ATOM      6  C   UNL     1    -113.158  -6.334 -52.337  1.00  0.00    -0.026 A 
ATOM      7  C   UNL     1    -112.975  -6.144 -50.954  1.00  0.00     0.008 A 
ATOM      8  C   UNL     1    -114.140  -7.253 -52.769  1.00  0.00     0.008 A 
ATOM      9  C   UNL     1    -113.750  -6.850 -50.028  1.00  0.00     0.001 A 
ATOM     10  C   UNL     1    -114.911  -7.956 -51.836  1.00  0.00     0.001 A 
ATOM     11  C   UNL     1    -114.716  -7.755 -50.469  1.00  0.00     0.000 A 
ENDBRANCH   2   6
TORSDOF 2
ENDMDL
MODEL 5
REMARK VINA RESULT:    -3.707      3.921      5.250
REMARK INTER + INTRA:          -4.269
REMARK INTER:                  -4.141
REMARK INTRA:                  -0.128
REMARK UNBOUND:                -0.129
REMARK SMILES O=C([O-])C=Cc1ccccc1
REMARK SMILES IDX 4 1 5 2 2 3 1 4 3 5 6 6 7 7 11 8 8 9 10 10 9 11
REMARK H PARENT
REMARK Flexibility Score: inf
ROOT
ATOM      1  C   UNL     1    -111.943  -3.623 -48.673  1.00  0.00     0.025 C 
ATOM      2  C   UNL     1    -112.739  -4.558 -48.131  1.00  0.00     0.010 C 
ENDROOT
BRANCH   1   3
ATOM      3  C   UNL     1    -111.058  -2.777 -47.855  1.00  0.00     0.064 C 
ATOM      4  O   UNL     1    -109.952  -2.368 -48.300  1.00  0.00    -0.545 OA
ATOM      5  O   UNL     1    -111.449  -2.422 -46.571  1.00  0.00    -0.545 OA
ENDBRANCH   1   3
BRANCH   2   6
ATOM      6  C   UNL     1    -113.655  -5.444 -48.901  1.00  0.00    -0.026 A 
ATOM      7  C   UNL     1    -115.038  -5.335 -48.661  1.00  0.00     0.008 A 
ATOM      8  C   UNL     1    -113.207  -6.383 -49.856  1.00  0.00     0.008 A 
ATOM      9  C   UNL     1    -115.948  -6.140 -49.353  1.00  0.00     0.001 A 
ATOM     10  C   UNL     1    -114.124  -7.185 -50.545  1.00  0.00     0.001 A 
ATOM     11  C   UNL     1    -115.491  -7.064 -50.294  1.00  0.00     0.000 A 
ENDBRANCH   2   6
TORSDOF 2
ENDMDL
MODEL 6
REMARK VINA RESULT:    -3.698      4.061      5.612
REMARK INTER + INTRA:          -4.259
REMARK INTER:                  -4.122
REMARK INTRA:                  -0.137
REMARK UNBOUND:                -0.129
REMARK SMILES O=C([O-])C=Cc1ccccc1
REMARK SMILES IDX 4 1 5 2 2 3 1 4 3 5 6 6 7 7 11 8 8 9 10 10 9 11
REMARK H PARENT
REMARK Flexibility Score: inf
ROOT
ATOM      1  C   UNL     1    -113.894  -5.769 -49.467  1.00  0.00     0.025 C 
ATOM      2  C   UNL     1    -113.563  -6.611 -50.459  1.00  0.00     0.010 C 
ENDROOT
BRANCH   1   3
ATOM      3  C   UNL     1    -112.892  -4.948 -48.768  1.00  0.00     0.064 C 
ATOM      4  O   UNL     1    -112.866  -4.880 -47.510  1.00  0.00    -0.545 OA
ATOM      5  O   UNL     1    -111.956  -4.238 -49.507  1.00  0.00    -0.545 OA
ENDBRANCH   1   3
BRANCH   2   6
ATOM      6  C   UNL     1    -114.527  -7.467 -51.204  1.00  0.00    -0.026 A 
ATOM      7  C   UNL     1    -115.481  -8.190 -50.462  1.00  0.00     0.008 A 
ATOM      8  C   UNL     1    -114.531  -7.589 -52.611  1.00  0.00     0.008 A 
ATOM      9  C   UNL     1    -116.412  -9.011 -51.105  1.00  0.00     0.001 A 
ATOM     10  C   UNL     1    -115.466  -8.413 -53.247  1.00  0.00     0.001 A 
ATOM     11  C   UNL     1    -116.404  -9.123 -52.496  1.00  0.00     0.000 A 
ENDBRANCH   2   6
TORSDOF 2
ENDMDL
MODEL 7
REMARK VINA RESULT:    -3.695      4.018      5.569
REMARK INTER + INTRA:          -4.255
REMARK INTER:                  -4.124
REMARK INTRA:                  -0.131
REMARK UNBOUND:                -0.129
REMARK SMILES O=C([O-])C=Cc1ccccc1
REMARK SMILES IDX 4 1 5 2 2 3 1 4 3 5 6 6 7 7 11 8 8 9 10 10 9 11
REMARK H PARENT
REMARK Flexibility Score: inf
ROOT
ATOM      1  C   UNL     1    -113.908  -5.355 -48.810  1.00  0.00     0.025 C 
ATOM      2  C   UNL     1    -113.102  -4.875 -47.850  1.00  0.00     0.010 C 
ENDROOT
BRANCH   1   3
ATOM      3  C   UNL     1    -113.435  -6.309 -49.827  1.00  0.00     0.064 C 
ATOM      4  O   UNL     1    -114.130  -7.307 -50.160  1.00  0.00    -0.545 OA
ATOM      5  O   UNL     1    -112.202  -6.107 -50.431  1.00  0.00    -0.545 OA
ENDBRANCH   1   3
BRANCH   2   6
ATOM      6  C   UNL     1    -113.518  -3.911 -46.796  1.00  0.00    -0.026 A 
ATOM      7  C   UNL     1    -112.511  -3.218 -46.097  1.00  0.00     0.008 A 
ATOM      8  C   UNL     1    -114.867  -3.657 -46.464  1.00  0.00     0.008 A 
ATOM      9  C   UNL     1    -112.840  -2.300 -45.095  1.00  0.00     0.001 A 
ATOM     10  C   UNL     1    -115.189  -2.735 -45.461  1.00  0.00     0.001 A 
ATOM     11  C   UNL     1    -114.177  -2.059 -44.777  1.00  0.00     0.000 A 
ENDBRANCH   2   6
TORSDOF 2
ENDMDL
MODEL 8
REMARK VINA RESULT:    -3.665      3.056      3.720
REMARK INTER + INTRA:          -4.222
REMARK INTER:                  -4.091
REMARK INTRA:                  -0.131
REMARK UNBOUND:                -0.129
REMARK SMILES O=C([O-])C=Cc1ccccc1
REMARK SMILES IDX 4 1 5 2 2 3 1 4 3 5 6 6 7 7 11 8 8 9 10 10 9 11
REMARK H PARENT
REMARK Flexibility Score: inf
ROOT
ATOM      1  C   UNL     1    -113.475  -3.895 -46.369  1.00  0.00     0.025 C 
ATOM      2  C   UNL     1    -113.435  -3.849 -47.709  1.00  0.00     0.010 C 
ENDROOT
BRANCH   1   3
ATOM      3  C   UNL     1    -113.077  -2.750 -45.533  1.00  0.00     0.064 C 
ATOM      4  O   UNL     1    -111.904  -2.649 -45.081  1.00  0.00    -0.545 OA
ATOM      5  O   UNL     1    -114.007  -1.764 -45.237  1.00  0.00    -0.545 OA
ENDBRANCH   1   3
BRANCH   2   6
ATOM      6  C   UNL     1    -113.823  -4.969 -48.609  1.00  0.00    -0.026 A 
ATOM      7  C   UNL     1    -115.173  -5.369 -48.625  1.00  0.00     0.008 A 
ATOM      8  C   UNL     1    -112.908  -5.647 -49.445  1.00  0.00     0.008 A 
ATOM      9  C   UNL     1    -115.598  -6.415 -49.450  1.00  0.00     0.001 A 
ATOM     10  C   UNL     1    -113.341  -6.693 -50.268  1.00  0.00     0.001 A 
ATOM     11  C   UNL     1    -114.683  -7.077 -50.270  1.00  0.00     0.000 A 
ENDBRANCH   2   6
TORSDOF 2
ENDMDL
