MODEL 1
REMARK VINA RESULT:    -5.431      0.000      0.000
REMARK INTER + INTRA:         -12.848
REMARK INTER:                 -10.510
REMARK INTRA:                  -2.338
REMARK UNBOUND:                -2.338
REMARK SMILES CCCCCCCCCCCCCCCCCC(=O)[O-]
REMARK SMILES IDX 10 1 11 2 12 3 13 4 14 5 15 6 16 7 17 8 18 9 19 10 20 11
REMARK SMILES IDX 9 12 8 13 7 14 6 15 5 16 4 17 3 18 2 19 1 20
REMARK H PARENT
REMARK Flexibility Score: inf
ROOT
ATOM      1  C   UNL     1     -95.472 -61.513 -69.793  1.00  0.00     0.000 C 
ENDROOT
BRANCH   1   2
ATOM      2  C   UNL     1     -94.358 -62.565 -69.942  1.00  0.00     0.000 C 
BRANCH   2   3
ATOM      3  C   UNL     1     -93.289 -62.457 -68.841  1.00  0.00     0.000 C 
BRANCH   3   4
ATOM      4  C   UNL     1     -93.632 -63.295 -67.599  1.00  0.00     0.000 C 
BRANCH   4   5
ATOM      5  C   UNL     1     -93.575 -62.473 -66.300  1.00  0.00     0.000 C 
BRANCH   5   6
ATOM      6  C   UNL     1     -93.979 -61.002 -66.503  1.00  0.00     0.000 C 
BRANCH   6   7
ATOM      7  C   UNL     1     -95.487 -60.711 -66.368  1.00  0.00     0.006 C 
BRANCH   7   8
ATOM      8  C   UNL     1     -96.259 -61.716 -65.499  1.00  0.00     0.053 C 
BRANCH   8   9
ATOM      9  C   UNL     1     -97.086 -61.035 -64.451  1.00  0.00     0.041 C 
ATOM     10  O   UNL     1     -97.993 -61.668 -63.851  1.00  0.00    -0.550 OA
ATOM     11  O   UNL     1     -96.874 -59.693 -64.162  1.00  0.00    -0.550 OA
ENDBRANCH   8   9
ENDBRANCH   7   8
ENDBRANCH   6   7
ENDBRANCH   5   6
ENDBRANCH   4   5
ENDBRANCH   3   4
ENDBRANCH   2   3
ENDBRANCH   1   2
BRANCH   1  12
ATOM     12  C   UNL     1     -96.886 -62.012 -70.151  1.00  0.00     0.000 C 
BRANCH  12  13
ATOM     13  C   UNL     1     -97.914 -61.951 -69.004  1.00  0.00    -0.000 C 
BRANCH  13  14
ATOM     14  C   UNL     1     -99.129 -62.881 -69.172  1.00  0.00    -0.000 C 
BRANCH  14  15
ATOM     15  C   UNL     1    -100.240 -62.601 -68.147  1.00  0.00    -0.000 C 
BRANCH  15  16
ATOM     16  C   UNL     1     -99.726 -61.823 -66.920  1.00  0.00    -0.000 C 
BRANCH  16  17
ATOM     17  C   UNL     1    -100.745 -60.823 -66.337  1.00  0.00    -0.000 C 
BRANCH  17  18
ATOM     18  C   UNL     1    -100.262 -59.357 -66.335  1.00  0.00    -0.000 C 
BRANCH  18  19
ATOM     19  C   UNL     1     -99.084 -59.095 -67.290  1.00  0.00    -0.003 C 
ATOM     20  C   UNL     1     -98.123 -58.034 -66.751  1.00  0.00     0.004 C 
ENDBRANCH  18  19
ENDBRANCH  17  18
ENDBRANCH  16  17
ENDBRANCH  15  16
ENDBRANCH  14  15
ENDBRANCH  13  14
ENDBRANCH  12  13
ENDBRANCH   1  12
TORSDOF 16
ENDMDL
MODEL 2
REMARK VINA RESULT:    -5.419      0.980      5.183
REMARK INTER + INTRA:         -12.826
REMARK INTER:                 -10.465
REMARK INTRA:                  -2.361
REMARK UNBOUND:                -2.338
REMARK SMILES CCCCCCCCCCCCCCCCCC(=O)[O-]
REMARK SMILES IDX 10 1 11 2 12 3 13 4 14 5 15 6 16 7 17 8 18 9 19 10 20 11
REMARK SMILES IDX 9 12 8 13 7 14 6 15 5 16 4 17 3 18 2 19 1 20
REMARK H PARENT
REMARK Flexibility Score: inf
ROOT
ATOM      1  C   UNL     1     -99.811 -61.828 -67.120  1.00  0.00     0.000 C 
ENDROOT
BRANCH   1   2
ATOM      2  C   UNL     1    -100.988 -60.899 -66.773  1.00  0.00     0.000 C 
BRANCH   2   3
ATOM      3  C   UNL     1    -100.528 -59.512 -66.292  1.00  0.00     0.000 C 
BRANCH   3   4
ATOM      4  C   UNL     1     -99.563 -58.834 -67.278  1.00  0.00     0.000 C 
BRANCH   4   5
ATOM      5  C   UNL     1     -98.289 -58.313 -66.591  1.00  0.00     0.000 C 
BRANCH   5   6
ATOM      6  C   UNL     1     -97.015 -59.038 -67.062  1.00  0.00     0.000 C 
BRANCH   6   7
ATOM      7  C   UNL     1     -96.433 -60.059 -66.063  1.00  0.00     0.006 C 
BRANCH   7   8
ATOM      8  C   UNL     1     -97.099 -60.050 -64.678  1.00  0.00     0.053 C 
BRANCH   8   9
ATOM      9  C   UNL     1     -97.420 -61.434 -64.200  1.00  0.00     0.041 C 
ATOM     10  O   UNL     1     -96.528 -62.323 -64.191  1.00  0.00    -0.550 OA
ATOM     11  O   UNL     1     -98.711 -61.749 -63.795  1.00  0.00    -0.550 OA
ENDBRANCH   8   9
ENDBRANCH   7   8
ENDBRANCH   6   7
ENDBRANCH   5   6
ENDBRANCH   4   5
ENDBRANCH   3   4
ENDBRANCH   2   3
ENDBRANCH   1   2
BRANCH   1  12
ATOM     12  C   UNL     1    -100.021 -62.700 -68.374  1.00  0.00     0.000 C 
BRANCH  12  13
ATOM     13  C   UNL     1     -98.830 -62.742 -69.351  1.00  0.00    -0.000 C 
BRANCH  13  14
ATOM     14  C   UNL     1     -97.643 -61.841 -68.965  1.00  0.00    -0.000 C 
BRANCH  14  15
ATOM     15  C   UNL     1     -96.966 -61.193 -70.184  1.00  0.00    -0.000 C 
BRANCH  15  16
ATOM     16  C   UNL     1     -95.447 -61.452 -70.221  1.00  0.00    -0.000 C 
BRANCH  16  17
ATOM     17  C   UNL     1     -94.849 -61.875 -68.865  1.00  0.00    -0.000 C 
BRANCH  17  18
ATOM     18  C   UNL     1     -93.737 -62.941 -68.969  1.00  0.00    -0.000 C 
BRANCH  18  19
ATOM     19  C   UNL     1     -93.140 -63.344 -67.609  1.00  0.00    -0.003 C 
ATOM     20  C   UNL     1     -93.776 -62.582 -66.446  1.00  0.00     0.004 C 
ENDBRANCH  18  19
ENDBRANCH  17  18
ENDBRANCH  16  17
ENDBRANCH  15  16
ENDBRANCH  14  15
ENDBRANCH  13  14
ENDBRANCH  12  13
ENDBRANCH   1  12
TORSDOF 16
ENDMDL
MODEL 3
REMARK VINA RESULT:    -5.365      2.478      4.296
REMARK INTER + INTRA:         -12.721
REMARK INTER:                 -10.323
REMARK INTRA:                  -2.398
REMARK UNBOUND:                -2.338
REMARK SMILES CCCCCCCCCCCCCCCCCC(=O)[O-]
REMARK SMILES IDX 10 1 11 2 12 3 13 4 14 5 15 6 16 7 17 8 18 9 19 10 20 11
REMARK SMILES IDX 9 12 8 13 7 14 6 15 5 16 4 17 3 18 2 19 1 20
REMARK H PARENT
REMARK Flexibility Score: inf
ROOT
ATOM      1  C   UNL     1     -97.056 -61.111 -64.518  1.00  0.00     0.000 C 
ENDROOT
BRANCH   1   2
ATOM      2  C   UNL     1     -95.906 -62.082 -64.841  1.00  0.00     0.000 C 
BRANCH   2   3
ATOM      3  C   UNL     1     -95.385 -61.927 -66.281  1.00  0.00     0.000 C 
BRANCH   3   4
ATOM      4  C   UNL     1     -94.154 -61.012 -66.370  1.00  0.00     0.000 C 
BRANCH   4   5
ATOM      5  C   UNL     1     -92.914 -61.743 -66.912  1.00  0.00     0.000 C 
BRANCH   5   6
ATOM      6  C   UNL     1     -93.137 -63.257 -67.081  1.00  0.00     0.000 C 
BRANCH   6   7
ATOM      7  C   UNL     1     -93.206 -63.752 -68.540  1.00  0.00     0.006 C 
BRANCH   7   8
ATOM      8  C   UNL     1     -93.292 -62.634 -69.592  1.00  0.00     0.053 C 
BRANCH   8   9
ATOM      9  C   UNL     1     -94.661 -62.530 -70.191  1.00  0.00     0.041 C 
ATOM     10  O   UNL     1     -95.046 -63.376 -71.041  1.00  0.00    -0.550 OA
ATOM     11  O   UNL     1     -95.500 -61.482 -69.834  1.00  0.00    -0.550 OA
ENDBRANCH   8   9
ENDBRANCH   7   8
ENDBRANCH   6   7
ENDBRANCH   5   6
ENDBRANCH   4   5
ENDBRANCH   3   4
ENDBRANCH   2   3
ENDBRANCH   1   2
BRANCH   1  12
ATOM     12  C   UNL     1     -98.236 -61.738 -63.749  1.00  0.00     0.000 C 
BRANCH  12  13
ATOM     13  C   UNL     1     -99.590 -61.707 -64.485  1.00  0.00    -0.000 C 
BRANCH  13  14
ATOM     14  C   UNL     1     -99.688 -62.646 -65.701  1.00  0.00    -0.000 C 
BRANCH  14  15
ATOM     15  C   UNL     1    -100.022 -61.901 -67.004  1.00  0.00    -0.000 C 
BRANCH  15  16
ATOM     16  C   UNL     1     -98.783 -61.697 -67.898  1.00  0.00    -0.000 C 
BRANCH  16  17
ATOM     17  C   UNL     1     -98.197 -60.271 -67.845  1.00  0.00    -0.000 C 
BRANCH  17  18
ATOM     18  C   UNL     1     -99.098 -59.244 -67.127  1.00  0.00    -0.000 C 
BRANCH  18  19
ATOM     19  C   UNL     1     -98.378 -57.928 -66.781  1.00  0.00    -0.003 C 
ATOM     20  C   UNL     1     -96.984 -58.164 -66.197  1.00  0.00     0.004 C 
ENDBRANCH  18  19
ENDBRANCH  17  18
ENDBRANCH  16  17
ENDBRANCH  15  16
ENDBRANCH  14  15
ENDBRANCH  13  14
ENDBRANCH  12  13
ENDBRANCH   1  12
TORSDOF 16
ENDMDL
MODEL 4
REMARK VINA RESULT:    -5.352      1.667      5.299
REMARK INTER + INTRA:         -12.697
REMARK INTER:                 -10.650
REMARK INTRA:                  -2.047
REMARK UNBOUND:                -2.338
REMARK SMILES CCCCCCCCCCCCCCCCCC(=O)[O-]
REMARK SMILES IDX 10 1 11 2 12 3 13 4 14 5 15 6 16 7 17 8 18 9 19 10 20 11
REMARK SMILES IDX 9 12 8 13 7 14 6 15 5 16 4 17 3 18 2 19 1 20
REMARK H PARENT
REMARK Flexibility Score: inf
ROOT
ATOM      1  C   UNL     1    -101.032 -61.881 -67.493  1.00  0.00     0.000 C 
ENDROOT
BRANCH   1   2
ATOM      2  C   UNL     1    -100.536 -60.717 -66.617  1.00  0.00     0.000 C 
BRANCH   2   3
ATOM      3  C   UNL     1    -100.574 -61.047 -65.115  1.00  0.00     0.000 C 
BRANCH   3   4
ATOM      4  C   UNL     1     -99.667 -62.231 -64.745  1.00  0.00     0.000 C 
BRANCH   4   5
ATOM      5  C   UNL     1     -98.464 -61.806 -63.886  1.00  0.00     0.000 C 
BRANCH   5   6
ATOM      6  C   UNL     1     -97.205 -61.512 -64.722  1.00  0.00     0.000 C 
BRANCH   6   7
ATOM      7  C   UNL     1     -96.911 -60.017 -64.962  1.00  0.00     0.006 C 
BRANCH   7   8
ATOM      8  C   UNL     1     -96.998 -59.574 -66.431  1.00  0.00     0.053 C 
BRANCH   8   9
ATOM      9  C   UNL     1     -97.653 -58.235 -66.577  1.00  0.00     0.041 C 
ATOM     10  O   UNL     1     -97.224 -57.246 -65.926  1.00  0.00    -0.550 OA
ATOM     11  O   UNL     1     -98.758 -58.087 -67.407  1.00  0.00    -0.550 OA
ENDBRANCH   8   9
ENDBRANCH   7   8
ENDBRANCH   6   7
ENDBRANCH   5   6
ENDBRANCH   4   5
ENDBRANCH   3   4
ENDBRANCH   2   3
ENDBRANCH   1   2
BRANCH   1  12
ATOM     12  C   UNL     1     -99.936 -62.585 -68.318  1.00  0.00     0.000 C 
BRANCH  12  13
ATOM     13  C   UNL     1     -98.551 -61.908 -68.282  1.00  0.00    -0.000 C 
BRANCH  13  14
ATOM     14  C   UNL     1     -97.700 -62.108 -69.548  1.00  0.00    -0.000 C 
BRANCH  14  15
ATOM     15  C   UNL     1     -96.681 -60.976 -69.765  1.00  0.00    -0.000 C 
BRANCH  15  16
ATOM     16  C   UNL     1     -95.311 -61.501 -70.238  1.00  0.00    -0.000 C 
BRANCH  16  17
ATOM     17  C   UNL     1     -94.537 -62.294 -69.167  1.00  0.00    -0.000 C 
BRANCH  17  18
ATOM     18  C   UNL     1     -94.558 -61.649 -67.764  1.00  0.00    -0.000 C 
BRANCH  18  19
ATOM     19  C   UNL     1     -93.936 -62.534 -66.670  1.00  0.00    -0.003 C 
ATOM     20  C   UNL     1     -93.174 -63.727 -67.249  1.00  0.00     0.004 C 
ENDBRANCH  18  19
ENDBRANCH  17  18
ENDBRANCH  16  17
ENDBRANCH  15  16
ENDBRANCH  14  15
ENDBRANCH  13  14
ENDBRANCH  12  13
ENDBRANCH   1  12
TORSDOF 16
ENDMDL
MODEL 5
REMARK VINA RESULT:    -5.263      2.692      5.344
REMARK INTER + INTRA:         -12.524
REMARK INTER:                 -10.295
REMARK INTRA:                  -2.229
REMARK UNBOUND:                -2.338
REMARK SMILES CCCCCCCCCCCCCCCCCC(=O)[O-]
REMARK SMILES IDX 10 1 11 2 12 3 13 4 14 5 15 6 16 7 17 8 18 9 19 10 20 11
REMARK SMILES IDX 9 12 8 13 7 14 6 15 5 16 4 17 3 18 2 19 1 20
REMARK H PARENT
REMARK Flexibility Score: inf
ROOT
ATOM      1  C   UNL     1    -100.513 -60.537 -66.680  1.00  0.00     0.000 C 
ENDROOT
BRANCH   1   2
ATOM      2  C   UNL     1    -101.069 -61.658 -67.576  1.00  0.00     0.000 C 
BRANCH   2   3
ATOM      3  C   UNL     1     -99.965 -62.568 -68.144  1.00  0.00     0.000 C 
BRANCH   3   4
ATOM      4  C   UNL     1     -98.580 -61.903 -68.118  1.00  0.00     0.000 C 
BRANCH   4   5
ATOM      5  C   UNL     1     -97.816 -62.082 -69.442  1.00  0.00     0.000 C 
BRANCH   5   6
ATOM      6  C   UNL     1     -96.607 -61.138 -69.568  1.00  0.00     0.000 C 
BRANCH   6   7
ATOM      7  C   UNL     1     -95.278 -61.698 -69.021  1.00  0.00     0.006 C 
BRANCH   7   8
ATOM      8  C   UNL     1     -94.320 -62.239 -70.095  1.00  0.00     0.053 C 
BRANCH   8   9
ATOM      9  C   UNL     1     -93.564 -63.442 -69.619  1.00  0.00     0.041 C 
ATOM     10  O   UNL     1     -93.332 -64.396 -70.407  1.00  0.00    -0.550 OA
ATOM     11  O   UNL     1     -93.144 -63.521 -68.297  1.00  0.00    -0.550 OA
ENDBRANCH   8   9
ENDBRANCH   7   8
ENDBRANCH   6   7
ENDBRANCH   5   6
ENDBRANCH   4   5
ENDBRANCH   3   4
ENDBRANCH   2   3
ENDBRANCH   1   2
BRANCH   1  12
ATOM     12  C   UNL     1    -101.128 -60.471 -65.268  1.00  0.00     0.000 C 
BRANCH  12  13
ATOM     13  C   UNL     1    -100.661 -61.575 -64.297  1.00  0.00    -0.000 C 
BRANCH  13  14
ATOM     14  C   UNL     1     -99.317 -62.230 -64.660  1.00  0.00    -0.000 C 
BRANCH  14  15
ATOM     15  C   UNL     1     -98.144 -61.682 -63.830  1.00  0.00    -0.000 C 
BRANCH  15  16
ATOM     16  C   UNL     1     -96.774 -62.048 -64.435  1.00  0.00    -0.000 C 
BRANCH  16  17
ATOM     17  C   UNL     1     -96.245 -61.023 -65.458  1.00  0.00    -0.000 C 
BRANCH  17  18
ATOM     18  C   UNL     1     -96.908 -59.632 -65.361  1.00  0.00    -0.000 C 
BRANCH  18  19
ATOM     19  C   UNL     1     -97.016 -58.906 -66.713  1.00  0.00    -0.003 C 
ATOM     20  C   UNL     1     -98.178 -57.912 -66.748  1.00  0.00     0.004 C 
ENDBRANCH  18  19
ENDBRANCH  17  18
ENDBRANCH  16  17
ENDBRANCH  15  16
ENDBRANCH  14  15
ENDBRANCH  13  14
ENDBRANCH  12  13
ENDBRANCH   1  12
TORSDOF 16
ENDMDL
MODEL 6
REMARK VINA RESULT:    -5.242      2.976      6.318
REMARK INTER + INTRA:         -12.483
REMARK INTER:                 -10.366
REMARK INTRA:                  -2.117
REMARK UNBOUND:                -2.338
REMARK SMILES CCCCCCCCCCCCCCCCCC(=O)[O-]
REMARK SMILES IDX 10 1 11 2 12 3 13 4 14 5 15 6 16 7 17 8 18 9 19 10 20 11
REMARK SMILES IDX 9 12 8 13 7 14 6 15 5 16 4 17 3 18 2 19 1 20
REMARK H PARENT
REMARK Flexibility Score: inf
ROOT
ATOM      1  C   UNL     1    -100.925 -60.484 -65.650  1.00  0.00     0.000 C 
ENDROOT
BRANCH   1   2
ATOM      2  C   UNL     1    -100.155 -60.613 -66.976  1.00  0.00     0.000 C 
BRANCH   2   3
ATOM      3  C   UNL     1     -99.171 -59.452 -67.205  1.00  0.00     0.000 C 
BRANCH   3   4
ATOM      4  C   UNL     1     -97.906 -59.890 -67.961  1.00  0.00     0.000 C 
BRANCH   4   5
ATOM      5  C   UNL     1     -97.891 -61.399 -68.260  1.00  0.00     0.000 C 
BRANCH   5   6
ATOM      6  C   UNL     1     -97.398 -61.723 -69.682  1.00  0.00     0.000 C 
BRANCH   6   7
ATOM      7  C   UNL     1     -96.025 -61.127 -70.053  1.00  0.00     0.006 C 
BRANCH   7   8
ATOM      8  C   UNL     1     -94.855 -62.121 -69.982  1.00  0.00     0.053 C 
BRANCH   8   9
ATOM      9  C   UNL     1     -94.570 -62.749 -71.313  1.00  0.00     0.041 C 
ATOM     10  O   UNL     1     -93.762 -62.203 -72.109  1.00  0.00    -0.550 OA
ATOM     11  O   UNL     1     -95.220 -63.919 -71.684  1.00  0.00    -0.550 OA
ENDBRANCH   8   9
ENDBRANCH   7   8
ENDBRANCH   6   7
ENDBRANCH   5   6
ENDBRANCH   4   5
ENDBRANCH   3   4
ENDBRANCH   2   3
ENDBRANCH   1   2
BRANCH   1  12
ATOM     12  C   UNL     1    -100.357 -61.322 -64.487  1.00  0.00     0.000 C 
BRANCH  12  13
ATOM     13  C   UNL     1     -99.174 -62.239 -64.856  1.00  0.00    -0.000 C 
BRANCH  13  14
ATOM     14  C   UNL     1     -97.893 -62.004 -64.036  1.00  0.00    -0.000 C 
BRANCH  14  15
ATOM     15  C   UNL     1     -96.931 -61.009 -64.705  1.00  0.00    -0.000 C 
BRANCH  15  16
ATOM     16  C   UNL     1     -95.664 -61.693 -65.255  1.00  0.00    -0.000 C 
BRANCH  16  17
ATOM     17  C   UNL     1     -95.004 -60.944 -66.430  1.00  0.00    -0.000 C 
BRANCH  17  18
ATOM     18  C   UNL     1     -93.472 -61.118 -66.509  1.00  0.00    -0.000 C 
BRANCH  18  19
ATOM     19  C   UNL     1     -92.981 -62.493 -66.023  1.00  0.00    -0.003 C 
ATOM     20  C   UNL     1     -93.066 -63.561 -67.114  1.00  0.00     0.004 C 
ENDBRANCH  18  19
ENDBRANCH  17  18
ENDBRANCH  16  17
ENDBRANCH  15  16
ENDBRANCH  14  15
ENDBRANCH  13  14
ENDBRANCH  12  13
ENDBRANCH   1  12
TORSDOF 16
ENDMDL
MODEL 7
REMARK VINA RESULT:    -5.224      2.013      3.879
REMARK INTER + INTRA:         -12.449
REMARK INTER:                 -10.552
REMARK INTRA:                  -1.897
REMARK UNBOUND:                -2.338
REMARK SMILES CCCCCCCCCCCCCCCCCC(=O)[O-]
REMARK SMILES IDX 10 1 11 2 12 3 13 4 14 5 15 6 16 7 17 8 18 9 19 10 20 11
REMARK SMILES IDX 9 12 8 13 7 14 6 15 5 16 4 17 3 18 2 19 1 20
REMARK H PARENT
REMARK Flexibility Score: inf
ROOT
ATOM      1  C   UNL     1     -96.028 -60.897 -65.843  1.00  0.00     0.000 C 
ENDROOT
BRANCH   1   2
ATOM      2  C   UNL     1     -95.140 -62.140 -65.652  1.00  0.00     0.000 C 
BRANCH   2   3
ATOM      3  C   UNL     1     -93.687 -61.905 -66.102  1.00  0.00     0.000 C 
BRANCH   3   4
ATOM      4  C   UNL     1     -93.548 -61.812 -67.630  1.00  0.00     0.000 C 
BRANCH   4   5
ATOM      5  C   UNL     1     -93.197 -63.165 -68.272  1.00  0.00     0.000 C 
BRANCH   5   6
ATOM      6  C   UNL     1     -93.642 -63.264 -69.742  1.00  0.00     0.000 C 
BRANCH   6   7
ATOM      7  C   UNL     1     -94.590 -62.143 -70.218  1.00  0.00     0.006 C 
BRANCH   7   8
ATOM      8  C   UNL     1     -96.021 -62.606 -70.535  1.00  0.00     0.053 C 
BRANCH   8   9
ATOM      9  C   UNL     1     -97.043 -61.859 -69.733  1.00  0.00     0.041 C 
ATOM     10  O   UNL     1     -96.781 -60.712 -69.285  1.00  0.00    -0.550 OA
ATOM     11  O   UNL     1     -98.273 -62.443 -69.456  1.00  0.00    -0.550 OA
ENDBRANCH   8   9
ENDBRANCH   7   8
ENDBRANCH   6   7
ENDBRANCH   5   6
ENDBRANCH   4   5
ENDBRANCH   3   4
ENDBRANCH   2   3
ENDBRANCH   1   2
BRANCH   1  12
ATOM     12  C   UNL     1     -96.970 -60.587 -64.662  1.00  0.00     0.000 C 
BRANCH  12  13
ATOM     13  C   UNL     1     -97.699 -61.807 -64.067  1.00  0.00    -0.000 C 
BRANCH  13  14
ATOM     14  C   UNL     1     -99.227 -61.805 -64.257  1.00  0.00    -0.000 C 
BRANCH  14  15
ATOM     15  C   UNL     1     -99.658 -62.380 -65.617  1.00  0.00    -0.000 C 
BRANCH  15  16
ATOM     16  C   UNL     1    -100.737 -61.520 -66.304  1.00  0.00    -0.000 C 
BRANCH  16  17
ATOM     17  C   UNL     1    -100.179 -60.503 -67.319  1.00  0.00    -0.000 C 
BRANCH  17  18
ATOM     18  C   UNL     1     -99.784 -59.145 -66.702  1.00  0.00    -0.000 C 
BRANCH  18  19
ATOM     19  C   UNL     1     -98.547 -58.506 -67.358  1.00  0.00    -0.003 C 
ATOM     20  C   UNL     1     -97.743 -57.651 -66.377  1.00  0.00     0.004 C 
ENDBRANCH  18  19
ENDBRANCH  17  18
ENDBRANCH  16  17
ENDBRANCH  15  16
ENDBRANCH  14  15
ENDBRANCH  13  14
ENDBRANCH  12  13
ENDBRANCH   1  12
TORSDOF 16
ENDMDL
MODEL 8
REMARK VINA RESULT:    -5.212      1.342      5.412
REMARK INTER + INTRA:         -12.424
REMARK INTER:                 -10.264
REMARK INTRA:                  -2.161
REMARK UNBOUND:                -2.338
REMARK SMILES CCCCCCCCCCCCCCCCCC(=O)[O-]
REMARK SMILES IDX 10 1 11 2 12 3 13 4 14 5 15 6 16 7 17 8 18 9 19 10 20 11
REMARK SMILES IDX 9 12 8 13 7 14 6 15 5 16 4 17 3 18 2 19 1 20
REMARK H PARENT
REMARK Flexibility Score: inf
ROOT
ATOM      1  C   UNL     1     -95.801 -61.541 -65.616  1.00  0.00     0.000 C 
ENDROOT
BRANCH   1   2
ATOM      2  C   UNL     1     -96.204 -60.265 -66.376  1.00  0.00     0.000 C 
BRANCH   2   3
ATOM      3  C   UNL     1     -96.899 -59.231 -65.473  1.00  0.00     0.000 C 
BRANCH   3   4
ATOM      4  C   UNL     1     -97.431 -58.022 -66.259  1.00  0.00     0.000 C 
BRANCH   4   5
ATOM      5  C   UNL     1     -98.301 -58.435 -67.459  1.00  0.00     0.000 C 
BRANCH   5   6
ATOM      6  C   UNL     1     -99.742 -58.796 -67.057  1.00  0.00     0.000 C 
BRANCH   6   7
ATOM      7  C   UNL     1    -100.036 -60.307 -66.952  1.00  0.00     0.006 C 
BRANCH   7   8
ATOM      8  C   UNL     1    -100.548 -60.765 -65.577  1.00  0.00     0.053 C 
BRANCH   8   9
ATOM      9  C   UNL     1     -99.686 -61.840 -64.987  1.00  0.00     0.041 C 
ATOM     10  O   UNL     1     -99.665 -62.988 -65.503  1.00  0.00    -0.550 OA
ATOM     11  O   UNL     1     -98.932 -61.581 -63.849  1.00  0.00    -0.550 OA
ENDBRANCH   8   9
ENDBRANCH   7   8
ENDBRANCH   6   7
ENDBRANCH   5   6
ENDBRANCH   4   5
ENDBRANCH   3   4
ENDBRANCH   2   3
ENDBRANCH   1   2
BRANCH   1  12
ATOM     12  C   UNL     1     -94.421 -62.113 -65.996  1.00  0.00     0.000 C 
BRANCH  12  13
ATOM     13  C   UNL     1     -94.093 -62.090 -67.502  1.00  0.00    -0.000 C 
BRANCH  13  14
ATOM     14  C   UNL     1     -93.091 -63.164 -67.963  1.00  0.00    -0.000 C 
BRANCH  14  15
ATOM     15  C   UNL     1     -93.338 -63.627 -69.409  1.00  0.00    -0.000 C 
BRANCH  15  16
ATOM     16  C   UNL     1     -93.888 -62.498 -70.302  1.00  0.00    -0.000 C 
BRANCH  16  17
ATOM     17  C   UNL     1     -95.002 -62.947 -71.269  1.00  0.00    -0.000 C 
BRANCH  17  18
ATOM     18  C   UNL     1     -96.149 -61.927 -71.430  1.00  0.00    -0.000 C 
BRANCH  18  19
ATOM     19  C   UNL     1     -96.459 -61.141 -70.144  1.00  0.00    -0.003 C 
ATOM     20  C   UNL     1     -97.514 -61.832 -69.279  1.00  0.00     0.004 C 
ENDBRANCH  18  19
ENDBRANCH  17  18
ENDBRANCH  16  17
ENDBRANCH  15  16
ENDBRANCH  14  15
ENDBRANCH  13  14
ENDBRANCH  12  13
ENDBRANCH   1  12
TORSDOF 16
ENDMDL
MODEL 9
REMARK VINA RESULT:    -5.096      1.995      5.414
REMARK INTER + INTRA:         -12.201
REMARK INTER:                 -10.005
REMARK INTRA:                  -2.196
REMARK UNBOUND:                -2.338
REMARK SMILES CCCCCCCCCCCCCCCCCC(=O)[O-]
REMARK SMILES IDX 10 1 11 2 12 3 13 4 14 5 15 6 16 7 17 8 18 9 19 10 20 11
REMARK SMILES IDX 9 12 8 13 7 14 6 15 5 16 4 17 3 18 2 19 1 20
REMARK H PARENT
REMARK Flexibility Score: inf
ROOT
ATOM      1  C   UNL     1     -97.797 -59.863 -67.890  1.00  0.00     0.000 C 
ENDROOT
BRANCH   1   2
ATOM      2  C   UNL     1     -97.242 -58.899 -66.825  1.00  0.00     0.000 C 
BRANCH   2   3
ATOM      3  C   UNL     1     -97.630 -59.310 -65.394  1.00  0.00     0.000 C 
BRANCH   3   4
ATOM      4  C   UNL     1     -96.675 -60.357 -64.799  1.00  0.00     0.000 C 
BRANCH   4   5
ATOM      5  C   UNL     1     -97.330 -61.743 -64.667  1.00  0.00     0.000 C 
BRANCH   5   6
ATOM      6  C   UNL     1     -98.604 -61.724 -63.804  1.00  0.00     0.000 C 
BRANCH   6   7
ATOM      7  C   UNL     1     -99.912 -62.049 -64.556  1.00  0.00     0.006 C 
BRANCH   7   8
ATOM      8  C   UNL     1     -99.716 -62.538 -65.999  1.00  0.00     0.053 C 
BRANCH   8   9
ATOM      9  C   UNL     1    -100.587 -61.796 -66.967  1.00  0.00     0.041 C 
ATOM     10  O   UNL     1    -101.174 -60.742 -66.610  1.00  0.00    -0.550 OA
ATOM     11  O   UNL     1    -100.773 -62.288 -68.253  1.00  0.00    -0.550 OA
ENDBRANCH   8   9
ENDBRANCH   7   8
ENDBRANCH   6   7
ENDBRANCH   5   6
ENDBRANCH   4   5
ENDBRANCH   3   4
ENDBRANCH   2   3
ENDBRANCH   1   2
BRANCH   1  12
ATOM     12  C   UNL     1     -96.864 -61.037 -68.249  1.00  0.00     0.000 C 
BRANCH  12  13
ATOM     13  C   UNL     1     -97.162 -61.723 -69.597  1.00  0.00    -0.000 C 
BRANCH  13  14
ATOM     14  C   UNL     1     -96.567 -61.017 -70.829  1.00  0.00    -0.000 C 
BRANCH  14  15
ATOM     15  C   UNL     1     -95.109 -61.422 -71.101  1.00  0.00    -0.000 C 
BRANCH  15  16
ATOM     16  C   UNL     1     -94.808 -62.868 -70.661  1.00  0.00    -0.000 C 
BRANCH  16  17
ATOM     17  C   UNL     1     -93.366 -63.087 -70.162  1.00  0.00    -0.000 C 
BRANCH  17  18
ATOM     18  C   UNL     1     -93.257 -63.371 -68.649  1.00  0.00    -0.000 C 
BRANCH  18  19
ATOM     19  C   UNL     1     -93.510 -62.133 -67.770  1.00  0.00    -0.003 C 
ATOM     20  C   UNL     1     -94.022 -62.502 -66.377  1.00  0.00     0.004 C 
ENDBRANCH  18  19
ENDBRANCH  17  18
ENDBRANCH  16  17
ENDBRANCH  15  16
ENDBRANCH  14  15
ENDBRANCH  13  14
ENDBRANCH  12  13
ENDBRANCH   1  12
TORSDOF 16
ENDMDL
