MODEL 1
REMARK VINA RESULT:    -3.365      0.000      0.000
REMARK INTER + INTRA:          -4.425
REMARK INTER:                  -4.152
REMARK INTRA:                  -0.272
REMARK UNBOUND:                -0.272
REMARK SMILES CCCCCC(C)=O
REMARK SMILES IDX 4 1 3 2 2 3 1 4 5 5 6 6 8 7 7 8
REMARK H PARENT
REMARK Flexibility Score: inf
ROOT
ATOM      1  C   UNL     1      -2.205   7.980   3.619  1.00  0.00     0.008 C 
ENDROOT
BRANCH   1   2
ATOM      2  C   UNL     1      -2.680   7.243   4.883  1.00  0.00     0.000 C 
BRANCH   2   3
ATOM      3  C   UNL     1      -2.443   8.055   6.165  1.00  0.00    -0.003 C 
ATOM      4  C   UNL     1      -1.259   7.501   6.954  1.00  0.00     0.004 C 
ENDBRANCH   2   3
ENDBRANCH   1   2
BRANCH   1   5
ATOM      5  C   UNL     1      -0.732   7.686   3.282  1.00  0.00     0.075 C 
BRANCH   5   6
ATOM      6  C   UNL     1      -0.353   6.223   3.370  1.00  0.00     0.129 C 
ATOM      7  O   UNL     1       0.405   5.874   4.263  1.00  0.00    -0.300 OA
ATOM      8  C   UNL     1      -0.868   5.183   2.413  1.00  0.00     0.087 C 
ENDBRANCH   5   6
ENDBRANCH   1   5
TORSDOF 4
ENDMDL
MODEL 2
REMARK VINA RESULT:    -3.239      1.827      3.430
REMARK INTER + INTRA:          -4.269
REMARK INTER:                  -3.979
REMARK INTRA:                  -0.290
REMARK UNBOUND:                -0.272
REMARK SMILES CCCCCC(C)=O
REMARK SMILES IDX 4 1 3 2 2 3 1 4 5 5 6 6 8 7 7 8
REMARK H PARENT
REMARK Flexibility Score: inf
ROOT
ATOM      1  C   UNL     1      -1.430   7.704   5.209  1.00  0.00     0.008 C 
ENDROOT
BRANCH   1   2
ATOM      2  C   UNL     1      -1.771   6.517   4.293  1.00  0.00     0.000 C 
BRANCH   2   3
ATOM      3  C   UNL     1      -1.039   6.582   2.944  1.00  0.00    -0.003 C 
ATOM      4  C   UNL     1      -0.634   5.188   2.472  1.00  0.00     0.004 C 
ENDBRANCH   2   3
ENDBRANCH   1   2
BRANCH   1   5
ATOM      5  C   UNL     1      -0.803   7.258   6.543  1.00  0.00     0.075 C 
BRANCH   5   6
ATOM      6  C   UNL     1       0.557   6.609   6.405  1.00  0.00     0.129 C 
ATOM      7  O   UNL     1       0.776   5.586   7.037  1.00  0.00    -0.300 OA
ATOM      8  C   UNL     1       1.646   7.162   5.528  1.00  0.00     0.087 C 
ENDBRANCH   5   6
ENDBRANCH   1   5
TORSDOF 4
ENDMDL
MODEL 3
REMARK VINA RESULT:    -3.236      2.261      3.339
REMARK INTER + INTRA:          -4.265
REMARK INTER:                  -4.169
REMARK INTRA:                  -0.097
REMARK UNBOUND:                -0.272
REMARK SMILES CCCCCC(C)=O
REMARK SMILES IDX 4 1 3 2 2 3 1 4 5 5 6 6 8 7 7 8
REMARK H PARENT
REMARK Flexibility Score: inf
ROOT
ATOM      1  C   UNL     1       0.264   8.647   3.854  1.00  0.00     0.008 C 
ENDROOT
BRANCH   1   2
ATOM      2  C   UNL     1       0.518   9.931   3.045  1.00  0.00     0.000 C 
BRANCH   2   3
ATOM      3  C   UNL     1       1.967  10.427   3.161  1.00  0.00    -0.003 C 
ATOM      4  C   UNL     1       2.684   9.758   4.331  1.00  0.00     0.004 C 
ENDBRANCH   2   3
ENDBRANCH   1   2
BRANCH   1   5
ATOM      5  C   UNL     1      -0.757   7.715   3.176  1.00  0.00     0.075 C 
BRANCH   5   6
ATOM      6  C   UNL     1      -0.472   6.240   3.362  1.00  0.00     0.129 C 
ATOM      7  O   UNL     1       0.108   5.886   4.377  1.00  0.00    -0.300 OA
ATOM      8  C   UNL     1      -0.869   5.195   2.356  1.00  0.00     0.087 C 
ENDBRANCH   5   6
ENDBRANCH   1   5
TORSDOF 4
ENDMDL
MODEL 4
REMARK VINA RESULT:    -3.193     12.948     14.826
REMARK INTER + INTRA:          -4.212
REMARK INTER:                  -4.032
REMARK INTRA:                  -0.180
REMARK UNBOUND:                -0.272
REMARK SMILES CCCCCC(C)=O
REMARK SMILES IDX 4 1 3 2 2 3 1 4 5 5 6 6 8 7 7 8
REMARK H PARENT
REMARK Flexibility Score: inf
ROOT
ATOM      1  C   UNL     1       8.150  -4.132   0.184  1.00  0.00     0.008 C 
ENDROOT
BRANCH   1   2
ATOM      2  C   UNL     1       7.650  -2.808   0.784  1.00  0.00     0.000 C 
BRANCH   2   3
ATOM      3  C   UNL     1       7.167  -2.961   2.234  1.00  0.00    -0.003 C 
ATOM      4  C   UNL     1       6.775  -1.610   2.827  1.00  0.00     0.004 C 
ENDBRANCH   2   3
ENDBRANCH   1   2
BRANCH   1   5
ATOM      5  C   UNL     1       7.913  -5.332   1.119  1.00  0.00     0.075 C 
BRANCH   5   6
ATOM      6  C   UNL     1       6.827  -6.278   0.656  1.00  0.00     0.129 C 
ATOM      7  O   UNL     1       5.707  -6.148   1.128  1.00  0.00    -0.300 OA
ATOM      8  C   UNL     1       7.062  -7.366  -0.355  1.00  0.00     0.087 C 
ENDBRANCH   5   6
ENDBRANCH   1   5
TORSDOF 4
ENDMDL
MODEL 5
REMARK VINA RESULT:    -3.133      1.640      2.299
REMARK INTER + INTRA:          -4.138
REMARK INTER:                  -3.846
REMARK INTRA:                  -0.291
REMARK UNBOUND:                -0.272
REMARK SMILES CCCCCC(C)=O
REMARK SMILES IDX 4 1 3 2 2 3 1 4 5 5 6 6 8 7 7 8
REMARK H PARENT
REMARK Flexibility Score: inf
ROOT
ATOM      1  C   UNL     1       0.286   8.086   4.564  1.00  0.00     0.008 C 
ENDROOT
BRANCH   1   2
ATOM      2  C   UNL     1       1.165   6.943   5.098  1.00  0.00     0.000 C 
BRANCH   2   3
ATOM      3  C   UNL     1       0.754   6.489   6.507  1.00  0.00    -0.003 C 
ATOM      4  C   UNL     1      -0.473   7.255   6.994  1.00  0.00     0.004 C 
ENDBRANCH   2   3
ENDBRANCH   1   2
BRANCH   1   5
ATOM      5  C   UNL     1      -0.474   7.697   3.283  1.00  0.00     0.075 C 
BRANCH   5   6
ATOM      6  C   UNL     1      -1.127   6.333   3.336  1.00  0.00     0.129 C 
ATOM      7  O   UNL     1      -2.042   6.160   4.126  1.00  0.00    -0.300 OA
ATOM      8  C   UNL     1      -0.702   5.186   2.461  1.00  0.00     0.087 C 
ENDBRANCH   5   6
ENDBRANCH   1   5
TORSDOF 4
ENDMDL
MODEL 6
REMARK VINA RESULT:    -3.125     13.722     15.745
REMARK INTER + INTRA:          -4.129
REMARK INTER:                  -3.945
REMARK INTRA:                  -0.184
REMARK UNBOUND:                -0.272
REMARK SMILES CCCCCC(C)=O
REMARK SMILES IDX 4 1 3 2 2 3 1 4 5 5 6 6 8 7 7 8
REMARK H PARENT
REMARK Flexibility Score: inf
ROOT
ATOM      1  C   UNL     1       8.471  -5.320   0.330  1.00  0.00     0.008 C 
ENDROOT
BRANCH   1   2
ATOM      2  C   UNL     1       8.400  -3.995  -0.448  1.00  0.00     0.000 C 
BRANCH   2   3
ATOM      3  C   UNL     1       8.391  -2.767   0.474  1.00  0.00    -0.003 C 
ATOM      4  C   UNL     1       7.275  -2.866   1.510  1.00  0.00     0.004 C 
ENDBRANCH   2   3
ENDBRANCH   1   2
BRANCH   1   5
ATOM      5  C   UNL     1       7.641  -6.436  -0.328  1.00  0.00     0.075 C 
BRANCH   5   6
ATOM      6  C   UNL     1       6.468  -6.912   0.501  1.00  0.00     0.129 C 
ATOM      7  O   UNL     1       5.756  -6.072   1.031  1.00  0.00    -0.300 OA
ATOM      8  C   UNL     1       6.140  -8.366   0.700  1.00  0.00     0.087 C 
ENDBRANCH   5   6
ENDBRANCH   1   5
TORSDOF 4
ENDMDL
MODEL 7
REMARK VINA RESULT:    -3.104     13.949     15.343
REMARK INTER + INTRA:          -4.102
REMARK INTER:                  -3.881
REMARK INTRA:                  -0.221
REMARK UNBOUND:                -0.272
REMARK SMILES CCCCCC(C)=O
REMARK SMILES IDX 4 1 3 2 2 3 1 4 5 5 6 6 8 7 7 8
REMARK H PARENT
REMARK Flexibility Score: inf
ROOT
ATOM      1  C   UNL     1       7.179  -4.193   1.956  1.00  0.00     0.008 C 
ENDROOT
BRANCH   1   2
ATOM      2  C   UNL     1       7.296  -2.998   0.994  1.00  0.00     0.000 C 
BRANCH   2   3
ATOM      3  C   UNL     1       8.458  -3.149   0.002  1.00  0.00    -0.003 C 
ATOM      4  C   UNL     1       9.647  -2.283   0.413  1.00  0.00     0.004 C 
ENDBRANCH   2   3
ENDBRANCH   1   2
BRANCH   1   5
ATOM      5  C   UNL     1       7.805  -5.476   1.382  1.00  0.00     0.075 C 
BRANCH   5   6
ATOM      6  C   UNL     1       6.823  -6.388   0.679  1.00  0.00     0.129 C 
ATOM      7  O   UNL     1       5.660  -6.382   1.052  1.00  0.00    -0.300 OA
ATOM      8  C   UNL     1       7.213  -7.296  -0.454  1.00  0.00     0.087 C 
ENDBRANCH   5   6
ENDBRANCH   1   5
TORSDOF 4
ENDMDL
MODEL 8
REMARK VINA RESULT:    -3.102      2.211      3.680
REMARK INTER + INTRA:          -4.099
REMARK INTER:                  -3.847
REMARK INTRA:                  -0.252
REMARK UNBOUND:                -0.272
REMARK SMILES CCCCCC(C)=O
REMARK SMILES IDX 4 1 3 2 2 3 1 4 5 5 6 6 8 7 7 8
REMARK H PARENT
REMARK Flexibility Score: inf
ROOT
ATOM      1  C   UNL     1      -0.391   6.502   5.234  1.00  0.00     0.008 C 
ENDROOT
BRANCH   1   2
ATOM      2  C   UNL     1      -1.493   6.689   4.178  1.00  0.00     0.000 C 
BRANCH   2   3
ATOM      3  C   UNL     1      -0.978   6.502   2.744  1.00  0.00    -0.003 C 
ATOM      4  C   UNL     1      -0.760   5.025   2.427  1.00  0.00     0.004 C 
ENDBRANCH   2   3
ENDBRANCH   1   2
BRANCH   1   5
ATOM      5  C   UNL     1       0.909   7.241   4.867  1.00  0.00     0.075 C 
BRANCH   5   6
ATOM      6  C   UNL     1       0.804   8.750   4.923  1.00  0.00     0.129 C 
ATOM      7  O   UNL     1       0.585   9.275   6.005  1.00  0.00    -0.300 OA
ATOM      8  C   UNL     1       0.957   9.628   3.712  1.00  0.00     0.087 C 
ENDBRANCH   5   6
ENDBRANCH   1   5
TORSDOF 4
ENDMDL
MODEL 9
REMARK VINA RESULT:    -3.065      3.005      4.259
REMARK INTER + INTRA:          -4.055
REMARK INTER:                  -3.907
REMARK INTRA:                  -0.148
REMARK UNBOUND:                -0.272
REMARK SMILES CCCCCC(C)=O
REMARK SMILES IDX 4 1 3 2 2 3 1 4 5 5 6 6 8 7 7 8
REMARK H PARENT
REMARK Flexibility Score: inf
ROOT
ATOM      1  C   UNL     1       0.376   7.900   5.098  1.00  0.00     0.008 C 
ENDROOT
BRANCH   1   2
ATOM      2  C   UNL     1       0.316   6.538   4.387  1.00  0.00     0.000 C 
BRANCH   2   3
ATOM      3  C   UNL     1      -0.692   6.519   3.229  1.00  0.00    -0.003 C 
ATOM      4  C   UNL     1      -0.671   5.176   2.505  1.00  0.00     0.004 C 
ENDBRANCH   2   3
ENDBRANCH   1   2
BRANCH   1   5
ATOM      5  C   UNL     1       0.964   9.007   4.204  1.00  0.00     0.075 C 
BRANCH   5   6
ATOM      6  C   UNL     1       2.431   9.289   4.445  1.00  0.00     0.129 C 
ATOM      7  O   UNL     1       2.991  10.097   3.720  1.00  0.00    -0.300 OA
ATOM      8  C   UNL     1       3.227   8.623   5.533  1.00  0.00     0.087 C 
ENDBRANCH   5   6
ENDBRANCH   1   5
TORSDOF 4
ENDMDL
