MODEL 1
REMARK VINA RESULT:    -3.716      0.000      0.000
REMARK INTER + INTRA:         -12.626
REMARK INTER:                  -8.496
REMARK INTRA:                  -4.130
REMARK UNBOUND:                -4.130
REMARK SMILES CCCCCCCCCCCCCCCCCCCCCCCC(=O)[O-]
REMARK SMILES IDX 13 1 14 2 15 3 16 4 17 5 18 6 19 7 20 8 21 9 22 10 23 11
REMARK SMILES IDX 24 12 25 13 26 14 12 15 11 16 10 17 9 18 8 19 7 20 6 21 5 22
REMARK SMILES IDX 4 23 3 24 2 25 1 26
REMARK H PARENT
REMARK Flexibility Score: inf
ROOT
ATOM      1  C   UNL     1       4.121 130.173 112.791  1.00  0.00     0.000 C 
ENDROOT
BRANCH   1   2
ATOM      2  C   UNL     1       3.581 128.904 112.104  1.00  0.00     0.000 C 
BRANCH   2   3
ATOM      3  C   UNL     1       2.686 129.155 110.877  1.00  0.00     0.000 C 
BRANCH   3   4
ATOM      4  C   UNL     1       2.406 127.890 110.037  1.00  0.00     0.000 C 
BRANCH   4   5
ATOM      5  C   UNL     1       1.860 126.727 110.883  1.00  0.00     0.000 C 
BRANCH   5   6
ATOM      6  C   UNL     1       2.707 125.450 110.746  1.00  0.00     0.000 C 
BRANCH   6   7
ATOM      7  C   UNL     1       4.035 125.699 110.013  1.00  0.00     0.000 C 
BRANCH   7   8
ATOM      8  C   UNL     1       5.222 125.203 110.852  1.00  0.00     0.000 C 
BRANCH   8   9
ATOM      9  C   UNL     1       5.420 126.025 112.136  1.00  0.00     0.000 C 
BRANCH   9  10
ATOM     10  C   UNL     1       6.360 125.333 113.140  1.00  0.00     0.006 C 
BRANCH  10  11
ATOM     11  C   UNL     1       6.729 123.910 112.701  1.00  0.00     0.053 C 
BRANCH  11  12
ATOM     12  C   UNL     1       8.212 123.727 112.584  1.00  0.00     0.041 C 
ATOM     13  O   UNL     1       8.869 124.388 111.737  1.00  0.00    -0.550 OA
ATOM     14  O   UNL     1       8.871 122.841 113.428  1.00  0.00    -0.550 OA
ENDBRANCH  11  12
ENDBRANCH  10  11
ENDBRANCH   9  10
ENDBRANCH   8   9
ENDBRANCH   7   8
ENDBRANCH   6   7
ENDBRANCH   5   6
ENDBRANCH   4   5
ENDBRANCH   3   4
ENDBRANCH   2   3
ENDBRANCH   1   2
BRANCH   1  15
ATOM     15  C   UNL     1       5.264 129.940 113.796  1.00  0.00     0.000 C 
BRANCH  15  16
ATOM     16  C   UNL     1       5.020 130.615 115.154  1.00  0.00     0.000 C 
BRANCH  16  17
ATOM     17  C   UNL     1       5.505 129.722 116.306  1.00  0.00     0.000 C 
BRANCH  17  18
ATOM     18  C   UNL     1       5.960 128.332 115.832  1.00  0.00    -0.000 C 
BRANCH  18  19
ATOM     19  C   UNL     1       5.070 127.203 116.382  1.00  0.00    -0.000 C 
BRANCH  19  20
ATOM     20  C   UNL     1       3.850 127.732 117.153  1.00  0.00    -0.000 C 
BRANCH  20  21
ATOM     21  C   UNL     1       2.517 127.323 116.502  1.00  0.00    -0.000 C 
BRANCH  21  22
ATOM     22  C   UNL     1       2.627 127.149 114.976  1.00  0.00    -0.000 C 
BRANCH  22  23
ATOM     23  C   UNL     1       1.987 125.843 114.459  1.00  0.00    -0.000 C 
BRANCH  23  24
ATOM     24  C   UNL     1       2.997 124.682 114.417  1.00  0.00    -0.000 C 
BRANCH  24  25
ATOM     25  C   UNL     1       2.329 123.339 114.084  1.00  0.00    -0.003 C 
ATOM     26  C   UNL     1       0.985 123.517 113.378  1.00  0.00     0.004 C 
ENDBRANCH  24  25
ENDBRANCH  23  24
ENDBRANCH  22  23
ENDBRANCH  21  22
ENDBRANCH  20  21
ENDBRANCH  19  20
ENDBRANCH  18  19
ENDBRANCH  17  18
ENDBRANCH  16  17
ENDBRANCH  15  16
ENDBRANCH   1  15
TORSDOF 22
ENDMDL
MODEL 2
REMARK VINA RESULT:    -3.694      1.554      2.665
REMARK INTER + INTRA:         -12.575
REMARK INTER:                  -7.930
REMARK INTRA:                  -4.644
REMARK UNBOUND:                -4.130
REMARK SMILES CCCCCCCCCCCCCCCCCCCCCCCC(=O)[O-]
REMARK SMILES IDX 13 1 14 2 15 3 16 4 17 5 18 6 19 7 20 8 21 9 22 10 23 11
REMARK SMILES IDX 24 12 25 13 26 14 12 15 11 16 10 17 9 18 8 19 7 20 6 21 5 22
REMARK SMILES IDX 4 23 3 24 2 25 1 26
REMARK H PARENT
REMARK Flexibility Score: inf
ROOT
ATOM      1  C   UNL     1       5.024 128.228 112.897  1.00  0.00     0.000 C 
ENDROOT
BRANCH   1   2
ATOM      2  C   UNL     1       3.998 129.361 112.710  1.00  0.00     0.000 C 
BRANCH   2   3
ATOM      3  C   UNL     1       2.774 129.000 111.848  1.00  0.00     0.000 C 
BRANCH   3   4
ATOM      4  C   UNL     1       1.639 128.307 112.632  1.00  0.00     0.000 C 
BRANCH   4   5
ATOM      5  C   UNL     1       1.115 127.046 111.923  1.00  0.00     0.000 C 
BRANCH   5   6
ATOM      6  C   UNL     1       2.084 125.857 112.044  1.00  0.00     0.000 C 
BRANCH   6   7
ATOM      7  C   UNL     1       2.732 125.485 110.701  1.00  0.00     0.000 C 
BRANCH   7   8
ATOM      8  C   UNL     1       4.142 124.917 110.915  1.00  0.00     0.000 C 
BRANCH   8   9
ATOM      9  C   UNL     1       4.265 124.123 112.226  1.00  0.00     0.000 C 
BRANCH   9  10
ATOM     10  C   UNL     1       5.616 124.352 112.928  1.00  0.00     0.006 C 
BRANCH  10  11
ATOM     11  C   UNL     1       6.678 124.914 111.974  1.00  0.00     0.053 C 
BRANCH  11  12
ATOM     12  C   UNL     1       7.951 124.126 112.026  1.00  0.00     0.041 C 
ATOM     13  O   UNL     1       7.999 123.034 112.652  1.00  0.00    -0.550 OA
ATOM     14  O   UNL     1       9.081 124.588 111.361  1.00  0.00    -0.550 OA
ENDBRANCH  11  12
ENDBRANCH  10  11
ENDBRANCH   9  10
ENDBRANCH   8   9
ENDBRANCH   7   8
ENDBRANCH   6   7
ENDBRANCH   5   6
ENDBRANCH   4   5
ENDBRANCH   3   4
ENDBRANCH   2   3
ENDBRANCH   1   2
BRANCH   1  15
ATOM     15  C   UNL     1       5.090 127.628 114.314  1.00  0.00     0.000 C 
BRANCH  15  16
ATOM     16  C   UNL     1       4.282 128.429 115.347  1.00  0.00     0.000 C 
BRANCH  16  17
ATOM     17  C   UNL     1       3.215 127.546 116.012  1.00  0.00     0.000 C 
BRANCH  17  18
ATOM     18  C   UNL     1       3.237 126.096 115.501  1.00  0.00    -0.000 C 
BRANCH  18  19
ATOM     19  C   UNL     1       2.079 125.255 116.070  1.00  0.00    -0.000 C 
BRANCH  19  20
ATOM     20  C   UNL     1       0.699 125.778 115.641  1.00  0.00    -0.000 C 
BRANCH  20  21
ATOM     21  C   UNL     1      -0.048 124.793 114.726  1.00  0.00    -0.000 C 
BRANCH  21  22
ATOM     22  C   UNL     1       0.364 123.329 114.963  1.00  0.00    -0.000 C 
BRANCH  22  23
ATOM     23  C   UNL     1       0.807 122.599 113.677  1.00  0.00    -0.000 C 
BRANCH  23  24
ATOM     24  C   UNL     1       1.877 121.530 113.960  1.00  0.00    -0.000 C 
BRANCH  24  25
ATOM     25  C   UNL     1       3.015 122.063 114.845  1.00  0.00    -0.003 C 
ATOM     26  C   UNL     1       4.027 120.977 115.209  1.00  0.00     0.004 C 
ENDBRANCH  24  25
ENDBRANCH  23  24
ENDBRANCH  22  23
ENDBRANCH  21  22
ENDBRANCH  20  21
ENDBRANCH  19  20
ENDBRANCH  18  19
ENDBRANCH  17  18
ENDBRANCH  16  17
ENDBRANCH  15  16
ENDBRANCH   1  15
TORSDOF 22
ENDMDL
MODEL 3
REMARK VINA RESULT:    -3.658      1.342      4.384
REMARK INTER + INTRA:         -12.494
REMARK INTER:                  -8.412
REMARK INTRA:                  -4.082
REMARK UNBOUND:                -4.130
REMARK SMILES CCCCCCCCCCCCCCCCCCCCCCCC(=O)[O-]
REMARK SMILES IDX 13 1 14 2 15 3 16 4 17 5 18 6 19 7 20 8 21 9 22 10 23 11
REMARK SMILES IDX 24 12 25 13 26 14 12 15 11 16 10 17 9 18 8 19 7 20 6 21 5 22
REMARK SMILES IDX 4 23 3 24 2 25 1 26
REMARK H PARENT
REMARK Flexibility Score: inf
ROOT
ATOM      1  C   UNL     1       1.315 127.099 111.803  1.00  0.00     0.000 C 
ENDROOT
BRANCH   1   2
ATOM      2  C   UNL     1       2.246 126.422 110.780  1.00  0.00     0.000 C 
BRANCH   2   3
ATOM      3  C   UNL     1       2.661 124.980 111.127  1.00  0.00     0.000 C 
BRANCH   3   4
ATOM      4  C   UNL     1       2.100 124.474 112.474  1.00  0.00     0.000 C 
BRANCH   4   5
ATOM      5  C   UNL     1       3.177 123.819 113.355  1.00  0.00     0.000 C 
BRANCH   5   6
ATOM      6  C   UNL     1       3.420 124.594 114.661  1.00  0.00     0.000 C 
BRANCH   6   7
ATOM      7  C   UNL     1       3.593 126.103 114.430  1.00  0.00     0.000 C 
BRANCH   7   8
ATOM      8  C   UNL     1       5.077 126.465 114.273  1.00  0.00     0.000 C 
BRANCH   8   9
ATOM      9  C   UNL     1       5.439 126.853 112.830  1.00  0.00     0.000 C 
BRANCH   9  10
ATOM     10  C   UNL     1       6.339 125.806 112.147  1.00  0.00     0.006 C 
BRANCH  10  11
ATOM     11  C   UNL     1       6.791 124.708 113.118  1.00  0.00     0.053 C 
BRANCH  11  12
ATOM     12  C   UNL     1       7.729 123.737 112.469  1.00  0.00     0.041 C 
ATOM     13  O   UNL     1       7.548 123.379 111.275  1.00  0.00    -0.550 OA
ATOM     14  O   UNL     1       8.819 123.244 113.177  1.00  0.00    -0.550 OA
ENDBRANCH  11  12
ENDBRANCH  10  11
ENDBRANCH   9  10
ENDBRANCH   8   9
ENDBRANCH   7   8
ENDBRANCH   6   7
ENDBRANCH   5   6
ENDBRANCH   4   5
ENDBRANCH   3   4
ENDBRANCH   2   3
ENDBRANCH   1   2
BRANCH   1  15
ATOM     15  C   UNL     1       0.730 128.454 111.363  1.00  0.00     0.000 C 
BRANCH  15  16
ATOM     16  C   UNL     1       1.374 129.651 112.079  1.00  0.00     0.000 C 
BRANCH  16  17
ATOM     17  C   UNL     1       2.725 129.258 112.697  1.00  0.00     0.000 C 
BRANCH  17  18
ATOM     18  C   UNL     1       3.010 129.987 114.020  1.00  0.00    -0.000 C 
BRANCH  18  19
ATOM     19  C   UNL     1       4.080 131.084 113.867  1.00  0.00    -0.000 C 
BRANCH  19  20
ATOM     20  C   UNL     1       5.499 130.511 113.719  1.00  0.00    -0.000 C 
BRANCH  20  21
ATOM     21  C   UNL     1       6.026 129.894 115.026  1.00  0.00    -0.000 C 
BRANCH  21  22
ATOM     22  C   UNL     1       6.022 130.889 116.200  1.00  0.00    -0.000 C 
BRANCH  22  23
ATOM     23  C   UNL     1       5.502 130.279 117.520  1.00  0.00    -0.000 C 
BRANCH  23  24
ATOM     24  C   UNL     1       4.003 130.553 117.733  1.00  0.00    -0.000 C 
BRANCH  24  25
ATOM     25  C   UNL     1       3.150 129.284 117.574  1.00  0.00    -0.003 C 
ATOM     26  C   UNL     1       3.993 128.010 117.598  1.00  0.00     0.004 C 
ENDBRANCH  24  25
ENDBRANCH  23  24
ENDBRANCH  22  23
ENDBRANCH  21  22
ENDBRANCH  20  21
ENDBRANCH  19  20
ENDBRANCH  18  19
ENDBRANCH  17  18
ENDBRANCH  16  17
ENDBRANCH  15  16
ENDBRANCH   1  15
TORSDOF 22
ENDMDL
MODEL 4
REMARK VINA RESULT:    -3.654      2.525      4.615
REMARK INTER + INTRA:         -12.483
REMARK INTER:                  -8.422
REMARK INTRA:                  -4.061
REMARK UNBOUND:                -4.130
REMARK SMILES CCCCCCCCCCCCCCCCCCCCCCCC(=O)[O-]
REMARK SMILES IDX 13 1 14 2 15 3 16 4 17 5 18 6 19 7 20 8 21 9 22 10 23 11
REMARK SMILES IDX 24 12 25 13 26 14 12 15 11 16 10 17 9 18 8 19 7 20 6 21 5 22
REMARK SMILES IDX 4 23 3 24 2 25 1 26
REMARK H PARENT
REMARK Flexibility Score: inf
ROOT
ATOM      1  C   UNL     1       2.598 127.726 110.038  1.00  0.00     0.000 C 
ENDROOT
BRANCH   1   2
ATOM      2  C   UNL     1       2.148 126.518 110.881  1.00  0.00     0.000 C 
BRANCH   2   3
ATOM      3  C   UNL     1       3.016 125.255 110.731  1.00  0.00     0.000 C 
BRANCH   3   4
ATOM      4  C   UNL     1       3.994 125.025 111.903  1.00  0.00     0.000 C 
BRANCH   4   5
ATOM      5  C   UNL     1       5.187 125.996 111.878  1.00  0.00     0.000 C 
BRANCH   5   6
ATOM      6  C   UNL     1       5.230 126.908 113.116  1.00  0.00     0.000 C 
BRANCH   6   7
ATOM      7  C   UNL     1       4.484 126.307 114.318  1.00  0.00     0.000 C 
BRANCH   7   8
ATOM      8  C   UNL     1       4.400 127.319 115.469  1.00  0.00     0.000 C 
BRANCH   8   9
ATOM      9  C   UNL     1       5.591 128.292 115.486  1.00  0.00     0.000 C 
BRANCH   9  10
ATOM     10  C   UNL     1       5.152 129.763 115.372  1.00  0.00     0.006 C 
BRANCH  10  11
ATOM     11  C   UNL     1       5.859 130.493 114.222  1.00  0.00     0.053 C 
BRANCH  11  12
ATOM     12  C   UNL     1       7.279 130.827 114.560  1.00  0.00     0.041 C 
ATOM     13  O   UNL     1       8.195 130.639 113.716  1.00  0.00    -0.550 OA
ATOM     14  O   UNL     1       7.589 131.368 115.802  1.00  0.00    -0.550 OA
ENDBRANCH  11  12
ENDBRANCH  10  11
ENDBRANCH   9  10
ENDBRANCH   8   9
ENDBRANCH   7   8
ENDBRANCH   6   7
ENDBRANCH   5   6
ENDBRANCH   4   5
ENDBRANCH   3   4
ENDBRANCH   2   3
ENDBRANCH   1   2
BRANCH   1  15
ATOM     15  C   UNL     1       2.674 129.065 110.796  1.00  0.00     0.000 C 
BRANCH  15  16
ATOM     16  C   UNL     1       1.568 129.226 111.848  1.00  0.00     0.000 C 
BRANCH  16  17
ATOM     17  C   UNL     1       2.145 129.141 113.269  1.00  0.00     0.000 C 
BRANCH  17  18
ATOM     18  C   UNL     1       1.157 129.623 114.345  1.00  0.00    -0.000 C 
BRANCH  18  19
ATOM     19  C   UNL     1       0.857 128.538 115.395  1.00  0.00    -0.000 C 
BRANCH  19  20
ATOM     20  C   UNL     1       0.767 127.130 114.784  1.00  0.00    -0.000 C 
BRANCH  20  21
ATOM     21  C   UNL     1       0.896 126.019 115.840  1.00  0.00    -0.000 C 
BRANCH  21  22
ATOM     22  C   UNL     1       1.408 124.692 115.251  1.00  0.00    -0.000 C 
BRANCH  22  23
ATOM     23  C   UNL     1       0.906 124.422 113.817  1.00  0.00    -0.000 C 
BRANCH  23  24
ATOM     24  C   UNL     1       1.079 122.947 113.412  1.00  0.00    -0.000 C 
BRANCH  24  25
ATOM     25  C   UNL     1       2.274 122.285 114.116  1.00  0.00    -0.003 C 
ATOM     26  C   UNL     1       2.281 120.766 113.948  1.00  0.00     0.004 C 
ENDBRANCH  24  25
ENDBRANCH  23  24
ENDBRANCH  22  23
ENDBRANCH  21  22
ENDBRANCH  20  21
ENDBRANCH  19  20
ENDBRANCH  18  19
ENDBRANCH  17  18
ENDBRANCH  16  17
ENDBRANCH  15  16
ENDBRANCH   1  15
TORSDOF 22
ENDMDL
MODEL 5
REMARK VINA RESULT:    -3.645      1.915      4.572
REMARK INTER + INTRA:         -12.464
REMARK INTER:                  -8.019
REMARK INTRA:                  -4.445
REMARK UNBOUND:                -4.130
REMARK SMILES CCCCCCCCCCCCCCCCCCCCCCCC(=O)[O-]
REMARK SMILES IDX 13 1 14 2 15 3 16 4 17 5 18 6 19 7 20 8 21 9 22 10 23 11
REMARK SMILES IDX 24 12 25 13 26 14 12 15 11 16 10 17 9 18 8 19 7 20 6 21 5 22
REMARK SMILES IDX 4 23 3 24 2 25 1 26
REMARK H PARENT
REMARK Flexibility Score: inf
ROOT
ATOM      1  C   UNL     1       2.858 128.659 110.754  1.00  0.00     0.000 C 
ENDROOT
BRANCH   1   2
ATOM      2  C   UNL     1       2.239 127.352 110.223  1.00  0.00     0.000 C 
BRANCH   2   3
ATOM      3  C   UNL     1       3.193 126.145 110.184  1.00  0.00     0.000 C 
BRANCH   3   4
ATOM      4  C   UNL     1       2.747 124.965 111.075  1.00  0.00     0.000 C 
BRANCH   4   5
ATOM      5  C   UNL     1       1.896 125.419 112.273  1.00  0.00     0.000 C 
BRANCH   5   6
ATOM      6  C   UNL     1       2.674 125.372 113.599  1.00  0.00     0.000 C 
BRANCH   6   7
ATOM      7  C   UNL     1       3.310 126.724 113.958  1.00  0.00     0.000 C 
BRANCH   7   8
ATOM      8  C   UNL     1       4.840 126.609 114.020  1.00  0.00     0.000 C 
BRANCH   8   9
ATOM      9  C   UNL     1       5.526 127.209 112.782  1.00  0.00     0.000 C 
BRANCH   9  10
ATOM     10  C   UNL     1       6.355 126.170 112.006  1.00  0.00     0.006 C 
BRANCH  10  11
ATOM     11  C   UNL     1       6.352 124.797 112.690  1.00  0.00     0.053 C 
BRANCH  11  12
ATOM     12  C   UNL     1       7.475 123.929 112.211  1.00  0.00     0.041 C 
ATOM     13  O   UNL     1       8.645 124.103 112.646  1.00  0.00    -0.550 OA
ATOM     14  O   UNL     1       7.226 122.911 111.298  1.00  0.00    -0.550 OA
ENDBRANCH  11  12
ENDBRANCH  10  11
ENDBRANCH   9  10
ENDBRANCH   8   9
ENDBRANCH   7   8
ENDBRANCH   6   7
ENDBRANCH   5   6
ENDBRANCH   4   5
ENDBRANCH   3   4
ENDBRANCH   2   3
ENDBRANCH   1   2
BRANCH   1  15
ATOM     15  C   UNL     1       1.952 129.482 111.690  1.00  0.00     0.000 C 
BRANCH  15  16
ATOM     16  C   UNL     1       0.647 128.759 112.056  1.00  0.00     0.000 C 
BRANCH  16  17
ATOM     17  C   UNL     1       0.257 129.037 113.516  1.00  0.00     0.000 C 
BRANCH  17  18
ATOM     18  C   UNL     1       0.569 130.478 113.953  1.00  0.00    -0.000 C 
BRANCH  18  19
ATOM     19  C   UNL     1       0.928 130.575 115.447  1.00  0.00    -0.000 C 
BRANCH  19  20
ATOM     20  C   UNL     1       2.201 131.399 115.699  1.00  0.00    -0.000 C 
BRANCH  20  21
ATOM     21  C   UNL     1       3.111 131.474 114.461  1.00  0.00    -0.000 C 
BRANCH  21  22
ATOM     22  C   UNL     1       4.178 130.365 114.438  1.00  0.00    -0.000 C 
BRANCH  22  23
ATOM     23  C   UNL     1       4.488 129.780 115.833  1.00  0.00    -0.000 C 
BRANCH  23  24
ATOM     24  C   UNL     1       5.990 129.843 116.165  1.00  0.00    -0.000 C 
BRANCH  24  25
ATOM     25  C   UNL     1       6.802 130.547 115.067  1.00  0.00    -0.003 C 
ATOM     26  C   UNL     1       7.292 131.928 115.501  1.00  0.00     0.004 C 
ENDBRANCH  24  25
ENDBRANCH  23  24
ENDBRANCH  22  23
ENDBRANCH  21  22
ENDBRANCH  20  21
ENDBRANCH  19  20
ENDBRANCH  18  19
ENDBRANCH  17  18
ENDBRANCH  16  17
ENDBRANCH  15  16
ENDBRANCH   1  15
TORSDOF 22
ENDMDL
MODEL 6
REMARK VINA RESULT:    -3.626      2.513      5.733
REMARK INTER + INTRA:         -12.419
REMARK INTER:                  -8.295
REMARK INTRA:                  -4.124
REMARK UNBOUND:                -4.130
REMARK SMILES CCCCCCCCCCCCCCCCCCCCCCCC(=O)[O-]
REMARK SMILES IDX 13 1 14 2 15 3 16 4 17 5 18 6 19 7 20 8 21 9 22 10 23 11
REMARK SMILES IDX 24 12 25 13 26 14 12 15 11 16 10 17 9 18 8 19 7 20 6 21 5 22
REMARK SMILES IDX 4 23 3 24 2 25 1 26
REMARK H PARENT
REMARK Flexibility Score: inf
ROOT
ATOM      1  C   UNL     1       4.070 122.735 113.650  1.00  0.00     0.000 C 
ENDROOT
BRANCH   1   2
ATOM      2  C   UNL     1       4.982 122.820 112.412  1.00  0.00     0.000 C 
BRANCH   2   3
ATOM      3  C   UNL     1       4.706 124.010 111.475  1.00  0.00     0.000 C 
BRANCH   3   4
ATOM      4  C   UNL     1       3.683 125.022 112.035  1.00  0.00     0.000 C 
BRANCH   4   5
ATOM      5  C   UNL     1       2.613 125.415 111.001  1.00  0.00     0.000 C 
BRANCH   5   6
ATOM      6  C   UNL     1       2.259 126.911 111.060  1.00  0.00     0.000 C 
BRANCH   6   7
ATOM      7  C   UNL     1       3.100 127.677 112.093  1.00  0.00     0.000 C 
BRANCH   7   8
ATOM      8  C   UNL     1       3.193 129.165 111.726  1.00  0.00     0.000 C 
BRANCH   8   9
ATOM      9  C   UNL     1       3.725 130.025 112.884  1.00  0.00     0.000 C 
BRANCH   9  10
ATOM     10  C   UNL     1       5.071 129.513 113.428  1.00  0.00     0.006 C 
BRANCH  10  11
ATOM     11  C   UNL     1       5.701 130.489 114.430  1.00  0.00     0.053 C 
BRANCH  11  12
ATOM     12  C   UNL     1       7.192 130.545 114.295  1.00  0.00     0.041 C 
ATOM     13  O   UNL     1       7.927 130.459 115.315  1.00  0.00    -0.550 OA
ATOM     14  O   UNL     1       7.771 130.671 113.038  1.00  0.00    -0.550 OA
ENDBRANCH  11  12
ENDBRANCH  10  11
ENDBRANCH   9  10
ENDBRANCH   8   9
ENDBRANCH   7   8
ENDBRANCH   6   7
ENDBRANCH   5   6
ENDBRANCH   4   5
ENDBRANCH   3   4
ENDBRANCH   2   3
ENDBRANCH   1   2
BRANCH   1  15
ATOM     15  C   UNL     1       3.249 121.438 113.774  1.00  0.00     0.000 C 
BRANCH  15  16
ATOM     16  C   UNL     1       1.823 121.674 114.296  1.00  0.00     0.000 C 
BRANCH  16  17
ATOM     17  C   UNL     1       1.117 122.772 113.486  1.00  0.00     0.000 C 
BRANCH  17  18
ATOM     18  C   UNL     1       0.317 123.743 114.369  1.00  0.00    -0.000 C 
BRANCH  18  19
ATOM     19  C   UNL     1       0.511 125.212 113.952  1.00  0.00    -0.000 C 
BRANCH  19  20
ATOM     20  C   UNL     1       0.869 126.123 115.137  1.00  0.00    -0.000 C 
BRANCH  20  21
ATOM     21  C   UNL     1       2.387 126.233 115.360  1.00  0.00    -0.000 C 
BRANCH  21  22
ATOM     22  C   UNL     1       2.940 125.117 116.264  1.00  0.00    -0.000 C 
BRANCH  22  23
ATOM     23  C   UNL     1       4.482 125.089 116.333  1.00  0.00    -0.000 C 
BRANCH  23  24
ATOM     24  C   UNL     1       5.120 126.174 115.447  1.00  0.00    -0.000 C 
BRANCH  24  25
ATOM     25  C   UNL     1       6.253 125.618 114.570  1.00  0.00    -0.003 C 
ATOM     26  C   UNL     1       6.929 124.399 115.195  1.00  0.00     0.004 C 
ENDBRANCH  24  25
ENDBRANCH  23  24
ENDBRANCH  22  23
ENDBRANCH  21  22
ENDBRANCH  20  21
ENDBRANCH  19  20
ENDBRANCH  18  19
ENDBRANCH  17  18
ENDBRANCH  16  17
ENDBRANCH  15  16
ENDBRANCH   1  15
TORSDOF 22
ENDMDL
MODEL 7
REMARK VINA RESULT:    -3.569      2.450      5.016
REMARK INTER + INTRA:         -12.289
REMARK INTER:                  -7.997
REMARK INTRA:                  -4.292
REMARK UNBOUND:                -4.130
REMARK SMILES CCCCCCCCCCCCCCCCCCCCCCCC(=O)[O-]
REMARK SMILES IDX 13 1 14 2 15 3 16 4 17 5 18 6 19 7 20 8 21 9 22 10 23 11
REMARK SMILES IDX 24 12 25 13 26 14 12 15 11 16 10 17 9 18 8 19 7 20 6 21 5 22
REMARK SMILES IDX 4 23 3 24 2 25 1 26
REMARK H PARENT
REMARK Flexibility Score: inf
ROOT
ATOM      1  C   UNL     1       3.024 125.065 110.727  1.00  0.00     0.000 C 
ENDROOT
BRANCH   1   2
ATOM      2  C   UNL     1       2.206 126.341 110.998  1.00  0.00     0.000 C 
BRANCH   2   3
ATOM      3  C   UNL     1       3.013 127.653 110.970  1.00  0.00     0.000 C 
BRANCH   3   4
ATOM      4  C   UNL     1       2.152 128.912 110.729  1.00  0.00     0.000 C 
BRANCH   4   5
ATOM      5  C   UNL     1       0.665 128.682 111.049  1.00  0.00     0.000 C 
BRANCH   5   6
ATOM      6  C   UNL     1       0.209 129.443 112.306  1.00  0.00     0.000 C 
BRANCH   6   7
ATOM      7  C   UNL     1       0.686 128.775 113.606  1.00  0.00     0.000 C 
BRANCH   7   8
ATOM      8  C   UNL     1       1.396 129.791 114.512  1.00  0.00     0.000 C 
BRANCH   8   9
ATOM      9  C   UNL     1       2.895 129.490 114.672  1.00  0.00     0.000 C 
BRANCH   9  10
ATOM     10  C   UNL     1       3.765 130.286 113.683  1.00  0.00     0.006 C 
BRANCH  10  11
ATOM     11  C   UNL     1       4.800 131.165 114.397  1.00  0.00     0.053 C 
BRANCH  11  12
ATOM     12  C   UNL     1       6.167 130.553 114.373  1.00  0.00     0.041 C 
ATOM     13  O   UNL     1       7.159 131.192 114.816  1.00  0.00    -0.550 OA
ATOM     14  O   UNL     1       6.343 129.266 113.880  1.00  0.00    -0.550 OA
ENDBRANCH  11  12
ENDBRANCH  10  11
ENDBRANCH   9  10
ENDBRANCH   8   9
ENDBRANCH   7   8
ENDBRANCH   6   7
ENDBRANCH   5   6
ENDBRANCH   4   5
ENDBRANCH   3   4
ENDBRANCH   2   3
ENDBRANCH   1   2
BRANCH   1  15
ATOM     15  C   UNL     1       4.413 125.294 110.103  1.00  0.00     0.000 C 
BRANCH  15  16
ATOM     16  C   UNL     1       5.565 124.832 111.007  1.00  0.00     0.000 C 
BRANCH  16  17
ATOM     17  C   UNL     1       5.102 123.719 111.960  1.00  0.00     0.000 C 
BRANCH  17  18
ATOM     18  C   UNL     1       5.401 124.034 113.435  1.00  0.00    -0.000 C 
BRANCH  18  19
ATOM     19  C   UNL     1       5.663 125.532 113.675  1.00  0.00    -0.000 C 
BRANCH  19  20
ATOM     20  C   UNL     1       4.421 126.276 114.191  1.00  0.00    -0.000 C 
BRANCH  20  21
ATOM     21  C   UNL     1       3.422 125.342 114.893  1.00  0.00    -0.000 C 
BRANCH  21  22
ATOM     22  C   UNL     1       1.988 125.488 114.354  1.00  0.00    -0.000 C 
BRANCH  22  23
ATOM     23  C   UNL     1       1.102 124.252 114.618  1.00  0.00    -0.000 C 
BRANCH  23  24
ATOM     24  C   UNL     1       1.148 123.248 113.451  1.00  0.00    -0.000 C 
BRANCH  24  25
ATOM     25  C   UNL     1       1.378 121.806 113.931  1.00  0.00    -0.003 C 
ATOM     26  C   UNL     1       2.859 121.430 113.951  1.00  0.00     0.004 C 
ENDBRANCH  24  25
ENDBRANCH  23  24
ENDBRANCH  22  23
ENDBRANCH  21  22
ENDBRANCH  20  21
ENDBRANCH  19  20
ENDBRANCH  18  19
ENDBRANCH  17  18
ENDBRANCH  16  17
ENDBRANCH  15  16
ENDBRANCH   1  15
TORSDOF 22
ENDMDL
MODEL 8
REMARK VINA RESULT:    -3.524      1.708      4.571
REMARK INTER + INTRA:         -12.186
REMARK INTER:                  -8.035
REMARK INTRA:                  -4.150
REMARK UNBOUND:                -4.130
REMARK SMILES CCCCCCCCCCCCCCCCCCCCCCCC(=O)[O-]
REMARK SMILES IDX 13 1 14 2 15 3 16 4 17 5 18 6 19 7 20 8 21 9 22 10 23 11
REMARK SMILES IDX 24 12 25 13 26 14 12 15 11 16 10 17 9 18 8 19 7 20 6 21 5 22
REMARK SMILES IDX 4 23 3 24 2 25 1 26
REMARK H PARENT
REMARK Flexibility Score: inf
ROOT
ATOM      1  C   UNL     1       2.459 127.739 109.884  1.00  0.00     0.000 C 
ENDROOT
BRANCH   1   2
ATOM      2  C   UNL     1       3.353 126.661 110.523  1.00  0.00     0.000 C 
BRANCH   2   3
ATOM      3  C   UNL     1       2.627 125.365 110.930  1.00  0.00     0.000 C 
BRANCH   3   4
ATOM      4  C   UNL     1       1.937 125.442 112.310  1.00  0.00     0.000 C 
BRANCH   4   5
ATOM      5  C   UNL     1       2.182 124.186 113.164  1.00  0.00     0.000 C 
BRANCH   5   6
ATOM      6  C   UNL     1       3.477 123.454 112.775  1.00  0.00     0.000 C 
BRANCH   6   7
ATOM      7  C   UNL     1       4.450 123.305 113.955  1.00  0.00     0.000 C 
BRANCH   7   8
ATOM      8  C   UNL     1       5.292 124.577 114.132  1.00  0.00     0.000 C 
BRANCH   8   9
ATOM      9  C   UNL     1       5.894 125.073 112.807  1.00  0.00     0.000 C 
BRANCH   9  10
ATOM     10  C   UNL     1       7.215 124.364 112.458  1.00  0.00     0.006 C 
BRANCH  10  11
ATOM     11  C   UNL     1       7.166 123.689 111.081  1.00  0.00     0.053 C 
BRANCH  11  12
ATOM     12  C   UNL     1       7.756 124.555 110.011  1.00  0.00     0.041 C 
ATOM     13  O   UNL     1       8.394 125.598 110.316  1.00  0.00    -0.550 OA
ATOM     14  O   UNL     1       7.620 124.199 108.675  1.00  0.00    -0.550 OA
ENDBRANCH  11  12
ENDBRANCH  10  11
ENDBRANCH   9  10
ENDBRANCH   8   9
ENDBRANCH   7   8
ENDBRANCH   6   7
ENDBRANCH   5   6
ENDBRANCH   4   5
ENDBRANCH   3   4
ENDBRANCH   2   3
ENDBRANCH   1   2
BRANCH   1  15
ATOM     15  C   UNL     1       2.078 128.911 110.809  1.00  0.00     0.000 C 
BRANCH  15  16
ATOM     16  C   UNL     1       0.655 128.795 111.375  1.00  0.00     0.000 C 
BRANCH  16  17
ATOM     17  C   UNL     1       0.643 129.067 112.886  1.00  0.00     0.000 C 
BRANCH  17  18
ATOM     18  C   UNL     1       2.049 129.303 113.462  1.00  0.00    -0.000 C 
BRANCH  18  19
ATOM     19  C   UNL     1       2.437 128.249 114.515  1.00  0.00    -0.000 C 
BRANCH  19  20
ATOM     20  C   UNL     1       3.942 127.933 114.511  1.00  0.00    -0.000 C 
BRANCH  20  21
ATOM     21  C   UNL     1       4.674 128.561 113.313  1.00  0.00    -0.000 C 
BRANCH  21  22
ATOM     22  C   UNL     1       5.823 129.492 113.737  1.00  0.00    -0.000 C 
BRANCH  22  23
ATOM     23  C   UNL     1       5.341 130.828 114.343  1.00  0.00    -0.000 C 
BRANCH  23  24
ATOM     24  C   UNL     1       6.053 131.152 115.668  1.00  0.00    -0.000 C 
BRANCH  24  25
ATOM     25  C   UNL     1       5.548 130.283 116.830  1.00  0.00    -0.003 C 
ATOM     26  C   UNL     1       4.101 130.597 117.206  1.00  0.00     0.004 C 
ENDBRANCH  24  25
ENDBRANCH  23  24
ENDBRANCH  22  23
ENDBRANCH  21  22
ENDBRANCH  20  21
ENDBRANCH  19  20
ENDBRANCH  18  19
ENDBRANCH  17  18
ENDBRANCH  16  17
ENDBRANCH  15  16
ENDBRANCH   1  15
TORSDOF 22
ENDMDL
MODEL 9
REMARK VINA RESULT:    -3.461      1.998      4.673
REMARK INTER + INTRA:         -12.042
REMARK INTER:                  -6.949
REMARK INTRA:                  -5.093
REMARK UNBOUND:                -4.130
REMARK SMILES CCCCCCCCCCCCCCCCCCCCCCCC(=O)[O-]
REMARK SMILES IDX 13 1 14 2 15 3 16 4 17 5 18 6 19 7 20 8 21 9 22 10 23 11
REMARK SMILES IDX 24 12 25 13 26 14 12 15 11 16 10 17 9 18 8 19 7 20 6 21 5 22
REMARK SMILES IDX 4 23 3 24 2 25 1 26
REMARK H PARENT
REMARK Flexibility Score: inf
ROOT
ATOM      1  C   UNL     1       2.018 126.432 113.756  1.00  0.00     0.000 C 
ENDROOT
BRANCH   1   2
ATOM      2  C   UNL     1       1.282 125.376 112.911  1.00  0.00     0.000 C 
BRANCH   2   3
ATOM      3  C   UNL     1       0.747 124.165 113.699  1.00  0.00     0.000 C 
BRANCH   3   4
ATOM      4  C   UNL     1       0.552 124.436 115.206  1.00  0.00     0.000 C 
BRANCH   4   5
ATOM      5  C   UNL     1       1.454 123.554 116.087  1.00  0.00     0.000 C 
BRANCH   5   6
ATOM      6  C   UNL     1       2.467 122.741 115.263  1.00  0.00     0.000 C 
BRANCH   6   7
ATOM      7  C   UNL     1       3.915 122.955 115.731  1.00  0.00     0.000 C 
BRANCH   7   8
ATOM      8  C   UNL     1       4.846 123.192 114.533  1.00  0.00     0.000 C 
BRANCH   8   9
ATOM      9  C   UNL     1       4.185 122.830 113.192  1.00  0.00     0.000 C 
BRANCH   9  10
ATOM     10  C   UNL     1       4.843 123.545 111.998  1.00  0.00     0.006 C 
BRANCH  10  11
ATOM     11  C   UNL     1       6.148 124.250 112.392  1.00  0.00     0.053 C 
BRANCH  11  12
ATOM     12  C   UNL     1       6.543 125.294 111.394  1.00  0.00     0.041 C 
ATOM     13  O   UNL     1       7.126 126.346 111.770  1.00  0.00    -0.550 OA
ATOM     14  O   UNL     1       6.287 125.096 110.043  1.00  0.00    -0.550 OA
ENDBRANCH  11  12
ENDBRANCH  10  11
ENDBRANCH   9  10
ENDBRANCH   8   9
ENDBRANCH   7   8
ENDBRANCH   6   7
ENDBRANCH   5   6
ENDBRANCH   4   5
ENDBRANCH   3   4
ENDBRANCH   2   3
ENDBRANCH   1   2
BRANCH   1  15
ATOM     15  C   UNL     1       3.449 126.764 113.292  1.00  0.00     0.000 C 
BRANCH  15  16
ATOM     16  C   UNL     1       4.457 126.839 114.448  1.00  0.00     0.000 C 
BRANCH  16  17
ATOM     17  C   UNL     1       3.746 126.710 115.804  1.00  0.00     0.000 C 
BRANCH  17  18
ATOM     18  C   UNL     1       4.659 127.059 116.991  1.00  0.00    -0.000 C 
BRANCH  18  19
ATOM     19  C   UNL     1       5.708 128.127 116.632  1.00  0.00    -0.000 C 
BRANCH  19  20
ATOM     20  C   UNL     1       5.273 129.545 117.035  1.00  0.00    -0.000 C 
BRANCH  20  21
ATOM     21  C   UNL     1       5.866 130.628 116.118  1.00  0.00    -0.000 C 
BRANCH  21  22
ATOM     22  C   UNL     1       6.447 130.053 114.814  1.00  0.00    -0.000 C 
BRANCH  22  23
ATOM     23  C   UNL     1       5.550 130.297 113.581  1.00  0.00    -0.000 C 
BRANCH  23  24
ATOM     24  C   UNL     1       4.303 131.129 113.929  1.00  0.00    -0.000 C 
BRANCH  24  25
ATOM     25  C   UNL     1       2.997 130.367 113.651  1.00  0.00    -0.003 C 
ATOM     26  C   UNL     1       2.226 130.049 114.931  1.00  0.00     0.004 C 
ENDBRANCH  24  25
ENDBRANCH  23  24
ENDBRANCH  22  23
ENDBRANCH  21  22
ENDBRANCH  20  21
ENDBRANCH  19  20
ENDBRANCH  18  19
ENDBRANCH  17  18
ENDBRANCH  16  17
ENDBRANCH  15  16
ENDBRANCH   1  15
TORSDOF 22
ENDMDL
