MODEL 1
REMARK VINA RESULT:    -5.828      0.000      0.000
REMARK INTER + INTRA:          -6.340
REMARK INTER:                  -6.340
REMARK INTRA:                   0.000
REMARK UNBOUND:                 0.000
REMARK SMILES Cc1cc(O)c2c(c1)C(=O)c1cc(O)cc(O)c1C2=O
REMARK SMILES IDX 1 1 2 2 8 3 7 4 6 5 4 6 3 7 19 8 20 9 18 10 11 11 9 12 10 13
REMARK SMILES IDX 12 14 13 15 15 16 16 17 5 18 17 20 14 22
REMARK H PARENT 5 19 17 21 14 23
REMARK Flexibility Score: inf
ROOT
ATOM      1  C   UNL     1      48.016 -25.982  13.027  1.00  0.00     0.044 C 
ATOM      2  C   UNL     1      48.860 -24.757  12.829  1.00  0.00    -0.047 A 
ATOM      3  C   UNL     1      48.614 -23.605  13.582  1.00  0.00     0.016 A 
ATOM      4  C   UNL     1      49.421 -22.462  13.431  1.00  0.00     0.038 A 
ATOM      5  C   UNL     1      50.501 -22.479  12.521  1.00  0.00     0.076 A 
ATOM      6  C   UNL     1      50.757 -23.657  11.777  1.00  0.00     0.127 A 
ATOM      7  C   UNL     1      49.941 -24.783  11.943  1.00  0.00     0.050 A 
ATOM      8  C   UNL     1      51.346 -21.261  12.369  1.00  0.00     0.201 C 
ATOM      9  O   UNL     1      52.308 -21.266  11.553  1.00  0.00    -0.288 OA
ATOM     10  C   UNL     1      51.065 -20.037  13.171  1.00  0.00     0.076 A 
ATOM     11  C   UNL     1      49.983 -20.039  14.079  1.00  0.00     0.041 A 
ATOM     12  C   UNL     1      49.139 -21.246  14.229  1.00  0.00     0.194 C 
ATOM     13  O   UNL     1      48.172 -21.239  15.041  1.00  0.00    -0.289 OA
ATOM     14  C   UNL     1      49.708 -18.889  14.842  1.00  0.00     0.059 A 
ATOM     15  C   UNL     1      50.497 -17.744  14.711  1.00  0.00     0.120 A 
ATOM     16  C   UNL     1      51.565 -17.737  13.816  1.00  0.00     0.093 A 
ATOM     17  C   UNL     1      51.858 -18.870  13.047  1.00  0.00     0.131 A 
ENDROOT
BRANCH   6  18
ATOM     18  O   UNL     1      51.820 -23.717  10.876  1.00  0.00    -0.507 OA
ATOM     19  H   UNL     1      51.752 -23.329   9.942  1.00  0.00     0.293 HD
ENDBRANCH   6  18
BRANCH  17  20
ATOM     20  O   UNL     1      52.936 -18.828  12.162  1.00  0.00    -0.507 OA
ATOM     21  H   UNL     1      53.891 -18.954  12.478  1.00  0.00     0.293 HD
ENDBRANCH  17  20
BRANCH  15  22
ATOM     22  O   UNL     1      50.225 -16.604  15.465  1.00  0.00    -0.508 OA
ATOM     23  H   UNL     1      49.284 -16.381  15.768  1.00  0.00     0.293 HD
ENDBRANCH  15  22
TORSDOF 3
ENDMDL
MODEL 2
REMARK VINA RESULT:    -5.779      1.160      5.488
REMARK INTER + INTRA:          -6.286
REMARK INTER:                  -6.286
REMARK INTRA:                   0.000
REMARK UNBOUND:                 0.000
REMARK SMILES Cc1cc(O)c2c(c1)C(=O)c1cc(O)cc(O)c1C2=O
REMARK SMILES IDX 1 1 2 2 8 3 7 4 6 5 4 6 3 7 19 8 20 9 18 10 11 11 9 12 10 13
REMARK SMILES IDX 12 14 13 15 15 16 16 17 5 18 17 20 14 22
REMARK H PARENT 5 19 17 21 14 23
REMARK Flexibility Score: inf
ROOT
ATOM      1  C   UNL     1      50.125 -16.522  15.382  1.00  0.00     0.044 C 
ATOM      2  C   UNL     1      50.503 -17.762  14.626  1.00  0.00    -0.047 A 
ATOM      3  C   UNL     1      49.686 -18.896  14.683  1.00  0.00     0.016 A 
ATOM      4  C   UNL     1      50.011 -20.053  13.951  1.00  0.00     0.038 A 
ATOM      5  C   UNL     1      51.164 -20.068  13.136  1.00  0.00     0.076 A 
ATOM      6  C   UNL     1      51.975 -18.909  13.067  1.00  0.00     0.127 A 
ATOM      7  C   UNL     1      51.634 -17.769  13.805  1.00  0.00     0.050 A 
ATOM      8  C   UNL     1      51.499 -21.301  12.367  1.00  0.00     0.201 C 
ATOM      9  O   UNL     1      52.531 -21.325  11.643  1.00  0.00    -0.288 OA
ATOM     10  C   UNL     1      50.624 -22.505  12.446  1.00  0.00     0.076 A 
ATOM     11  C   UNL     1      49.472 -22.470  13.263  1.00  0.00     0.041 A 
ATOM     12  C   UNL     1      49.140 -21.248  14.032  1.00  0.00     0.194 C 
ATOM     13  O   UNL     1      48.110 -21.227  14.761  1.00  0.00    -0.289 OA
ATOM     14  C   UNL     1      48.639 -23.600  13.346  1.00  0.00     0.059 A 
ATOM     15  C   UNL     1      48.939 -24.759  12.625  1.00  0.00     0.120 A 
ATOM     16  C   UNL     1      50.074 -24.799  11.818  1.00  0.00     0.093 A 
ATOM     17  C   UNL     1      50.918 -23.685  11.721  1.00  0.00     0.131 A 
ENDROOT
BRANCH   6  18
ATOM     18  O   UNL     1      53.117 -18.881  12.267  1.00  0.00    -0.507 OA
ATOM     19  H   UNL     1      54.049 -18.839  12.664  1.00  0.00     0.293 HD
ENDBRANCH   6  18
BRANCH  17  20
ATOM     20  O   UNL     1      52.046 -23.759  10.902  1.00  0.00    -0.507 OA
ATOM     21  H   UNL     1      52.116 -24.436  10.150  1.00  0.00     0.293 HD
ENDBRANCH  17  20
BRANCH  15  22
ATOM     22  O   UNL     1      48.115 -25.881  12.707  1.00  0.00    -0.508 OA
ATOM     23  H   UNL     1      48.339 -26.660  13.315  1.00  0.00     0.293 HD
ENDBRANCH  15  22
TORSDOF 3
ENDMDL
MODEL 3
REMARK VINA RESULT:    -5.739      1.671      6.235
REMARK INTER + INTRA:          -6.242
REMARK INTER:                  -6.242
REMARK INTRA:                   0.000
REMARK UNBOUND:                 0.000
REMARK SMILES Cc1cc(O)c2c(c1)C(=O)c1cc(O)cc(O)c1C2=O
REMARK SMILES IDX 1 1 2 2 8 3 7 4 6 5 4 6 3 7 19 8 20 9 18 10 11 11 9 12 10 13
REMARK SMILES IDX 12 14 13 15 15 16 16 17 5 18 17 20 14 22
REMARK H PARENT 5 19 17 21 14 23
REMARK Flexibility Score: inf
ROOT
ATOM      1  C   UNL     1      50.892 -16.989  14.343  1.00  0.00     0.044 C 
ATOM      2  C   UNL     1      50.530 -18.436  14.171  1.00  0.00    -0.047 A 
ATOM      3  C   UNL     1      51.387 -19.296  13.477  1.00  0.00     0.016 A 
ATOM      4  C   UNL     1      51.076 -20.662  13.339  1.00  0.00     0.038 A 
ATOM      5  C   UNL     1      49.896 -21.176  13.919  1.00  0.00     0.076 A 
ATOM      6  C   UNL     1      49.044 -20.302  14.639  1.00  0.00     0.127 A 
ATOM      7  C   UNL     1      49.372 -18.947  14.763  1.00  0.00     0.050 A 
ATOM      8  C   UNL     1      49.577 -22.624  13.764  1.00  0.00     0.201 C 
ATOM      9  O   UNL     1      48.522 -23.090  14.273  1.00  0.00    -0.288 OA
ATOM     10  C   UNL     1      50.495 -23.526  13.013  1.00  0.00     0.076 A 
ATOM     11  C   UNL     1      51.673 -22.995  12.442  1.00  0.00     0.041 A 
ATOM     12  C   UNL     1      51.989 -21.556  12.591  1.00  0.00     0.194 C 
ATOM     13  O   UNL     1      53.043 -21.089  12.076  1.00  0.00    -0.289 OA
ATOM     14  C   UNL     1      52.546 -23.837  11.731  1.00  0.00     0.059 A 
ATOM     15  C   UNL     1      52.260 -25.197  11.584  1.00  0.00     0.120 A 
ATOM     16  C   UNL     1      51.100 -25.726  12.144  1.00  0.00     0.093 A 
ATOM     17  C   UNL     1      50.215 -24.906  12.857  1.00  0.00     0.131 A 
ENDROOT
BRANCH   6  18
ATOM     18  O   UNL     1      47.874 -20.774  15.235  1.00  0.00    -0.507 OA
ATOM     19  H   UNL     1      47.479 -21.677  14.998  1.00  0.00     0.293 HD
ENDBRANCH   6  18
BRANCH  17  20
ATOM     20  O   UNL     1      49.063 -25.469  13.406  1.00  0.00    -0.507 OA
ATOM     21  H   UNL     1      48.245 -25.669  12.841  1.00  0.00     0.293 HD
ENDBRANCH  17  20
BRANCH  15  22
ATOM     22  O   UNL     1      53.125 -26.033  10.878  1.00  0.00    -0.508 OA
ATOM     23  H   UNL     1      53.571 -26.828  11.320  1.00  0.00     0.293 HD
ENDBRANCH  15  22
TORSDOF 3
ENDMDL
MODEL 4
REMARK VINA RESULT:    -4.001      2.553      3.488
REMARK INTER + INTRA:          -4.352
REMARK INTER:                  -4.352
REMARK INTRA:                   0.000
REMARK UNBOUND:                 0.000
REMARK SMILES Cc1cc(O)c2c(c1)C(=O)c1cc(O)cc(O)c1C2=O
REMARK SMILES IDX 1 1 2 2 8 3 7 4 6 5 4 6 3 7 19 8 20 9 18 10 11 11 9 12 10 13
REMARK SMILES IDX 12 14 13 15 15 16 16 17 5 18 17 20 14 22
REMARK H PARENT 5 19 17 21 14 23
REMARK Flexibility Score: inf
ROOT
ATOM      1  C   UNL     1      44.998 -24.609  11.547  1.00  0.00     0.044 C 
ATOM      2  C   UNL     1      46.408 -24.377  12.007  1.00  0.00    -0.047 A 
ATOM      3  C   UNL     1      47.090 -23.217  11.625  1.00  0.00     0.016 A 
ATOM      4  C   UNL     1      48.398 -22.971  12.078  1.00  0.00     0.038 A 
ATOM      5  C   UNL     1      49.029 -23.895  12.940  1.00  0.00     0.076 A 
ATOM      6  C   UNL     1      48.325 -25.057  13.339  1.00  0.00     0.127 A 
ATOM      7  C   UNL     1      47.023 -25.283  12.876  1.00  0.00     0.050 A 
ATOM      8  C   UNL     1      50.417 -23.623  13.412  1.00  0.00     0.201 C 
ATOM      9  O   UNL     1      50.990 -24.447  14.175  1.00  0.00    -0.288 OA
ATOM     10  C   UNL     1      51.134 -22.388  12.988  1.00  0.00     0.076 A 
ATOM     11  C   UNL     1      50.486 -21.472  12.128  1.00  0.00     0.041 A 
ATOM     12  C   UNL     1      49.109 -21.743  11.655  1.00  0.00     0.194 C 
ATOM     13  O   UNL     1      48.538 -20.921  10.885  1.00  0.00    -0.289 OA
ATOM     14  C   UNL     1      51.153 -20.303  11.721  1.00  0.00     0.059 A 
ATOM     15  C   UNL     1      52.452 -20.036  12.160  1.00  0.00     0.120 A 
ATOM     16  C   UNL     1      53.096 -20.935  13.008  1.00  0.00     0.093 A 
ATOM     17  C   UNL     1      52.451 -22.106  13.426  1.00  0.00     0.131 A 
ENDROOT
BRANCH   6  18
ATOM     18  O   UNL     1      48.910 -25.989  14.198  1.00  0.00    -0.507 OA
ATOM     19  H   UNL     1      49.304 -26.857  13.856  1.00  0.00     0.293 HD
ENDBRANCH   6  18
BRANCH  17  20
ATOM     20  O   UNL     1      53.125 -22.984  14.276  1.00  0.00    -0.507 OA
ATOM     21  H   UNL     1      52.865 -23.961  14.350  1.00  0.00     0.293 HD
ENDBRANCH  17  20
BRANCH  15  22
ATOM     22  O   UNL     1      53.115 -18.877  11.757  1.00  0.00    -0.508 OA
ATOM     23  H   UNL     1      53.019 -18.512  10.817  1.00  0.00     0.293 HD
ENDBRANCH  15  22
TORSDOF 3
ENDMDL
MODEL 5
REMARK VINA RESULT:    -3.795      2.695      5.937
REMARK INTER + INTRA:          -4.128
REMARK INTER:                  -4.128
REMARK INTRA:                   0.000
REMARK UNBOUND:                 0.000
REMARK SMILES Cc1cc(O)c2c(c1)C(=O)c1cc(O)cc(O)c1C2=O
REMARK SMILES IDX 1 1 2 2 8 3 7 4 6 5 4 6 3 7 19 8 20 9 18 10 11 11 9 12 10 13
REMARK SMILES IDX 12 14 13 15 15 16 16 17 5 18 17 20 14 22
REMARK H PARENT 5 19 17 21 14 23
REMARK Flexibility Score: inf
ROOT
ATOM      1  C   UNL     1      51.017 -18.502  10.920  1.00  0.00     0.044 C 
ATOM      2  C   UNL     1      50.947 -19.793  11.684  1.00  0.00    -0.047 A 
ATOM      3  C   UNL     1      49.805 -20.596  11.605  1.00  0.00     0.016 A 
ATOM      4  C   UNL     1      49.741 -21.824  12.288  1.00  0.00     0.038 A 
ATOM      5  C   UNL     1      50.847 -22.262  13.051  1.00  0.00     0.076 A 
ATOM      6  C   UNL     1      52.008 -21.453  13.109  1.00  0.00     0.127 A 
ATOM      7  C   UNL     1      52.049 -20.233  12.422  1.00  0.00     0.050 A 
ATOM      8  C   UNL     1      50.766 -23.564  13.772  1.00  0.00     0.201 C 
ATOM      9  O   UNL     1      51.745 -23.959  14.461  1.00  0.00    -0.288 OA
ATOM     10  C   UNL     1      49.538 -24.404  13.686  1.00  0.00     0.076 A 
ATOM     11  C   UNL     1      48.443 -23.952  12.915  1.00  0.00     0.041 A 
ATOM     12  C   UNL     1      48.520 -22.656  12.202  1.00  0.00     0.194 C 
ATOM     13  O   UNL     1      47.536 -22.259  11.517  1.00  0.00    -0.289 OA
ATOM     14  C   UNL     1      47.279 -24.735  12.827  1.00  0.00     0.059 A 
ATOM     15  C   UNL     1      47.194 -25.960  13.494  1.00  0.00     0.120 A 
ATOM     16  C   UNL     1      48.270 -26.411  14.255  1.00  0.00     0.093 A 
ATOM     17  C   UNL     1      49.440 -25.646  14.358  1.00  0.00     0.131 A 
ENDROOT
BRANCH   6  18
ATOM     18  O   UNL     1      53.124 -21.855  13.844  1.00  0.00    -0.507 OA
ATOM     19  H   UNL     1      54.043 -21.927  13.424  1.00  0.00     0.293 HD
ENDBRANCH   6  18
BRANCH  17  20
ATOM     20  O   UNL     1      50.499 -26.129  15.128  1.00  0.00    -0.507 OA
ATOM     21  H   UNL     1      51.427 -26.253  14.741  1.00  0.00     0.293 HD
ENDBRANCH  17  20
BRANCH  15  22
ATOM     22  O   UNL     1      46.040 -26.738  13.408  1.00  0.00    -0.508 OA
ATOM     23  H   UNL     1      45.132 -26.322  13.236  1.00  0.00     0.293 HD
ENDBRANCH  15  22
TORSDOF 3
ENDMDL
MODEL 6
REMARK VINA RESULT:    -3.723      1.694      2.116
REMARK INTER + INTRA:          -4.050
REMARK INTER:                  -4.050
REMARK INTRA:                   0.000
REMARK UNBOUND:                 0.000
REMARK SMILES Cc1cc(O)c2c(c1)C(=O)c1cc(O)cc(O)c1C2=O
REMARK SMILES IDX 1 1 2 2 8 3 7 4 6 5 4 6 3 7 19 8 20 9 18 10 11 11 9 12 10 13
REMARK SMILES IDX 12 14 13 15 15 16 16 17 5 18 17 20 14 22
REMARK H PARENT 5 19 17 21 14 23
REMARK Flexibility Score: inf
ROOT
ATOM      1  C   UNL     1      48.849 -27.122  15.929  1.00  0.00     0.044 C 
ATOM      2  C   UNL     1      49.475 -26.097  15.028  1.00  0.00    -0.047 A 
ATOM      3  C   UNL     1      49.310 -24.734  15.293  1.00  0.00     0.016 A 
ATOM      4  C   UNL     1      49.921 -23.765  14.476  1.00  0.00     0.038 A 
ATOM      5  C   UNL     1      50.722 -24.169  13.385  1.00  0.00     0.076 A 
ATOM      6  C   UNL     1      50.901 -25.551  13.136  1.00  0.00     0.127 A 
ATOM      7  C   UNL     1      50.283 -26.499  13.961  1.00  0.00     0.050 A 
ATOM      8  C   UNL     1      51.362 -23.132  12.526  1.00  0.00     0.201 C 
ATOM      9  O   UNL     1      52.073 -23.484  11.546  1.00  0.00    -0.288 OA
ATOM     10  C   UNL     1      51.169 -21.683  12.815  1.00  0.00     0.076 A 
ATOM     11  C   UNL     1      50.367 -21.297  13.913  1.00  0.00     0.041 A 
ATOM     12  C   UNL     1      49.727 -22.325  14.765  1.00  0.00     0.194 C 
ATOM     13  O   UNL     1      49.010 -21.972  15.742  1.00  0.00    -0.289 OA
ATOM     14  C   UNL     1      50.177 -19.932  14.195  1.00  0.00     0.059 A 
ATOM     15  C   UNL     1      50.776 -18.952  13.400  1.00  0.00     0.120 A 
ATOM     16  C   UNL     1      51.568 -19.327  12.316  1.00  0.00     0.093 A 
ATOM     17  C   UNL     1      51.771 -20.680  12.016  1.00  0.00     0.131 A 
ENDROOT
BRANCH   6  18
ATOM     18  O   UNL     1      51.693 -25.990  12.075  1.00  0.00    -0.507 OA
ATOM     19  H   UNL     1      52.629 -25.632  11.920  1.00  0.00     0.293 HD
ENDBRANCH   6  18
BRANCH  17  20
ATOM     20  O   UNL     1      52.570 -21.019  10.924  1.00  0.00    -0.507 OA
ATOM     21  H   UNL     1      52.775 -21.984  10.692  1.00  0.00     0.293 HD
ENDBRANCH  17  20
BRANCH  15  22
ATOM     22  O   UNL     1      50.589 -17.599  13.678  1.00  0.00    -0.508 OA
ATOM     23  H   UNL     1      49.745 -17.262  14.128  1.00  0.00     0.293 HD
ENDBRANCH  15  22
TORSDOF 3
ENDMDL
MODEL 7
REMARK VINA RESULT:    -3.583      3.096      6.112
REMARK INTER + INTRA:          -3.898
REMARK INTER:                  -3.898
REMARK INTRA:                   0.000
REMARK UNBOUND:                 0.000
REMARK SMILES Cc1cc(O)c2c(c1)C(=O)c1cc(O)cc(O)c1C2=O
REMARK SMILES IDX 1 1 2 2 8 3 7 4 6 5 4 6 3 7 19 8 20 9 18 10 11 11 9 12 10 13
REMARK SMILES IDX 12 14 13 15 15 16 16 17 5 18 17 20 14 22
REMARK H PARENT 5 19 17 21 14 23
REMARK Flexibility Score: inf
ROOT
ATOM      1  C   UNL     1      50.790 -19.093  10.875  1.00  0.00     0.044 C 
ATOM      2  C   UNL     1      50.218 -20.385  11.382  1.00  0.00    -0.047 A 
ATOM      3  C   UNL     1      50.920 -21.143  12.324  1.00  0.00     0.016 A 
ATOM      4  C   UNL     1      50.379 -22.338  12.834  1.00  0.00     0.038 A 
ATOM      5  C   UNL     1      49.106 -22.772  12.402  1.00  0.00     0.076 A 
ATOM      6  C   UNL     1      48.392 -21.989  11.463  1.00  0.00     0.127 A 
ATOM      7  C   UNL     1      48.950 -20.803  10.969  1.00  0.00     0.050 A 
ATOM      8  C   UNL     1      48.545 -24.041  12.947  1.00  0.00     0.201 C 
ATOM      9  O   UNL     1      47.413 -24.440  12.562  1.00  0.00    -0.288 OA
ATOM     10  C   UNL     1      49.310 -24.843  13.944  1.00  0.00     0.076 A 
ATOM     11  C   UNL     1      50.580 -24.390  14.367  1.00  0.00     0.041 A 
ATOM     12  C   UNL     1      51.142 -23.133  13.823  1.00  0.00     0.194 C 
ATOM     13  O   UNL     1      52.278 -22.737  14.204  1.00  0.00    -0.289 OA
ATOM     14  C   UNL     1      51.311 -25.139  15.306  1.00  0.00     0.059 A 
ATOM     15  C   UNL     1      50.793 -26.327  15.828  1.00  0.00     0.120 A 
ATOM     16  C   UNL     1      49.541 -26.777  15.414  1.00  0.00     0.093 A 
ATOM     17  C   UNL     1      48.795 -26.048  14.479  1.00  0.00     0.131 A 
ENDROOT
BRANCH   6  18
ATOM     18  O   UNL     1      47.128 -22.379  11.019  1.00  0.00    -0.507 OA
ATOM     19  H   UNL     1      46.354 -21.727  10.968  1.00  0.00     0.293 HD
ENDBRANCH   6  18
BRANCH  17  20
ATOM     20  O   UNL     1      47.544 -26.528  14.088  1.00  0.00    -0.507 OA
ATOM     21  H   UNL     1      47.381 -26.898  13.158  1.00  0.00     0.293 HD
ENDBRANCH  17  20
BRANCH  15  22
ATOM     22  O   UNL     1      51.517 -27.070  16.759  1.00  0.00    -0.508 OA
ATOM     23  H   UNL     1      52.386 -27.528  16.511  1.00  0.00     0.293 HD
ENDBRANCH  15  22
TORSDOF 3
ENDMDL
