MODEL 1
REMARK VINA RESULT:    -3.887      0.000      0.000
REMARK INTER + INTRA:          -5.533
REMARK INTER:                  -5.250
REMARK INTRA:                  -0.282
REMARK UNBOUND:                -0.282
REMARK SMILES CCCCCCCC(=O)[O-]
REMARK SMILES IDX 5 1 6 2 7 3 8 4 9 5 10 6 4 7 3 8 2 9 1 10
REMARK H PARENT
REMARK Flexibility Score: inf
ROOT
ATOM      1  C   UNL     1      16.608  12.266 -15.107  1.00  0.00     0.000 C 
ENDROOT
BRANCH   1   2
ATOM      2  C   UNL     1      15.912  12.158 -13.737  1.00  0.00     0.006 C 
BRANCH   2   3
ATOM      3  C   UNL     1      14.533  11.490 -13.818  1.00  0.00     0.053 C 
BRANCH   3   4
ATOM      4  C   UNL     1      14.630  10.176 -14.525  1.00  0.00     0.041 C 
ATOM      5  O   UNL     1      15.327   9.245 -14.041  1.00  0.00    -0.550 OA
ATOM      6  O   UNL     1      13.993   9.993 -15.745  1.00  0.00    -0.550 OA
ENDBRANCH   3   4
ENDBRANCH   2   3
ENDBRANCH   1   2
BRANCH   1   7
ATOM      7  C   UNL     1      18.118  12.566 -15.050  1.00  0.00     0.000 C 
BRANCH   7   8
ATOM      8  C   UNL     1      18.811  11.923 -13.837  1.00  0.00    -0.000 C 
BRANCH   8   9
ATOM      9  C   UNL     1      20.221  12.486 -13.598  1.00  0.00    -0.003 C 
ATOM     10  C   UNL     1      20.506  13.741 -14.422  1.00  0.00     0.004 C 
ENDBRANCH   8   9
ENDBRANCH   7   8
ENDBRANCH   1   7
TORSDOF 6
ENDMDL
MODEL 2
REMARK VINA RESULT:    -3.817      1.233      1.895
REMARK INTER + INTRA:          -5.439
REMARK INTER:                  -5.158
REMARK INTRA:                  -0.281
REMARK UNBOUND:                -0.282
REMARK SMILES CCCCCCCC(=O)[O-]
REMARK SMILES IDX 5 1 6 2 7 3 8 4 9 5 10 6 4 7 3 8 2 9 1 10
REMARK H PARENT
REMARK Flexibility Score: inf
ROOT
ATOM      1  C   UNL     1      18.044  11.389 -13.789  1.00  0.00     0.000 C 
ENDROOT
BRANCH   1   2
ATOM      2  C   UNL     1      17.035  12.277 -14.541  1.00  0.00     0.006 C 
BRANCH   2   3
ATOM      3  C   UNL     1      15.942  11.470 -15.253  1.00  0.00     0.053 C 
BRANCH   3   4
ATOM      4  C   UNL     1      15.038  10.821 -14.254  1.00  0.00     0.041 C 
ATOM      5  O   UNL     1      14.308  11.525 -13.508  1.00  0.00    -0.550 OA
ATOM      6  O   UNL     1      15.039   9.440 -14.109  1.00  0.00    -0.550 OA
ENDBRANCH   3   4
ENDBRANCH   2   3
ENDBRANCH   1   2
BRANCH   1   7
ATOM      7  C   UNL     1      19.406  12.048 -13.501  1.00  0.00     0.000 C 
BRANCH   7   8
ATOM      8  C   UNL     1      19.818  13.069 -14.576  1.00  0.00    -0.000 C 
BRANCH   8   9
ATOM      9  C   UNL     1      21.004  13.940 -14.136  1.00  0.00    -0.003 C 
ATOM     10  C   UNL     1      21.882  13.262 -13.084  1.00  0.00     0.004 C 
ENDBRANCH   8   9
ENDBRANCH   7   8
ENDBRANCH   1   7
TORSDOF 6
ENDMDL
MODEL 3
REMARK VINA RESULT:    -3.805      1.281      1.915
REMARK INTER + INTRA:          -5.422
REMARK INTER:                  -5.182
REMARK INTRA:                  -0.240
REMARK UNBOUND:                -0.282
REMARK SMILES CCCCCCCC(=O)[O-]
REMARK SMILES IDX 5 1 6 2 7 3 8 4 9 5 10 6 4 7 3 8 2 9 1 10
REMARK H PARENT
REMARK Flexibility Score: inf
ROOT
ATOM      1  C   UNL     1      18.373  11.229 -13.764  1.00  0.00     0.000 C 
ENDROOT
BRANCH   1   2
ATOM      2  C   UNL     1      17.163  12.045 -14.258  1.00  0.00     0.006 C 
BRANCH   2   3
ATOM      3  C   UNL     1      16.170  11.210 -15.076  1.00  0.00     0.053 C 
BRANCH   3   4
ATOM      4  C   UNL     1      15.091  10.669 -14.193  1.00  0.00     0.041 C 
ATOM      5  O   UNL     1      14.843   9.434 -14.179  1.00  0.00    -0.550 OA
ATOM      6  O   UNL     1      14.325  11.533 -13.422  1.00  0.00    -0.550 OA
ENDBRANCH   3   4
ENDBRANCH   2   3
ENDBRANCH   1   2
BRANCH   1   7
ATOM      7  C   UNL     1      19.645  12.051 -13.487  1.00  0.00     0.000 C 
BRANCH   7   8
ATOM      8  C   UNL     1      19.893  13.146 -14.538  1.00  0.00    -0.000 C 
BRANCH   8   9
ATOM      9  C   UNL     1      21.160  13.965 -14.246  1.00  0.00    -0.003 C 
ATOM     10  C   UNL     1      22.011  13.365 -13.127  1.00  0.00     0.004 C 
ENDBRANCH   8   9
ENDBRANCH   7   8
ENDBRANCH   1   7
TORSDOF 6
ENDMDL
MODEL 4
REMARK VINA RESULT:    -3.716      1.601      2.089
REMARK INTER + INTRA:          -5.302
REMARK INTER:                  -4.909
REMARK INTRA:                  -0.393
REMARK UNBOUND:                -0.282
REMARK SMILES CCCCCCCC(=O)[O-]
REMARK SMILES IDX 5 1 6 2 7 3 8 4 9 5 10 6 4 7 3 8 2 9 1 10
REMARK H PARENT
REMARK Flexibility Score: inf
ROOT
ATOM      1  C   UNL     1      18.225  10.251 -13.895  1.00  0.00     0.000 C 
ENDROOT
BRANCH   1   2
ATOM      2  C   UNL     1      17.254  10.268 -15.091  1.00  0.00     0.006 C 
BRANCH   2   3
ATOM      3  C   UNL     1      15.794  10.044 -14.679  1.00  0.00     0.053 C 
BRANCH   3   4
ATOM      4  C   UNL     1      15.108  11.354 -14.454  1.00  0.00     0.041 C 
ATOM      5  O   UNL     1      14.399  11.530 -13.429  1.00  0.00    -0.550 OA
ATOM      6  O   UNL     1      15.211  12.364 -15.401  1.00  0.00    -0.550 OA
ENDBRANCH   3   4
ENDBRANCH   2   3
ENDBRANCH   1   2
BRANCH   1   7
ATOM      7  C   UNL     1      18.745  11.633 -13.456  1.00  0.00     0.000 C 
BRANCH   7   8
ATOM      8  C   UNL     1      18.802  12.647 -14.612  1.00  0.00    -0.000 C 
BRANCH   8   9
ATOM      9  C   UNL     1      20.116  13.442 -14.631  1.00  0.00    -0.003 C 
ATOM     10  C   UNL     1      21.048  13.079 -13.476  1.00  0.00     0.004 C 
ENDBRANCH   8   9
ENDBRANCH   7   8
ENDBRANCH   1   7
TORSDOF 6
ENDMDL
MODEL 5
REMARK VINA RESULT:    -3.676      1.526      2.303
REMARK INTER + INTRA:          -5.248
REMARK INTER:                  -5.039
REMARK INTRA:                  -0.209
REMARK UNBOUND:                -0.282
REMARK SMILES CCCCCCCC(=O)[O-]
REMARK SMILES IDX 5 1 6 2 7 3 8 4 9 5 10 6 4 7 3 8 2 9 1 10
REMARK H PARENT
REMARK Flexibility Score: inf
ROOT
ATOM      1  C   UNL     1      19.140  11.982 -13.699  1.00  0.00     0.000 C 
ENDROOT
BRANCH   1   2
ATOM      2  C   UNL     1      17.809  11.249 -13.952  1.00  0.00     0.006 C 
BRANCH   2   3
ATOM      3  C   UNL     1      16.663  12.198 -14.322  1.00  0.00     0.053 C 
BRANCH   3   4
ATOM      4  C   UNL     1      15.388  11.435 -14.495  1.00  0.00     0.041 C 
ATOM      5  O   UNL     1      15.149  10.838 -15.578  1.00  0.00    -0.550 OA
ATOM      6  O   UNL     1      14.440  11.424 -13.480  1.00  0.00    -0.550 OA
ENDBRANCH   3   4
ENDBRANCH   2   3
ENDBRANCH   1   2
BRANCH   1   7
ATOM      7  C   UNL     1      19.458  13.117 -14.690  1.00  0.00     0.000 C 
BRANCH   7   8
ATOM      8  C   UNL     1      20.791  13.823 -14.385  1.00  0.00    -0.000 C 
BRANCH   8   9
ATOM      9  C   UNL     1      21.558  13.157 -13.232  1.00  0.00    -0.003 C 
ATOM     10  C   UNL     1      22.857  13.884 -12.885  1.00  0.00     0.004 C 
ENDBRANCH   8   9
ENDBRANCH   7   8
ENDBRANCH   1   7
TORSDOF 6
ENDMDL
MODEL 6
REMARK VINA RESULT:    -3.634      1.143      1.826
REMARK INTER + INTRA:          -5.191
REMARK INTER:                  -4.684
REMARK INTRA:                  -0.507
REMARK UNBOUND:                -0.282
REMARK SMILES CCCCCCCC(=O)[O-]
REMARK SMILES IDX 5 1 6 2 7 3 8 4 9 5 10 6 4 7 3 8 2 9 1 10
REMARK H PARENT
REMARK Flexibility Score: inf
ROOT
ATOM      1  C   UNL     1      15.887  12.124 -13.749  1.00  0.00     0.000 C 
ENDROOT
BRANCH   1   2
ATOM      2  C   UNL     1      14.624  11.247 -13.833  1.00  0.00     0.006 C 
BRANCH   2   3
ATOM      3  C   UNL     1      14.626  10.308 -15.046  1.00  0.00     0.053 C 
BRANCH   3   4
ATOM      4  C   UNL     1      15.436   9.084 -14.757  1.00  0.00     0.041 C 
ATOM      5  O   UNL     1      16.504   8.867 -15.388  1.00  0.00    -0.550 OA
ATOM      6  O   UNL     1      14.987   8.157 -13.826  1.00  0.00    -0.550 OA
ENDBRANCH   3   4
ENDBRANCH   2   3
ENDBRANCH   1   2
BRANCH   1   7
ATOM      7  C   UNL     1      16.466  12.566 -15.106  1.00  0.00     0.000 C 
BRANCH   7   8
ATOM      8  C   UNL     1      17.919  12.108 -15.316  1.00  0.00    -0.000 C 
BRANCH   8   9
ATOM      9  C   UNL     1      18.572  11.611 -14.017  1.00  0.00    -0.003 C 
ATOM     10  C   UNL     1      19.835  12.390 -13.651  1.00  0.00     0.004 C 
ENDBRANCH   8   9
ENDBRANCH   7   8
ENDBRANCH   1   7
TORSDOF 6
ENDMDL
MODEL 7
REMARK VINA RESULT:    -3.536      3.581      5.706
REMARK INTER + INTRA:          -5.059
REMARK INTER:                  -4.809
REMARK INTRA:                  -0.250
REMARK UNBOUND:                -0.282
REMARK SMILES CCCCCCCC(=O)[O-]
REMARK SMILES IDX 5 1 6 2 7 3 8 4 9 5 10 6 4 7 3 8 2 9 1 10
REMARK H PARENT
REMARK Flexibility Score: inf
ROOT
ATOM      1  C   UNL     1      17.640  12.551 -15.087  1.00  0.00     0.000 C 
ENDROOT
BRANCH   1   2
ATOM      2  C   UNL     1      19.149  12.242 -15.127  1.00  0.00     0.006 C 
BRANCH   2   3
ATOM      3  C   UNL     1      19.812  12.321 -13.746  1.00  0.00     0.053 C 
BRANCH   3   4
ATOM      4  C   UNL     1      20.906  13.341 -13.750  1.00  0.00     0.041 C 
ATOM      5  O   UNL     1      20.920  14.252 -14.620  1.00  0.00    -0.550 OA
ATOM      6  O   UNL     1      21.938  13.258 -12.825  1.00  0.00    -0.550 OA
ENDBRANCH   3   4
ENDBRANCH   2   3
ENDBRANCH   1   2
BRANCH   1   7
ATOM      7  C   UNL     1      16.885  11.965 -13.880  1.00  0.00     0.000 C 
BRANCH   7   8
ATOM      8  C   UNL     1      15.414  12.411 -13.819  1.00  0.00    -0.000 C 
BRANCH   8   9
ATOM      9  C   UNL     1      14.441  11.222 -13.769  1.00  0.00    -0.003 C 
ATOM     10  C   UNL     1      15.037   9.941 -14.349  1.00  0.00     0.004 C 
ENDBRANCH   8   9
ENDBRANCH   7   8
ENDBRANCH   1   7
TORSDOF 6
ENDMDL
MODEL 8
REMARK VINA RESULT:    -3.460      3.959      5.958
REMARK INTER + INTRA:          -4.957
REMARK INTER:                  -4.687
REMARK INTRA:                  -0.269
REMARK UNBOUND:                -0.282
REMARK SMILES CCCCCCCC(=O)[O-]
REMARK SMILES IDX 5 1 6 2 7 3 8 4 9 5 10 6 4 7 3 8 2 9 1 10
REMARK H PARENT
REMARK Flexibility Score: inf
ROOT
ATOM      1  C   UNL     1      18.639  11.617 -13.281  1.00  0.00     0.000 C 
ENDROOT
BRANCH   1   2
ATOM      2  C   UNL     1      20.027  11.889 -13.892  1.00  0.00     0.006 C 
BRANCH   2   3
ATOM      3  C   UNL     1      20.256  13.370 -14.221  1.00  0.00     0.053 C 
BRANCH   3   4
ATOM      4  C   UNL     1      21.590  13.817 -13.715  1.00  0.00     0.041 C 
ATOM      5  O   UNL     1      22.176  13.164 -12.811  1.00  0.00    -0.550 OA
ATOM      6  O   UNL     1      22.165  14.983 -14.204  1.00  0.00    -0.550 OA
ENDBRANCH   3   4
ENDBRANCH   2   3
ENDBRANCH   1   2
BRANCH   1   7
ATOM      7  C   UNL     1      17.721  10.713 -14.125  1.00  0.00     0.000 C 
BRANCH   7   8
ATOM      8  C   UNL     1      16.706  11.507 -14.965  1.00  0.00    -0.000 C 
BRANCH   8   9
ATOM      9  C   UNL     1      15.689  12.265 -14.097  1.00  0.00    -0.003 C 
ATOM     10  C   UNL     1      14.475  11.415 -13.726  1.00  0.00     0.004 C 
ENDBRANCH   8   9
ENDBRANCH   7   8
ENDBRANCH   1   7
TORSDOF 6
ENDMDL
MODEL 9
REMARK VINA RESULT:    -3.410      2.060      2.778
REMARK INTER + INTRA:          -4.889
REMARK INTER:                  -4.338
REMARK INTRA:                  -0.550
REMARK UNBOUND:                -0.282
REMARK SMILES CCCCCCCC(=O)[O-]
REMARK SMILES IDX 5 1 6 2 7 3 8 4 9 5 10 6 4 7 3 8 2 9 1 10
REMARK H PARENT
REMARK Flexibility Score: inf
ROOT
ATOM      1  C   UNL     1      16.484   8.986 -14.244  1.00  0.00     0.000 C 
ENDROOT
BRANCH   1   2
ATOM      2  C   UNL     1      15.029   9.078 -14.743  1.00  0.00     0.006 C 
BRANCH   2   3
ATOM      3  C   UNL     1      14.731  10.389 -15.481  1.00  0.00     0.053 C 
BRANCH   3   4
ATOM      4  C   UNL     1      14.923  11.558 -14.568  1.00  0.00     0.041 C 
ATOM      5  O   UNL     1      15.716  12.484 -14.882  1.00  0.00    -0.550 OA
ATOM      6  O   UNL     1      14.266  11.601 -13.345  1.00  0.00    -0.550 OA
ENDBRANCH   3   4
ENDBRANCH   2   3
ENDBRANCH   1   2
BRANCH   1   7
ATOM      7  C   UNL     1      17.557   9.038 -15.348  1.00  0.00     0.000 C 
BRANCH   7   8
ATOM      8  C   UNL     1      18.569  10.178 -15.147  1.00  0.00    -0.000 C 
BRANCH   8   9
ATOM      9  C   UNL     1      18.587  10.701 -13.702  1.00  0.00    -0.003 C 
ATOM     10  C   UNL     1      19.372  12.004 -13.551  1.00  0.00     0.004 C 
ENDBRANCH   8   9
ENDBRANCH   7   8
ENDBRANCH   1   7
TORSDOF 6
ENDMDL
