MODEL 1
REMARK VINA RESULT:    -3.850      0.000      0.000
REMARK INTER + INTRA:          -4.873
REMARK INTER:                  -4.750
REMARK INTRA:                  -0.123
REMARK UNBOUND:                -0.123
REMARK SMILES CCCCCC(=O)[O-]
REMARK SMILES IDX 4 1 5 2 6 3 7 4 8 5 3 6 2 7 1 8
REMARK H PARENT
REMARK Flexibility Score: inf
ROOT
ATOM      1  C   UNL     1      19.116  23.979   8.004  1.00  0.00     0.006 C 
ENDROOT
BRANCH   1   2
ATOM      2  C   UNL     1      20.517  23.523   8.432  1.00  0.00     0.053 C 
BRANCH   2   3
ATOM      3  C   UNL     1      20.493  23.016   9.839  1.00  0.00     0.041 C 
ATOM      4  O   UNL     1      21.267  23.505  10.703  1.00  0.00    -0.550 OA
ATOM      5  O   UNL     1      19.650  21.967  10.186  1.00  0.00    -0.550 OA
ENDBRANCH   2   3
ENDBRANCH   1   2
BRANCH   1   6
ATOM      6  C   UNL     1      18.467  24.931   9.020  1.00  0.00     0.000 C 
BRANCH   6   7
ATOM      7  C   UNL     1      19.038  26.355   8.944  1.00  0.00    -0.003 C 
ATOM      8  C   UNL     1      17.928  27.380   8.732  1.00  0.00     0.004 C 
ENDBRANCH   6   7
ENDBRANCH   1   6
TORSDOF 4
ENDMDL
MODEL 2
REMARK VINA RESULT:    -3.843      2.244      3.811
REMARK INTER + INTRA:          -4.865
REMARK INTER:                  -4.690
REMARK INTRA:                  -0.175
REMARK UNBOUND:                -0.123
REMARK SMILES CCCCCC(=O)[O-]
REMARK SMILES IDX 4 1 5 2 6 3 7 4 8 5 3 6 2 7 1 8
REMARK H PARENT
REMARK Flexibility Score: inf
ROOT
ATOM      1  C   UNL     1      17.933  23.766   8.014  1.00  0.00     0.006 C 
ENDROOT
BRANCH   1   2
ATOM      2  C   UNL     1      17.726  25.249   8.348  1.00  0.00     0.053 C 
BRANCH   2   3
ATOM      3  C   UNL     1      18.846  25.754   9.201  1.00  0.00     0.041 C 
ATOM      4  O   UNL     1      19.442  24.975   9.990  1.00  0.00    -0.550 OA
ATOM      5  O   UNL     1      19.200  27.097   9.162  1.00  0.00    -0.550 OA
ENDBRANCH   2   3
ENDBRANCH   1   2
BRANCH   1   6
ATOM      6  C   UNL     1      17.936  23.495   6.501  1.00  0.00     0.000 C 
BRANCH   6   7
ATOM      7  C   UNL     1      19.182  22.723   6.042  1.00  0.00    -0.003 C 
ATOM      8  C   UNL     1      20.279  22.770   7.102  1.00  0.00     0.004 C 
ENDBRANCH   6   7
ENDBRANCH   1   6
TORSDOF 4
ENDMDL
MODEL 3
REMARK VINA RESULT:    -3.817      1.234      1.486
REMARK INTER + INTRA:          -4.832
REMARK INTER:                  -4.705
REMARK INTRA:                  -0.127
REMARK UNBOUND:                -0.123
REMARK SMILES CCCCCC(=O)[O-]
REMARK SMILES IDX 4 1 5 2 6 3 7 4 8 5 3 6 2 7 1 8
REMARK H PARENT
REMARK Flexibility Score: inf
ROOT
ATOM      1  C   UNL     1      20.272  23.947   8.809  1.00  0.00     0.006 C 
ENDROOT
BRANCH   1   2
ATOM      2  C   UNL     1      20.456  23.299  10.187  1.00  0.00     0.053 C 
BRANCH   2   3
ATOM      3  C   UNL     1      19.455  22.205  10.387  1.00  0.00     0.041 C 
ATOM      4  O   UNL     1      18.868  22.078  11.493  1.00  0.00    -0.550 OA
ATOM      5  O   UNL     1      19.206  21.295   9.367  1.00  0.00    -0.550 OA
ENDBRANCH   2   3
ENDBRANCH   1   2
BRANCH   1   6
ATOM      6  C   UNL     1      18.966  24.749   8.702  1.00  0.00     0.000 C 
BRANCH   6   7
ATOM      7  C   UNL     1      19.055  26.118   9.393  1.00  0.00    -0.003 C 
ATOM      8  C   UNL     1      18.196  27.153   8.672  1.00  0.00     0.004 C 
ENDBRANCH   6   7
ENDBRANCH   1   6
TORSDOF 4
ENDMDL
MODEL 4
REMARK VINA RESULT:    -3.797      2.410      3.867
REMARK INTER + INTRA:          -4.808
REMARK INTER:                  -4.639
REMARK INTRA:                  -0.169
REMARK UNBOUND:                -0.123
REMARK SMILES CCCCCC(=O)[O-]
REMARK SMILES IDX 4 1 5 2 6 3 7 4 8 5 3 6 2 7 1 8
REMARK H PARENT
REMARK Flexibility Score: inf
ROOT
ATOM      1  C   UNL     1      20.885  23.464  10.591  1.00  0.00     0.006 C 
ENDROOT
BRANCH   1   2
ATOM      2  C   UNL     1      19.406  23.230  10.256  1.00  0.00     0.053 C 
BRANCH   2   3
ATOM      3  C   UNL     1      18.658  24.525  10.262  1.00  0.00     0.041 C 
ATOM      4  O   UNL     1      19.260  25.606  10.033  1.00  0.00    -0.550 OA
ATOM      5  O   UNL     1      17.303  24.544  10.570  1.00  0.00    -0.550 OA
ENDBRANCH   2   3
ENDBRANCH   1   2
BRANCH   1   6
ATOM      6  C   UNL     1      21.831  22.909   9.515  1.00  0.00     0.000 C 
BRANCH   6   7
ATOM      7  C   UNL     1      21.297  23.125   8.091  1.00  0.00    -0.003 C 
ATOM      8  C   UNL     1      21.763  22.014   7.155  1.00  0.00     0.004 C 
ENDBRANCH   6   7
ENDBRANCH   1   6
TORSDOF 4
ENDMDL
MODEL 5
REMARK VINA RESULT:    -3.784      1.465      2.542
REMARK INTER + INTRA:          -4.792
REMARK INTER:                  -4.583
REMARK INTRA:                  -0.209
REMARK UNBOUND:                -0.123
REMARK SMILES CCCCCC(=O)[O-]
REMARK SMILES IDX 4 1 5 2 6 3 7 4 8 5 3 6 2 7 1 8
REMARK H PARENT
REMARK Flexibility Score: inf
ROOT
ATOM      1  C   UNL     1      19.144  24.696   8.412  1.00  0.00     0.006 C 
ENDROOT
BRANCH   1   2
ATOM      2  C   UNL     1      19.122  24.414   9.920  1.00  0.00     0.053 C 
BRANCH   2   3
ATOM      3  C   UNL     1      20.027  23.269  10.250  1.00  0.00     0.041 C 
ATOM      4  O   UNL     1      21.174  23.482  10.720  1.00  0.00    -0.550 OA
ATOM      5  O   UNL     1      19.620  21.965   9.991  1.00  0.00    -0.550 OA
ENDBRANCH   2   3
ENDBRANCH   1   2
BRANCH   1   6
ATOM      6  C   UNL     1      17.803  24.377   7.732  1.00  0.00     0.000 C 
BRANCH   6   7
ATOM      7  C   UNL     1      17.966  23.481   6.495  1.00  0.00    -0.003 C 
ATOM      8  C   UNL     1      19.355  22.850   6.454  1.00  0.00     0.004 C 
ENDBRANCH   6   7
ENDBRANCH   1   6
TORSDOF 4
ENDMDL
MODEL 6
REMARK VINA RESULT:    -3.782      1.562      1.673
REMARK INTER + INTRA:          -4.790
REMARK INTER:                  -4.634
REMARK INTRA:                  -0.155
REMARK UNBOUND:                -0.123
REMARK SMILES CCCCCC(=O)[O-]
REMARK SMILES IDX 4 1 5 2 6 3 7 4 8 5 3 6 2 7 1 8
REMARK H PARENT
REMARK Flexibility Score: inf
ROOT
ATOM      1  C   UNL     1      19.317  23.893   9.683  1.00  0.00     0.006 C 
ENDROOT
BRANCH   1   2
ATOM      2  C   UNL     1      19.997  23.743   8.316  1.00  0.00     0.053 C 
BRANCH   2   3
ATOM      3  C   UNL     1      21.323  23.067   8.464  1.00  0.00     0.041 C 
ATOM      4  O   UNL     1      21.948  23.129   9.554  1.00  0.00    -0.550 OA
ATOM      5  O   UNL     1      21.892  22.408   7.381  1.00  0.00    -0.550 OA
ENDBRANCH   2   3
ENDBRANCH   1   2
BRANCH   1   6
ATOM      6  C   UNL     1      19.034  25.359  10.046  1.00  0.00     0.000 C 
BRANCH   6   7
ATOM      7  C   UNL     1      19.151  26.299   8.837  1.00  0.00    -0.003 C 
ATOM      8  C   UNL     1      17.960  27.251   8.765  1.00  0.00     0.004 C 
ENDBRANCH   6   7
ENDBRANCH   1   6
TORSDOF 4
ENDMDL
MODEL 7
REMARK VINA RESULT:    -3.782      2.597      4.339
REMARK INTER + INTRA:          -4.790
REMARK INTER:                  -4.683
REMARK INTRA:                  -0.106
REMARK UNBOUND:                -0.123
REMARK SMILES CCCCCC(=O)[O-]
REMARK SMILES IDX 4 1 5 2 6 3 7 4 8 5 3 6 2 7 1 8
REMARK H PARENT
REMARK Flexibility Score: inf
ROOT
ATOM      1  C   UNL     1      19.081  23.655   7.596  1.00  0.00     0.006 C 
ENDROOT
BRANCH   1   2
ATOM      2  C   UNL     1      19.541  24.586   8.726  1.00  0.00     0.053 C 
BRANCH   2   3
ATOM      3  C   UNL     1      18.654  25.788   8.805  1.00  0.00     0.041 C 
ATOM      4  O   UNL     1      17.430  25.692   8.529  1.00  0.00    -0.550 OA
ATOM      5  O   UNL     1      19.190  27.027   9.136  1.00  0.00    -0.550 OA
ENDBRANCH   2   3
ENDBRANCH   1   2
BRANCH   1   6
ATOM      6  C   UNL     1      20.220  22.781   7.049  1.00  0.00     0.000 C 
BRANCH   6   7
ATOM      7  C   UNL     1      21.457  22.785   7.960  1.00  0.00    -0.003 C 
ATOM      8  C   UNL     1      22.112  21.407   8.001  1.00  0.00     0.004 C 
ENDBRANCH   6   7
ENDBRANCH   1   6
TORSDOF 4
ENDMDL
MODEL 8
REMARK VINA RESULT:    -3.750      2.771      3.880
REMARK INTER + INTRA:          -4.750
REMARK INTER:                  -4.578
REMARK INTRA:                  -0.172
REMARK UNBOUND:                -0.123
REMARK SMILES CCCCCC(=O)[O-]
REMARK SMILES IDX 4 1 5 2 6 3 7 4 8 5 3 6 2 7 1 8
REMARK H PARENT
REMARK Flexibility Score: inf
ROOT
ATOM      1  C   UNL     1      19.862  23.888  10.122  1.00  0.00     0.006 C 
ENDROOT
BRANCH   1   2
ATOM      2  C   UNL     1      19.507  24.564   8.791  1.00  0.00     0.053 C 
BRANCH   2   3
ATOM      3  C   UNL     1      18.675  25.784   9.032  1.00  0.00     0.041 C 
ATOM      4  O   UNL     1      19.208  26.923   9.040  1.00  0.00    -0.550 OA
ATOM      5  O   UNL     1      17.316  25.657   9.296  1.00  0.00    -0.550 OA
ENDBRANCH   2   3
ENDBRANCH   1   2
BRANCH   1   6
ATOM      6  C   UNL     1      19.493  22.396  10.144  1.00  0.00     0.000 C 
BRANCH   6   7
ATOM      7  C   UNL     1      18.703  22.002  11.401  1.00  0.00    -0.003 C 
ATOM      8  C   UNL     1      17.386  22.769  11.485  1.00  0.00     0.004 C 
ENDBRANCH   6   7
ENDBRANCH   1   6
TORSDOF 4
ENDMDL
MODEL 9
REMARK VINA RESULT:    -3.748      2.572      4.157
REMARK INTER + INTRA:          -4.748
REMARK INTER:                  -4.608
REMARK INTRA:                  -0.140
REMARK UNBOUND:                -0.123
REMARK SMILES CCCCCC(=O)[O-]
REMARK SMILES IDX 4 1 5 2 6 3 7 4 8 5 3 6 2 7 1 8
REMARK H PARENT
REMARK Flexibility Score: inf
ROOT
ATOM      1  C   UNL     1      19.468  23.880   9.853  1.00  0.00     0.006 C 
ENDROOT
BRANCH   1   2
ATOM      2  C   UNL     1      19.235  25.392   9.964  1.00  0.00     0.053 C 
BRANCH   2   3
ATOM      3  C   UNL     1      18.354  25.868   8.852  1.00  0.00     0.041 C 
ATOM      4  O   UNL     1      17.901  25.051   8.009  1.00  0.00    -0.550 OA
ATOM      5  O   UNL     1      18.073  27.222   8.719  1.00  0.00    -0.550 OA
ENDBRANCH   2   3
ENDBRANCH   1   2
BRANCH   1   6
ATOM      6  C   UNL     1      20.817  23.444  10.445  1.00  0.00     0.000 C 
BRANCH   6   7
ATOM      7  C   UNL     1      21.773  22.879   9.384  1.00  0.00    -0.003 C 
ATOM      8  C   UNL     1      21.137  22.916   7.997  1.00  0.00     0.004 C 
ENDBRANCH   6   7
ENDBRANCH   1   6
TORSDOF 4
ENDMDL
