MODEL 1
REMARK VINA RESULT:    -6.156      0.000      0.000
REMARK INTER + INTRA:          -7.361
REMARK INTER:                  -7.235
REMARK INTRA:                  -0.126
REMARK UNBOUND:                -0.126
REMARK SMILES O=C([O-])C=Cc1ccc(O)c(O)c1
REMARK SMILES IDX 6 1 13 2 7 3 11 4 8 5 9 6 5 7 4 8 2 9 1 10 3 11 12 12 10 14
REMARK H PARENT 12 13 10 15
REMARK Flexibility Score: inf
ROOT
ATOM      1  C   UNL     1      81.019   1.880   0.044  1.00  0.00    -0.022 A 
ATOM      2  C   UNL     1      80.383   0.665  -0.281  1.00  0.00     0.058 A 
ATOM      3  C   UNL     1      80.226   3.009   0.310  1.00  0.00     0.012 A 
ATOM      4  C   UNL     1      78.983   0.579  -0.314  1.00  0.00     0.157 A 
ATOM      5  C   UNL     1      78.832   2.923   0.280  1.00  0.00     0.051 A 
ATOM      6  C   UNL     1      78.207   1.708  -0.029  1.00  0.00     0.157 A 
ENDROOT
BRANCH   1   7
ATOM      7  C   UNL     1      82.495   2.025   0.080  1.00  0.00     0.010 C 
ATOM      8  C   UNL     1      83.291   1.335   0.908  1.00  0.00     0.025 C 
BRANCH   8   9
ATOM      9  C   UNL     1      84.750   1.519   0.918  1.00  0.00     0.064 C 
ATOM     10  O   UNL     1      85.363   1.688  -0.169  1.00  0.00    -0.545 OA
ATOM     11  O   UNL     1      85.466   1.513   2.110  1.00  0.00    -0.545 OA
ENDBRANCH   8   9
ENDBRANCH   1   7
BRANCH   4  12
ATOM     12  O   UNL     1      78.357  -0.625  -0.633  1.00  0.00    -0.504 OA
ATOM     13  H   UNL     1      78.747  -1.261  -1.317  1.00  0.00     0.293 HD
ENDBRANCH   4  12
BRANCH   6  14
ATOM     14  O   UNL     1      76.817   1.618  -0.059  1.00  0.00    -0.504 OA
ATOM     15  H   UNL     1      76.303   1.630  -0.932  1.00  0.00     0.293 HD
ENDBRANCH   6  14
TORSDOF 4
ENDMDL
MODEL 2
REMARK VINA RESULT:    -5.690      9.187     11.068
REMARK INTER + INTRA:          -6.814
REMARK INTER:                  -6.681
REMARK INTRA:                  -0.133
REMARK UNBOUND:                -0.126
REMARK SMILES O=C([O-])C=Cc1ccc(O)c(O)c1
REMARK SMILES IDX 6 1 13 2 7 3 11 4 8 5 9 6 5 7 4 8 2 9 1 10 3 11 12 12 10 14
REMARK H PARENT 12 13 10 15
REMARK Flexibility Score: inf
ROOT
ATOM      1  C   UNL     1      70.923   0.292  -2.341  1.00  0.00    -0.022 A 
ATOM      2  C   UNL     1      70.681  -0.892  -3.067  1.00  0.00     0.058 A 
ATOM      3  C   UNL     1      70.360   1.494  -2.799  1.00  0.00     0.012 A 
ATOM      4  C   UNL     1      69.871  -0.873  -4.212  1.00  0.00     0.157 A 
ATOM      5  C   UNL     1      69.550   1.512  -3.937  1.00  0.00     0.051 A 
ATOM      6  C   UNL     1      69.301   0.329  -4.645  1.00  0.00     0.157 A 
ENDROOT
BRANCH   1   7
ATOM      7  C   UNL     1      71.782   0.326  -1.132  1.00  0.00     0.010 C 
ATOM      8  C   UNL     1      71.306   0.398   0.118  1.00  0.00     0.025 C 
BRANCH   8   9
ATOM      9  C   UNL     1      72.196   0.442   1.289  1.00  0.00     0.064 C 
ATOM     10  O   UNL     1      73.313   1.014   1.200  1.00  0.00    -0.545 OA
ATOM     11  O   UNL     1      71.821  -0.137   2.497  1.00  0.00    -0.545 OA
ENDBRANCH   8   9
ENDBRANCH   1   7
BRANCH   4  12
ATOM     12  O   UNL     1      69.631  -2.046  -4.925  1.00  0.00    -0.504 OA
ATOM     13  H   UNL     1      68.729  -2.507  -4.903  1.00  0.00     0.293 HD
ENDBRANCH   4  12
BRANCH   6  14
ATOM     14  O   UNL     1      68.494   0.343  -5.781  1.00  0.00    -0.504 OA
ATOM     15  H   UNL     1      68.891   0.344  -6.714  1.00  0.00     0.293 HD
ENDBRANCH   6  14
TORSDOF 4
ENDMDL
MODEL 3
REMARK VINA RESULT:    -5.689      0.997      1.938
REMARK INTER + INTRA:          -6.812
REMARK INTER:                  -6.690
REMARK INTRA:                  -0.122
REMARK UNBOUND:                -0.126
REMARK SMILES O=C([O-])C=Cc1ccc(O)c(O)c1
REMARK SMILES IDX 6 1 13 2 7 3 11 4 8 5 9 6 5 7 4 8 2 9 1 10 3 11 12 12 10 14
REMARK H PARENT 12 13 10 15
REMARK Flexibility Score: inf
ROOT
ATOM      1  C   UNL     1      81.049   0.939   0.184  1.00  0.00    -0.022 A 
ATOM      2  C   UNL     1      80.320   2.137   0.337  1.00  0.00     0.058 A 
ATOM      3  C   UNL     1      80.356  -0.238  -0.142  1.00  0.00     0.012 A 
ATOM      4  C   UNL     1      78.931   2.155   0.141  1.00  0.00     0.157 A 
ATOM      5  C   UNL     1      78.973  -0.219  -0.339  1.00  0.00     0.051 A 
ATOM      6  C   UNL     1      78.257   0.977  -0.201  1.00  0.00     0.157 A 
ENDROOT
BRANCH   1   7
ATOM      7  C   UNL     1      82.516   0.865   0.392  1.00  0.00     0.010 C 
ATOM      8  C   UNL     1      83.375   1.806  -0.021  1.00  0.00     0.025 C 
BRANCH   8   9
ATOM      9  C   UNL     1      84.825   1.686   0.196  1.00  0.00     0.064 C 
ATOM     10  O   UNL     1      85.598   1.603  -0.794  1.00  0.00    -0.545 OA
ATOM     11  O   UNL     1      85.358   1.664   1.480  1.00  0.00    -0.545 OA
ENDBRANCH   8   9
ENDBRANCH   1   7
BRANCH   4  12
ATOM     12  O   UNL     1      78.214   3.341   0.289  1.00  0.00    -0.504 OA
ATOM     13  H   UNL     1      78.676   4.242   0.319  1.00  0.00     0.293 HD
ENDBRANCH   4  12
BRANCH   6  14
ATOM     14  O   UNL     1      76.878   1.001  -0.398  1.00  0.00    -0.504 OA
ATOM     15  H   UNL     1      76.282   0.250  -0.068  1.00  0.00     0.293 HD
ENDBRANCH   6  14
TORSDOF 4
ENDMDL
MODEL 4
REMARK VINA RESULT:    -5.460      8.561     11.259
REMARK INTER + INTRA:          -6.543
REMARK INTER:                  -6.404
REMARK INTRA:                  -0.139
REMARK UNBOUND:                -0.126
REMARK SMILES O=C([O-])C=Cc1ccc(O)c(O)c1
REMARK SMILES IDX 6 1 13 2 7 3 11 4 8 5 9 6 5 7 4 8 2 9 1 10 3 11 12 12 10 14
REMARK H PARENT 12 13 10 15
REMARK Flexibility Score: inf
ROOT
ATOM      1  C   UNL     1      70.888   0.174  -3.070  1.00  0.00    -0.022 A 
ATOM      2  C   UNL     1      69.865   0.628  -3.927  1.00  0.00     0.058 A 
ATOM      3  C   UNL     1      71.144  -1.204  -2.992  1.00  0.00     0.012 A 
ATOM      4  C   UNL     1      69.134  -0.281  -4.707  1.00  0.00     0.157 A 
ATOM      5  C   UNL     1      70.418  -2.109  -3.771  1.00  0.00     0.051 A 
ATOM      6  C   UNL     1      69.413  -1.650  -4.632  1.00  0.00     0.157 A 
ENDROOT
BRANCH   1   7
ATOM      7  C   UNL     1      71.680   1.093  -2.216  1.00  0.00     0.010 C 
ATOM      8  C   UNL     1      71.893   0.896  -0.908  1.00  0.00     0.025 C 
BRANCH   8   9
ATOM      9  C   UNL     1      72.675   1.841  -0.096  1.00  0.00     0.064 C 
ATOM     10  O   UNL     1      72.080   2.664   0.647  1.00  0.00    -0.545 OA
ATOM     11  O   UNL     1      74.065   1.838  -0.133  1.00  0.00    -0.545 OA
ENDBRANCH   8   9
ENDBRANCH   1   7
BRANCH   4  12
ATOM     12  O   UNL     1      68.125   0.172  -5.557  1.00  0.00    -0.504 OA
ATOM     13  H   UNL     1      68.245   0.997  -6.132  1.00  0.00     0.293 HD
ENDBRANCH   4  12
BRANCH   6  14
ATOM     14  O   UNL     1      68.687  -2.548  -5.411  1.00  0.00    -0.504 OA
ATOM     15  H   UNL     1      68.935  -2.733  -6.377  1.00  0.00     0.293 HD
ENDBRANCH   6  14
TORSDOF 4
ENDMDL
MODEL 5
REMARK VINA RESULT:    -5.391      1.206      6.007
REMARK INTER + INTRA:          -6.462
REMARK INTER:                  -6.331
REMARK INTRA:                  -0.131
REMARK UNBOUND:                -0.126
REMARK SMILES O=C([O-])C=Cc1ccc(O)c(O)c1
REMARK SMILES IDX 6 1 13 2 7 3 11 4 8 5 9 6 5 7 4 8 2 9 1 10 3 11 12 12 10 14
REMARK H PARENT 12 13 10 15
REMARK Flexibility Score: inf
ROOT
ATOM      1  C   UNL     1      82.319   1.744  -0.025  1.00  0.00    -0.022 A 
ATOM      2  C   UNL     1      83.020   2.339  -1.094  1.00  0.00     0.058 A 
ATOM      3  C   UNL     1      83.049   1.173   1.029  1.00  0.00     0.012 A 
ATOM      4  C   UNL     1      84.423   2.381  -1.090  1.00  0.00     0.157 A 
ATOM      5  C   UNL     1      84.445   1.218   1.035  1.00  0.00     0.051 A 
ATOM      6  C   UNL     1      85.136   1.823  -0.022  1.00  0.00     0.157 A 
ENDROOT
BRANCH   1   7
ATOM      7  C   UNL     1      80.838   1.664   0.011  1.00  0.00     0.010 C 
ATOM      8  C   UNL     1      80.146   0.548  -0.257  1.00  0.00     0.025 C 
BRANCH   8   9
ATOM      9  C   UNL     1      78.676   0.516  -0.222  1.00  0.00     0.064 C 
ATOM     10  O   UNL     1      78.073  -0.576  -0.390  1.00  0.00    -0.545 OA
ATOM     11  O   UNL     1      77.939   1.675  -0.003  1.00  0.00    -0.545 OA
ENDBRANCH   8   9
ENDBRANCH   1   7
BRANCH   4  12
ATOM     12  O   UNL     1      85.114   2.972  -2.146  1.00  0.00    -0.504 OA
ATOM     13  H   UNL     1      85.028   3.961  -2.350  1.00  0.00     0.293 HD
ENDBRANCH   4  12
BRANCH   6  14
ATOM     14  O   UNL     1      86.528   1.870  -0.020  1.00  0.00    -0.504 OA
ATOM     15  H   UNL     1      87.067   1.688  -0.860  1.00  0.00     0.293 HD
ENDBRANCH   6  14
TORSDOF 4
ENDMDL
MODEL 6
REMARK VINA RESULT:    -5.367      0.989      5.950
REMARK INTER + INTRA:          -6.434
REMARK INTER:                  -6.307
REMARK INTRA:                  -0.126
REMARK UNBOUND:                -0.126
REMARK SMILES O=C([O-])C=Cc1ccc(O)c(O)c1
REMARK SMILES IDX 6 1 13 2 7 3 11 4 8 5 9 6 5 7 4 8 2 9 1 10 3 11 12 12 10 14
REMARK H PARENT 12 13 10 15
REMARK Flexibility Score: inf
ROOT
ATOM      1  C   UNL     1      82.343   1.742   0.058  1.00  0.00    -0.022 A 
ATOM      2  C   UNL     1      83.104   1.189   1.109  1.00  0.00     0.058 A 
ATOM      3  C   UNL     1      83.013   2.332  -1.025  1.00  0.00     0.012 A 
ATOM      4  C   UNL     1      84.506   1.206   1.058  1.00  0.00     0.157 A 
ATOM      5  C   UNL     1      84.409   2.347  -1.077  1.00  0.00     0.051 A 
ATOM      6  C   UNL     1      85.159   1.782  -0.038  1.00  0.00     0.157 A 
ENDROOT
BRANCH   1   7
ATOM      7  C   UNL     1      80.859   1.760   0.071  1.00  0.00     0.010 C 
ATOM      8  C   UNL     1      80.100   0.696  -0.225  1.00  0.00     0.025 C 
BRANCH   8   9
ATOM      9  C   UNL     1      78.630   0.762  -0.212  1.00  0.00     0.064 C 
ATOM     10  O   UNL     1      77.959  -0.261  -0.503  1.00  0.00    -0.545 OA
ATOM     11  O   UNL     1      77.968   1.939   0.121  1.00  0.00    -0.545 OA
ENDBRANCH   8   9
ENDBRANCH   1   7
BRANCH   4  12
ATOM     12  O   UNL     1      85.256   0.655   2.096  1.00  0.00    -0.504 OA
ATOM     13  H   UNL     1      86.119   1.080   2.412  1.00  0.00     0.293 HD
ENDBRANCH   4  12
BRANCH   6  14
ATOM     14  O   UNL     1      86.552   1.793  -0.086  1.00  0.00    -0.504 OA
ATOM     15  H   UNL     1      87.051   1.951  -0.953  1.00  0.00     0.293 HD
ENDBRANCH   6  14
TORSDOF 4
ENDMDL
MODEL 7
REMARK VINA RESULT:    -5.227      8.322     11.830
REMARK INTER + INTRA:          -6.270
REMARK INTER:                  -6.145
REMARK INTRA:                  -0.125
REMARK UNBOUND:                -0.126
REMARK SMILES O=C([O-])C=Cc1ccc(O)c(O)c1
REMARK SMILES IDX 6 1 13 2 7 3 11 4 8 5 9 6 5 7 4 8 2 9 1 10 3 11 12 12 10 14
REMARK H PARENT 12 13 10 15
REMARK Flexibility Score: inf
ROOT
ATOM      1  C   UNL     1      70.998   1.348  -2.275  1.00  0.00    -0.022 A 
ATOM      2  C   UNL     1      70.745   0.685  -1.056  1.00  0.00     0.058 A 
ATOM      3  C   UNL     1      72.250   1.952  -2.471  1.00  0.00     0.012 A 
ATOM      4  C   UNL     1      71.739   0.610  -0.068  1.00  0.00     0.157 A 
ATOM      5  C   UNL     1      73.239   1.875  -1.488  1.00  0.00     0.051 A 
ATOM      6  C   UNL     1      72.988   1.202  -0.285  1.00  0.00     0.157 A 
ENDROOT
BRANCH   1   7
ATOM      7  C   UNL     1      69.977   1.465  -3.346  1.00  0.00     0.010 C 
ATOM      8  C   UNL     1      69.614   0.451  -4.142  1.00  0.00     0.025 C 
BRANCH   8   9
ATOM      9  C   UNL     1      68.605   0.615  -5.201  1.00  0.00     0.064 C 
ATOM     10  O   UNL     1      68.799   1.452  -6.120  1.00  0.00    -0.545 OA
ATOM     11  O   UNL     1      67.438  -0.141  -5.203  1.00  0.00    -0.545 OA
ENDBRANCH   8   9
ENDBRANCH   1   7
BRANCH   4  12
ATOM     12  O   UNL     1      71.488  -0.049   1.135  1.00  0.00    -0.504 OA
ATOM     13  H   UNL     1      71.743  -1.019   1.272  1.00  0.00     0.293 HD
ENDBRANCH   4  12
BRANCH   6  14
ATOM     14  O   UNL     1      73.972   1.122   0.698  1.00  0.00    -0.504 OA
ATOM     15  H   UNL     1      74.470   1.945   1.018  1.00  0.00     0.293 HD
ENDBRANCH   6  14
TORSDOF 4
ENDMDL
MODEL 8
REMARK VINA RESULT:    -5.201      2.772      6.994
REMARK INTER + INTRA:          -6.238
REMARK INTER:                  -6.116
REMARK INTRA:                  -0.123
REMARK UNBOUND:                -0.126
REMARK SMILES O=C([O-])C=Cc1ccc(O)c(O)c1
REMARK SMILES IDX 6 1 13 2 7 3 11 4 8 5 9 6 5 7 4 8 2 9 1 10 3 11 12 12 10 14
REMARK H PARENT 12 13 10 15
REMARK Flexibility Score: inf
ROOT
ATOM      1  C   UNL     1      77.598   0.994  -0.226  1.00  0.00    -0.022 A 
ATOM      2  C   UNL     1      78.127   2.233   0.189  1.00  0.00     0.058 A 
ATOM      3  C   UNL     1      78.483  -0.057  -0.516  1.00  0.00     0.012 A 
ATOM      4  C   UNL     1      79.513   2.402   0.336  1.00  0.00     0.157 A 
ATOM      5  C   UNL     1      79.862   0.111  -0.367  1.00  0.00     0.051 A 
ATOM      6  C   UNL     1      80.380   1.339   0.061  1.00  0.00     0.157 A 
ENDROOT
BRANCH   1   7
ATOM      7  C   UNL     1      76.143   0.768  -0.408  1.00  0.00     0.010 C 
ATOM      8  C   UNL     1      75.201   1.645  -0.035  1.00  0.00     0.025 C 
BRANCH   8   9
ATOM      9  C   UNL     1      73.767   1.374  -0.223  1.00  0.00     0.064 C 
ATOM     10  O   UNL     1      73.208   1.705  -1.301  1.00  0.00    -0.545 OA
ATOM     11  O   UNL     1      73.018   0.755   0.771  1.00  0.00    -0.545 OA
ENDBRANCH   8   9
ENDBRANCH   1   7
BRANCH   4  12
ATOM     12  O   UNL     1      80.033   3.627   0.750  1.00  0.00    -0.504 OA
ATOM     13  H   UNL     1      80.442   4.281   0.094  1.00  0.00     0.293 HD
ENDBRANCH   4  12
BRANCH   6  14
ATOM     14  O   UNL     1      81.755   1.511   0.211  1.00  0.00    -0.504 OA
ATOM     15  H   UNL     1      82.137   2.232   0.812  1.00  0.00     0.293 HD
ENDBRANCH   6  14
TORSDOF 4
ENDMDL
MODEL 9
REMARK VINA RESULT:    -5.040      8.286     11.734
REMARK INTER + INTRA:          -6.050
REMARK INTER:                  -5.922
REMARK INTRA:                  -0.128
REMARK UNBOUND:                -0.126
REMARK SMILES O=C([O-])C=Cc1ccc(O)c(O)c1
REMARK SMILES IDX 6 1 13 2 7 3 11 4 8 5 9 6 5 7 4 8 2 9 1 10 3 11 12 12 10 14
REMARK H PARENT 12 13 10 15
REMARK Flexibility Score: inf
ROOT
ATOM      1  C   UNL     1      70.854   1.369  -1.814  1.00  0.00    -0.022 A 
ATOM      2  C   UNL     1      72.231   1.669  -1.862  1.00  0.00     0.058 A 
ATOM      3  C   UNL     1      70.308   0.883  -0.616  1.00  0.00     0.012 A 
ATOM      4  C   UNL     1      73.034   1.508  -0.722  1.00  0.00     0.157 A 
ATOM      5  C   UNL     1      71.107   0.726   0.519  1.00  0.00     0.051 A 
ATOM      6  C   UNL     1      72.471   1.040   0.470  1.00  0.00     0.157 A 
ENDROOT
BRANCH   1   7
ATOM      7  C   UNL     1      69.965   1.511  -2.994  1.00  0.00     0.010 C 
ATOM      8  C   UNL     1      69.657   0.501  -3.819  1.00  0.00     0.025 C 
BRANCH   8   9
ATOM      9  C   UNL     1      68.780   0.689  -4.985  1.00  0.00     0.064 C 
ATOM     10  O   UNL     1      69.066   1.563  -5.844  1.00  0.00    -0.545 OA
ATOM     11  O   UNL     1      67.639  -0.087  -5.157  1.00  0.00    -0.545 OA
ENDBRANCH   8   9
ENDBRANCH   1   7
BRANCH   4  12
ATOM     12  O   UNL     1      74.395   1.809  -0.771  1.00  0.00    -0.504 OA
ATOM     13  H   UNL     1      75.022   1.333  -1.409  1.00  0.00     0.293 HD
ENDBRANCH   4  12
BRANCH   6  14
ATOM     14  O   UNL     1      73.272   0.885   1.600  1.00  0.00    -0.504 OA
ATOM     15  H   UNL     1      72.900   1.008   2.534  1.00  0.00     0.293 HD
ENDBRANCH   6  14
TORSDOF 4
ENDMDL
