MODEL 1
REMARK VINA RESULT:    -3.604      0.000      0.000
REMARK INTER + INTRA:          -4.188
REMARK INTER:                  -4.131
REMARK INTRA:                  -0.057
REMARK UNBOUND:                -0.057
REMARK SMILES COc1cc(C=O)ccc1O
REMARK SMILES IDX 3 1 10 2 9 3 8 4 5 5 4 6 2 7 1 8 11 9 6 11 7 12
REMARK H PARENT 11 10
REMARK Flexibility Score: inf
ROOT
ATOM      1  C   UNL     1      39.304  19.787  79.803  1.00  0.00     0.161 A 
ATOM      2  C   UNL     1      38.406  18.712  79.872  1.00  0.00     0.157 A 
ATOM      3  C   UNL     1      37.246  18.814  80.651  1.00  0.00     0.051 A 
ATOM      4  C   UNL     1      36.976  19.984  81.363  1.00  0.00     0.015 A 
ATOM      5  C   UNL     1      37.863  21.068  81.305  1.00  0.00     0.018 A 
ATOM      6  C   UNL     1      39.028  20.966  80.523  1.00  0.00     0.062 A 
ENDROOT
BRANCH   1   7
ATOM      7  O   UNL     1      40.456  19.644  79.013  1.00  0.00    -0.493 OA
ATOM      8  C   UNL     1      41.732  20.181  79.343  1.00  0.00     0.278 C 
ENDBRANCH   1   7
BRANCH   2   9
ATOM      9  O   UNL     1      38.675  17.543  79.162  1.00  0.00    -0.504 OA
ATOM     10  H   UNL     1      37.961  17.082  78.611  1.00  0.00     0.293 HD
ENDBRANCH   2   9
BRANCH   5  11
ATOM     11  C   UNL     1      37.559  22.295  82.064  1.00  0.00     0.260 C 
ATOM     12  O   UNL     1      37.870  22.403  83.281  1.00  0.00    -0.298 OA
ENDBRANCH   5  11
TORSDOF 3
ENDMDL
MODEL 2
REMARK VINA RESULT:    -3.495     14.220     16.501
REMARK INTER + INTRA:          -4.063
REMARK INTER:                  -4.010
REMARK INTRA:                  -0.053
REMARK UNBOUND:                -0.057
REMARK SMILES COc1cc(C=O)ccc1O
REMARK SMILES IDX 3 1 10 2 9 3 8 4 5 5 4 6 2 7 1 8 11 9 6 11 7 12
REMARK H PARENT 11 10
REMARK Flexibility Score: inf
ROOT
ATOM      1  C   UNL     1      45.385  31.180  91.262  1.00  0.00     0.161 A 
ATOM      2  C   UNL     1      44.668  31.730  92.335  1.00  0.00     0.157 A 
ATOM      3  C   UNL     1      43.715  30.960  93.013  1.00  0.00     0.051 A 
ATOM      4  C   UNL     1      43.472  29.640  92.627  1.00  0.00     0.015 A 
ATOM      5  C   UNL     1      44.179  29.074  91.557  1.00  0.00     0.018 A 
ATOM      6  C   UNL     1      45.136  29.848  90.876  1.00  0.00     0.062 A 
ENDROOT
BRANCH   1   7
ATOM      7  O   UNL     1      46.330  31.986  90.608  1.00  0.00    -0.493 OA
ATOM      8  C   UNL     1      46.809  31.755  89.287  1.00  0.00     0.278 C 
ENDBRANCH   1   7
BRANCH   2   9
ATOM      9  O   UNL     1      44.910  33.048  92.720  1.00  0.00    -0.504 OA
ATOM     10  H   UNL     1      44.689  33.828  92.111  1.00  0.00     0.293 HD
ENDBRANCH   2   9
BRANCH   5  11
ATOM     11  C   UNL     1      43.907  27.679  91.165  1.00  0.00     0.260 C 
ATOM     12  O   UNL     1      43.306  27.409  90.091  1.00  0.00    -0.298 OA
ENDBRANCH   5  11
TORSDOF 3
ENDMDL
MODEL 3
REMARK VINA RESULT:    -3.418      7.373      8.501
REMARK INTER + INTRA:          -3.974
REMARK INTER:                  -3.922
REMARK INTRA:                  -0.053
REMARK UNBOUND:                -0.057
REMARK SMILES COc1cc(C=O)ccc1O
REMARK SMILES IDX 3 1 10 2 9 3 8 4 5 5 4 6 2 7 1 8 11 9 6 11 7 12
REMARK H PARENT 11 10
REMARK Flexibility Score: inf
ROOT
ATOM      1  C   UNL     1      46.000  18.993  75.184  1.00  0.00     0.161 A 
ATOM      2  C   UNL     1      46.000  17.879  76.036  1.00  0.00     0.157 A 
ATOM      3  C   UNL     1      45.628  18.022  77.379  1.00  0.00     0.051 A 
ATOM      4  C   UNL     1      45.254  19.271  77.878  1.00  0.00     0.015 A 
ATOM      5  C   UNL     1      45.248  20.395  77.040  1.00  0.00     0.018 A 
ATOM      6  C   UNL     1      45.622  20.252  75.692  1.00  0.00     0.062 A 
ENDROOT
BRANCH   1   7
ATOM      7  O   UNL     1      46.381  18.809  73.845  1.00  0.00    -0.493 OA
ATOM      8  C   UNL     1      46.446  19.849  72.875  1.00  0.00     0.278 C 
ENDBRANCH   1   7
BRANCH   2   9
ATOM      9  O   UNL     1      46.374  16.632  75.539  1.00  0.00    -0.504 OA
ATOM     10  H   UNL     1      46.287  15.791  76.098  1.00  0.00     0.293 HD
ENDBRANCH   2   9
BRANCH   5  11
ATOM     11  C   UNL     1      44.849  21.705  77.586  1.00  0.00     0.260 C 
ATOM     12  O   UNL     1      44.060  22.461  76.958  1.00  0.00    -0.298 OA
ENDBRANCH   5  11
TORSDOF 3
ENDMDL
MODEL 4
REMARK VINA RESULT:    -3.396      8.843     10.109
REMARK INTER + INTRA:          -3.950
REMARK INTER:                  -3.876
REMARK INTRA:                  -0.073
REMARK UNBOUND:                -0.057
REMARK SMILES COc1cc(C=O)ccc1O
REMARK SMILES IDX 3 1 10 2 9 3 8 4 5 5 4 6 2 7 1 8 11 9 6 11 7 12
REMARK H PARENT 11 10
REMARK Flexibility Score: inf
ROOT
ATOM      1  C   UNL     1      46.312  18.985  76.513  1.00  0.00     0.161 A 
ATOM      2  C   UNL     1      47.095  19.630  77.482  1.00  0.00     0.157 A 
ATOM      3  C   UNL     1      47.886  20.729  77.128  1.00  0.00     0.051 A 
ATOM      4  C   UNL     1      47.902  21.191  75.811  1.00  0.00     0.015 A 
ATOM      5  C   UNL     1      47.126  20.559  74.829  1.00  0.00     0.018 A 
ATOM      6  C   UNL     1      46.331  19.454  75.185  1.00  0.00     0.062 A 
ENDROOT
BRANCH   1   7
ATOM      7  O   UNL     1      45.534  17.885  76.908  1.00  0.00    -0.493 OA
ATOM      8  C   UNL     1      45.882  16.525  76.674  1.00  0.00     0.278 C 
ENDBRANCH   1   7
BRANCH   2   9
ATOM      9  O   UNL     1      47.080  19.169  78.798  1.00  0.00    -0.504 OA
ATOM     10  H   UNL     1      47.782  19.461  79.469  1.00  0.00     0.293 HD
ENDBRANCH   2   9
BRANCH   5  11
ATOM     11  C   UNL     1      47.156  21.062  73.444  1.00  0.00     0.260 C 
ATOM     12  O   UNL     1      46.200  21.736  72.974  1.00  0.00    -0.298 OA
ENDBRANCH   5  11
TORSDOF 3
ENDMDL
MODEL 5
REMARK VINA RESULT:    -3.336      2.078      4.385
REMARK INTER + INTRA:          -3.880
REMARK INTER:                  -3.805
REMARK INTRA:                  -0.076
REMARK UNBOUND:                -0.057
REMARK SMILES COc1cc(C=O)ccc1O
REMARK SMILES IDX 3 1 10 2 9 3 8 4 5 5 4 6 2 7 1 8 11 9 6 11 7 12
REMARK H PARENT 11 10
REMARK Flexibility Score: inf
ROOT
ATOM      1  C   UNL     1      38.992  20.128  80.066  1.00  0.00     0.161 A 
ATOM      2  C   UNL     1      38.527  21.371  79.611  1.00  0.00     0.157 A 
ATOM      3  C   UNL     1      39.398  22.249  78.954  1.00  0.00     0.051 A 
ATOM      4  C   UNL     1      40.733  21.895  78.748  1.00  0.00     0.015 A 
ATOM      5  C   UNL     1      41.214  20.657  79.196  1.00  0.00     0.018 A 
ATOM      6  C   UNL     1      40.340  19.775  79.856  1.00  0.00     0.062 A 
ENDROOT
BRANCH   1   7
ATOM      7  O   UNL     1      38.088  19.277  80.721  1.00  0.00    -0.493 OA
ATOM      8  C   UNL     1      37.462  18.149  80.118  1.00  0.00     0.278 C 
ENDBRANCH   1   7
BRANCH   2   9
ATOM      9  O   UNL     1      37.195  21.725  79.816  1.00  0.00    -0.504 OA
ATOM     10  H   UNL     1      36.816  21.842  80.749  1.00  0.00     0.293 HD
ENDBRANCH   2   9
BRANCH   5  11
ATOM     11  C   UNL     1      42.627  20.302  78.969  1.00  0.00     0.260 C 
ATOM     12  O   UNL     1      43.559  21.073  79.327  1.00  0.00    -0.298 OA
ENDBRANCH   5  11
TORSDOF 3
ENDMDL
MODEL 6
REMARK VINA RESULT:    -3.308     15.773     16.818
REMARK INTER + INTRA:          -3.849
REMARK INTER:                  -3.796
REMARK INTRA:                  -0.053
REMARK UNBOUND:                -0.057
REMARK SMILES COc1cc(C=O)ccc1O
REMARK SMILES IDX 3 1 10 2 9 3 8 4 5 5 4 6 2 7 1 8 11 9 6 11 7 12
REMARK H PARENT 11 10
REMARK Flexibility Score: inf
ROOT
ATOM      1  C   UNL     1      45.028  29.236  92.150  1.00  0.00     0.161 A 
ATOM      2  C   UNL     1      44.241  30.396  92.141  1.00  0.00     0.157 A 
ATOM      3  C   UNL     1      44.686  31.544  91.473  1.00  0.00     0.051 A 
ATOM      4  C   UNL     1      45.916  31.541  90.813  1.00  0.00     0.015 A 
ATOM      5  C   UNL     1      46.717  30.390  90.811  1.00  0.00     0.018 A 
ATOM      6  C   UNL     1      46.269  29.238  91.482  1.00  0.00     0.062 A 
ENDROOT
BRANCH   1   7
ATOM      7  O   UNL     1      44.546  28.107  92.832  1.00  0.00    -0.493 OA
ATOM      8  C   UNL     1      45.231  26.862  92.916  1.00  0.00     0.278 C 
ENDBRANCH   1   7
BRANCH   2   9
ATOM      9  O   UNL     1      43.012  30.400  92.801  1.00  0.00    -0.504 OA
ATOM     10  H   UNL     1      42.911  30.794  93.730  1.00  0.00     0.293 HD
ENDBRANCH   2   9
BRANCH   5  11
ATOM     11  C   UNL     1      48.012  30.408  90.107  1.00  0.00     0.260 C 
ATOM     12  O   UNL     1      49.026  30.952  90.622  1.00  0.00    -0.298 OA
ENDBRANCH   5  11
TORSDOF 3
ENDMDL
MODEL 7
REMARK VINA RESULT:    -3.308      1.868      3.970
REMARK INTER + INTRA:          -3.848
REMARK INTER:                  -3.789
REMARK INTRA:                  -0.059
REMARK UNBOUND:                -0.057
REMARK SMILES COc1cc(C=O)ccc1O
REMARK SMILES IDX 3 1 10 2 9 3 8 4 5 5 4 6 2 7 1 8 11 9 6 11 7 12
REMARK H PARENT 11 10
REMARK Flexibility Score: inf
ROOT
ATOM      1  C   UNL     1      37.489  21.434  80.333  1.00  0.00     0.161 A 
ATOM      2  C   UNL     1      37.113  20.186  80.850  1.00  0.00     0.157 A 
ATOM      3  C   UNL     1      37.962  19.081  80.711  1.00  0.00     0.051 A 
ATOM      4  C   UNL     1      39.189  19.214  80.057  1.00  0.00     0.015 A 
ATOM      5  C   UNL     1      39.581  20.454  79.533  1.00  0.00     0.018 A 
ATOM      6  C   UNL     1      38.728  21.563  79.673  1.00  0.00     0.062 A 
ENDROOT
BRANCH   1   7
ATOM      7  O   UNL     1      36.609  22.516  80.492  1.00  0.00    -0.493 OA
ATOM      8  C   UNL     1      36.540  23.635  79.615  1.00  0.00     0.278 C 
ENDBRANCH   1   7
BRANCH   2   9
ATOM      9  O   UNL     1      35.888  20.052  81.503  1.00  0.00    -0.504 OA
ATOM     10  H   UNL     1      35.098  19.597  81.060  1.00  0.00     0.293 HD
ENDBRANCH   2   9
BRANCH   5  11
ATOM     11  C   UNL     1      40.881  20.573  78.846  1.00  0.00     0.260 C 
ATOM     12  O   UNL     1      41.882  19.908  79.226  1.00  0.00    -0.298 OA
ENDBRANCH   5  11
TORSDOF 3
ENDMDL
MODEL 8
REMARK VINA RESULT:    -3.288      1.789      3.650
REMARK INTER + INTRA:          -3.825
REMARK INTER:                  -3.762
REMARK INTRA:                  -0.063
REMARK UNBOUND:                -0.057
REMARK SMILES COc1cc(C=O)ccc1O
REMARK SMILES IDX 3 1 10 2 9 3 8 4 5 5 4 6 2 7 1 8 11 9 6 11 7 12
REMARK H PARENT 11 10
REMARK Flexibility Score: inf
ROOT
ATOM      1  C   UNL     1      37.377  20.200  80.747  1.00  0.00     0.161 A 
ATOM      2  C   UNL     1      37.768  18.926  80.309  1.00  0.00     0.157 A 
ATOM      3  C   UNL     1      39.013  18.745  79.695  1.00  0.00     0.051 A 
ATOM      4  C   UNL     1      39.874  19.829  79.514  1.00  0.00     0.015 A 
ATOM      5  C   UNL     1      39.500  21.110  79.946  1.00  0.00     0.018 A 
ATOM      6  C   UNL     1      38.249  21.291  80.563  1.00  0.00     0.062 A 
ENDROOT
BRANCH   1   7
ATOM      7  O   UNL     1      36.120  20.340  81.358  1.00  0.00    -0.493 OA
ATOM      8  C   UNL     1      35.876  21.105  82.533  1.00  0.00     0.278 C 
ENDBRANCH   1   7
BRANCH   2   9
ATOM      9  O   UNL     1      36.908  17.843  80.489  1.00  0.00    -0.504 OA
ATOM     10  H   UNL     1      36.939  17.276  81.329  1.00  0.00     0.293 HD
ENDBRANCH   2   9
BRANCH   5  11
ATOM     11  C   UNL     1      40.424  22.241  79.746  1.00  0.00     0.260 C 
ATOM     12  O   UNL     1      41.012  22.415  78.645  1.00  0.00    -0.298 OA
ENDBRANCH   5  11
TORSDOF 3
ENDMDL
MODEL 9
REMARK VINA RESULT:    -3.199      9.219     10.951
REMARK INTER + INTRA:          -3.724
REMARK INTER:                  -3.665
REMARK INTRA:                  -0.059
REMARK UNBOUND:                -0.057
REMARK SMILES COc1cc(C=O)ccc1O
REMARK SMILES IDX 3 1 10 2 9 3 8 4 5 5 4 6 2 7 1 8 11 9 6 11 7 12
REMARK H PARENT 11 10
REMARK Flexibility Score: inf
ROOT
ATOM      1  C   UNL     1      47.500  20.439  75.861  1.00  0.00     0.161 A 
ATOM      2  C   UNL     1      48.236  21.132  74.889  1.00  0.00     0.157 A 
ATOM      3  C   UNL     1      49.389  21.838  75.251  1.00  0.00     0.051 A 
ATOM      4  C   UNL     1      49.815  21.858  76.581  1.00  0.00     0.015 A 
ATOM      5  C   UNL     1      49.091  21.171  77.566  1.00  0.00     0.018 A 
ATOM      6  C   UNL     1      47.933  20.462  77.202  1.00  0.00     0.062 A 
ENDROOT
BRANCH   1   7
ATOM      7  O   UNL     1      46.349  19.744  75.457  1.00  0.00    -0.493 OA
ATOM      8  C   UNL     1      45.944  18.483  75.978  1.00  0.00     0.278 C 
ENDBRANCH   1   7
BRANCH   2   9
ATOM      9  O   UNL     1      47.812  21.113  73.561  1.00  0.00    -0.504 OA
ATOM     10  H   UNL     1      46.857  21.339  73.306  1.00  0.00     0.293 HD
ENDBRANCH   2   9
BRANCH   5  11
ATOM     11  C   UNL     1      49.557  21.205  78.965  1.00  0.00     0.260 C 
ATOM     12  O   UNL     1      49.004  20.503  79.853  1.00  0.00    -0.298 OA
ENDBRANCH   5  11
TORSDOF 3
ENDMDL
