MODEL 1
REMARK VINA RESULT:    -3.682      0.000      0.000
REMARK INTER + INTRA:          -6.093
REMARK INTER:                  -5.620
REMARK INTRA:                  -0.473
REMARK UNBOUND:                -0.473
REMARK SMILES CC1=CCC[C@H](C)C(=O)C[C@@H](C(C)C)C(=O)C1
REMARK SMILES IDX 8 1 9 2 6 3 7 4 5 5 4 6 3 7 2 8 1 9 10 11 11 12 15 13 16 14
REMARK SMILES IDX 17 15 12 17 13 18 14 19
REMARK H PARENT
REMARK Flexibility Score: 70.00
ROOT
ATOM      1  C   UNL     1      -7.763 -23.345 -16.275  1.00  0.00     0.136 C 
ATOM      2  O   UNL     1      -7.594 -22.182 -15.939  1.00  0.00    -0.299 OA
ENDROOT
BRANCH   1   3
ATOM      3  C   UNL     1      -9.155 -23.789 -16.696  1.00  0.00     0.053 C 
ATOM      4  C   UNL     1      -9.480 -23.257 -18.097  1.00  0.00     0.016 C 
BRANCH   3   5
ATOM      5  C   UNL     1      -9.331 -25.322 -16.637  1.00  0.00     0.015 C 
BRANCH   5   6
ATOM      6  C   UNL     1      -9.472 -25.934 -18.041  1.00  0.00     0.028 C 
BRANCH   6   7
ATOM      7  C   UNL     1      -8.920 -27.335 -18.141  1.00  0.00    -0.028 C 
ATOM      8  C   UNL     1      -7.654 -27.682 -18.496  1.00  0.00    -0.070 CG0
ATOM      9  C   UNL     1      -7.290 -29.143 -18.403  1.00  0.00     0.039 C 
ATOM     10  G   UNL     1      -6.612 -26.715 -19.056  1.00  0.00     0.000 G0
ENDBRANCH   6   7
ENDBRANCH   5   6
ENDBRANCH   3   5
ENDBRANCH   1   3
BRANCH   1  11
ATOM     11  C   UNL     1      -6.574 -24.278 -16.336  1.00  0.00     0.087 C 
BRANCH  11  12
ATOM     12  C   UNL     1      -5.996 -24.502 -17.763  1.00  0.00     0.066 C 
BRANCH  12  13
ATOM     13  C   UNL     1      -5.765 -25.989 -18.033  1.00  0.00     0.140 C 
ATOM     14  O   UNL     1      -4.858 -26.588 -17.470  1.00  0.00    -0.299 OA
BRANCH  13  15
ATOM     15  C   UNL     1      -6.601 -26.712 -19.060  1.00  0.00     0.106 CG0
ATOM     16  G   UNL     1      -7.644 -27.669 -18.485  1.00  0.00     0.000 G0
ENDBRANCH  13  15
ENDBRANCH  12  13
BRANCH  12  17
ATOM     17  C   UNL     1      -4.739 -23.628 -18.107  1.00  0.00    -0.006 C 
ATOM     18  C   UNL     1      -5.160 -22.294 -18.753  1.00  0.00     0.008 C 
ATOM     19  C   UNL     1      -3.866 -23.318 -16.877  1.00  0.00     0.008 C 
ENDBRANCH  12  17
ENDBRANCH  11  12
ENDBRANCH   1  11
TORSDOF 1
ENDMDL
MODEL 2
REMARK VINA RESULT:    -3.681      2.151      4.323
REMARK INTER + INTRA:          -6.090
REMARK INTER:                  -5.762
REMARK INTRA:                  -0.328
REMARK UNBOUND:                -0.473
REMARK SMILES CC1=CCC[C@H](C)C(=O)C[C@@H](C(C)C)C(=O)C1
REMARK SMILES IDX 8 1 9 2 6 3 7 4 5 5 4 6 3 7 2 8 1 9 10 11 11 12 15 13 16 14
REMARK SMILES IDX 17 15 12 17 13 18 14 19
REMARK H PARENT
REMARK Flexibility Score: 70.00
ROOT
ATOM      1  C   UNL     1      -8.852 -25.310 -18.223  1.00  0.00     0.136 C 
ATOM      2  O   UNL     1      -9.555 -26.172 -18.730  1.00  0.00    -0.299 OA
ENDROOT
BRANCH   1   3
ATOM      3  C   UNL     1      -9.457 -24.404 -17.161  1.00  0.00     0.053 C 
ATOM      4  C   UNL     1      -9.200 -24.981 -15.764  1.00  0.00     0.016 C 
BRANCH   3   5
ATOM      5  C   UNL     1      -8.943 -22.952 -17.258  1.00  0.00     0.015 C 
BRANCH   5   6
ATOM      6  C   UNL     1      -8.179 -22.531 -15.992  1.00  0.00     0.028 C 
BRANCH   6   7
ATOM      7  C   UNL     1      -6.761 -22.094 -16.266  1.00  0.00    -0.028 C 
ATOM      8  C   UNL     1      -5.669 -22.899 -16.352  1.00  0.00    -0.070 CG0
ATOM      9  C   UNL     1      -4.368 -22.253 -16.763  1.00  0.00     0.039 C 
ATOM     10  G   UNL     1      -5.650 -24.382 -15.984  1.00  0.00     0.000 G0
ENDBRANCH   6   7
ENDBRANCH   5   6
ENDBRANCH   3   5
ENDBRANCH   1   3
BRANCH   1  11
ATOM     11  C   UNL     1      -7.391 -25.224 -18.608  1.00  0.00     0.087 C 
BRANCH  11  12
ATOM     12  C   UNL     1      -6.446 -26.142 -17.781  1.00  0.00     0.066 C 
BRANCH  12  13
ATOM     13  C   UNL     1      -5.330 -25.330 -17.125  1.00  0.00     0.140 C 
ATOM     14  O   UNL     1      -4.166 -25.480 -17.472  1.00  0.00    -0.299 OA
BRANCH  13  15
ATOM     15  C   UNL     1      -5.644 -24.396 -15.982  1.00  0.00     0.106 CG0
ATOM     16  G   UNL     1      -5.677 -22.913 -16.352  1.00  0.00     0.000 G0
ENDBRANCH  13  15
ENDBRANCH  12  13
BRANCH  12  17
ATOM     17  C   UNL     1      -5.900 -27.391 -18.559  1.00  0.00    -0.006 C 
ATOM     18  C   UNL     1      -6.929 -28.538 -18.544  1.00  0.00     0.008 C 
ATOM     19  C   UNL     1      -5.541 -27.080 -20.024  1.00  0.00     0.008 C 
ENDBRANCH  12  17
ENDBRANCH  11  12
ENDBRANCH   1  11
TORSDOF 1
ENDMDL
MODEL 3
REMARK VINA RESULT:    -3.638      2.188      4.770
REMARK INTER + INTRA:          -6.026
REMARK INTER:                  -5.829
REMARK INTRA:                  -0.196
REMARK UNBOUND:                -0.473
REMARK SMILES CC1=CCC[C@H](C)C(=O)C[C@@H](C(C)C)C(=O)C1
REMARK SMILES IDX 8 1 9 2 6 3 7 4 5 5 4 6 3 7 2 8 1 9 10 11 11 12 15 13 16 14
REMARK SMILES IDX 17 15 12 17 13 18 14 19
REMARK H PARENT
REMARK Flexibility Score: 70.00
ROOT
ATOM      1  C   UNL     1     -10.213 -26.586 -17.849  1.00  0.00     0.136 C 
ATOM      2  O   UNL     1     -11.037 -27.218 -17.203  1.00  0.00    -0.299 OA
ENDROOT
BRANCH   1   3
ATOM      3  C   UNL     1      -9.871 -25.171 -17.411  1.00  0.00     0.053 C 
ATOM      4  C   UNL     1      -9.439 -25.161 -15.940  1.00  0.00     0.016 C 
BRANCH   3   5
ATOM      5  C   UNL     1      -8.793 -24.519 -18.304  1.00  0.00     0.015 C 
BRANCH   5   6
ATOM      6  C   UNL     1      -7.495 -24.248 -17.525  1.00  0.00     0.028 C 
BRANCH   6   7
ATOM      7  C   UNL     1      -6.247 -24.577 -18.308  1.00  0.00    -0.028 C 
ATOM      8  C   UNL     1      -5.769 -25.820 -18.582  1.00  0.00    -0.070 CG0
ATOM      9  C   UNL     1      -4.569 -25.909 -19.494  1.00  0.00     0.039 C 
ATOM     10  G   UNL     1      -6.307 -27.113 -17.972  1.00  0.00     0.000 G0
ENDBRANCH   6   7
ENDBRANCH   5   6
ENDBRANCH   3   5
ENDBRANCH   1   3
BRANCH   1  11
ATOM     11  C   UNL     1      -9.508 -27.257 -19.008  1.00  0.00     0.087 C 
BRANCH  11  12
ATOM     12  C   UNL     1      -8.517 -28.386 -18.600  1.00  0.00     0.066 C 
BRANCH  12  13
ATOM     13  C   UNL     1      -7.077 -27.995 -18.933  1.00  0.00     0.140 C 
ATOM     14  O   UNL     1      -6.529 -28.441 -19.933  1.00  0.00    -0.299 OA
BRANCH  13  15
ATOM     15  C   UNL     1      -6.290 -27.124 -17.986  1.00  0.00     0.106 CG0
ATOM     16  G   UNL     1      -5.770 -25.821 -18.591  1.00  0.00     0.000 G0
ENDBRANCH  13  15
ENDBRANCH  12  13
BRANCH  12  17
ATOM     17  C   UNL     1      -8.891 -29.812 -19.137  1.00  0.00    -0.006 C 
ATOM     18  C   UNL     1      -9.313 -30.739 -17.980  1.00  0.00     0.008 C 
ATOM     19  C   UNL     1     -10.026 -29.787 -20.177  1.00  0.00     0.008 C 
ENDBRANCH  12  17
ENDBRANCH  11  12
ENDBRANCH   1  11
TORSDOF 1
ENDMDL
MODEL 4
REMARK VINA RESULT:    -3.619      2.349      3.626
REMARK INTER + INTRA:          -5.997
REMARK INTER:                  -5.609
REMARK INTRA:                  -0.388
REMARK UNBOUND:                -0.473
REMARK SMILES CC1=CCC[C@H](C)C(=O)C[C@@H](C(C)C)C(=O)C1
REMARK SMILES IDX 8 1 9 2 6 3 7 4 5 5 4 6 3 7 2 8 1 9 10 11 11 12 15 13 16 14
REMARK SMILES IDX 17 15 12 17 13 18 14 19
REMARK H PARENT
REMARK Flexibility Score: 70.00
ROOT
ATOM      1  C   UNL     1      -8.355 -22.953 -17.461  1.00  0.00     0.136 C 
ATOM      2  O   UNL     1      -9.238 -22.711 -18.271  1.00  0.00    -0.299 OA
ENDROOT
BRANCH   1   3
ATOM      3  C   UNL     1      -8.380 -24.286 -16.727  1.00  0.00     0.053 C 
ATOM      4  C   UNL     1      -9.652 -24.400 -15.879  1.00  0.00     0.016 C 
BRANCH   3   5
ATOM      5  C   UNL     1      -8.249 -25.491 -17.684  1.00  0.00     0.015 C 
BRANCH   5   6
ATOM      6  C   UNL     1      -7.041 -25.343 -18.624  1.00  0.00     0.028 C 
BRANCH   6   7
ATOM      7  C   UNL     1      -5.717 -25.578 -17.939  1.00  0.00    -0.028 C 
ATOM      8  C   UNL     1      -4.631 -24.761 -17.975  1.00  0.00    -0.070 CG0
ATOM      9  C   UNL     1      -3.456 -25.139 -17.106  1.00  0.00     0.039 C 
ATOM     10  G   UNL     1      -4.488 -23.545 -18.889  1.00  0.00     0.000 G0
ENDBRANCH   6   7
ENDBRANCH   5   6
ENDBRANCH   3   5
ENDBRANCH   1   3
BRANCH   1  11
ATOM     11  C   UNL     1      -7.229 -21.960 -17.273  1.00  0.00     0.087 C 
BRANCH  11  12
ATOM     12  C   UNL     1      -6.348 -21.730 -18.535  1.00  0.00     0.066 C 
BRANCH  12  13
ATOM     13  C   UNL     1      -4.921 -22.228 -18.303  1.00  0.00     0.140 C 
ATOM     14  O   UNL     1      -4.112 -21.535 -17.701  1.00  0.00    -0.299 OA
BRANCH  13  15
ATOM     15  C   UNL     1      -4.473 -23.544 -18.891  1.00  0.00     0.106 CG0
ATOM     16  G   UNL     1      -4.631 -24.750 -17.966  1.00  0.00     0.000 G0
ENDBRANCH  13  15
ENDBRANCH  12  13
BRANCH  12  17
ATOM     17  C   UNL     1      -6.387 -20.269 -19.106  1.00  0.00    -0.006 C 
ATOM     18  C   UNL     1      -6.055 -20.261 -20.611  1.00  0.00     0.008 C 
ATOM     19  C   UNL     1      -7.749 -19.580 -18.906  1.00  0.00     0.008 C 
ENDBRANCH  12  17
ENDBRANCH  11  12
ENDBRANCH   1  11
TORSDOF 1
ENDMDL
MODEL 5
REMARK VINA RESULT:    -3.616      1.765      4.273
REMARK INTER + INTRA:          -5.992
REMARK INTER:                  -5.798
REMARK INTRA:                  -0.194
REMARK UNBOUND:                -0.473
REMARK SMILES CC1=CCC[C@H](C)C(=O)C[C@@H](C(C)C)C(=O)C1
REMARK SMILES IDX 8 1 9 2 6 3 7 4 5 5 4 6 3 7 2 8 1 9 10 11 11 12 15 13 16 14
REMARK SMILES IDX 17 15 12 17 13 18 14 19
REMARK H PARENT
REMARK Flexibility Score: 70.00
ROOT
ATOM      1  C   UNL     1      -8.756 -24.475 -17.006  1.00  0.00     0.136 C 
ATOM      2  O   UNL     1      -9.210 -25.110 -16.066  1.00  0.00    -0.299 OA
ENDROOT
BRANCH   1   3
ATOM      3  C   UNL     1      -8.526 -22.981 -16.837  1.00  0.00     0.053 C 
ATOM      4  C   UNL     1      -8.941 -22.537 -15.430  1.00  0.00     0.016 C 
BRANCH   3   5
ATOM      5  C   UNL     1      -7.069 -22.568 -17.135  1.00  0.00     0.015 C 
BRANCH   5   6
ATOM      6  C   UNL     1      -6.106 -23.038 -16.033  1.00  0.00     0.028 C 
BRANCH   6   7
ATOM      7  C   UNL     1      -4.707 -23.305 -16.533  1.00  0.00    -0.028 C 
ATOM      8  C   UNL     1      -4.250 -24.464 -17.076  1.00  0.00    -0.070 CG0
ATOM      9  C   UNL     1      -2.844 -24.458 -17.625  1.00  0.00     0.039 C 
ATOM     10  G   UNL     1      -5.023 -25.782 -17.093  1.00  0.00     0.000 G0
ENDBRANCH   6   7
ENDBRANCH   5   6
ENDBRANCH   3   5
ENDBRANCH   1   3
BRANCH   1  11
ATOM     11  C   UNL     1      -8.364 -25.206 -18.272  1.00  0.00     0.087 C 
BRANCH  11  12
ATOM     12  C   UNL     1      -7.396 -26.405 -18.058  1.00  0.00     0.066 C 
BRANCH  12  13
ATOM     13  C   UNL     1      -5.943 -25.981 -18.275  1.00  0.00     0.140 C 
ATOM     14  O   UNL     1      -5.492 -25.871 -19.408  1.00  0.00    -0.299 OA
BRANCH  13  15
ATOM     15  C   UNL     1      -5.028 -25.778 -17.093  1.00  0.00     0.106 CG0
ATOM     16  G   UNL     1      -4.268 -24.452 -17.087  1.00  0.00     0.000 G0
ENDBRANCH  13  15
ENDBRANCH  12  13
BRANCH  12  17
ATOM     17  C   UNL     1      -7.769 -27.700 -18.861  1.00  0.00    -0.006 C 
ATOM     18  C   UNL     1      -6.871 -28.881 -18.441  1.00  0.00     0.008 C 
ATOM     19  C   UNL     1      -9.239 -28.120 -18.680  1.00  0.00     0.008 C 
ENDBRANCH  12  17
ENDBRANCH  11  12
ENDBRANCH   1  11
TORSDOF 1
ENDMDL
MODEL 6
REMARK VINA RESULT:    -3.616      2.024      3.991
REMARK INTER + INTRA:          -5.991
REMARK INTER:                  -5.740
REMARK INTRA:                  -0.251
REMARK UNBOUND:                -0.473
REMARK SMILES CC1=CCC[C@H](C)C(=O)C[C@@H](C(C)C)C(=O)C1
REMARK SMILES IDX 8 1 9 2 6 3 7 4 5 5 4 6 3 7 2 8 1 9 10 11 11 12 15 13 16 14
REMARK SMILES IDX 17 15 12 17 13 18 14 19
REMARK H PARENT
REMARK Flexibility Score: 70.00
ROOT
ATOM      1  C   UNL     1      -4.782 -23.916 -17.616  1.00  0.00     0.136 C 
ATOM      2  O   UNL     1      -4.400 -23.669 -18.750  1.00  0.00    -0.299 OA
ENDROOT
BRANCH   1   3
ATOM      3  C   UNL     1      -4.794 -22.796 -16.587  1.00  0.00     0.053 C 
ATOM      4  C   UNL     1      -4.607 -21.440 -17.278  1.00  0.00     0.016 C 
BRANCH   3   5
ATOM      5  C   UNL     1      -6.073 -22.800 -15.722  1.00  0.00     0.015 C 
BRANCH   5   6
ATOM      6  C   UNL     1      -7.304 -22.343 -16.522  1.00  0.00     0.028 C 
BRANCH   6   7
ATOM      7  C   UNL     1      -8.537 -23.168 -16.246  1.00  0.00    -0.028 C 
ATOM      8  C   UNL     1      -8.952 -24.260 -16.942  1.00  0.00    -0.070 CG0
ATOM      9  C   UNL     1     -10.150 -25.003 -16.404  1.00  0.00     0.039 C 
ATOM     10  G   UNL     1      -8.346 -24.732 -18.263  1.00  0.00     0.000 G0
ENDBRANCH   6   7
ENDBRANCH   5   6
ENDBRANCH   3   5
ENDBRANCH   1   3
BRANCH   1  11
ATOM     11  C   UNL     1      -5.303 -25.300 -17.296  1.00  0.00     0.087 C 
BRANCH  11  12
ATOM     12  C   UNL     1      -6.047 -26.002 -18.469  1.00  0.00     0.066 C 
BRANCH  12  13
ATOM     13  C   UNL     1      -7.557 -26.018 -18.227  1.00  0.00     0.140 C 
ATOM     14  O   UNL     1      -8.147 -27.076 -18.057  1.00  0.00    -0.299 OA
BRANCH  13  15
ATOM     15  C   UNL     1      -8.346 -24.733 -18.281  1.00  0.00     0.106 CG0
ATOM     16  G   UNL     1      -8.943 -24.287 -16.947  1.00  0.00     0.000 G0
ENDBRANCH  13  15
ENDBRANCH  12  13
BRANCH  12  17
ATOM     17  C   UNL     1      -5.486 -27.418 -18.848  1.00  0.00    -0.006 C 
ATOM     18  C   UNL     1      -5.613 -27.668 -20.364  1.00  0.00     0.008 C 
ATOM     19  C   UNL     1      -4.013 -27.610 -18.446  1.00  0.00     0.008 C 
ENDBRANCH  12  17
ENDBRANCH  11  12
ENDBRANCH   1  11
TORSDOF 1
ENDMDL
MODEL 7
REMARK VINA RESULT:    -3.588      1.889      3.809
REMARK INTER + INTRA:          -5.948
REMARK INTER:                  -5.832
REMARK INTRA:                  -0.117
REMARK UNBOUND:                -0.473
REMARK SMILES CC1=CCC[C@H](C)C(=O)C[C@@H](C(C)C)C(=O)C1
REMARK SMILES IDX 8 1 9 2 6 3 7 4 5 5 4 6 3 7 2 8 1 9 10 11 11 12 15 13 16 14
REMARK SMILES IDX 17 15 12 17 13 18 14 19
REMARK H PARENT
REMARK Flexibility Score: 70.00
ROOT
ATOM      1  C   UNL     1      -5.051 -23.544 -16.260  1.00  0.00     0.136 C 
ATOM      2  O   UNL     1      -5.317 -24.415 -15.445  1.00  0.00    -0.299 OA
ENDROOT
BRANCH   1   3
ATOM      3  C   UNL     1      -4.289 -23.929 -17.519  1.00  0.00     0.053 C 
ATOM      4  C   UNL     1      -2.780 -23.773 -17.294  1.00  0.00     0.016 C 
BRANCH   3   5
ATOM      5  C   UNL     1      -4.627 -25.355 -18.003  1.00  0.00     0.015 C 
BRANCH   5   6
ATOM      6  C   UNL     1      -5.811 -25.359 -18.984  1.00  0.00     0.028 C 
BRANCH   6   7
ATOM      7  C   UNL     1      -7.100 -25.839 -18.363  1.00  0.00    -0.028 C 
ATOM      8  C   UNL     1      -8.191 -25.081 -18.077  1.00  0.00    -0.070 CG0
ATOM      9  C   UNL     1      -9.418 -25.804 -17.575  1.00  0.00     0.039 C 
ATOM     10  G   UNL     1      -8.234 -23.556 -18.148  1.00  0.00     0.000 G0
ENDBRANCH   6   7
ENDBRANCH   5   6
ENDBRANCH   3   5
ENDBRANCH   1   3
BRANCH   1  11
ATOM     11  C   UNL     1      -5.553 -22.136 -16.030  1.00  0.00     0.087 C 
BRANCH  11  12
ATOM     12  C   UNL     1      -6.782 -21.734 -16.897  1.00  0.00     0.066 C 
BRANCH  12  13
ATOM     13  C   UNL     1      -7.845 -22.834 -16.882  1.00  0.00     0.140 C 
ATOM     14  O   UNL     1      -8.354 -23.190 -15.828  1.00  0.00    -0.299 OA
BRANCH  13  15
ATOM     15  C   UNL     1      -8.212 -23.549 -18.158  1.00  0.00     0.106 CG0
ATOM     16  G   UNL     1      -8.178 -25.074 -18.075  1.00  0.00     0.000 G0
ENDBRANCH  13  15
ENDBRANCH  12  13
BRANCH  12  17
ATOM     17  C   UNL     1      -6.432 -21.259 -18.350  1.00  0.00    -0.006 C 
ATOM     18  C   UNL     1      -7.446 -20.207 -18.841  1.00  0.00     0.008 C 
ATOM     19  C   UNL     1      -5.019 -20.661 -18.466  1.00  0.00     0.008 C 
ENDBRANCH  12  17
ENDBRANCH  11  12
ENDBRANCH   1  11
TORSDOF 1
ENDMDL
MODEL 8
REMARK VINA RESULT:    -3.555      2.283      4.725
REMARK INTER + INTRA:          -5.899
REMARK INTER:                  -5.834
REMARK INTRA:                  -0.066
REMARK UNBOUND:                -0.473
REMARK SMILES CC1=CCC[C@H](C)C(=O)C[C@@H](C(C)C)C(=O)C1
REMARK SMILES IDX 8 1 9 2 6 3 7 4 5 5 4 6 3 7 2 8 1 9 10 11 11 12 15 13 16 14
REMARK SMILES IDX 17 15 12 17 13 18 14 19
REMARK H PARENT
REMARK Flexibility Score: 70.00
ROOT
ATOM      1  C   UNL     1      -7.920 -26.055 -18.176  1.00  0.00     0.136 C 
ATOM      2  O   UNL     1      -8.828 -26.252 -17.382  1.00  0.00    -0.299 OA
ENDROOT
BRANCH   1   3
ATOM      3  C   UNL     1      -7.256 -24.687 -18.204  1.00  0.00     0.053 C 
ATOM      4  C   UNL     1      -8.297 -23.588 -17.961  1.00  0.00     0.016 C 
BRANCH   3   5
ATOM      5  C   UNL     1      -6.092 -24.573 -17.197  1.00  0.00     0.015 C 
BRANCH   5   6
ATOM      6  C   UNL     1      -4.771 -25.086 -17.792  1.00  0.00     0.028 C 
BRANCH   6   7
ATOM      7  C   UNL     1      -4.135 -26.187 -16.977  1.00  0.00    -0.028 C 
ATOM      8  C   UNL     1      -4.064 -27.502 -17.311  1.00  0.00    -0.070 CG0
ATOM      9  C   UNL     1      -3.265 -28.401 -16.399  1.00  0.00     0.039 C 
ATOM     10  G   UNL     1      -4.799 -28.142 -18.488  1.00  0.00     0.000 G0
ENDBRANCH   6   7
ENDBRANCH   5   6
ENDBRANCH   3   5
ENDBRANCH   1   3
BRANCH   1  11
ATOM     11  C   UNL     1      -7.436 -27.196 -19.045  1.00  0.00     0.087 C 
BRANCH  11  12
ATOM     12  C   UNL     1      -7.403 -28.582 -18.339  1.00  0.00     0.066 C 
BRANCH  12  13
ATOM     13  C   UNL     1      -5.964 -29.047 -18.114  1.00  0.00     0.140 C 
ATOM     14  O   UNL     1      -5.737 -30.119 -17.569  1.00  0.00    -0.299 OA
BRANCH  13  15
ATOM     15  C   UNL     1      -4.811 -28.147 -18.485  1.00  0.00     0.106 CG0
ATOM     16  G   UNL     1      -4.076 -27.520 -17.301  1.00  0.00     0.000 G0
ENDBRANCH  13  15
ENDBRANCH  12  13
BRANCH  12  17
ATOM     17  C   UNL     1      -8.290 -29.685 -19.017  1.00  0.00    -0.006 C 
ATOM     18  C   UNL     1      -9.058 -30.498 -17.956  1.00  0.00     0.008 C 
ATOM     19  C   UNL     1      -9.308 -29.109 -20.018  1.00  0.00     0.008 C 
ENDBRANCH  12  17
ENDBRANCH  11  12
ENDBRANCH   1  11
TORSDOF 1
ENDMDL
MODEL 9
REMARK VINA RESULT:    -3.403      2.047      4.487
REMARK INTER + INTRA:          -5.667
REMARK INTER:                  -5.636
REMARK INTRA:                  -0.031
REMARK UNBOUND:                -0.473
REMARK SMILES CC1=CCC[C@H](C)C(=O)C[C@@H](C(C)C)C(=O)C1
REMARK SMILES IDX 8 1 9 2 6 3 7 4 5 5 4 6 3 7 2 8 1 9 10 11 11 12 15 13 16 14
REMARK SMILES IDX 17 15 12 17 13 18 14 19
REMARK H PARENT
REMARK Flexibility Score: 70.00
ROOT
ATOM      1  C   UNL     1      -7.409 -22.066 -17.949  1.00  0.00     0.136 C 
ATOM      2  O   UNL     1      -7.913 -21.749 -16.882  1.00  0.00    -0.299 OA
ENDROOT
BRANCH   1   3
ATOM      3  C   UNL     1      -6.612 -21.025 -18.719  1.00  0.00     0.053 C 
ATOM      4  C   UNL     1      -7.457 -19.763 -18.934  1.00  0.00     0.016 C 
BRANCH   3   5
ATOM      5  C   UNL     1      -5.272 -20.678 -18.035  1.00  0.00     0.015 C 
BRANCH   5   6
ATOM      6  C   UNL     1      -4.766 -21.832 -17.155  1.00  0.00     0.028 C 
BRANCH   6   7
ATOM      7  C   UNL     1      -3.847 -22.782 -17.884  1.00  0.00    -0.028 C 
ATOM      8  C   UNL     1      -3.904 -24.140 -17.860  1.00  0.00    -0.070 CG0
ATOM      9  C   UNL     1      -2.958 -24.883 -18.772  1.00  0.00     0.039 C 
ATOM     10  G   UNL     1      -4.792 -24.958 -16.924  1.00  0.00     0.000 G0
ENDBRANCH   6   7
ENDBRANCH   5   6
ENDBRANCH   3   5
ENDBRANCH   1   3
BRANCH   1  11
ATOM     11  C   UNL     1      -7.525 -23.497 -18.427  1.00  0.00     0.087 C 
BRANCH  11  12
ATOM     12  C   UNL     1      -7.377 -24.570 -17.309  1.00  0.00     0.066 C 
BRANCH  12  13
ATOM     13  C   UNL     1      -6.115 -25.407 -17.518  1.00  0.00     0.140 C 
ATOM     14  O   UNL     1      -6.173 -26.479 -18.107  1.00  0.00    -0.299 OA
BRANCH  13  15
ATOM     15  C   UNL     1      -4.802 -24.960 -16.926  1.00  0.00     0.106 CG0
ATOM     16  G   UNL     1      -3.920 -24.135 -17.863  1.00  0.00     0.000 G0
ENDBRANCH  13  15
ENDBRANCH  12  13
BRANCH  12  17
ATOM     17  C   UNL     1      -8.652 -25.455 -17.076  1.00  0.00    -0.006 C 
ATOM     18  C   UNL     1      -9.616 -24.775 -16.084  1.00  0.00     0.008 C 
ATOM     19  C   UNL     1      -9.424 -25.754 -18.374  1.00  0.00     0.008 C 
ENDBRANCH  12  17
ENDBRANCH  11  12
ENDBRANCH   1  11
TORSDOF 1
ENDMDL
