MODEL 1
REMARK VINA RESULT:    -3.138      0.000      0.000
REMARK INTER + INTRA:          -4.149
REMARK INTER:                  -3.964
REMARK INTRA:                  -0.185
REMARK UNBOUND:                -0.185
REMARK SMILES CCCCC[C@H](C)O
REMARK SMILES IDX 4 1 3 2 2 3 1 4 5 5 6 6 7 7 8 8
REMARK H PARENT 8 9
REMARK Flexibility Score: inf
ROOT
ATOM      1  C   UNL     1     117.209 118.343 113.414  1.00  0.00     0.003 C 
ENDROOT
BRANCH   1   2
ATOM      2  C   UNL     1     118.534 118.322 114.184  1.00  0.00    -0.000 C 
BRANCH   2   3
ATOM      3  C   UNL     1     119.714 118.640 113.259  1.00  0.00    -0.003 C 
ATOM      4  C   UNL     1     119.520 118.010 111.882  1.00  0.00     0.004 C 
ENDBRANCH   2   3
ENDBRANCH   1   2
BRANCH   1   5
ATOM      5  C   UNL     1     116.095 118.988 114.249  1.00  0.00     0.031 C 
BRANCH   5   6
ATOM      6  C   UNL     1     114.923 119.454 113.369  1.00  0.00     0.111 C 
ATOM      7  C   UNL     1     115.440 119.995 112.033  1.00  0.00     0.038 C 
BRANCH   6   8
ATOM      8  O   UNL     1     114.203 120.458 114.036  1.00  0.00    -0.393 OA
ATOM      9  H   UNL     1     114.817 121.233 114.136  1.00  0.00     0.210 HD
ENDBRANCH   6   8
ENDBRANCH   5   6
ENDBRANCH   1   5
TORSDOF 5
ENDMDL
MODEL 2
REMARK VINA RESULT:    -3.079      3.718      4.614
REMARK INTER + INTRA:          -4.074
REMARK INTER:                  -3.840
REMARK INTRA:                  -0.234
REMARK UNBOUND:                -0.185
REMARK SMILES CCCCC[C@H](C)O
REMARK SMILES IDX 4 1 3 2 2 3 1 4 5 5 6 6 7 7 8 8
REMARK H PARENT 8 9
REMARK Flexibility Score: inf
ROOT
ATOM      1  C   UNL     1     114.992 117.018 113.241  1.00  0.00     0.003 C 
ENDROOT
BRANCH   1   2
ATOM      2  C   UNL     1     114.789 118.229 114.159  1.00  0.00    -0.000 C 
BRANCH   2   3
ATOM      3  C   UNL     1     114.745 119.531 113.352  1.00  0.00    -0.003 C 
ATOM      4  C   UNL     1     115.033 119.274 111.875  1.00  0.00     0.004 C 
ENDBRANCH   2   3
ENDBRANCH   1   2
BRANCH   1   5
ATOM      5  C   UNL     1     114.695 115.707 113.981  1.00  0.00     0.031 C 
BRANCH   5   6
ATOM      6  C   UNL     1     113.840 114.755 113.130  1.00  0.00     0.111 C 
ATOM      7  C   UNL     1     113.216 115.507 111.951  1.00  0.00     0.038 C 
BRANCH   6   8
ATOM      8  O   UNL     1     112.824 114.198 113.923  1.00  0.00    -0.393 OA
ATOM      9  H   UNL     1     112.396 113.485 113.380  1.00  0.00     0.210 HD
ENDBRANCH   6   8
ENDBRANCH   5   6
ENDBRANCH   1   5
TORSDOF 5
ENDMDL
MODEL 3
REMARK VINA RESULT:    -3.034      3.220      4.265
REMARK INTER + INTRA:          -4.017
REMARK INTER:                  -3.843
REMARK INTRA:                  -0.175
REMARK UNBOUND:                -0.185
REMARK SMILES CCCCC[C@H](C)O
REMARK SMILES IDX 4 1 3 2 2 3 1 4 5 5 6 6 7 7 8 8
REMARK H PARENT 8 9
REMARK Flexibility Score: inf
ROOT
ATOM      1  C   UNL     1     117.654 116.270 112.972  1.00  0.00     0.003 C 
ENDROOT
BRANCH   1   2
ATOM      2  C   UNL     1     118.072 114.953 113.635  1.00  0.00    -0.000 C 
BRANCH   2   3
ATOM      3  C   UNL     1     118.764 114.026 112.631  1.00  0.00    -0.003 C 
ATOM      4  C   UNL     1     117.749 113.168 111.881  1.00  0.00     0.004 C 
ENDBRANCH   2   3
ENDBRANCH   1   2
BRANCH   1   5
ATOM      5  C   UNL     1     118.648 116.676 111.875  1.00  0.00     0.031 C 
BRANCH   5   6
ATOM      6  C   UNL     1     118.985 118.174 111.940  1.00  0.00     0.111 C 
ATOM      7  C   UNL     1     119.737 118.498 113.234  1.00  0.00     0.038 C 
BRANCH   6   8
ATOM      8  O   UNL     1     117.801 118.926 111.884  1.00  0.00    -0.393 OA
ATOM      9  H   UNL     1     118.069 119.874 111.762  1.00  0.00     0.210 HD
ENDBRANCH   6   8
ENDBRANCH   5   6
ENDBRANCH   1   5
TORSDOF 5
ENDMDL
MODEL 4
REMARK VINA RESULT:    -2.968      3.619      4.487
REMARK INTER + INTRA:          -3.935
REMARK INTER:                  -3.690
REMARK INTRA:                  -0.245
REMARK UNBOUND:                -0.185
REMARK SMILES CCCCC[C@H](C)O
REMARK SMILES IDX 4 1 3 2 2 3 1 4 5 5 6 6 7 7 8 8
REMARK H PARENT 8 9
REMARK Flexibility Score: inf
ROOT
ATOM      1  C   UNL     1     118.181 115.943 113.889  1.00  0.00     0.003 C 
ENDROOT
BRANCH   1   2
ATOM      2  C   UNL     1     118.325 114.529 114.465  1.00  0.00    -0.000 C 
BRANCH   2   3
ATOM      3  C   UNL     1     118.520 113.497 113.349  1.00  0.00    -0.003 C 
ATOM      4  C   UNL     1     118.520 114.163 111.976  1.00  0.00     0.004 C 
ENDBRANCH   2   3
ENDBRANCH   1   2
BRANCH   1   5
ATOM      5  C   UNL     1     119.136 116.922 114.585  1.00  0.00     0.031 C 
BRANCH   5   6
ATOM      6  C   UNL     1     119.295 118.225 113.784  1.00  0.00     0.111 C 
ATOM      7  C   UNL     1     119.358 117.927 112.284  1.00  0.00     0.038 C 
BRANCH   6   8
ATOM      8  O   UNL     1     120.470 118.883 114.183  1.00  0.00    -0.393 OA
ATOM      9  H   UNL     1     120.311 119.854 114.055  1.00  0.00     0.210 HD
ENDBRANCH   6   8
ENDBRANCH   5   6
ENDBRANCH   1   5
TORSDOF 5
ENDMDL
MODEL 5
REMARK VINA RESULT:    -2.965      5.365      6.499
REMARK INTER + INTRA:          -3.930
REMARK INTER:                  -3.721
REMARK INTRA:                  -0.208
REMARK UNBOUND:                -0.185
REMARK SMILES CCCCC[C@H](C)O
REMARK SMILES IDX 4 1 3 2 2 3 1 4 5 5 6 6 7 7 8 8
REMARK H PARENT 8 9
REMARK Flexibility Score: inf
ROOT
ATOM      1  C   UNL     1     116.084 114.920 113.624  1.00  0.00     0.003 C 
ENDROOT
BRANCH   1   2
ATOM      2  C   UNL     1     114.683 114.834 114.242  1.00  0.00    -0.000 C 
BRANCH   2   3
ATOM      3  C   UNL     1     113.649 114.388 113.202  1.00  0.00    -0.003 C 
ATOM      4  C   UNL     1     113.853 115.114 111.875  1.00  0.00     0.004 C 
ENDBRANCH   2   3
ENDBRANCH   1   2
BRANCH   1   5
ATOM      5  C   UNL     1     117.095 114.097 114.434  1.00  0.00     0.031 C 
BRANCH   5   6
ATOM      6  C   UNL     1     118.319 113.711 113.588  1.00  0.00     0.111 C 
ATOM      7  C   UNL     1     117.917 113.517 112.123  1.00  0.00     0.038 C 
BRANCH   6   8
ATOM      8  O   UNL     1     118.879 112.522 114.083  1.00  0.00    -0.393 OA
ATOM      9  H   UNL     1     118.972 112.637 115.065  1.00  0.00     0.210 HD
ENDBRANCH   6   8
ENDBRANCH   5   6
ENDBRANCH   1   5
TORSDOF 5
ENDMDL
MODEL 6
REMARK VINA RESULT:    -2.949      5.050      6.484
REMARK INTER + INTRA:          -3.909
REMARK INTER:                  -3.764
REMARK INTRA:                  -0.146
REMARK UNBOUND:                -0.185
REMARK SMILES CCCCC[C@H](C)O
REMARK SMILES IDX 4 1 3 2 2 3 1 4 5 5 6 6 7 7 8 8
REMARK H PARENT 8 9
REMARK Flexibility Score: inf
ROOT
ATOM      1  C   UNL     1     116.087 114.882 112.626  1.00  0.00     0.003 C 
ENDROOT
BRANCH   1   2
ATOM      2  C   UNL     1     114.683 115.109 112.056  1.00  0.00    -0.000 C 
BRANCH   2   3
ATOM      3  C   UNL     1     113.608 114.576 113.010  1.00  0.00    -0.003 C 
ATOM      4  C   UNL     1     113.911 114.965 114.454  1.00  0.00     0.004 C 
ENDBRANCH   2   3
ENDBRANCH   1   2
BRANCH   1   5
ATOM      5  C   UNL     1     116.812 113.756 111.875  1.00  0.00     0.031 C 
BRANCH   5   6
ATOM      6  C   UNL     1     118.309 113.714 112.223  1.00  0.00     0.111 C 
ATOM      7  C   UNL     1     118.504 113.441 113.717  1.00  0.00     0.038 C 
BRANCH   6   8
ATOM      8  O   UNL     1     118.906 114.941 111.888  1.00  0.00    -0.393 OA
ATOM      9  H   UNL     1     119.617 115.107 112.560  1.00  0.00     0.210 HD
ENDBRANCH   6   8
ENDBRANCH   5   6
ENDBRANCH   1   5
TORSDOF 5
ENDMDL
MODEL 7
REMARK VINA RESULT:    -2.947      4.144      4.873
REMARK INTER + INTRA:          -3.907
REMARK INTER:                  -3.741
REMARK INTRA:                  -0.166
REMARK UNBOUND:                -0.185
REMARK SMILES CCCCC[C@H](C)O
REMARK SMILES IDX 4 1 3 2 2 3 1 4 5 5 6 6 7 7 8 8
REMARK H PARENT 8 9
REMARK Flexibility Score: inf
ROOT
ATOM      1  C   UNL     1     118.264 116.549 113.697  1.00  0.00     0.003 C 
ENDROOT
BRANCH   1   2
ATOM      2  C   UNL     1     119.258 117.510 114.358  1.00  0.00    -0.000 C 
BRANCH   2   3
ATOM      3  C   UNL     1     119.872 118.463 113.327  1.00  0.00    -0.003 C 
ATOM      4  C   UNL     1     119.463 118.078 111.908  1.00  0.00     0.004 C 
ENDBRANCH   2   3
ENDBRANCH   1   2
BRANCH   1   5
ATOM      5  C   UNL     1     118.453 115.117 114.216  1.00  0.00     0.031 C 
BRANCH   5   6
ATOM      6  C   UNL     1     118.636 114.115 113.064  1.00  0.00     0.111 C 
ATOM      7  C   UNL     1     117.328 113.950 112.286  1.00  0.00     0.038 C 
BRANCH   6   8
ATOM      8  O   UNL     1     119.038 112.872 113.579  1.00  0.00    -0.393 OA
ATOM      9  H   UNL     1     119.501 113.055 114.438  1.00  0.00     0.210 HD
ENDBRANCH   6   8
ENDBRANCH   5   6
ENDBRANCH   1   5
TORSDOF 5
ENDMDL
MODEL 8
REMARK VINA RESULT:    -2.939      2.388      4.317
REMARK INTER + INTRA:          -3.897
REMARK INTER:                  -3.704
REMARK INTRA:                  -0.194
REMARK UNBOUND:                -0.185
REMARK SMILES CCCCC[C@H](C)O
REMARK SMILES IDX 4 1 3 2 2 3 1 4 5 5 6 6 7 7 8 8
REMARK H PARENT 8 9
REMARK Flexibility Score: inf
ROOT
ATOM      1  C   UNL     1     117.171 117.448 112.190  1.00  0.00     0.003 C 
ENDROOT
BRANCH   1   2
ATOM      2  C   UNL     1     115.723 117.948 112.151  1.00  0.00    -0.000 C 
BRANCH   2   3
ATOM      3  C   UNL     1     115.669 119.480 112.156  1.00  0.00    -0.003 C 
ATOM      4  C   UNL     1     114.759 119.996 113.267  1.00  0.00     0.004 C 
ENDBRANCH   2   3
ENDBRANCH   1   2
BRANCH   1   5
ATOM      5  C   UNL     1     117.945 118.088 113.351  1.00  0.00     0.031 C 
BRANCH   5   6
ATOM      6  C   UNL     1     119.278 118.691 112.880  1.00  0.00     0.111 C 
ATOM      7  C   UNL     1     119.961 117.760 111.875  1.00  0.00     0.038 C 
BRANCH   6   8
ATOM      8  O   UNL     1     120.121 118.892 113.984  1.00  0.00    -0.393 OA
ATOM      9  H   UNL     1     119.545 118.867 114.793  1.00  0.00     0.210 HD
ENDBRANCH   6   8
ENDBRANCH   5   6
ENDBRANCH   1   5
TORSDOF 5
ENDMDL
MODEL 9
REMARK VINA RESULT:    -2.900      4.560      4.797
REMARK INTER + INTRA:          -3.848
REMARK INTER:                  -3.717
REMARK INTRA:                  -0.130
REMARK UNBOUND:                -0.185
REMARK SMILES CCCCC[C@H](C)O
REMARK SMILES IDX 4 1 3 2 2 3 1 4 5 5 6 6 7 7 8 8
REMARK H PARENT 8 9
REMARK Flexibility Score: inf
ROOT
ATOM      1  C   UNL     1     116.359 114.930 113.336  1.00  0.00     0.003 C 
ENDROOT
BRANCH   1   2
ATOM      2  C   UNL     1     117.056 114.688 111.992  1.00  0.00    -0.000 C 
BRANCH   2   3
ATOM      3  C   UNL     1     118.457 114.101 112.197  1.00  0.00    -0.003 C 
ATOM      4  C   UNL     1     118.500 113.193 113.422  1.00  0.00     0.004 C 
ENDBRANCH   2   3
ENDBRANCH   1   2
BRANCH   1   5
ATOM      5  C   UNL     1     115.047 115.705 113.146  1.00  0.00     0.031 C 
BRANCH   5   6
ATOM      6  C   UNL     1     113.880 114.767 112.797  1.00  0.00     0.111 C 
ATOM      7  C   UNL     1     112.881 115.476 111.878  1.00  0.00     0.038 C 
BRANCH   6   8
ATOM      8  O   UNL     1     113.231 114.363 113.975  1.00  0.00    -0.393 OA
ATOM      9  H   UNL     1     112.848 113.465 113.797  1.00  0.00     0.210 HD
ENDBRANCH   6   8
ENDBRANCH   5   6
ENDBRANCH   1   5
TORSDOF 5
ENDMDL
