MODEL 1
REMARK VINA RESULT:    -4.657      0.000      0.000
REMARK INTER + INTRA:         -10.538
REMARK INTER:                  -8.469
REMARK INTRA:                  -2.069
REMARK UNBOUND:                -2.069
REMARK SMILES CCCCCCCCCCCCCCCC(=O)[O-]
REMARK SMILES IDX 9 1 10 2 11 3 12 4 13 5 14 6 15 7 16 8 17 9 18 10 8 11 7 12
REMARK SMILES IDX 6 13 5 14 4 15 3 16 2 17 1 18
REMARK H PARENT
REMARK Flexibility Score: inf
ROOT
ATOM      1  C   UNL     1      17.610 -31.587  20.514  1.00  0.00     0.000 C 
ENDROOT
BRANCH   1   2
ATOM      2  C   UNL     1      16.980 -31.444  21.908  1.00  0.00     0.000 C 
BRANCH   2   3
ATOM      3  C   UNL     1      17.215 -32.677  22.794  1.00  0.00     0.000 C 
BRANCH   3   4
ATOM      4  C   UNL     1      15.912 -33.402  23.160  1.00  0.00     0.000 C 
BRANCH   4   5
ATOM      5  C   UNL     1      14.692 -32.643  22.619  1.00  0.00     0.000 C 
BRANCH   5   6
ATOM      6  C   UNL     1      13.852 -31.988  23.732  1.00  0.00     0.006 C 
BRANCH   6   7
ATOM      7  C   UNL     1      13.921 -30.453  23.756  1.00  0.00     0.053 C 
BRANCH   7   8
ATOM      8  C   UNL     1      12.628 -29.827  23.331  1.00  0.00     0.041 C 
ATOM      9  O   UNL     1      11.987 -30.297  22.354  1.00  0.00    -0.550 OA
ATOM     10  O   UNL     1      12.114 -28.745  24.035  1.00  0.00    -0.550 OA
ENDBRANCH   7   8
ENDBRANCH   6   7
ENDBRANCH   5   6
ENDBRANCH   4   5
ENDBRANCH   3   4
ENDBRANCH   2   3
ENDBRANCH   1   2
BRANCH   1  11
ATOM     11  C   UNL     1      18.364 -32.916  20.386  1.00  0.00     0.000 C 
BRANCH  11  12
ATOM     12  C   UNL     1      17.836 -33.736  19.199  1.00  0.00    -0.000 C 
BRANCH  12  13
ATOM     13  C   UNL     1      16.327 -34.018  19.298  1.00  0.00    -0.000 C 
BRANCH  13  14
ATOM     14  C   UNL     1      16.023 -35.384  19.938  1.00  0.00    -0.000 C 
BRANCH  14  15
ATOM     15  C   UNL     1      17.037 -36.471  19.535  1.00  0.00    -0.000 C 
BRANCH  15  16
ATOM     16  C   UNL     1      17.737 -37.185  20.708  1.00  0.00    -0.000 C 
BRANCH  16  17
ATOM     17  C   UNL     1      18.132 -36.272  21.882  1.00  0.00    -0.003 C 
ATOM     18  C   UNL     1      19.421 -36.713  22.572  1.00  0.00     0.004 C 
ENDBRANCH  16  17
ENDBRANCH  15  16
ENDBRANCH  14  15
ENDBRANCH  13  14
ENDBRANCH  12  13
ENDBRANCH  11  12
ENDBRANCH   1  11
TORSDOF 14
ENDMDL
MODEL 2
REMARK VINA RESULT:    -4.520      2.958      5.232
REMARK INTER + INTRA:         -10.288
REMARK INTER:                  -8.015
REMARK INTRA:                  -2.274
REMARK UNBOUND:                -2.069
REMARK SMILES CCCCCCCCCCCCCCCC(=O)[O-]
REMARK SMILES IDX 9 1 10 2 11 3 12 4 13 5 14 6 15 7 16 8 17 9 18 10 8 11 7 12
REMARK SMILES IDX 6 13 5 14 4 15 3 16 2 17 1 18
REMARK H PARENT
REMARK Flexibility Score: inf
ROOT
ATOM      1  C   UNL     1      17.723 -34.070  20.347  1.00  0.00     0.000 C 
ENDROOT
BRANCH   1   2
ATOM      2  C   UNL     1      18.092 -32.657  19.871  1.00  0.00     0.000 C 
BRANCH   2   3
ATOM      3  C   UNL     1      18.299 -31.674  21.035  1.00  0.00     0.000 C 
BRANCH   3   4
ATOM      4  C   UNL     1      17.068 -30.792  21.293  1.00  0.00     0.000 C 
BRANCH   4   5
ATOM      5  C   UNL     1      16.752 -30.718  22.794  1.00  0.00     0.000 C 
BRANCH   5   6
ATOM      6  C   UNL     1      17.246 -31.953  23.570  1.00  0.00     0.006 C 
BRANCH   6   7
ATOM      7  C   UNL     1      16.122 -32.839  24.130  1.00  0.00     0.053 C 
BRANCH   7   8
ATOM      8  C   UNL     1      16.627 -34.182  24.559  1.00  0.00     0.041 C 
ATOM      9  O   UNL     1      16.642 -34.495  25.779  1.00  0.00    -0.550 OA
ATOM     10  O   UNL     1      17.052 -35.103  23.608  1.00  0.00    -0.550 OA
ENDBRANCH   7   8
ENDBRANCH   6   7
ENDBRANCH   5   6
ENDBRANCH   4   5
ENDBRANCH   3   4
ENDBRANCH   2   3
ENDBRANCH   1   2
BRANCH   1  11
ATOM     11  C   UNL     1      16.594 -34.660  19.493  1.00  0.00     0.000 C 
BRANCH  11  12
ATOM     12  C   UNL     1      15.354 -34.958  20.350  1.00  0.00    -0.000 C 
BRANCH  12  13
ATOM     13  C   UNL     1      14.728 -33.688  20.949  1.00  0.00    -0.000 C 
BRANCH  13  14
ATOM     14  C   UNL     1      14.006 -32.832  19.893  1.00  0.00    -0.000 C 
BRANCH  14  15
ATOM     15  C   UNL     1      13.182 -31.689  20.514  1.00  0.00    -0.000 C 
BRANCH  15  16
ATOM     16  C   UNL     1      13.454 -31.416  22.007  1.00  0.00    -0.000 C 
BRANCH  16  17
ATOM     17  C   UNL     1      12.598 -30.299  22.629  1.00  0.00    -0.003 C 
ATOM     18  C   UNL     1      13.216 -29.712  23.897  1.00  0.00     0.004 C 
ENDBRANCH  16  17
ENDBRANCH  15  16
ENDBRANCH  14  15
ENDBRANCH  13  14
ENDBRANCH  12  13
ENDBRANCH  11  12
ENDBRANCH   1  11
TORSDOF 14
ENDMDL
MODEL 3
REMARK VINA RESULT:    -4.504      1.679      3.866
REMARK INTER + INTRA:         -10.260
REMARK INTER:                  -8.153
REMARK INTRA:                  -2.107
REMARK UNBOUND:                -2.069
REMARK SMILES CCCCCCCCCCCCCCCC(=O)[O-]
REMARK SMILES IDX 9 1 10 2 11 3 12 4 13 5 14 6 15 7 16 8 17 9 18 10 8 11 7 12
REMARK SMILES IDX 6 13 5 14 4 15 3 16 2 17 1 18
REMARK H PARENT
REMARK Flexibility Score: inf
ROOT
ATOM      1  C   UNL     1      17.880 -34.458  19.380  1.00  0.00     0.000 C 
ENDROOT
BRANCH   1   2
ATOM      2  C   UNL     1      16.505 -35.141  19.362  1.00  0.00     0.000 C 
BRANCH   2   3
ATOM      3  C   UNL     1      15.618 -34.721  20.545  1.00  0.00     0.000 C 
BRANCH   3   4
ATOM      4  C   UNL     1      14.629 -33.605  20.178  1.00  0.00     0.000 C 
BRANCH   4   5
ATOM      5  C   UNL     1      14.290 -32.747  21.406  1.00  0.00     0.000 C 
BRANCH   5   6
ATOM      6  C   UNL     1      13.675 -31.385  21.033  1.00  0.00     0.006 C 
BRANCH   6   7
ATOM      7  C   UNL     1      12.597 -30.889  22.010  1.00  0.00     0.053 C 
BRANCH   7   8
ATOM      8  C   UNL     1      13.165 -30.583  23.362  1.00  0.00     0.041 C 
ATOM      9  O   UNL     1      13.404 -31.515  24.175  1.00  0.00    -0.550 OA
ATOM     10  O   UNL     1      13.463 -29.272  23.713  1.00  0.00    -0.550 OA
ENDBRANCH   7   8
ENDBRANCH   6   7
ENDBRANCH   5   6
ENDBRANCH   4   5
ENDBRANCH   3   4
ENDBRANCH   2   3
ENDBRANCH   1   2
BRANCH   1  11
ATOM     11  C   UNL     1      18.203 -33.910  20.776  1.00  0.00     0.000 C 
BRANCH  11  12
ATOM     12  C   UNL     1      18.750 -32.477  20.690  1.00  0.00    -0.000 C 
BRANCH  12  13
ATOM     13  C   UNL     1      17.636 -31.417  20.664  1.00  0.00    -0.000 C 
BRANCH  13  14
ATOM     14  C   UNL     1      17.840 -30.320  21.722  1.00  0.00    -0.000 C 
BRANCH  14  15
ATOM     15  C   UNL     1      16.776 -30.356  22.834  1.00  0.00    -0.000 C 
BRANCH  15  16
ATOM     16  C   UNL     1      17.264 -30.888  24.196  1.00  0.00    -0.000 C 
BRANCH  16  17
ATOM     17  C   UNL     1      17.671 -32.372  24.207  1.00  0.00    -0.003 C 
ATOM     18  C   UNL     1      16.471 -33.317  24.222  1.00  0.00     0.004 C 
ENDBRANCH  16  17
ENDBRANCH  15  16
ENDBRANCH  14  15
ENDBRANCH  13  14
ENDBRANCH  12  13
ENDBRANCH  11  12
ENDBRANCH   1  11
TORSDOF 14
ENDMDL
MODEL 4
REMARK VINA RESULT:    -4.474      3.279      6.193
REMARK INTER + INTRA:         -10.205
REMARK INTER:                  -7.664
REMARK INTRA:                  -2.541
REMARK UNBOUND:                -2.069
REMARK SMILES CCCCCCCCCCCCCCCC(=O)[O-]
REMARK SMILES IDX 9 1 10 2 11 3 12 4 13 5 14 6 15 7 16 8 17 9 18 10 8 11 7 12
REMARK SMILES IDX 6 13 5 14 4 15 3 16 2 17 1 18
REMARK H PARENT
REMARK Flexibility Score: inf
ROOT
ATOM      1  C   UNL     1      15.194 -33.716  22.275  1.00  0.00     0.000 C 
ENDROOT
BRANCH   1   2
ATOM      2  C   UNL     1      14.570 -33.139  20.995  1.00  0.00     0.000 C 
BRANCH   2   3
ATOM      3  C   UNL     1      14.829 -34.017  19.761  1.00  0.00     0.000 C 
BRANCH   3   4
ATOM      4  C   UNL     1      16.296 -34.457  19.643  1.00  0.00     0.000 C 
BRANCH   4   5
ATOM      5  C   UNL     1      16.400 -35.980  19.473  1.00  0.00     0.000 C 
BRANCH   5   6
ATOM      6  C   UNL     1      17.270 -36.645  20.557  1.00  0.00     0.006 C 
BRANCH   6   7
ATOM      7  C   UNL     1      18.334 -35.719  21.169  1.00  0.00     0.053 C 
BRANCH   7   8
ATOM      8  C   UNL     1      18.613 -36.056  22.602  1.00  0.00     0.041 C 
ATOM      9  O   UNL     1      17.954 -35.505  23.522  1.00  0.00    -0.550 OA
ATOM     10  O   UNL     1      19.578 -37.004  22.919  1.00  0.00    -0.550 OA
ENDBRANCH   7   8
ENDBRANCH   6   7
ENDBRANCH   5   6
ENDBRANCH   4   5
ENDBRANCH   3   4
ENDBRANCH   2   3
ENDBRANCH   1   2
BRANCH   1  11
ATOM     11  C   UNL     1      15.074 -32.725  23.439  1.00  0.00     0.000 C 
BRANCH  11  12
ATOM     12  C   UNL     1      14.345 -31.447  22.999  1.00  0.00    -0.000 C 
BRANCH  12  13
ATOM     13  C   UNL     1      15.182 -30.177  23.228  1.00  0.00    -0.000 C 
BRANCH  13  14
ATOM     14  C   UNL     1      15.701 -29.569  21.913  1.00  0.00    -0.000 C 
BRANCH  14  15
ATOM     15  C   UNL     1      17.207 -29.804  21.700  1.00  0.00    -0.000 C 
BRANCH  15  16
ATOM     16  C   UNL     1      17.564 -30.981  20.770  1.00  0.00    -0.000 C 
BRANCH  16  17
ATOM     17  C   UNL     1      18.487 -32.044  21.392  1.00  0.00    -0.003 C 
ATOM     18  C   UNL     1      18.646 -31.883  22.903  1.00  0.00     0.004 C 
ENDBRANCH  16  17
ENDBRANCH  15  16
ENDBRANCH  14  15
ENDBRANCH  13  14
ENDBRANCH  12  13
ENDBRANCH  11  12
ENDBRANCH   1  11
TORSDOF 14
ENDMDL
MODEL 5
REMARK VINA RESULT:    -4.470      1.484      3.919
REMARK INTER + INTRA:         -10.198
REMARK INTER:                  -8.206
REMARK INTRA:                  -1.992
REMARK UNBOUND:                -2.069
REMARK SMILES CCCCCCCCCCCCCCCC(=O)[O-]
REMARK SMILES IDX 9 1 10 2 11 3 12 4 13 5 14 6 15 7 16 8 17 9 18 10 8 11 7 12
REMARK SMILES IDX 6 13 5 14 4 15 3 16 2 17 1 18
REMARK H PARENT
REMARK Flexibility Score: inf
ROOT
ATOM      1  C   UNL     1      16.374 -35.415  19.754  1.00  0.00     0.000 C 
ENDROOT
BRANCH   1   2
ATOM      2  C   UNL     1      15.358 -34.778  20.715  1.00  0.00     0.000 C 
BRANCH   2   3
ATOM      3  C   UNL     1      14.574 -33.625  20.069  1.00  0.00     0.000 C 
BRANCH   3   4
ATOM      4  C   UNL     1      14.165 -32.545  21.082  1.00  0.00     0.000 C 
BRANCH   4   5
ATOM      5  C   UNL     1      14.714 -32.869  22.479  1.00  0.00     0.000 C 
BRANCH   5   6
ATOM      6  C   UNL     1      14.381 -31.781  23.519  1.00  0.00     0.006 C 
BRANCH   6   7
ATOM      7  C   UNL     1      14.163 -30.382  22.922  1.00  0.00     0.053 C 
BRANCH   7   8
ATOM      8  C   UNL     1      12.777 -29.874  23.176  1.00  0.00     0.041 C 
ATOM      9  O   UNL     1      12.549 -29.117  24.156  1.00  0.00    -0.550 OA
ATOM     10  O   UNL     1      11.742 -30.209  22.311  1.00  0.00    -0.550 OA
ENDBRANCH   7   8
ENDBRANCH   6   7
ENDBRANCH   5   6
ENDBRANCH   4   5
ENDBRANCH   3   4
ENDBRANCH   2   3
ENDBRANCH   1   2
BRANCH   1  11
ATOM     11  C   UNL     1      17.753 -35.538  20.415  1.00  0.00     0.000 C 
BRANCH  11  12
ATOM     12  C   UNL     1      17.722 -34.997  21.852  1.00  0.00    -0.000 C 
BRANCH  12  13
ATOM     13  C   UNL     1      18.502 -33.681  22.009  1.00  0.00    -0.000 C 
BRANCH  13  14
ATOM     14  C   UNL     1      18.598 -32.892  20.691  1.00  0.00    -0.000 C 
BRANCH  14  15
ATOM     15  C   UNL     1      17.694 -31.646  20.675  1.00  0.00    -0.000 C 
BRANCH  15  16
ATOM     16  C   UNL     1      18.124 -30.508  21.622  1.00  0.00    -0.000 C 
BRANCH  16  17
ATOM     17  C   UNL     1      19.179 -29.547  21.047  1.00  0.00    -0.003 C 
ATOM     18  C   UNL     1      20.567 -29.756  21.651  1.00  0.00     0.004 C 
ENDBRANCH  16  17
ENDBRANCH  15  16
ENDBRANCH  14  15
ENDBRANCH  13  14
ENDBRANCH  12  13
ENDBRANCH  11  12
ENDBRANCH   1  11
TORSDOF 14
ENDMDL
MODEL 6
REMARK VINA RESULT:    -4.439      1.747      2.917
REMARK INTER + INTRA:         -10.142
REMARK INTER:                  -7.782
REMARK INTRA:                  -2.360
REMARK UNBOUND:                -2.069
REMARK SMILES CCCCCCCCCCCCCCCC(=O)[O-]
REMARK SMILES IDX 9 1 10 2 11 3 12 4 13 5 14 6 15 7 16 8 17 9 18 10 8 11 7 12
REMARK SMILES IDX 6 13 5 14 4 15 3 16 2 17 1 18
REMARK H PARENT
REMARK Flexibility Score: inf
ROOT
ATOM      1  C   UNL     1      18.383 -33.385  19.683  1.00  0.00     0.000 C 
ENDROOT
BRANCH   1   2
ATOM      2  C   UNL     1      18.010 -32.093  20.425  1.00  0.00     0.000 C 
BRANCH   2   3
ATOM      3  C   UNL     1      19.013 -31.735  21.533  1.00  0.00     0.000 C 
BRANCH   3   4
ATOM      4  C   UNL     1      18.490 -30.642  22.478  1.00  0.00     0.000 C 
BRANCH   4   5
ATOM      5  C   UNL     1      17.117 -30.132  22.017  1.00  0.00     0.000 C 
BRANCH   5   6
ATOM      6  C   UNL     1      16.056 -30.180  23.133  1.00  0.00     0.006 C 
BRANCH   6   7
ATOM      7  C   UNL     1      14.615 -29.956  22.645  1.00  0.00     0.053 C 
BRANCH   7   8
ATOM      8  C   UNL     1      13.612 -30.205  23.729  1.00  0.00     0.041 C 
ATOM      9  O   UNL     1      12.907 -29.259  24.170  1.00  0.00    -0.550 OA
ATOM     10  O   UNL     1      13.431 -31.489  24.229  1.00  0.00    -0.550 OA
ENDBRANCH   7   8
ENDBRANCH   6   7
ENDBRANCH   5   6
ENDBRANCH   4   5
ENDBRANCH   3   4
ENDBRANCH   2   3
ENDBRANCH   1   2
BRANCH   1  11
ATOM     11  C   UNL     1      17.192 -33.919  18.878  1.00  0.00     0.000 C 
BRANCH  11  12
ATOM     12  C   UNL     1      16.857 -35.362  19.285  1.00  0.00    -0.000 C 
BRANCH  12  13
ATOM     13  C   UNL     1      15.667 -35.445  20.254  1.00  0.00    -0.000 C 
BRANCH  13  14
ATOM     14  C   UNL     1      14.960 -34.091  20.438  1.00  0.00    -0.000 C 
BRANCH  14  15
ATOM     15  C   UNL     1      14.963 -33.610  21.901  1.00  0.00    -0.000 C 
BRANCH  15  16
ATOM     16  C   UNL     1      16.163 -34.080  22.746  1.00  0.00    -0.000 C 
BRANCH  16  17
ATOM     17  C   UNL     1      16.091 -33.712  24.239  1.00  0.00    -0.003 C 
ATOM     18  C   UNL     1      17.450 -33.330  24.824  1.00  0.00     0.004 C 
ENDBRANCH  16  17
ENDBRANCH  15  16
ENDBRANCH  14  15
ENDBRANCH  13  14
ENDBRANCH  12  13
ENDBRANCH  11  12
ENDBRANCH   1  11
TORSDOF 14
ENDMDL
MODEL 7
REMARK VINA RESULT:    -4.425      2.930      4.734
REMARK INTER + INTRA:         -10.116
REMARK INTER:                  -7.444
REMARK INTRA:                  -2.672
REMARK UNBOUND:                -2.069
REMARK SMILES CCCCCCCCCCCCCCCC(=O)[O-]
REMARK SMILES IDX 9 1 10 2 11 3 12 4 13 5 14 6 15 7 16 8 17 9 18 10 8 11 7 12
REMARK SMILES IDX 6 13 5 14 4 15 3 16 2 17 1 18
REMARK H PARENT
REMARK Flexibility Score: inf
ROOT
ATOM      1  C   UNL     1      15.836 -29.890  22.296  1.00  0.00     0.000 C 
ENDROOT
BRANCH   1   2
ATOM      2  C   UNL     1      17.323 -30.125  21.993  1.00  0.00     0.000 C 
BRANCH   2   3
ATOM      3  C   UNL     1      17.544 -31.132  20.853  1.00  0.00     0.000 C 
BRANCH   3   4
ATOM      4  C   UNL     1      18.553 -32.231  21.220  1.00  0.00     0.000 C 
BRANCH   4   5
ATOM      5  C   UNL     1      18.252 -32.810  22.610  1.00  0.00     0.000 C 
BRANCH   5   6
ATOM      6  C   UNL     1      18.442 -34.337  22.676  1.00  0.00     0.006 C 
BRANCH   6   7
ATOM      7  C   UNL     1      17.473 -35.054  23.630  1.00  0.00     0.053 C 
BRANCH   7   8
ATOM      8  C   UNL     1      17.507 -34.467  25.008  1.00  0.00     0.041 C 
ATOM      9  O   UNL     1      18.563 -34.514  25.692  1.00  0.00    -0.550 OA
ATOM     10  O   UNL     1      16.380 -33.838  25.524  1.00  0.00    -0.550 OA
ENDBRANCH   7   8
ENDBRANCH   6   7
ENDBRANCH   5   6
ENDBRANCH   4   5
ENDBRANCH   3   4
ENDBRANCH   2   3
ENDBRANCH   1   2
BRANCH   1  11
ATOM     11  C   UNL     1      15.382 -30.728  23.498  1.00  0.00     0.000 C 
BRANCH  11  12
ATOM     12  C   UNL     1      14.439 -31.857  23.055  1.00  0.00    -0.000 C 
BRANCH  12  13
ATOM     13  C   UNL     1      13.827 -31.610  21.666  1.00  0.00    -0.000 C 
BRANCH  13  14
ATOM     14  C   UNL     1      14.179 -32.719  20.660  1.00  0.00    -0.000 C 
BRANCH  14  15
ATOM     15  C   UNL     1      14.974 -33.874  21.298  1.00  0.00    -0.000 C 
BRANCH  15  16
ATOM     16  C   UNL     1      15.372 -35.009  20.334  1.00  0.00    -0.000 C 
BRANCH  16  17
ATOM     17  C   UNL     1      16.459 -34.639  19.309  1.00  0.00    -0.003 C 
ATOM     18  C   UNL     1      17.696 -35.530  19.405  1.00  0.00     0.004 C 
ENDBRANCH  16  17
ENDBRANCH  15  16
ENDBRANCH  14  15
ENDBRANCH  13  14
ENDBRANCH  12  13
ENDBRANCH  11  12
ENDBRANCH   1  11
TORSDOF 14
ENDMDL
MODEL 8
REMARK VINA RESULT:    -4.420      3.078      5.903
REMARK INTER + INTRA:         -10.108
REMARK INTER:                  -7.783
REMARK INTRA:                  -2.325
REMARK UNBOUND:                -2.069
REMARK SMILES CCCCCCCCCCCCCCCC(=O)[O-]
REMARK SMILES IDX 9 1 10 2 11 3 12 4 13 5 14 6 15 7 16 8 17 9 18 10 8 11 7 12
REMARK SMILES IDX 6 13 5 14 4 15 3 16 2 17 1 18
REMARK H PARENT
REMARK Flexibility Score: inf
ROOT
ATOM      1  C   UNL     1      14.747 -33.524  21.349  1.00  0.00     0.000 C 
ENDROOT
BRANCH   1   2
ATOM      2  C   UNL     1      15.322 -34.641  20.464  1.00  0.00     0.000 C 
BRANCH   2   3
ATOM      3  C   UNL     1      16.234 -34.104  19.350  1.00  0.00     0.000 C 
BRANCH   3   4
ATOM      4  C   UNL     1      17.657 -34.679  19.419  1.00  0.00     0.000 C 
BRANCH   4   5
ATOM      5  C   UNL     1      17.858 -35.491  20.707  1.00  0.00     0.000 C 
BRANCH   5   6
ATOM      6  C   UNL     1      18.780 -34.786  21.720  1.00  0.00     0.006 C 
BRANCH   6   7
ATOM      7  C   UNL     1      18.043 -34.156  22.913  1.00  0.00     0.053 C 
BRANCH   7   8
ATOM      8  C   UNL     1      17.750 -35.160  23.985  1.00  0.00     0.041 C 
ATOM      9  O   UNL     1      16.722 -35.040  24.702  1.00  0.00    -0.550 OA
ATOM     10  O   UNL     1      18.594 -36.248  24.169  1.00  0.00    -0.550 OA
ENDBRANCH   7   8
ENDBRANCH   6   7
ENDBRANCH   5   6
ENDBRANCH   4   5
ENDBRANCH   3   4
ENDBRANCH   2   3
ENDBRANCH   1   2
BRANCH   1  11
ATOM     11  C   UNL     1      13.911 -32.542  20.520  1.00  0.00     0.000 C 
BRANCH  11  12
ATOM     12  C   UNL     1      13.526 -31.309  21.352  1.00  0.00    -0.000 C 
BRANCH  12  13
ATOM     13  C   UNL     1      13.956 -31.429  22.824  1.00  0.00    -0.000 C 
BRANCH  13  14
ATOM     14  C   UNL     1      14.904 -30.296  23.256  1.00  0.00    -0.000 C 
BRANCH  14  15
ATOM     15  C   UNL     1      16.388 -30.643  23.037  1.00  0.00    -0.000 C 
BRANCH  15  16
ATOM     16  C   UNL     1      17.020 -30.054  21.760  1.00  0.00    -0.000 C 
BRANCH  16  17
ATOM     17  C   UNL     1      17.677 -31.086  20.826  1.00  0.00    -0.003 C 
ATOM     18  C   UNL     1      19.194 -31.156  20.991  1.00  0.00     0.004 C 
ENDBRANCH  16  17
ENDBRANCH  15  16
ENDBRANCH  14  15
ENDBRANCH  13  14
ENDBRANCH  12  13
ENDBRANCH  11  12
ENDBRANCH   1  11
TORSDOF 14
ENDMDL
MODEL 9
REMARK VINA RESULT:    -4.384      2.533      5.295
REMARK INTER + INTRA:         -10.042
REMARK INTER:                  -7.724
REMARK INTRA:                  -2.317
REMARK UNBOUND:                -2.069
REMARK SMILES CCCCCCCCCCCCCCCC(=O)[O-]
REMARK SMILES IDX 9 1 10 2 11 3 12 4 13 5 14 6 15 7 16 8 17 9 18 10 8 11 7 12
REMARK SMILES IDX 6 13 5 14 4 15 3 16 2 17 1 18
REMARK H PARENT
REMARK Flexibility Score: inf
ROOT
ATOM      1  C   UNL     1      17.723 -35.181  19.321  1.00  0.00     0.000 C 
ENDROOT
BRANCH   1   2
ATOM      2  C   UNL     1      17.127 -36.396  20.049  1.00  0.00     0.000 C 
BRANCH   2   3
ATOM      3  C   UNL     1      18.005 -36.876  21.216  1.00  0.00     0.000 C 
BRANCH   3   4
ATOM      4  C   UNL     1      18.637 -35.717  22.000  1.00  0.00     0.000 C 
BRANCH   4   5
ATOM      5  C   UNL     1      17.642 -35.133  23.014  1.00  0.00     0.000 C 
BRANCH   5   6
ATOM      6  C   UNL     1      17.725 -33.598  23.118  1.00  0.00     0.006 C 
BRANCH   6   7
ATOM      7  C   UNL     1      18.730 -32.953  22.151  1.00  0.00     0.053 C 
BRANCH   7   8
ATOM      8  C   UNL     1      18.431 -31.504  21.916  1.00  0.00     0.041 C 
ATOM      9  O   UNL     1      18.729 -30.646  22.788  1.00  0.00    -0.550 OA
ATOM     10  O   UNL     1      17.853 -31.098  20.720  1.00  0.00    -0.550 OA
ENDBRANCH   7   8
ENDBRANCH   6   7
ENDBRANCH   5   6
ENDBRANCH   4   5
ENDBRANCH   3   4
ENDBRANCH   2   3
ENDBRANCH   1   2
BRANCH   1  11
ATOM     11  C   UNL     1      16.721 -34.020  19.280  1.00  0.00     0.000 C 
BRANCH  11  12
ATOM     12  C   UNL     1      15.351 -34.458  19.819  1.00  0.00    -0.000 C 
BRANCH  12  13
ATOM     13  C   UNL     1      14.862 -33.580  20.983  1.00  0.00    -0.000 C 
BRANCH  13  14
ATOM     14  C   UNL     1      13.864 -32.501  20.529  1.00  0.00    -0.000 C 
BRANCH  14  15
ATOM     15  C   UNL     1      13.559 -31.469  21.630  1.00  0.00    -0.000 C 
BRANCH  15  16
ATOM     16  C   UNL     1      14.093 -31.824  23.032  1.00  0.00    -0.000 C 
BRANCH  16  17
ATOM     17  C   UNL     1      15.124 -30.835  23.604  1.00  0.00    -0.003 C 
ATOM     18  C   UNL     1      15.311 -29.597  22.728  1.00  0.00     0.004 C 
ENDBRANCH  16  17
ENDBRANCH  15  16
ENDBRANCH  14  15
ENDBRANCH  13  14
ENDBRANCH  12  13
ENDBRANCH  11  12
ENDBRANCH   1  11
TORSDOF 14
ENDMDL
