MODEL 1
REMARK VINA RESULT:    -3.292      0.000      0.000
REMARK INTER + INTRA:         -10.765
REMARK INTER:                  -7.142
REMARK INTRA:                  -3.624
REMARK UNBOUND:                -3.624
REMARK SMILES CCCCCCCCCCCCCCCCCCCCCC(=O)[O-]
REMARK SMILES IDX 12 1 11 2 10 3 9 4 8 5 7 6 6 7 5 8 4 9 3 10 2 11 1 12 13 13
REMARK SMILES IDX 14 14 15 15 16 16 17 17 18 18 19 19 20 20 21 21 22 22 23 23
REMARK SMILES IDX 24 24
REMARK H PARENT
REMARK Flexibility Score: inf
ROOT
ATOM      1  C   UNL     1      16.532   2.281  40.954  1.00  0.00     0.000 C 
ENDROOT
BRANCH   1   2
ATOM      2  C   UNL     1      17.585   1.487  40.156  1.00  0.00     0.000 C 
BRANCH   2   3
ATOM      3  C   UNL     1      19.009   2.076  40.193  1.00  0.00     0.000 C 
BRANCH   3   4
ATOM      4  C   UNL     1      20.082   1.138  40.780  1.00  0.00    -0.000 C 
BRANCH   4   5
ATOM      5  C   UNL     1      20.730   1.630  42.090  1.00  0.00    -0.000 C 
BRANCH   5   6
ATOM      6  C   UNL     1      19.761   2.287  43.091  1.00  0.00    -0.000 C 
BRANCH   6   7
ATOM      7  C   UNL     1      19.362   1.344  44.241  1.00  0.00    -0.000 C 
BRANCH   7   8
ATOM      8  C   UNL     1      18.077   0.557  43.937  1.00  0.00    -0.000 C 
BRANCH   8   9
ATOM      9  C   UNL     1      18.366  -0.882  43.474  1.00  0.00    -0.000 C 
BRANCH   9  10
ATOM     10  C   UNL     1      19.696  -1.431  44.022  1.00  0.00    -0.000 C 
BRANCH  10  11
ATOM     11  C   UNL     1      20.465  -2.354  43.060  1.00  0.00    -0.003 C 
ATOM     12  C   UNL     1      19.838  -2.424  41.668  1.00  0.00     0.004 C 
ENDBRANCH  10  11
ENDBRANCH   9  10
ENDBRANCH   8   9
ENDBRANCH   7   8
ENDBRANCH   6   7
ENDBRANCH   5   6
ENDBRANCH   4   5
ENDBRANCH   3   4
ENDBRANCH   2   3
ENDBRANCH   1   2
BRANCH   1  13
ATOM     13  C   UNL     1      15.979   3.536  40.246  1.00  0.00     0.000 C 
BRANCH  13  14
ATOM     14  C   UNL     1      16.710   4.849  40.581  1.00  0.00     0.000 C 
BRANCH  14  15
ATOM     15  C   UNL     1      17.263   4.872  42.015  1.00  0.00     0.000 C 
BRANCH  15  16
ATOM     16  C   UNL     1      16.412   5.731  42.967  1.00  0.00     0.000 C 
BRANCH  16  17
ATOM     17  C   UNL     1      15.586   4.942  44.003  1.00  0.00     0.000 C 
BRANCH  17  18
ATOM     18  C   UNL     1      16.241   3.618  44.449  1.00  0.00     0.000 C 
BRANCH  18  19
ATOM     19  C   UNL     1      16.140   3.399  45.969  1.00  0.00     0.000 C 
BRANCH  19  20
ATOM     20  C   UNL     1      17.485   3.607  46.692  1.00  0.00     0.006 C 
BRANCH  20  21
ATOM     21  C   UNL     1      17.904   2.437  47.596  1.00  0.00     0.053 C 
BRANCH  21  22
ATOM     22  C   UNL     1      16.934   2.220  48.718  1.00  0.00     0.041 C 
ATOM     23  O   UNL     1      16.942   2.986  49.718  1.00  0.00    -0.550 OA
ATOM     24  O   UNL     1      15.996   1.200  48.640  1.00  0.00    -0.550 OA
ENDBRANCH  21  22
ENDBRANCH  20  21
ENDBRANCH  19  20
ENDBRANCH  18  19
ENDBRANCH  17  18
ENDBRANCH  16  17
ENDBRANCH  15  16
ENDBRANCH  14  15
ENDBRANCH  13  14
ENDBRANCH   1  13
TORSDOF 20
ENDMDL
MODEL 2
REMARK VINA RESULT:    -3.262      4.073      7.259
REMARK INTER + INTRA:         -10.700
REMARK INTER:                  -8.021
REMARK INTRA:                  -2.679
REMARK UNBOUND:                -3.624
REMARK SMILES CCCCCCCCCCCCCCCCCCCCCC(=O)[O-]
REMARK SMILES IDX 12 1 11 2 10 3 9 4 8 5 7 6 6 7 5 8 4 9 3 10 2 11 1 12 13 13
REMARK SMILES IDX 14 14 15 15 16 16 17 17 18 18 19 19 20 20 21 21 22 22 23 23
REMARK SMILES IDX 24 24
REMARK H PARENT
REMARK Flexibility Score: inf
ROOT
ATOM      1  C   UNL     1      14.646   2.425  37.971  1.00  0.00     0.000 C 
ENDROOT
BRANCH   1   2
ATOM      2  C   UNL     1      14.643   0.933  37.582  1.00  0.00     0.000 C 
BRANCH   2   3
ATOM      3  C   UNL     1      16.038   0.318  37.350  1.00  0.00     0.000 C 
BRANCH   3   4
ATOM      4  C   UNL     1      16.243  -0.313  35.959  1.00  0.00    -0.000 C 
BRANCH   4   5
ATOM      5  C   UNL     1      15.165   0.044  34.916  1.00  0.00    -0.000 C 
BRANCH   5   6
ATOM      6  C   UNL     1      15.693   0.297  33.491  1.00  0.00    -0.000 C 
BRANCH   6   7
ATOM      7  C   UNL     1      15.833   1.795  33.165  1.00  0.00    -0.000 C 
BRANCH   7   8
ATOM      8  C   UNL     1      17.114   2.409  33.752  1.00  0.00    -0.000 C 
BRANCH   8   9
ATOM      9  C   UNL     1      16.819   3.411  34.882  1.00  0.00    -0.000 C 
BRANCH   9  10
ATOM     10  C   UNL     1      15.914   4.572  34.431  1.00  0.00    -0.000 C 
BRANCH  10  11
ATOM     11  C   UNL     1      15.213   5.331  35.572  1.00  0.00    -0.003 C 
ATOM     12  C   UNL     1      16.144   6.286  36.317  1.00  0.00     0.004 C 
ENDBRANCH  10  11
ENDBRANCH   9  10
ENDBRANCH   8   9
ENDBRANCH   7   8
ENDBRANCH   6   7
ENDBRANCH   5   6
ENDBRANCH   4   5
ENDBRANCH   3   4
ENDBRANCH   2   3
ENDBRANCH   1   2
BRANCH   1  13
ATOM     13  C   UNL     1      16.001   2.972  38.466  1.00  0.00     0.000 C 
BRANCH  13  14
ATOM     14  C   UNL     1      15.967   3.647  39.849  1.00  0.00     0.000 C 
BRANCH  14  15
ATOM     15  C   UNL     1      17.134   3.214  40.751  1.00  0.00     0.000 C 
BRANCH  15  16
ATOM     16  C   UNL     1      17.156   1.698  41.012  1.00  0.00     0.000 C 
BRANCH  16  17
ATOM     17  C   UNL     1      18.387   0.954  40.456  1.00  0.00     0.000 C 
BRANCH  17  18
ATOM     18  C   UNL     1      19.295   0.345  41.546  1.00  0.00     0.000 C 
BRANCH  18  19
ATOM     19  C   UNL     1      20.492   1.252  41.884  1.00  0.00     0.000 C 
BRANCH  19  20
ATOM     20  C   UNL     1      20.191   2.232  43.034  1.00  0.00     0.006 C 
BRANCH  20  21
ATOM     21  C   UNL     1      19.457   1.599  44.228  1.00  0.00     0.053 C 
BRANCH  21  22
ATOM     22  C   UNL     1      18.680   2.615  45.010  1.00  0.00     0.041 C 
ATOM     23  O   UNL     1      17.423   2.639  44.941  1.00  0.00    -0.550 OA
ATOM     24  O   UNL     1      19.342   3.506  45.843  1.00  0.00    -0.550 OA
ENDBRANCH  21  22
ENDBRANCH  20  21
ENDBRANCH  19  20
ENDBRANCH  18  19
ENDBRANCH  17  18
ENDBRANCH  16  17
ENDBRANCH  15  16
ENDBRANCH  14  15
ENDBRANCH  13  14
ENDBRANCH   1  13
TORSDOF 20
ENDMDL
MODEL 3
REMARK VINA RESULT:    -3.261      1.598      3.541
REMARK INTER + INTRA:         -10.697
REMARK INTER:                  -7.277
REMARK INTRA:                  -3.421
REMARK UNBOUND:                -3.624
REMARK SMILES CCCCCCCCCCCCCCCCCCCCCC(=O)[O-]
REMARK SMILES IDX 12 1 11 2 10 3 9 4 8 5 7 6 6 7 5 8 4 9 3 10 2 11 1 12 13 13
REMARK SMILES IDX 14 14 15 15 16 16 17 17 18 18 19 19 20 20 21 21 22 22 23 23
REMARK SMILES IDX 24 24
REMARK H PARENT
REMARK Flexibility Score: inf
ROOT
ATOM      1  C   UNL     1      19.739   2.069  40.894  1.00  0.00     0.000 C 
ENDROOT
BRANCH   1   2
ATOM      2  C   UNL     1      20.620   1.760  42.120  1.00  0.00     0.000 C 
BRANCH   2   3
ATOM      3  C   UNL     1      20.039   2.219  43.472  1.00  0.00     0.000 C 
BRANCH   3   4
ATOM      4  C   UNL     1      19.439   1.092  44.334  1.00  0.00    -0.000 C 
BRANCH   4   5
ATOM      5  C   UNL     1      18.199   0.401  43.732  1.00  0.00    -0.000 C 
BRANCH   5   6
ATOM      6  C   UNL     1      18.376  -1.096  43.417  1.00  0.00    -0.000 C 
BRANCH   6   7
ATOM      7  C   UNL     1      19.825  -1.579  43.608  1.00  0.00    -0.000 C 
BRANCH   7   8
ATOM      8  C   UNL     1      20.194  -2.724  42.651  1.00  0.00    -0.000 C 
BRANCH   8   9
ATOM      9  C   UNL     1      19.740  -2.450  41.206  1.00  0.00    -0.000 C 
BRANCH   9  10
ATOM     10  C   UNL     1      18.742  -3.499  40.683  1.00  0.00    -0.000 C 
BRANCH  10  11
ATOM     11  C   UNL     1      18.844  -3.799  39.177  1.00  0.00    -0.003 C 
ATOM     12  C   UNL     1      18.301  -2.668  38.303  1.00  0.00     0.004 C 
ENDBRANCH  10  11
ENDBRANCH   9  10
ENDBRANCH   8   9
ENDBRANCH   7   8
ENDBRANCH   6   7
ENDBRANCH   5   6
ENDBRANCH   4   5
ENDBRANCH   3   4
ENDBRANCH   2   3
ENDBRANCH   1   2
BRANCH   1  13
ATOM     13  C   UNL     1      19.268   0.835  40.096  1.00  0.00     0.000 C 
BRANCH  13  14
ATOM     14  C   UNL     1      17.854   0.948  39.495  1.00  0.00     0.000 C 
BRANCH  14  15
ATOM     15  C   UNL     1      16.859   1.637  40.443  1.00  0.00     0.000 C 
BRANCH  15  16
ATOM     16  C   UNL     1      16.263   2.924  39.846  1.00  0.00     0.000 C 
BRANCH  16  17
ATOM     17  C   UNL     1      16.220   4.132  40.803  1.00  0.00     0.000 C 
BRANCH  17  18
ATOM     18  C   UNL     1      16.337   3.755  42.295  1.00  0.00     0.000 C 
BRANCH  18  19
ATOM     19  C   UNL     1      17.381   4.609  43.035  1.00  0.00     0.000 C 
BRANCH  19  20
ATOM     20  C   UNL     1      16.986   4.899  44.497  1.00  0.00     0.006 C 
BRANCH  20  21
ATOM     21  C   UNL     1      16.983   3.661  45.408  1.00  0.00     0.053 C 
BRANCH  21  22
ATOM     22  C   UNL     1      17.955   3.796  46.540  1.00  0.00     0.041 C 
ATOM     23  O   UNL     1      19.169   4.037  46.306  1.00  0.00    -0.550 OA
ATOM     24  O   UNL     1      17.514   3.696  47.853  1.00  0.00    -0.550 OA
ENDBRANCH  21  22
ENDBRANCH  20  21
ENDBRANCH  19  20
ENDBRANCH  18  19
ENDBRANCH  17  18
ENDBRANCH  16  17
ENDBRANCH  15  16
ENDBRANCH  14  15
ENDBRANCH  13  14
ENDBRANCH   1  13
TORSDOF 20
ENDMDL
MODEL 4
REMARK VINA RESULT:    -3.258      4.363      6.427
REMARK INTER + INTRA:         -10.691
REMARK INTER:                  -7.259
REMARK INTRA:                  -3.432
REMARK UNBOUND:                -3.624
REMARK SMILES CCCCCCCCCCCCCCCCCCCCCC(=O)[O-]
REMARK SMILES IDX 12 1 11 2 10 3 9 4 8 5 7 6 6 7 5 8 4 9 3 10 2 11 1 12 13 13
REMARK SMILES IDX 14 14 15 15 16 16 17 17 18 18 19 19 20 20 21 21 22 22 23 23
REMARK SMILES IDX 24 24
REMARK H PARENT
REMARK Flexibility Score: inf
ROOT
ATOM      1  C   UNL     1      16.680   3.373  43.724  1.00  0.00     0.000 C 
ENDROOT
BRANCH   1   2
ATOM      2  C   UNL     1      16.676   1.973  43.077  1.00  0.00     0.000 C 
BRANCH   2   3
ATOM      3  C   UNL     1      17.740   1.001  43.622  1.00  0.00     0.000 C 
BRANCH   3   4
ATOM      4  C   UNL     1      18.776   1.639  44.568  1.00  0.00    -0.000 C 
BRANCH   4   5
ATOM      5  C   UNL     1      20.139   1.958  43.922  1.00  0.00    -0.000 C 
BRANCH   5   6
ATOM      6  C   UNL     1      20.090   2.267  42.414  1.00  0.00    -0.000 C 
BRANCH   6   7
ATOM      7  C   UNL     1      20.862   1.238  41.569  1.00  0.00    -0.000 C 
BRANCH   7   8
ATOM      8  C   UNL     1      20.055   0.746  40.357  1.00  0.00    -0.000 C 
BRANCH   8   9
ATOM      9  C   UNL     1      19.323  -0.579  40.640  1.00  0.00    -0.000 C 
BRANCH   9  10
ATOM     10  C   UNL     1      20.188  -1.585  41.422  1.00  0.00    -0.000 C 
BRANCH  10  11
ATOM     11  C   UNL     1      19.486  -2.254  42.618  1.00  0.00    -0.003 C 
ATOM     12  C   UNL     1      20.045  -1.806  43.968  1.00  0.00     0.004 C 
ENDBRANCH  10  11
ENDBRANCH   9  10
ENDBRANCH   8   9
ENDBRANCH   7   8
ENDBRANCH   6   7
ENDBRANCH   5   6
ENDBRANCH   4   5
ENDBRANCH   3   4
ENDBRANCH   2   3
ENDBRANCH   1   2
BRANCH   1  13
ATOM     13  C   UNL     1      17.327   4.487  42.874  1.00  0.00     0.000 C 
BRANCH  13  14
ATOM     14  C   UNL     1      16.363   5.230  41.931  1.00  0.00     0.000 C 
BRANCH  14  15
ATOM     15  C   UNL     1      16.851   5.244  40.473  1.00  0.00     0.000 C 
BRANCH  15  16
ATOM     16  C   UNL     1      17.963   4.215  40.207  1.00  0.00     0.000 C 
BRANCH  16  17
ATOM     17  C   UNL     1      17.642   3.167  39.123  1.00  0.00     0.000 C 
BRANCH  17  18
ATOM     18  C   UNL     1      16.665   2.065  39.585  1.00  0.00     0.000 C 
BRANCH  18  19
ATOM     19  C   UNL     1      15.196   2.436  39.316  1.00  0.00     0.000 C 
BRANCH  19  20
ATOM     20  C   UNL     1      14.809   2.297  37.830  1.00  0.00     0.006 C 
BRANCH  20  21
ATOM     21  C   UNL     1      14.622   0.846  37.359  1.00  0.00     0.053 C 
BRANCH  21  22
ATOM     22  C   UNL     1      15.249   0.607  36.019  1.00  0.00     0.041 C 
ATOM     23  O   UNL     1      15.518   1.579  35.265  1.00  0.00    -0.550 OA
ATOM     24  O   UNL     1      15.573  -0.683  35.621  1.00  0.00    -0.550 OA
ENDBRANCH  21  22
ENDBRANCH  20  21
ENDBRANCH  19  20
ENDBRANCH  18  19
ENDBRANCH  17  18
ENDBRANCH  16  17
ENDBRANCH  15  16
ENDBRANCH  14  15
ENDBRANCH  13  14
ENDBRANCH   1  13
TORSDOF 20
ENDMDL
MODEL 5
REMARK VINA RESULT:    -3.234      4.227      6.401
REMARK INTER + INTRA:         -10.639
REMARK INTER:                  -7.779
REMARK INTRA:                  -2.860
REMARK UNBOUND:                -3.624
REMARK SMILES CCCCCCCCCCCCCCCCCCCCCC(=O)[O-]
REMARK SMILES IDX 12 1 11 2 10 3 9 4 8 5 7 6 6 7 5 8 4 9 3 10 2 11 1 12 13 13
REMARK SMILES IDX 14 14 15 15 16 16 17 17 18 18 19 19 20 20 21 21 22 22 23 23
REMARK SMILES IDX 24 24
REMARK H PARENT
REMARK Flexibility Score: inf
ROOT
ATOM      1  C   UNL     1      20.159   1.860  41.829  1.00  0.00     0.000 C 
ENDROOT
BRANCH   1   2
ATOM      2  C   UNL     1      20.420   0.405  41.392  1.00  0.00     0.000 C 
BRANCH   2   3
ATOM      3  C   UNL     1      19.162  -0.479  41.285  1.00  0.00     0.000 C 
BRANCH   3   4
ATOM      4  C   UNL     1      19.046  -1.572  42.365  1.00  0.00    -0.000 C 
BRANCH   4   5
ATOM      5  C   UNL     1      20.080  -1.475  43.504  1.00  0.00    -0.000 C 
BRANCH   5   6
ATOM      6  C   UNL     1      20.144  -2.702  44.434  1.00  0.00    -0.000 C 
BRANCH   6   7
ATOM      7  C   UNL     1      21.459  -3.489  44.294  1.00  0.00    -0.000 C 
BRANCH   7   8
ATOM      8  C   UNL     1      21.829  -3.760  42.827  1.00  0.00    -0.000 C 
BRANCH   8   9
ATOM      9  C   UNL     1      21.359  -5.146  42.350  1.00  0.00    -0.000 C 
BRANCH   9  10
ATOM     10  C   UNL     1      19.955  -5.116  41.717  1.00  0.00    -0.000 C 
BRANCH  10  11
ATOM     11  C   UNL     1      19.932  -4.881  40.196  1.00  0.00    -0.003 C 
ATOM     12  C   UNL     1      18.738  -4.045  39.737  1.00  0.00     0.004 C 
ENDBRANCH  10  11
ENDBRANCH   9  10
ENDBRANCH   8   9
ENDBRANCH   7   8
ENDBRANCH   6   7
ENDBRANCH   5   6
ENDBRANCH   4   5
ENDBRANCH   3   4
ENDBRANCH   2   3
ENDBRANCH   1   2
BRANCH   1  13
ATOM     13  C   UNL     1      20.371   2.143  43.331  1.00  0.00     0.000 C 
BRANCH  13  14
ATOM     14  C   UNL     1      19.109   2.580  44.097  1.00  0.00     0.000 C 
BRANCH  14  15
ATOM     15  C   UNL     1      18.063   1.459  44.209  1.00  0.00     0.000 C 
BRANCH  15  16
ATOM     16  C   UNL     1      16.678   1.883  43.690  1.00  0.00     0.000 C 
BRANCH  16  17
ATOM     17  C   UNL     1      16.493   1.793  42.162  1.00  0.00     0.000 C 
BRANCH  17  18
ATOM     18  C   UNL     1      16.525   3.159  41.446  1.00  0.00     0.000 C 
BRANCH  18  19
ATOM     19  C   UNL     1      16.058   3.064  39.982  1.00  0.00     0.000 C 
BRANCH  19  20
ATOM     20  C   UNL     1      16.061   1.618  39.449  1.00  0.00     0.006 C 
BRANCH  20  21
ATOM     21  C   UNL     1      14.820   1.249  38.619  1.00  0.00     0.053 C 
BRANCH  21  22
ATOM     22  C   UNL     1      15.123   1.202  37.152  1.00  0.00     0.041 C 
ATOM     23  O   UNL     1      15.105   0.103  36.537  1.00  0.00    -0.550 OA
ATOM     24  O   UNL     1      15.384   2.376  36.457  1.00  0.00    -0.550 OA
ENDBRANCH  21  22
ENDBRANCH  20  21
ENDBRANCH  19  20
ENDBRANCH  18  19
ENDBRANCH  17  18
ENDBRANCH  16  17
ENDBRANCH  15  16
ENDBRANCH  14  15
ENDBRANCH  13  14
ENDBRANCH   1  13
TORSDOF 20
ENDMDL
MODEL 6
REMARK VINA RESULT:    -3.226      1.740      5.203
REMARK INTER + INTRA:         -10.622
REMARK INTER:                  -6.623
REMARK INTRA:                  -3.999
REMARK UNBOUND:                -3.624
REMARK SMILES CCCCCCCCCCCCCCCCCCCCCC(=O)[O-]
REMARK SMILES IDX 12 1 11 2 10 3 9 4 8 5 7 6 6 7 5 8 4 9 3 10 2 11 1 12 13 13
REMARK SMILES IDX 14 14 15 15 16 16 17 17 18 18 19 19 20 20 21 21 22 22 23 23
REMARK SMILES IDX 24 24
REMARK H PARENT
REMARK Flexibility Score: inf
ROOT
ATOM      1  C   UNL     1      19.849   0.137  39.937  1.00  0.00     0.000 C 
ENDROOT
BRANCH   1   2
ATOM      2  C   UNL     1      18.438  -0.059  39.349  1.00  0.00     0.000 C 
BRANCH   2   3
ATOM      3  C   UNL     1      18.016   0.992  38.304  1.00  0.00     0.000 C 
BRANCH   3   4
ATOM      4  C   UNL     1      16.632   1.626  38.546  1.00  0.00    -0.000 C 
BRANCH   4   5
ATOM      5  C   UNL     1      16.249   1.805  40.029  1.00  0.00    -0.000 C 
BRANCH   5   6
ATOM      6  C   UNL     1      16.136   3.267  40.501  1.00  0.00    -0.000 C 
BRANCH   6   7
ATOM      7  C   UNL     1      16.783   4.262  39.521  1.00  0.00    -0.000 C 
BRANCH   7   8
ATOM      8  C   UNL     1      18.063   4.899  40.087  1.00  0.00    -0.000 C 
BRANCH   8   9
ATOM      9  C   UNL     1      17.962   5.172  41.598  1.00  0.00    -0.000 C 
BRANCH   9  10
ATOM     10  C   UNL     1      17.675   6.650  41.921  1.00  0.00    -0.000 C 
BRANCH  10  11
ATOM     11  C   UNL     1      16.562   6.885  42.958  1.00  0.00    -0.003 C 
ATOM     12  C   UNL     1      15.325   6.021  42.715  1.00  0.00     0.004 C 
ENDBRANCH  10  11
ENDBRANCH   9  10
ENDBRANCH   8   9
ENDBRANCH   7   8
ENDBRANCH   6   7
ENDBRANCH   5   6
ENDBRANCH   4   5
ENDBRANCH   3   4
ENDBRANCH   2   3
ENDBRANCH   1   2
BRANCH   1  13
ATOM     13  C   UNL     1      20.188   1.582  40.362  1.00  0.00     0.000 C 
BRANCH  13  14
ATOM     14  C   UNL     1      19.667   1.992  41.752  1.00  0.00     0.000 C 
BRANCH  14  15
ATOM     15  C   UNL     1      20.002   0.960  42.841  1.00  0.00     0.000 C 
BRANCH  15  16
ATOM     16  C   UNL     1      18.903   0.846  43.912  1.00  0.00     0.000 C 
BRANCH  16  17
ATOM     17  C   UNL     1      17.534   0.357  43.398  1.00  0.00     0.000 C 
BRANCH  17  18
ATOM     18  C   UNL     1      16.340   1.198  43.897  1.00  0.00     0.000 C 
BRANCH  18  19
ATOM     19  C   UNL     1      16.671   2.699  43.970  1.00  0.00     0.000 C 
BRANCH  19  20
ATOM     20  C   UNL     1      16.080   3.379  45.220  1.00  0.00     0.006 C 
BRANCH  20  21
ATOM     21  C   UNL     1      17.067   4.289  45.971  1.00  0.00     0.053 C 
BRANCH  21  22
ATOM     22  C   UNL     1      18.245   3.524  46.494  1.00  0.00     0.041 C 
ATOM     23  O   UNL     1      18.084   2.643  47.379  1.00  0.00    -0.550 OA
ATOM     24  O   UNL     1      19.512   3.757  45.976  1.00  0.00    -0.550 OA
ENDBRANCH  21  22
ENDBRANCH  20  21
ENDBRANCH  19  20
ENDBRANCH  18  19
ENDBRANCH  17  18
ENDBRANCH  16  17
ENDBRANCH  15  16
ENDBRANCH  14  15
ENDBRANCH  13  14
ENDBRANCH   1  13
TORSDOF 20
ENDMDL
MODEL 7
REMARK VINA RESULT:    -3.224      5.014      7.775
REMARK INTER + INTRA:         -10.618
REMARK INTER:                  -7.328
REMARK INTRA:                  -3.289
REMARK UNBOUND:                -3.624
REMARK SMILES CCCCCCCCCCCCCCCCCCCCCC(=O)[O-]
REMARK SMILES IDX 12 1 11 2 10 3 9 4 8 5 7 6 6 7 5 8 4 9 3 10 2 11 1 12 13 13
REMARK SMILES IDX 14 14 15 15 16 16 17 17 18 18 19 19 20 20 21 21 22 22 23 23
REMARK SMILES IDX 24 24
REMARK H PARENT
REMARK Flexibility Score: inf
ROOT
ATOM      1  C   UNL     1      19.337   1.844  39.014  1.00  0.00     0.000 C 
ENDROOT
BRANCH   1   2
ATOM      2  C   UNL     1      20.746   1.218  38.995  1.00  0.00     0.000 C 
BRANCH   2   3
ATOM      3  C   UNL     1      21.137   0.457  40.277  1.00  0.00     0.000 C 
BRANCH   3   4
ATOM      4  C   UNL     1      19.949  -0.059  41.112  1.00  0.00    -0.000 C 
BRANCH   4   5
ATOM      5  C   UNL     1      19.952   0.378  42.590  1.00  0.00    -0.000 C 
BRANCH   5   6
ATOM      6  C   UNL     1      20.387   1.835  42.838  1.00  0.00    -0.000 C 
BRANCH   6   7
ATOM      7  C   UNL     1      19.729   2.449  44.086  1.00  0.00    -0.000 C 
BRANCH   7   8
ATOM      8  C   UNL     1      18.278   1.981  44.277  1.00  0.00    -0.000 C 
BRANCH   8   9
ATOM      9  C   UNL     1      17.395   3.060  44.930  1.00  0.00    -0.000 C 
BRANCH   9  10
ATOM     10  C   UNL     1      17.301   4.346  44.089  1.00  0.00    -0.000 C 
BRANCH  10  11
ATOM     11  C   UNL     1      15.921   4.613  43.461  1.00  0.00    -0.003 C 
ATOM     12  C   UNL     1      15.930   5.770  42.463  1.00  0.00     0.004 C 
ENDBRANCH  10  11
ENDBRANCH   9  10
ENDBRANCH   8   9
ENDBRANCH   7   8
ENDBRANCH   6   7
ENDBRANCH   5   6
ENDBRANCH   4   5
ENDBRANCH   3   4
ENDBRANCH   2   3
ENDBRANCH   1   2
BRANCH   1  13
ATOM     13  C   UNL     1      19.263   3.280  39.572  1.00  0.00     0.000 C 
BRANCH  13  14
ATOM     14  C   UNL     1      18.095   3.545  40.540  1.00  0.00     0.000 C 
BRANCH  14  15
ATOM     15  C   UNL     1      17.223   2.301  40.773  1.00  0.00     0.000 C 
BRANCH  15  16
ATOM     16  C   UNL     1      15.817   2.436  40.161  1.00  0.00     0.000 C 
BRANCH  16  17
ATOM     17  C   UNL     1      15.726   3.349  38.922  1.00  0.00     0.000 C 
BRANCH  17  18
ATOM     18  C   UNL     1      15.536   2.585  37.594  1.00  0.00     0.000 C 
BRANCH  18  19
ATOM     19  C   UNL     1      15.554   1.058  37.789  1.00  0.00     0.000 C 
BRANCH  19  20
ATOM     20  C   UNL     1      15.028   0.294  36.559  1.00  0.00     0.006 C 
BRANCH  20  21
ATOM     21  C   UNL     1      15.399   0.935  35.211  1.00  0.00     0.053 C 
BRANCH  21  22
ATOM     22  C   UNL     1      15.292  -0.042  34.079  1.00  0.00     0.041 C 
ATOM     23  O   UNL     1      16.293  -0.725  33.737  1.00  0.00    -0.550 OA
ATOM     24  O   UNL     1      14.078  -0.225  33.430  1.00  0.00    -0.550 OA
ENDBRANCH  21  22
ENDBRANCH  20  21
ENDBRANCH  19  20
ENDBRANCH  18  19
ENDBRANCH  17  18
ENDBRANCH  16  17
ENDBRANCH  15  16
ENDBRANCH  14  15
ENDBRANCH  13  14
ENDBRANCH   1  13
TORSDOF 20
ENDMDL
MODEL 8
REMARK VINA RESULT:    -3.214      5.031      7.901
REMARK INTER + INTRA:         -10.595
REMARK INTER:                  -6.779
REMARK INTRA:                  -3.816
REMARK UNBOUND:                -3.624
REMARK SMILES CCCCCCCCCCCCCCCCCCCCCC(=O)[O-]
REMARK SMILES IDX 12 1 11 2 10 3 9 4 8 5 7 6 6 7 5 8 4 9 3 10 2 11 1 12 13 13
REMARK SMILES IDX 14 14 15 15 16 16 17 17 18 18 19 19 20 20 21 21 22 22 23 23
REMARK SMILES IDX 24 24
REMARK H PARENT
REMARK Flexibility Score: inf
ROOT
ATOM      1  C   UNL     1      17.445   1.430  39.875  1.00  0.00     0.000 C 
ENDROOT
BRANCH   1   2
ATOM      2  C   UNL     1      18.541   2.329  39.269  1.00  0.00     0.000 C 
BRANCH   2   3
ATOM      3  C   UNL     1      18.858   3.604  40.075  1.00  0.00     0.000 C 
BRANCH   3   4
ATOM      4  C   UNL     1      18.428   4.921  39.400  1.00  0.00    -0.000 C 
BRANCH   4   5
ATOM      5  C   UNL     1      17.355   5.723  40.164  1.00  0.00    -0.000 C 
BRANCH   5   6
ATOM      6  C   UNL     1      16.732   4.996  41.370  1.00  0.00    -0.000 C 
BRANCH   6   7
ATOM      7  C   UNL     1      17.225   5.549  42.719  1.00  0.00    -0.000 C 
BRANCH   7   8
ATOM      8  C   UNL     1      17.382   4.451  43.784  1.00  0.00    -0.000 C 
BRANCH   8   9
ATOM      9  C   UNL     1      17.032   3.054  43.240  1.00  0.00    -0.000 C 
BRANCH   9  10
ATOM     10  C   UNL     1      17.819   1.927  43.935  1.00  0.00    -0.000 C 
BRANCH  10  11
ATOM     11  C   UNL     1      18.970   1.332  43.104  1.00  0.00    -0.003 C 
ATOM     12  C   UNL     1      20.255   2.155  43.184  1.00  0.00     0.004 C 
ENDBRANCH  10  11
ENDBRANCH   9  10
ENDBRANCH   8   9
ENDBRANCH   7   8
ENDBRANCH   6   7
ENDBRANCH   5   6
ENDBRANCH   4   5
ENDBRANCH   3   4
ENDBRANCH   2   3
ENDBRANCH   1   2
BRANCH   1  13
ATOM     13  C   UNL     1      16.014   2.002  39.806  1.00  0.00     0.000 C 
BRANCH  13  14
ATOM     14  C   UNL     1      15.063   1.266  38.844  1.00  0.00     0.000 C 
BRANCH  14  15
ATOM     15  C   UNL     1      14.321   2.220  37.894  1.00  0.00     0.000 C 
BRANCH  15  16
ATOM     16  C   UNL     1      15.121   3.499  37.590  1.00  0.00     0.000 C 
BRANCH  16  17
ATOM     17  C   UNL     1      15.745   3.563  36.181  1.00  0.00     0.000 C 
BRANCH  17  18
ATOM     18  C   UNL     1      17.288   3.588  36.179  1.00  0.00     0.000 C 
BRANCH  18  19
ATOM     19  C   UNL     1      17.892   2.395  35.419  1.00  0.00     0.000 C 
BRANCH  19  20
ATOM     20  C   UNL     1      17.144   1.075  35.691  1.00  0.00     0.006 C 
BRANCH  20  21
ATOM     21  C   UNL     1      16.743   0.303  34.423  1.00  0.00     0.053 C 
BRANCH  21  22
ATOM     22  C   UNL     1      15.322  -0.170  34.482  1.00  0.00     0.041 C 
ATOM     23  O   UNL     1      14.656  -0.306  33.421  1.00  0.00    -0.550 OA
ATOM     24  O   UNL     1      14.747  -0.499  35.702  1.00  0.00    -0.550 OA
ENDBRANCH  21  22
ENDBRANCH  20  21
ENDBRANCH  19  20
ENDBRANCH  18  19
ENDBRANCH  17  18
ENDBRANCH  16  17
ENDBRANCH  15  16
ENDBRANCH  14  15
ENDBRANCH  13  14
ENDBRANCH   1  13
TORSDOF 20
ENDMDL
MODEL 9
REMARK VINA RESULT:    -3.185      4.873      7.336
REMARK INTER + INTRA:         -10.533
REMARK INTER:                  -7.670
REMARK INTRA:                  -2.862
REMARK UNBOUND:                -3.624
REMARK SMILES CCCCCCCCCCCCCCCCCCCCCC(=O)[O-]
REMARK SMILES IDX 12 1 11 2 10 3 9 4 8 5 7 6 6 7 5 8 4 9 3 10 2 11 1 12 13 13
REMARK SMILES IDX 14 14 15 15 16 16 17 17 18 18 19 19 20 20 21 21 22 22 23 23
REMARK SMILES IDX 24 24
REMARK H PARENT
REMARK Flexibility Score: inf
ROOT
ATOM      1  C   UNL     1      18.563  -0.890  39.292  1.00  0.00     0.000 C 
ENDROOT
BRANCH   1   2
ATOM      2  C   UNL     1      19.648  -1.800  39.902  1.00  0.00     0.000 C 
BRANCH   2   3
ATOM      3  C   UNL     1      20.323  -1.246  41.173  1.00  0.00     0.000 C 
BRANCH   3   4
ATOM      4  C   UNL     1      19.456  -1.308  42.445  1.00  0.00    -0.000 C 
BRANCH   4   5
ATOM      5  C   UNL     1      19.563  -0.076  43.366  1.00  0.00    -0.000 C 
BRANCH   5   6
ATOM      6  C   UNL     1      20.094   1.201  42.688  1.00  0.00    -0.000 C 
BRANCH   6   7
ATOM      7  C   UNL     1      19.080   2.359  42.719  1.00  0.00    -0.000 C 
BRANCH   7   8
ATOM      8  C   UNL     1      17.624   1.865  42.732  1.00  0.00    -0.000 C 
BRANCH   8   9
ATOM      9  C   UNL     1      16.753   2.637  43.739  1.00  0.00    -0.000 C 
BRANCH   9  10
ATOM     10  C   UNL     1      16.075   1.716  44.771  1.00  0.00    -0.000 C 
BRANCH  10  11
ATOM     11  C   UNL     1      15.926   0.248  44.334  1.00  0.00    -0.003 C 
ATOM     12  C   UNL     1      14.522  -0.308  44.571  1.00  0.00     0.004 C 
ENDBRANCH  10  11
ENDBRANCH   9  10
ENDBRANCH   8   9
ENDBRANCH   7   8
ENDBRANCH   6   7
ENDBRANCH   5   6
ENDBRANCH   4   5
ENDBRANCH   3   4
ENDBRANCH   2   3
ENDBRANCH   1   2
BRANCH   1  13
ATOM     13  C   UNL     1      18.927   0.607  39.217  1.00  0.00     0.000 C 
BRANCH  13  14
ATOM     14  C   UNL     1      17.727   1.572  39.248  1.00  0.00     0.000 C 
BRANCH  14  15
ATOM     15  C   UNL     1      17.911   2.780  38.315  1.00  0.00     0.000 C 
BRANCH  15  16
ATOM     16  C   UNL     1      16.770   3.805  38.435  1.00  0.00     0.000 C 
BRANCH  16  17
ATOM     17  C   UNL     1      15.480   3.276  39.094  1.00  0.00     0.000 C 
BRANCH  17  18
ATOM     18  C   UNL     1      14.449   2.716  38.091  1.00  0.00     0.000 C 
BRANCH  18  19
ATOM     19  C   UNL     1      14.099   1.244  38.372  1.00  0.00     0.000 C 
BRANCH  19  20
ATOM     20  C   UNL     1      14.382   0.324  37.169  1.00  0.00     0.006 C 
BRANCH  20  21
ATOM     21  C   UNL     1      15.448   0.861  36.200  1.00  0.00     0.053 C 
BRANCH  21  22
ATOM     22  C   UNL     1      15.511   0.058  34.936  1.00  0.00     0.041 C 
ATOM     23  O   UNL     1      16.599  -0.461  34.570  1.00  0.00    -0.550 OA
ATOM     24  O   UNL     1      14.362  -0.150  34.185  1.00  0.00    -0.550 OA
ENDBRANCH  21  22
ENDBRANCH  20  21
ENDBRANCH  19  20
ENDBRANCH  18  19
ENDBRANCH  17  18
ENDBRANCH  16  17
ENDBRANCH  15  16
ENDBRANCH  14  15
ENDBRANCH  13  14
ENDBRANCH   1  13
TORSDOF 20
ENDMDL
