MODEL 1
REMARK VINA RESULT:    -1.536      0.000      0.000
REMARK INTER + INTRA:          -0.654
REMARK INTER:                  -2.345
REMARK INTRA:                   1.690
REMARK UNBOUND:                 1.690
REMARK SMILES CC1=CCC[C@H](C)C(=O)C[C@@H](C(C)C)C(=O)C1
REMARK SMILES IDX 8 1 9 2 6 3 7 4 5 5 4 6 3 7 2 8 1 9 10 11 11 12 15 13 16 14
REMARK SMILES IDX 17 15 12 17 13 18 14 19
REMARK H PARENT
REMARK Flexibility Score: 70.00
ROOT
ATOM      1  C   UNL     1      10.052  23.188  23.937  1.00  0.00     0.136 C 
ATOM      2  O   UNL     1      10.903  23.969  24.337  1.00  0.00    -0.299 OA
ENDROOT
BRANCH   1   3
ATOM      3  C   UNL     1       8.797  22.956  24.753  1.00  0.00     0.053 C 
ATOM      4  C   UNL     1       9.173  22.303  26.087  1.00  0.00     0.016 C 
BRANCH   3   5
ATOM      5  C   UNL     1       8.024  24.273  25.001  1.00  0.00     0.015 C 
BRANCH   5   6
ATOM      6  C   UNL     1       8.580  25.462  24.202  1.00  0.00     0.028 C 
BRANCH   6   7
ATOM      7  C   UNL     1       7.594  25.932  23.159  1.00  0.00    -0.028 C 
ATOM      8  C   UNL     1       7.401  25.367  21.945  1.00  0.00    -0.070 CG0
ATOM      9  C   UNL     1       6.367  25.982  21.035  1.00  0.00     0.039 C 
ATOM     10  G   UNL     1       8.146  24.132  21.476  1.00  0.00     0.000 G0
ENDBRANCH   6   7
ENDBRANCH   5   6
ENDBRANCH   3   5
ENDBRANCH   1   3
BRANCH   1  11
ATOM     11  C   UNL     1      10.285  22.453  22.642  1.00  0.00     0.087 C 
BRANCH  11  12
ATOM     12  C   UNL     1      10.706  23.414  21.501  1.00  0.00     0.066 C 
BRANCH  12  13
ATOM     13  C   UNL     1       9.611  24.428  21.211  1.00  0.00     0.140 C 
ATOM     14  O   UNL     1       9.906  25.539  20.794  1.00  0.00    -0.299 OA
BRANCH  13  15
ATOM     15  C   UNL     1       8.163  24.114  21.481  1.00  0.00     0.106 CG0
ATOM     16  G   UNL     1       7.422  25.349  21.958  1.00  0.00     0.000 G0
ENDBRANCH  13  15
ENDBRANCH  12  13
BRANCH  12  17
ATOM     17  C   UNL     1      11.124  22.678  20.188  1.00  0.00    -0.006 C 
ATOM     18  C   UNL     1      10.930  23.519  18.914  1.00  0.00     0.008 C 
ATOM     19  C   UNL     1      10.406  21.326  20.040  1.00  0.00     0.008 C 
ENDBRANCH  12  17
ENDBRANCH  11  12
ENDBRANCH   1  11
TORSDOF 1
ENDMDL
MODEL 2
REMARK VINA RESULT:     0.005      2.113      4.823
REMARK INTER + INTRA:           1.698
REMARK INTER:                  -1.860
REMARK INTRA:                   3.558
REMARK UNBOUND:                 1.690
REMARK SMILES CC1=CCC[C@H](C)C(=O)C[C@@H](C(C)C)C(=O)C1
REMARK SMILES IDX 8 1 9 2 6 3 7 4 5 5 4 6 3 7 2 8 1 9 10 11 11 12 15 13 16 14
REMARK SMILES IDX 17 15 12 17 13 18 14 19
REMARK H PARENT
REMARK Flexibility Score: 70.00
ROOT
ATOM      1  C   UNL     1       8.256  24.694  23.867  1.00  0.00     0.136 C 
ATOM      2  O   UNL     1       7.765  24.385  24.943  1.00  0.00    -0.299 OA
ENDROOT
BRANCH   1   3
ATOM      3  C   UNL     1       7.380  24.784  22.634  1.00  0.00     0.053 C 
ATOM      4  C   UNL     1       6.611  26.109  22.655  1.00  0.00     0.016 C 
BRANCH   3   5
ATOM      5  C   UNL     1       8.208  24.666  21.333  1.00  0.00     0.015 C 
BRANCH   5   6
ATOM      6  C   UNL     1       8.124  23.276  20.684  1.00  0.00     0.028 C 
BRANCH   6   7
ATOM      7  C   UNL     1       9.394  22.489  20.905  1.00  0.00    -0.028 C 
ATOM      8  C   UNL     1       9.825  22.003  22.092  1.00  0.00    -0.070 CG0
ATOM      9  C   UNL     1      11.125  21.239  22.114  1.00  0.00     0.039 C 
ATOM     10  G   UNL     1       9.048  22.162  23.386  1.00  0.00     0.000 G0
ENDBRANCH   6   7
ENDBRANCH   5   6
ENDBRANCH   3   5
ENDBRANCH   1   3
BRANCH   1  11
ATOM     11  C   UNL     1       9.738  24.961  23.790  1.00  0.00     0.087 C 
BRANCH  11  12
ATOM     12  C   UNL     1      10.552  23.948  24.634  1.00  0.00     0.066 C 
BRANCH  12  13
ATOM     13  C   UNL     1       9.956  22.553  24.534  1.00  0.00     0.140 C 
ATOM     14  O   UNL     1      10.244  21.708  25.369  1.00  0.00    -0.299 OA
BRANCH  13  15
ATOM     15  C   UNL     1       9.056  22.167  23.389  1.00  0.00     0.106 CG0
ATOM     16  G   UNL     1       9.847  22.026  22.103  1.00  0.00     0.000 G0
ENDBRANCH  13  15
ENDBRANCH  12  13
BRANCH  12  17
ATOM     17  C   UNL     1      10.706  24.366  26.132  1.00  0.00    -0.006 C 
ATOM     18  C   UNL     1       9.803  23.575  27.094  1.00  0.00     0.008 C 
ATOM     19  C   UNL     1      10.489  25.876  26.326  1.00  0.00     0.008 C 
ENDBRANCH  12  17
ENDBRANCH  11  12
ENDBRANCH   1  11
TORSDOF 1
ENDMDL
MODEL 3
REMARK VINA RESULT:     1.236      1.900      4.160
REMARK INTER + INTRA:           3.576
REMARK INTER:                  -0.645
REMARK INTRA:                   4.221
REMARK UNBOUND:                 1.690
REMARK SMILES CC1=CCC[C@H](C)C(=O)C[C@@H](C(C)C)C(=O)C1
REMARK SMILES IDX 8 1 9 2 6 3 7 4 5 5 4 6 3 7 2 8 1 9 10 11 11 12 15 13 16 14
REMARK SMILES IDX 17 15 12 17 13 18 14 19
REMARK H PARENT
REMARK Flexibility Score: 70.00
ROOT
ATOM      1  C   UNL     1       7.064  24.017  21.747  1.00  0.00     0.136 C 
ATOM      2  O   UNL     1       7.504  22.926  21.418  1.00  0.00    -0.299 OA
ENDROOT
BRANCH   1   3
ATOM      3  C   UNL     1       6.159  24.783  20.805  1.00  0.00     0.053 C 
ATOM      4  C   UNL     1       4.811  25.032  21.489  1.00  0.00     0.016 C 
BRANCH   3   5
ATOM      5  C   UNL     1       6.791  26.124  20.365  1.00  0.00     0.015 C 
BRANCH   5   6
ATOM      6  C   UNL     1       7.323  26.100  18.923  1.00  0.00     0.028 C 
BRANCH   6   7
ATOM      7  C   UNL     1       8.808  25.829  18.890  1.00  0.00    -0.028 C 
ATOM      8  C   UNL     1       9.638  25.853  19.958  1.00  0.00    -0.070 CG0
ATOM      9  C   UNL     1      11.099  25.555  19.725  1.00  0.00     0.039 C 
ATOM     10  G   UNL     1       9.165  26.130  21.372  1.00  0.00     0.000 G0
ENDBRANCH   6   7
ENDBRANCH   5   6
ENDBRANCH   3   5
ENDBRANCH   1   3
BRANCH   1  11
ATOM     11  C   UNL     1       7.454  24.588  23.087  1.00  0.00     0.087 C 
BRANCH  11  12
ATOM     12  C   UNL     1       8.966  24.409  23.373  1.00  0.00     0.066 C 
BRANCH  12  13
ATOM     13  C   UNL     1       9.805  25.204  22.385  1.00  0.00     0.140 C 
ATOM     14  O   UNL     1      11.025  25.135  22.430  1.00  0.00    -0.299 OA
BRANCH  13  15
ATOM     15  C   UNL     1       9.166  26.125  21.379  1.00  0.00     0.106 CG0
ATOM     16  G   UNL     1       9.655  25.818  19.977  1.00  0.00     0.000 G0
ENDBRANCH  13  15
ENDBRANCH  12  13
BRANCH  12  17
ATOM     17  C   UNL     1       9.425  22.916  23.396  1.00  0.00    -0.006 C 
ATOM     18  C   UNL     1       8.940  22.135  24.629  1.00  0.00     0.008 C 
ATOM     19  C   UNL     1      10.952  22.789  23.259  1.00  0.00     0.008 C 
ENDBRANCH  12  17
ENDBRANCH  11  12
ENDBRANCH   1  11
TORSDOF 1
ENDMDL
