MODEL 1
REMARK VINA RESULT:    -3.799      0.000      0.000
REMARK INTER + INTRA:          -5.833
REMARK INTER:                  -5.354
REMARK INTRA:                  -0.480
REMARK UNBOUND:                -0.480
REMARK SMILES CCCCCCCCC(=O)[O-]
REMARK SMILES IDX 6 1 7 2 8 3 9 4 10 5 11 6 5 7 4 8 3 9 2 10 1 11
REMARK H PARENT
REMARK Flexibility Score: inf
ROOT
ATOM      1  C   UNL     1      38.030  -8.193  10.649  1.00  0.00     0.000 C 
ENDROOT
BRANCH   1   2
ATOM      2  C   UNL     1      36.857  -7.963  11.618  1.00  0.00     0.006 C 
BRANCH   2   3
ATOM      3  C   UNL     1      37.221  -6.986  12.744  1.00  0.00     0.053 C 
BRANCH   3   4
ATOM      4  C   UNL     1      36.063  -6.740  13.663  1.00  0.00     0.041 C 
ATOM      5  O   UNL     1      36.254  -6.239  14.803  1.00  0.00    -0.550 OA
ATOM      6  O   UNL     1      34.778  -7.091  13.272  1.00  0.00    -0.550 OA
ENDBRANCH   3   4
ENDBRANCH   2   3
ENDBRANCH   1   2
BRANCH   1   7
ATOM      7  C   UNL     1      39.374  -7.709  11.219  1.00  0.00     0.000 C 
BRANCH   7   8
ATOM      8  C   UNL     1      40.239  -6.995  10.167  1.00  0.00    -0.000 C 
BRANCH   8   9
ATOM      9  C   UNL     1      39.399  -6.233   9.129  1.00  0.00    -0.000 C 
BRANCH   9  10
ATOM     10  C   UNL     1      39.694  -6.677   7.688  1.00  0.00    -0.003 C 
ATOM     11  C   UNL     1      40.842  -7.682   7.648  1.00  0.00     0.004 C 
ENDBRANCH   9  10
ENDBRANCH   8   9
ENDBRANCH   7   8
ENDBRANCH   1   7
TORSDOF 7
ENDMDL
MODEL 2
REMARK VINA RESULT:    -3.797      3.787      5.916
REMARK INTER + INTRA:          -5.830
REMARK INTER:                  -5.422
REMARK INTRA:                  -0.409
REMARK UNBOUND:                -0.480
REMARK SMILES CCCCCCCCC(=O)[O-]
REMARK SMILES IDX 6 1 7 2 8 3 9 4 10 5 11 6 5 7 4 8 3 9 2 10 1 11
REMARK H PARENT
REMARK Flexibility Score: inf
ROOT
ATOM      1  C   UNL     1      37.981  -7.324  10.098  1.00  0.00     0.000 C 
ENDROOT
BRANCH   1   2
ATOM      2  C   UNL     1      38.890  -6.472   9.194  1.00  0.00     0.006 C 
BRANCH   2   3
ATOM      3  C   UNL     1      40.378  -6.740   9.455  1.00  0.00     0.053 C 
BRANCH   3   4
ATOM      4  C   UNL     1      41.027  -7.444   8.301  1.00  0.00     0.041 C 
ATOM      5  O   UNL     1      41.962  -8.262   8.503  1.00  0.00    -0.550 OA
ATOM      6  O   UNL     1      40.617  -7.173   7.002  1.00  0.00    -0.550 OA
ENDBRANCH   3   4
ENDBRANCH   2   3
ENDBRANCH   1   2
BRANCH   1   7
ATOM      7  C   UNL     1      38.635  -7.659  11.450  1.00  0.00     0.000 C 
BRANCH   7   8
ATOM      8  C   UNL     1      37.602  -7.882  12.567  1.00  0.00    -0.000 C 
BRANCH   8   9
ATOM      9  C   UNL     1      36.153  -7.783  12.062  1.00  0.00    -0.000 C 
BRANCH   9  10
ATOM     10  C   UNL     1      35.293  -6.836  12.912  1.00  0.00    -0.003 C 
ATOM     11  C   UNL     1      36.126  -6.167  14.001  1.00  0.00     0.004 C 
ENDBRANCH   9  10
ENDBRANCH   8   9
ENDBRANCH   7   8
ENDBRANCH   1   7
TORSDOF 7
ENDMDL
MODEL 3
REMARK VINA RESULT:    -3.767      1.290      2.257
REMARK INTER + INTRA:          -5.788
REMARK INTER:                  -5.381
REMARK INTRA:                  -0.408
REMARK UNBOUND:                -0.480
REMARK SMILES CCCCCCCCC(=O)[O-]
REMARK SMILES IDX 6 1 7 2 8 3 9 4 10 5 11 6 5 7 4 8 3 9 2 10 1 11
REMARK H PARENT
REMARK Flexibility Score: inf
ROOT
ATOM      1  C   UNL     1      37.599  -7.074  12.768  1.00  0.00     0.000 C 
ENDROOT
BRANCH   1   2
ATOM      2  C   UNL     1      36.517  -6.365  13.603  1.00  0.00     0.006 C 
BRANCH   2   3
ATOM      3  C   UNL     1      35.106  -6.861  13.260  1.00  0.00     0.053 C 
BRANCH   3   4
ATOM      4  C   UNL     1      34.605  -7.852  14.267  1.00  0.00     0.041 C 
ATOM      5  O   UNL     1      34.325  -7.481  15.437  1.00  0.00    -0.550 OA
ATOM      6  O   UNL     1      34.476  -9.191  13.919  1.00  0.00    -0.550 OA
ENDBRANCH   3   4
ENDBRANCH   2   3
ENDBRANCH   1   2
BRANCH   1   7
ATOM      7  C   UNL     1      37.030  -7.747  11.508  1.00  0.00     0.000 C 
BRANCH   7   8
ATOM      8  C   UNL     1      37.981  -7.651  10.304  1.00  0.00    -0.000 C 
BRANCH   8   9
ATOM      9  C   UNL     1      39.450  -7.479  10.724  1.00  0.00    -0.000 C 
BRANCH   9  10
ATOM     10  C   UNL     1      40.264  -6.663   9.709  1.00  0.00    -0.003 C 
ATOM     11  C   UNL     1      39.408  -6.269   8.508  1.00  0.00     0.004 C 
ENDBRANCH   9  10
ENDBRANCH   8   9
ENDBRANCH   7   8
ENDBRANCH   1   7
TORSDOF 7
ENDMDL
MODEL 4
REMARK VINA RESULT:    -3.736      1.102      1.628
REMARK INTER + INTRA:          -5.744
REMARK INTER:                  -5.059
REMARK INTRA:                  -0.685
REMARK UNBOUND:                -0.480
REMARK SMILES CCCCCCCCC(=O)[O-]
REMARK SMILES IDX 6 1 7 2 8 3 9 4 10 5 11 6 5 7 4 8 3 9 2 10 1 11
REMARK H PARENT
REMARK Flexibility Score: inf
ROOT
ATOM      1  C   UNL     1      37.092  -9.235  10.845  1.00  0.00     0.000 C 
ENDROOT
BRANCH   1   2
ATOM      2  C   UNL     1      36.961  -7.719  11.073  1.00  0.00     0.006 C 
BRANCH   2   3
ATOM      3  C   UNL     1      37.466  -7.298  12.459  1.00  0.00     0.053 C 
BRANCH   3   4
ATOM      4  C   UNL     1      36.379  -6.674  13.281  1.00  0.00     0.041 C 
ATOM      5  O   UNL     1      36.654  -6.112  14.374  1.00  0.00    -0.550 OA
ATOM      6  O   UNL     1      35.060  -6.738  12.853  1.00  0.00    -0.550 OA
ENDBRANCH   3   4
ENDBRANCH   2   3
ENDBRANCH   1   2
BRANCH   1   7
ATOM      7  C   UNL     1      38.523  -9.659  10.477  1.00  0.00     0.000 C 
BRANCH   7   8
ATOM      8  C   UNL     1      39.065  -8.911   9.247  1.00  0.00    -0.000 C 
BRANCH   8   9
ATOM      9  C   UNL     1      40.395  -8.194   9.529  1.00  0.00    -0.000 C 
BRANCH   9  10
ATOM     10  C   UNL     1      40.248  -6.666   9.569  1.00  0.00    -0.003 C 
ATOM     11  C   UNL     1      39.201  -6.190   8.565  1.00  0.00     0.004 C 
ENDBRANCH   9  10
ENDBRANCH   8   9
ENDBRANCH   7   8
ENDBRANCH   1   7
TORSDOF 7
ENDMDL
MODEL 5
REMARK VINA RESULT:    -3.717      3.272      5.816
REMARK INTER + INTRA:          -5.718
REMARK INTER:                  -5.265
REMARK INTRA:                  -0.453
REMARK UNBOUND:                -0.480
REMARK SMILES CCCCCCCCC(=O)[O-]
REMARK SMILES IDX 6 1 7 2 8 3 9 4 10 5 11 6 5 7 4 8 3 9 2 10 1 11
REMARK H PARENT
REMARK Flexibility Score: inf
ROOT
ATOM      1  C   UNL     1      37.149  -7.998  11.297  1.00  0.00     0.000 C 
ENDROOT
BRANCH   1   2
ATOM      2  C   UNL     1      38.119  -8.095  10.106  1.00  0.00     0.006 C 
BRANCH   2   3
ATOM      3  C   UNL     1      38.203  -6.780   9.321  1.00  0.00     0.053 C 
BRANCH   3   4
ATOM      4  C   UNL     1      39.600  -6.497   8.856  1.00  0.00     0.041 C 
ATOM      5  O   UNL     1      39.866  -6.470   7.626  1.00  0.00    -0.550 OA
ATOM      6  O   UNL     1      40.613  -6.294   9.784  1.00  0.00    -0.550 OA
ENDBRANCH   3   4
ENDBRANCH   2   3
ENDBRANCH   1   2
BRANCH   1   7
ATOM      7  C   UNL     1      37.760  -7.261  12.501  1.00  0.00     0.000 C 
BRANCH   7   8
ATOM      8  C   UNL     1      36.696  -6.604  13.395  1.00  0.00    -0.000 C 
BRANCH   8   9
ATOM      9  C   UNL     1      35.263  -6.949  12.959  1.00  0.00    -0.000 C 
BRANCH   9  10
ATOM     10  C   UNL     1      34.486  -7.722  14.035  1.00  0.00    -0.003 C 
ATOM     11  C   UNL     1      34.966  -9.168  14.126  1.00  0.00     0.004 C 
ENDBRANCH   9  10
ENDBRANCH   8   9
ENDBRANCH   7   8
ENDBRANCH   1   7
TORSDOF 7
ENDMDL
MODEL 6
REMARK VINA RESULT:    -3.692      3.082      5.501
REMARK INTER + INTRA:          -5.682
REMARK INTER:                  -5.023
REMARK INTRA:                  -0.660
REMARK UNBOUND:                -0.480
REMARK SMILES CCCCCCCCC(=O)[O-]
REMARK SMILES IDX 6 1 7 2 8 3 9 4 10 5 11 6 5 7 4 8 3 9 2 10 1 11
REMARK H PARENT
REMARK Flexibility Score: inf
ROOT
ATOM      1  C   UNL     1      38.294  -9.190  12.008  1.00  0.00     0.000 C 
ENDROOT
BRANCH   1   2
ATOM      2  C   UNL     1      38.720  -7.749  11.672  1.00  0.00     0.006 C 
BRANCH   2   3
ATOM      3  C   UNL     1      38.149  -7.276  10.329  1.00  0.00     0.053 C 
BRANCH   3   4
ATOM      4  C   UNL     1      39.202  -6.644   9.469  1.00  0.00     0.041 C 
ATOM      5  O   UNL     1      38.900  -6.173   8.341  1.00  0.00    -0.550 OA
ATOM      6  O   UNL     1      40.521  -6.603   9.902  1.00  0.00    -0.550 OA
ENDBRANCH   3   4
ENDBRANCH   2   3
ENDBRANCH   1   2
BRANCH   1   7
ATOM      7  C   UNL     1      36.768  -9.345  12.124  1.00  0.00     0.000 C 
BRANCH   7   8
ATOM      8  C   UNL     1      36.261  -9.141  13.561  1.00  0.00    -0.000 C 
BRANCH   8   9
ATOM      9  C   UNL     1      35.051  -8.194  13.632  1.00  0.00    -0.000 C 
BRANCH   9  10
ATOM     10  C   UNL     1      35.420  -6.738  13.311  1.00  0.00    -0.003 C 
ATOM     11  C   UNL     1      36.544  -6.244  14.217  1.00  0.00     0.004 C 
ENDBRANCH   9  10
ENDBRANCH   8   9
ENDBRANCH   7   8
ENDBRANCH   1   7
TORSDOF 7
ENDMDL
MODEL 7
REMARK VINA RESULT:    -3.628      1.351      2.143
REMARK INTER + INTRA:          -5.593
REMARK INTER:                  -5.001
REMARK INTRA:                  -0.592
REMARK UNBOUND:                -0.480
REMARK SMILES CCCCCCCCC(=O)[O-]
REMARK SMILES IDX 6 1 7 2 8 3 9 4 10 5 11 6 5 7 4 8 3 9 2 10 1 11
REMARK H PARENT
REMARK Flexibility Score: inf
ROOT
ATOM      1  C   UNL     1      37.105  -9.402  12.141  1.00  0.00     0.000 C 
ENDROOT
BRANCH   1   2
ATOM      2  C   UNL     1      36.746  -9.524  13.632  1.00  0.00     0.006 C 
BRANCH   2   3
ATOM      3  C   UNL     1      35.594  -8.591  14.028  1.00  0.00     0.053 C 
BRANCH   3   4
ATOM      4  C   UNL     1      35.835  -7.185  13.567  1.00  0.00     0.041 C 
ATOM      5  O   UNL     1      35.050  -6.644  12.745  1.00  0.00    -0.550 OA
ATOM      6  O   UNL     1      36.942  -6.483  14.025  1.00  0.00    -0.550 OA
ENDBRANCH   3   4
ENDBRANCH   2   3
ENDBRANCH   1   2
BRANCH   1   7
ATOM      7  C   UNL     1      38.619  -9.279  11.903  1.00  0.00     0.000 C 
BRANCH   7   8
ATOM      8  C   UNL     1      39.043  -7.852  11.514  1.00  0.00    -0.000 C 
BRANCH   8   9
ATOM      9  C   UNL     1      38.067  -7.195  10.525  1.00  0.00    -0.000 C 
BRANCH   9  10
ATOM     10  C   UNL     1      38.783  -6.532   9.339  1.00  0.00    -0.003 C 
ATOM     11  C   UNL     1      40.296  -6.546   9.535  1.00  0.00     0.004 C 
ENDBRANCH   9  10
ENDBRANCH   8   9
ENDBRANCH   7   8
ENDBRANCH   1   7
TORSDOF 7
ENDMDL
MODEL 8
REMARK VINA RESULT:    -3.447      3.046      6.018
REMARK INTER + INTRA:          -5.338
REMARK INTER:                  -4.877
REMARK INTRA:                  -0.460
REMARK UNBOUND:                -0.480
REMARK SMILES CCCCCCCCC(=O)[O-]
REMARK SMILES IDX 6 1 7 2 8 3 9 4 10 5 11 6 5 7 4 8 3 9 2 10 1 11
REMARK H PARENT
REMARK Flexibility Score: inf
ROOT
ATOM      1  C   UNL     1      37.233  -6.590  13.320  1.00  0.00     0.000 C 
ENDROOT
BRANCH   1   2
ATOM      2  C   UNL     1      37.265  -7.655  12.209  1.00  0.00     0.006 C 
BRANCH   2   3
ATOM      3  C   UNL     1      38.698  -7.992  11.774  1.00  0.00     0.053 C 
BRANCH   3   4
ATOM      4  C   UNL     1      39.093  -7.247  10.535  1.00  0.00     0.041 C 
ATOM      5  O   UNL     1      38.225  -6.939   9.677  1.00  0.00    -0.550 OA
ATOM      6  O   UNL     1      40.424  -6.921  10.315  1.00  0.00    -0.550 OA
ENDBRANCH   3   4
ENDBRANCH   2   3
ENDBRANCH   1   2
BRANCH   1   7
ATOM      7  C   UNL     1      35.993  -6.712  14.222  1.00  0.00     0.000 C 
BRANCH   7   8
ATOM      8  C   UNL     1      34.850  -7.495  13.555  1.00  0.00    -0.000 C 
BRANCH   8   9
ATOM      9  C   UNL     1      33.868  -8.092  14.576  1.00  0.00    -0.000 C 
BRANCH   9  10
ATOM     10  C   UNL     1      33.846  -9.627  14.550  1.00  0.00    -0.003 C 
ATOM     11  C   UNL     1      34.887 -10.174  13.577  1.00  0.00     0.004 C 
ENDBRANCH   9  10
ENDBRANCH   8   9
ENDBRANCH   7   8
ENDBRANCH   1   7
TORSDOF 7
ENDMDL
MODEL 9
REMARK VINA RESULT:    -3.371      3.122      5.272
REMARK INTER + INTRA:          -5.231
REMARK INTER:                  -4.646
REMARK INTRA:                  -0.585
REMARK UNBOUND:                -0.480
REMARK SMILES CCCCCCCCC(=O)[O-]
REMARK SMILES IDX 6 1 7 2 8 3 9 4 10 5 11 6 5 7 4 8 3 9 2 10 1 11
REMARK H PARENT
REMARK Flexibility Score: inf
ROOT
ATOM      1  C   UNL     1      38.917  -9.723   9.113  1.00  0.00     0.000 C 
ENDROOT
BRANCH   1   2
ATOM      2  C   UNL     1      40.433  -9.473   9.030  1.00  0.00     0.006 C 
BRANCH   2   3
ATOM      3  C   UNL     1      40.767  -8.211   8.226  1.00  0.00     0.053 C 
BRANCH   3   4
ATOM      4  C   UNL     1      40.155  -6.985   8.834  1.00  0.00     0.041 C 
ATOM      5  O   UNL     1      39.351  -6.281   8.169  1.00  0.00    -0.550 OA
ATOM      6  O   UNL     1      40.496  -6.606  10.126  1.00  0.00    -0.550 OA
ENDBRANCH   3   4
ENDBRANCH   2   3
ENDBRANCH   1   2
BRANCH   1   7
ATOM      7  C   UNL     1      38.422  -9.889  10.560  1.00  0.00     0.000 C 
BRANCH   7   8
ATOM      8  C   UNL     1      37.042  -9.250  10.790  1.00  0.00    -0.000 C 
BRANCH   8   9
ATOM      9  C   UNL     1      37.115  -7.721  10.929  1.00  0.00    -0.000 C 
BRANCH   9  10
ATOM     10  C   UNL     1      37.750  -7.276  12.255  1.00  0.00    -0.003 C 
ATOM     11  C   UNL     1      36.686  -7.056  13.327  1.00  0.00     0.004 C 
ENDBRANCH   9  10
ENDBRANCH   8   9
ENDBRANCH   7   8
ENDBRANCH   1   7
TORSDOF 7
ENDMDL
