MODEL 1
REMARK VINA RESULT:    -0.876      0.000      0.000
REMARK INTER + INTRA:          -0.708
REMARK INTER:                  -1.235
REMARK INTRA:                   0.527
REMARK UNBOUND:                 0.527
REMARK SMILES CC1=CCC(=C(C)C)C(=O)CC(C)=CCC1
REMARK SMILES IDX 12 1 14 2 13 3 15 4 16 5 2 6 1 7 3 8 11 10 9 11 10 12 5 13
REMARK SMILES IDX 6 14 7 15 8 16 4 17
REMARK H PARENT
REMARK Flexibility Score: 60.00
ROOT
ATOM      1  C   UNL     1      92.394  27.777  11.625  1.00  0.00    -0.070 C 
ATOM      2  C   UNL     1      91.970  26.554  12.022  1.00  0.00    -0.027 C 
ATOM      3  C   UNL     1      92.734  27.956  10.165  1.00  0.00     0.039 C 
ENDROOT
BRANCH   2   4
ATOM      4  C   UNL     1      91.680  26.126  13.440  1.00  0.00     0.032 C 
BRANCH   4   5
ATOM      5  C   UNL     1      90.170  26.059  13.741  1.00  0.00     0.034 C 
BRANCH   5   6
ATOM      6  C   UNL     1      89.790  26.892  14.951  1.00  0.00    -0.077 C 
ATOM      7  C   UNL     1      89.844  26.243  16.310  1.00  0.00     0.039 C 
ATOM      8  C   UNL     1      89.430  28.193  14.882  1.00  0.00    -0.023 CG0
ATOM      9  G   UNL     1      89.352  29.023  13.623  1.00  0.00     0.000 G0
ENDBRANCH   5   6
ENDBRANCH   4   5
ENDBRANCH   2   4
BRANCH   1  10
ATOM     10  C   UNL     1      92.605  28.947  12.572  1.00  0.00     0.111 C 
BRANCH  10  11
ATOM     11  C   UNL     1      91.466  29.934  12.498  1.00  0.00     0.163 C 
ATOM     12  O   UNL     1      91.346  30.625  11.451  1.00  0.00    -0.294 OA
BRANCH  11  13
ATOM     13  C   UNL     1      90.463  30.070  13.601  1.00  0.00    -0.002 C 
ATOM     14  C   UNL     1      90.589  31.021  14.574  1.00  0.00    -0.069 C 
ATOM     15  C   UNL     1      89.550  31.177  15.663  1.00  0.00     0.039 C 
ATOM     16  C   UNL     1      91.786  31.944  14.631  1.00  0.00     0.039 C 
BRANCH  13  17
ATOM     17  C   UNL     1      89.337  29.052  13.638  1.00  0.00     0.066 CG0
ATOM     18  G   UNL     1      89.447  28.210  14.885  1.00  0.00     0.000 G0
ENDBRANCH  13  17
ENDBRANCH  11  13
ENDBRANCH  10  11
ENDBRANCH   1  10
TORSDOF 0
ENDMDL
MODEL 2
REMARK VINA RESULT:    -0.865      2.713      5.761
REMARK INTER + INTRA:          -0.692
REMARK INTER:                  -1.221
REMARK INTRA:                   0.529
REMARK UNBOUND:                 0.527
REMARK SMILES CC1=CCC(=C(C)C)C(=O)CC(C)=CCC1
REMARK SMILES IDX 12 1 14 2 13 3 15 4 16 5 2 6 1 7 3 8 11 10 9 11 10 12 5 13
REMARK SMILES IDX 6 14 7 15 8 16 4 17
REMARK H PARENT
REMARK Flexibility Score: 60.00
ROOT
ATOM      1  C   UNL     1      92.462  31.288  13.722  1.00  0.00    -0.070 C 
ATOM      2  C   UNL     1      92.934  32.244  12.888  1.00  0.00    -0.027 C 
ATOM      3  C   UNL     1      91.618  31.737  14.890  1.00  0.00     0.039 C 
ENDROOT
BRANCH   2   4
ATOM      4  C   UNL     1      93.877  32.034  11.728  1.00  0.00     0.032 C 
BRANCH   4   5
ATOM      5  C   UNL     1      93.281  32.508  10.388  1.00  0.00     0.034 C 
BRANCH   5   6
ATOM      6  C   UNL     1      91.918  31.897  10.121  1.00  0.00    -0.077 C 
ATOM      7  C   UNL     1      90.757  32.825   9.869  1.00  0.00     0.039 C 
ATOM      8  C   UNL     1      91.689  30.566  10.070  1.00  0.00    -0.023 CG0
ATOM      9  G   UNL     1      92.725  29.484  10.259  1.00  0.00     0.000 G0
ENDBRANCH   5   6
ENDBRANCH   4   5
ENDBRANCH   2   4
BRANCH   1  10
ATOM     10  C   UNL     1      92.787  29.810  13.581  1.00  0.00     0.111 C 
BRANCH  10  11
ATOM     11  C   UNL     1      91.822  29.114  12.653  1.00  0.00     0.163 C 
ATOM     12  O   UNL     1      90.602  29.094  12.972  1.00  0.00    -0.294 OA
BRANCH  11  13
ATOM     13  C   UNL     1      92.266  28.505  11.361  1.00  0.00    -0.002 C 
ATOM     14  C   UNL     1      92.332  27.151  11.189  1.00  0.00    -0.069 C 
ATOM     15  C   UNL     1      92.745  26.543   9.866  1.00  0.00     0.039 C 
ATOM     16  C   UNL     1      92.029  26.192  12.319  1.00  0.00     0.039 C 
BRANCH  13  17
ATOM     17  C   UNL     1      92.715  29.458  10.268  1.00  0.00     0.066 CG0
ATOM     18  G   UNL     1      91.690  30.552  10.088  1.00  0.00     0.000 G0
ENDBRANCH  13  17
ENDBRANCH  11  13
ENDBRANCH  10  11
ENDBRANCH   1  10
TORSDOF 0
ENDMDL
MODEL 3
REMARK VINA RESULT:    -0.768      1.883      4.258
REMARK INTER + INTRA:          -0.555
REMARK INTER:                  -0.913
REMARK INTRA:                   0.358
REMARK UNBOUND:                 0.527
REMARK SMILES CC1=CCC(=C(C)C)C(=O)CC(C)=CCC1
REMARK SMILES IDX 12 1 14 2 13 3 15 4 16 5 2 6 1 7 3 8 11 10 9 11 10 12 5 13
REMARK SMILES IDX 6 14 7 15 8 16 4 17
REMARK H PARENT
REMARK Flexibility Score: 60.00
ROOT
ATOM      1  C   UNL     1      91.300  31.724  14.321  1.00  0.00    -0.070 C 
ATOM      2  C   UNL     1      90.801  30.933  15.300  1.00  0.00    -0.027 C 
ATOM      3  C   UNL     1      91.955  33.018  14.739  1.00  0.00     0.039 C 
ENDROOT
BRANCH   2   4
ATOM      4  C   UNL     1      90.017  29.657  15.106  1.00  0.00     0.032 C 
BRANCH   4   5
ATOM      5  C   UNL     1      90.904  28.480  14.656  1.00  0.00     0.034 C 
BRANCH   5   6
ATOM      6  C   UNL     1      90.394  27.834  13.382  1.00  0.00    -0.077 C 
ATOM      7  C   UNL     1      88.993  27.278  13.375  1.00  0.00     0.039 C 
ATOM      8  C   UNL     1      91.117  27.749  12.243  1.00  0.00    -0.023 CG0
ATOM      9  G   UNL     1      92.517  28.275  12.044  1.00  0.00     0.000 G0
ENDBRANCH   5   6
ENDBRANCH   4   5
ENDBRANCH   2   4
BRANCH   1  10
ATOM     10  C   UNL     1      91.178  31.412  12.839  1.00  0.00     0.111 C 
BRANCH  10  11
ATOM     11  C   UNL     1      92.464  30.852  12.281  1.00  0.00     0.163 C 
ATOM     12  O   UNL     1      93.548  31.390  12.633  1.00  0.00    -0.294 OA
BRANCH  11  13
ATOM     13  C   UNL     1      92.481  29.658  11.379  1.00  0.00    -0.002 C 
ATOM     14  C   UNL     1      92.386  29.782  10.021  1.00  0.00    -0.069 C 
ATOM     15  C   UNL     1      92.443  28.573   9.113  1.00  0.00     0.039 C 
ATOM     16  C   UNL     1      92.184  31.128   9.360  1.00  0.00     0.039 C 
BRANCH  13  17
ATOM     17  C   UNL     1      92.532  28.293  12.041  1.00  0.00     0.066 CG0
ATOM     18  G   UNL     1      91.131  27.777  12.262  1.00  0.00     0.000 G0
ENDBRANCH  13  17
ENDBRANCH  11  13
ENDBRANCH  10  11
ENDBRANCH   1  10
TORSDOF 0
ENDMDL
MODEL 4
REMARK VINA RESULT:    -0.699      2.890      5.041
REMARK INTER + INTRA:          -0.459
REMARK INTER:                  -0.909
REMARK INTRA:                   0.451
REMARK UNBOUND:                 0.527
REMARK SMILES CC1=CCC(=C(C)C)C(=O)CC(C)=CCC1
REMARK SMILES IDX 12 1 14 2 13 3 15 4 16 5 2 6 1 7 3 8 11 10 9 11 10 12 5 13
REMARK SMILES IDX 6 14 7 15 8 16 4 17
REMARK H PARENT
REMARK Flexibility Score: 60.00
ROOT
ATOM      1  C   UNL     1      92.164  30.590   9.964  1.00  0.00    -0.070 C 
ATOM      2  C   UNL     1      93.067  31.510   9.551  1.00  0.00    -0.027 C 
ATOM      3  C   UNL     1      91.784  29.501   8.991  1.00  0.00     0.039 C 
ENDROOT
BRANCH   2   4
ATOM      4  C   UNL     1      93.508  32.736  10.314  1.00  0.00     0.032 C 
BRANCH   4   5
ATOM      5  C   UNL     1      94.314  32.386  11.580  1.00  0.00     0.034 C 
BRANCH   5   6
ATOM      6  C   UNL     1      93.708  32.992  12.831  1.00  0.00    -0.077 C 
ATOM      7  C   UNL     1      93.414  34.471  12.836  1.00  0.00     0.039 C 
ATOM      8  C   UNL     1      93.391  32.278  13.933  1.00  0.00    -0.023 CG0
ATOM      9  G   UNL     1      93.576  30.790  14.105  1.00  0.00     0.000 G0
ENDBRANCH   5   6
ENDBRANCH   4   5
ENDBRANCH   2   4
BRANCH   1  10
ATOM     10  C   UNL     1      91.474  30.633  11.318  1.00  0.00     0.111 C 
BRANCH  10  11
ATOM     11  C   UNL     1      92.124  29.693  12.303  1.00  0.00     0.163 C 
ATOM     12  O   UNL     1      92.578  28.599  11.870  1.00  0.00    -0.294 OA
BRANCH  11  13
ATOM     13  C   UNL     1      92.287  30.048  13.748  1.00  0.00    -0.002 C 
ATOM     14  C   UNL     1      91.308  29.791  14.666  1.00  0.00    -0.069 C 
ATOM     15  C   UNL     1      91.496  30.119  16.132  1.00  0.00     0.039 C 
ATOM     16  C   UNL     1      89.977  29.198  14.261  1.00  0.00     0.039 C 
BRANCH  13  17
ATOM     17  C   UNL     1      93.559  30.779  14.139  1.00  0.00     0.066 CG0
ATOM     18  G   UNL     1      93.385  32.263  13.924  1.00  0.00     0.000 G0
ENDBRANCH  13  17
ENDBRANCH  11  13
ENDBRANCH  10  11
ENDBRANCH   1  10
TORSDOF 0
ENDMDL
MODEL 5
REMARK VINA RESULT:    -0.584      3.817      5.007
REMARK INTER + INTRA:          -0.296
REMARK INTER:                  -0.683
REMARK INTRA:                   0.387
REMARK UNBOUND:                 0.527
REMARK SMILES CC1=CCC(=C(C)C)C(=O)CC(C)=CCC1
REMARK SMILES IDX 12 1 14 2 13 3 15 4 16 5 2 6 1 7 3 8 11 10 9 11 10 12 5 13
REMARK SMILES IDX 6 14 7 15 8 16 4 17
REMARK H PARENT
REMARK Flexibility Score: 60.00
ROOT
ATOM      1  C   UNL     1      91.447  26.997  10.814  1.00  0.00    -0.070 C 
ATOM      2  C   UNL     1      90.151  26.611  10.867  1.00  0.00    -0.027 C 
ATOM      3  C   UNL     1      92.495  25.913  10.751  1.00  0.00     0.039 C 
ENDROOT
BRANCH   2   4
ATOM      4  C   UNL     1      88.954  27.514  11.040  1.00  0.00     0.032 C 
BRANCH   4   5
ATOM      5  C   UNL     1      88.573  28.248   9.740  1.00  0.00     0.034 C 
BRANCH   5   6
ATOM      6  C   UNL     1      88.575  29.755   9.911  1.00  0.00    -0.077 C 
ATOM      7  C   UNL     1      87.597  30.364  10.883  1.00  0.00     0.039 C 
ATOM      8  C   UNL     1      89.421  30.583   9.260  1.00  0.00    -0.023 CG0
ATOM      9  G   UNL     1      90.488  30.162   8.279  1.00  0.00     0.000 G0
ENDBRANCH   5   6
ENDBRANCH   4   5
ENDBRANCH   2   4
BRANCH   1  10
ATOM     10  C   UNL     1      91.899  28.447  10.881  1.00  0.00     0.111 C 
BRANCH  10  11
ATOM     11  C   UNL     1      92.381  28.941   9.538  1.00  0.00     0.163 C 
ATOM     12  O   UNL     1      93.202  28.225   8.902  1.00  0.00    -0.294 OA
BRANCH  11  13
ATOM     13  C   UNL     1      91.873  30.212   8.934  1.00  0.00    -0.002 C 
ATOM     14  C   UNL     1      92.575  31.381   9.023  1.00  0.00    -0.069 C 
ATOM     15  C   UNL     1      92.074  32.654   8.376  1.00  0.00     0.039 C 
ATOM     16  C   UNL     1      93.871  31.471   9.800  1.00  0.00     0.039 C 
BRANCH  13  17
ATOM     17  C   UNL     1      90.503  30.166   8.281  1.00  0.00     0.066 CG0
ATOM     18  G   UNL     1      89.446  30.573   9.278  1.00  0.00     0.000 G0
ENDBRANCH  13  17
ENDBRANCH  11  13
ENDBRANCH  10  11
ENDBRANCH   1  10
TORSDOF 0
ENDMDL
MODEL 6
REMARK VINA RESULT:    -0.553      4.378      6.750
REMARK INTER + INTRA:          -0.252
REMARK INTER:                  -0.601
REMARK INTRA:                   0.348
REMARK UNBOUND:                 0.527
REMARK SMILES CC1=CCC(=C(C)C)C(=O)CC(C)=CCC1
REMARK SMILES IDX 12 1 14 2 13 3 15 4 16 5 2 6 1 7 3 8 11 10 9 11 10 12 5 13
REMARK SMILES IDX 6 14 7 15 8 16 4 17
REMARK H PARENT
REMARK Flexibility Score: 60.00
ROOT
ATOM      1  C   UNL     1      91.794  32.305   6.929  1.00  0.00    -0.070 C 
ATOM      2  C   UNL     1      92.129  33.587   7.208  1.00  0.00    -0.027 C 
ATOM      3  C   UNL     1      91.812  31.880   5.481  1.00  0.00     0.039 C 
ENDROOT
BRANCH   2   4
ATOM      4  C   UNL     1      92.075  34.251   8.562  1.00  0.00     0.032 C 
BRANCH   4   5
ATOM      5  C   UNL     1      93.307  33.925   9.429  1.00  0.00     0.034 C 
BRANCH   5   6
ATOM      6  C   UNL     1      92.920  33.431  10.810  1.00  0.00    -0.077 C 
ATOM      7  C   UNL     1      92.211  34.385  11.738  1.00  0.00     0.039 C 
ATOM      8  C   UNL     1      93.152  32.174  11.249  1.00  0.00    -0.023 CG0
ATOM      9  G   UNL     1      93.813  31.071  10.460  1.00  0.00     0.000 G0
ENDBRANCH   5   6
ENDBRANCH   4   5
ENDBRANCH   2   4
BRANCH   1  10
ATOM     10  C   UNL     1      91.343  31.303   7.978  1.00  0.00     0.111 C 
BRANCH  10  11
ATOM     11  C   UNL     1      92.469  30.389   8.394  1.00  0.00     0.163 C 
ATOM     12  O   UNL     1      93.164  29.853   7.488  1.00  0.00    -0.294 OA
BRANCH  11  13
ATOM     13  C   UNL     1      92.805  30.150   9.833  1.00  0.00    -0.002 C 
ATOM     14  C   UNL     1      92.172  29.189  10.569  1.00  0.00    -0.069 C 
ATOM     15  C   UNL     1      92.545  28.928  12.012  1.00  0.00     0.039 C 
ATOM     16  C   UNL     1      91.046  28.360   9.991  1.00  0.00     0.039 C 
BRANCH  13  17
ATOM     17  C   UNL     1      93.829  31.076  10.464  1.00  0.00     0.066 CG0
ATOM     18  G   UNL     1      93.128  32.161  11.245  1.00  0.00     0.000 G0
ENDBRANCH  13  17
ENDBRANCH  11  13
ENDBRANCH  10  11
ENDBRANCH   1  10
TORSDOF 0
ENDMDL
MODEL 7
REMARK VINA RESULT:    -0.547      3.464      5.508
REMARK INTER + INTRA:          -0.244
REMARK INTER:                  -0.592
REMARK INTRA:                   0.348
REMARK UNBOUND:                 0.527
REMARK SMILES CC1=CCC(=C(C)C)C(=O)CC(C)=CCC1
REMARK SMILES IDX 12 1 14 2 13 3 15 4 16 5 2 6 1 7 3 8 11 10 9 11 10 12 5 13
REMARK SMILES IDX 6 14 7 15 8 16 4 17
REMARK H PARENT
REMARK Flexibility Score: 60.00
ROOT
ATOM      1  C   UNL     1      94.116  33.006  11.448  1.00  0.00    -0.070 C 
ATOM      2  C   UNL     1      94.325  32.404  12.643  1.00  0.00    -0.027 C 
ATOM      3  C   UNL     1      95.098  34.069  11.023  1.00  0.00     0.039 C 
ENDROOT
BRANCH   2   4
ATOM      4  C   UNL     1      93.417  31.399  13.309  1.00  0.00     0.032 C 
BRANCH   4   5
ATOM      5  C   UNL     1      93.533  29.994  12.686  1.00  0.00     0.034 C 
BRANCH   5   6
ATOM      6  C   UNL     1      92.184  29.442  12.264  1.00  0.00    -0.077 C 
ATOM      7  C   UNL     1      91.132  29.240  13.325  1.00  0.00     0.039 C 
ATOM      8  C   UNL     1      91.862  29.144  10.986  1.00  0.00    -0.023 CG0
ATOM      9  G   UNL     1      92.763  29.310   9.787  1.00  0.00     0.000 G0
ENDBRANCH   5   6
ENDBRANCH   4   5
ENDBRANCH   2   4
BRANCH   1  10
ATOM     10  C   UNL     1      92.921  32.715  10.554  1.00  0.00     0.111 C 
BRANCH  10  11
ATOM     11  C   UNL     1      93.292  31.802   9.410  1.00  0.00     0.163 C 
ATOM     12  O   UNL     1      94.354  32.047   8.776  1.00  0.00    -0.294 OA
BRANCH  11  13
ATOM     13  C   UNL     1      92.469  30.604   9.055  1.00  0.00    -0.002 C 
ATOM     14  C   UNL     1      91.434  30.682   8.165  1.00  0.00    -0.069 C 
ATOM     15  C   UNL     1      90.631  29.458   7.781  1.00  0.00     0.039 C 
ATOM     16  C   UNL     1      91.018  31.997   7.545  1.00  0.00     0.039 C 
BRANCH  13  17
ATOM     17  C   UNL     1      92.783  29.310   9.783  1.00  0.00     0.066 CG0
ATOM     18  G   UNL     1      91.866  29.155  10.972  1.00  0.00     0.000 G0
ENDBRANCH  13  17
ENDBRANCH  11  13
ENDBRANCH  10  11
ENDBRANCH   1  10
TORSDOF 0
ENDMDL
MODEL 8
REMARK VINA RESULT:    -0.513      2.376      4.167
REMARK INTER + INTRA:          -0.197
REMARK INTER:                  -0.583
REMARK INTRA:                   0.386
REMARK UNBOUND:                 0.527
REMARK SMILES CC1=CCC(=C(C)C)C(=O)CC(C)=CCC1
REMARK SMILES IDX 12 1 14 2 13 3 15 4 16 5 2 6 1 7 3 8 11 10 9 11 10 12 5 13
REMARK SMILES IDX 6 14 7 15 8 16 4 17
REMARK H PARENT
REMARK Flexibility Score: 60.00
ROOT
ATOM      1  C   UNL     1      88.354  31.007  11.956  1.00  0.00    -0.070 C 
ATOM      2  C   UNL     1      89.321  30.766  11.040  1.00  0.00    -0.027 C 
ATOM      3  C   UNL     1      86.926  31.034  11.469  1.00  0.00     0.039 C 
ENDROOT
BRANCH   2   4
ATOM      4  C   UNL     1      90.811  30.799  11.282  1.00  0.00     0.032 C 
BRANCH   4   5
ATOM      5  C   UNL     1      91.321  29.535  11.999  1.00  0.00     0.034 C 
BRANCH   5   6
ATOM      6  C   UNL     1      92.229  29.867  13.169  1.00  0.00    -0.077 C 
ATOM      7  C   UNL     1      93.495  30.638  12.893  1.00  0.00     0.039 C 
ATOM      8  C   UNL     1      91.955  29.533  14.449  1.00  0.00    -0.023 CG0
ATOM      9  G   UNL     1      90.728  28.796  14.927  1.00  0.00     0.000 G0
ENDBRANCH   5   6
ENDBRANCH   4   5
ENDBRANCH   2   4
BRANCH   1  10
ATOM     10  C   UNL     1      88.633  31.314  13.418  1.00  0.00     0.111 C 
BRANCH  10  11
ATOM     11  C   UNL     1      88.596  30.065  14.264  1.00  0.00     0.163 C 
ATOM     12  O   UNL     1      87.685  29.222  14.039  1.00  0.00    -0.294 OA
BRANCH  11  13
ATOM     13  C   UNL     1      89.630  29.786  15.310  1.00  0.00    -0.002 C 
ATOM     14  C   UNL     1      89.633  30.439  16.510  1.00  0.00    -0.069 C 
ATOM     15  C   UNL     1      90.658  30.123  17.577  1.00  0.00     0.039 C 
ATOM     16  C   UNL     1      88.634  31.532  16.821  1.00  0.00     0.039 C 
BRANCH  13  17
ATOM     17  C   UNL     1      90.725  28.798  14.950  1.00  0.00     0.066 CG0
ATOM     18  G   UNL     1      91.937  29.539  14.441  1.00  0.00     0.000 G0
ENDBRANCH  13  17
ENDBRANCH  11  13
ENDBRANCH  10  11
ENDBRANCH   1  10
TORSDOF 0
ENDMDL
MODEL 9
REMARK VINA RESULT:    -0.399      2.669      5.500
REMARK INTER + INTRA:          -0.036
REMARK INTER:                  -0.639
REMARK INTRA:                   0.602
REMARK UNBOUND:                 0.527
REMARK SMILES CC1=CCC(=C(C)C)C(=O)CC(C)=CCC1
REMARK SMILES IDX 12 1 14 2 13 3 15 4 16 5 2 6 1 7 3 8 11 10 9 11 10 12 5 13
REMARK SMILES IDX 6 14 7 15 8 16 4 17
REMARK H PARENT
REMARK Flexibility Score: 60.00
ROOT
ATOM      1  C   UNL     1      93.258  33.168  14.330  1.00  0.00    -0.070 C 
ATOM      2  C   UNL     1      93.256  33.728  13.097  1.00  0.00    -0.027 C 
ATOM      3  C   UNL     1      93.440  34.088  15.512  1.00  0.00     0.039 C 
ENDROOT
BRANCH   2   4
ATOM      4  C   UNL     1      93.197  32.992  11.781  1.00  0.00     0.032 C 
BRANCH   4   5
ATOM      5  C   UNL     1      91.919  33.312  10.981  1.00  0.00     0.034 C 
BRANCH   5   6
ATOM      6  C   UNL     1      90.682  33.319  11.858  1.00  0.00    -0.077 C 
ATOM      7  C   UNL     1      89.938  34.618  12.033  1.00  0.00     0.039 C 
ATOM      8  C   UNL     1      90.192  32.219  12.473  1.00  0.00    -0.023 CG0
ATOM      9  G   UNL     1      90.774  30.829  12.391  1.00  0.00     0.000 G0
ENDBRANCH   5   6
ENDBRANCH   4   5
ENDBRANCH   2   4
BRANCH   1  10
ATOM     10  C   UNL     1      93.154  31.672  14.578  1.00  0.00     0.111 C 
BRANCH  10  11
ATOM     11  C   UNL     1      91.720  31.236  14.754  1.00  0.00     0.163 C 
ATOM     12  O   UNL     1      91.066  31.723  15.715  1.00  0.00    -0.294 OA
BRANCH  11  13
ATOM     13  C   UNL     1      91.055  30.297  13.797  1.00  0.00    -0.002 C 
ATOM     14  C   UNL     1      90.778  29.002  14.136  1.00  0.00    -0.069 C 
ATOM     15  C   UNL     1      90.070  28.070  13.177  1.00  0.00     0.039 C 
ATOM     16  C   UNL     1      91.193  28.426  15.472  1.00  0.00     0.039 C 
BRANCH  13  17
ATOM     17  C   UNL     1      90.769  30.822  12.402  1.00  0.00     0.066 CG0
ATOM     18  G   UNL     1      90.199  32.218  12.485  1.00  0.00     0.000 G0
ENDBRANCH  13  17
ENDBRANCH  11  13
ENDBRANCH  10  11
ENDBRANCH   1  10
TORSDOF 0
ENDMDL
