MODEL 1
REMARK VINA RESULT:    -6.088      0.000      0.000
REMARK INTER + INTRA:          -6.857
REMARK INTER:                  -6.800
REMARK INTRA:                  -0.057
REMARK UNBOUND:                -0.057
REMARK SMILES COc1cc2ccc(=O)oc2c(O)c1O
REMARK SMILES IDX 3 1 14 2 12 3 11 4 5 5 4 6 6 7 7 8 8 9 9 10 10 11 2 12 1 13
REMARK SMILES IDX 15 14 13 16
REMARK H PARENT 15 15 13 17
REMARK Flexibility Score: inf
ROOT
ATOM      1  C   UNL     1       9.719  27.891  -1.074  1.00  0.00     0.165 A 
ATOM      2  C   UNL     1       8.656  27.330  -1.799  1.00  0.00     0.204 A 
ATOM      3  C   UNL     1       7.324  27.619  -1.448  1.00  0.00     0.205 A 
ATOM      4  C   UNL     1       7.057  28.475  -0.366  1.00  0.00     0.184 A 
ATOM      5  C   UNL     1       8.125  29.039   0.363  1.00  0.00     0.025 A 
ATOM      6  C   UNL     1       9.448  28.748   0.009  1.00  0.00     0.062 A 
ATOM      7  C   UNL     1       7.828  29.888   1.435  1.00  0.00     0.020 A 
ATOM      8  C   UNL     1       6.497  30.151   1.753  1.00  0.00     0.094 A 
ATOM      9  C   UNL     1       5.488  29.556   0.988  1.00  0.00     0.336 A 
ATOM     10  O   UNL     1       4.280  29.781   1.258  1.00  0.00    -0.246 OA
ATOM     11  O   UNL     1       5.799  28.753  -0.027  1.00  0.00    -0.419 OA
ENDROOT
BRANCH   1  12
ATOM     12  O   UNL     1      11.030  27.572  -1.462  1.00  0.00    -0.493 OA
ATOM     13  C   UNL     1      12.086  27.258  -0.559  1.00  0.00     0.278 C 
ENDBRANCH   1  12
BRANCH   2  14
ATOM     14  O   UNL     1       8.942  26.483  -2.869  1.00  0.00    -0.502 OA
ATOM     15  H   UNL     1       9.785  25.921  -2.905  1.00  0.00     0.293 HD
ENDBRANCH   2  14
BRANCH   3  16
ATOM     16  O   UNL     1       6.280  27.050  -2.180  1.00  0.00    -0.502 OA
ATOM     17  H   UNL     1       5.352  27.454  -2.200  1.00  0.00     0.293 HD
ENDBRANCH   3  16
TORSDOF 3
ENDMDL
MODEL 2
REMARK VINA RESULT:    -5.978      8.130      9.899
REMARK INTER + INTRA:          -6.734
REMARK INTER:                  -6.664
REMARK INTRA:                  -0.070
REMARK UNBOUND:                -0.057
REMARK SMILES COc1cc2ccc(=O)oc2c(O)c1O
REMARK SMILES IDX 3 1 14 2 12 3 11 4 5 5 4 6 6 7 7 8 8 9 9 10 10 11 2 12 1 13
REMARK SMILES IDX 15 14 13 16
REMARK H PARENT 15 15 13 17
REMARK Flexibility Score: inf
ROOT
ATOM      1  C   UNL     1       0.243  31.346   1.955  1.00  0.00     0.165 A 
ATOM      2  C   UNL     1      -0.633  32.296   2.505  1.00  0.00     0.204 A 
ATOM      3  C   UNL     1      -0.668  32.511   3.895  1.00  0.00     0.205 A 
ATOM      4  C   UNL     1       0.179  31.772   4.738  1.00  0.00     0.184 A 
ATOM      5  C   UNL     1       1.059  30.817   4.186  1.00  0.00     0.025 A 
ATOM      6  C   UNL     1       1.090  30.607   2.803  1.00  0.00     0.062 A 
ATOM      7  C   UNL     1       1.890  30.096   5.051  1.00  0.00     0.020 A 
ATOM      8  C   UNL     1       1.827  30.336   6.421  1.00  0.00     0.094 A 
ATOM      9  C   UNL     1       0.931  31.297   6.900  1.00  0.00     0.336 A 
ATOM     10  O   UNL     1       0.859  31.530   8.135  1.00  0.00    -0.246 OA
ATOM     11  O   UNL     1       0.151  31.969   6.056  1.00  0.00    -0.419 OA
ENDROOT
BRANCH   1  12
ATOM     12  O   UNL     1       0.241  31.167   0.562  1.00  0.00    -0.493 OA
ATOM     13  C   UNL     1       1.239  31.674  -0.318  1.00  0.00     0.278 C 
ENDBRANCH   1  12
BRANCH   2  14
ATOM     14  O   UNL     1      -1.465  33.020   1.652  1.00  0.00    -0.502 OA
ATOM     15  H   UNL     1      -2.152  33.681   1.998  1.00  0.00     0.293 HD
ENDBRANCH   2  14
BRANCH   3  16
ATOM     16  O   UNL     1      -1.546  33.459   4.423  1.00  0.00    -0.502 OA
ATOM     17  H   UNL     1      -2.511  33.527   4.122  1.00  0.00     0.293 HD
ENDBRANCH   3  16
TORSDOF 3
ENDMDL
MODEL 3
REMARK VINA RESULT:    -5.958      0.852      4.792
REMARK INTER + INTRA:          -6.712
REMARK INTER:                  -6.660
REMARK INTRA:                  -0.052
REMARK UNBOUND:                -0.057
REMARK SMILES COc1cc2ccc(=O)oc2c(O)c1O
REMARK SMILES IDX 3 1 14 2 12 3 11 4 5 5 4 6 6 7 7 8 8 9 9 10 10 11 2 12 1 13
REMARK SMILES IDX 15 14 13 16
REMARK H PARENT 15 15 13 17
REMARK Flexibility Score: inf
ROOT
ATOM      1  C   UNL     1       7.237  28.415  -0.342  1.00  0.00     0.165 A 
ATOM      2  C   UNL     1       7.384  27.612  -1.484  1.00  0.00     0.204 A 
ATOM      3  C   UNL     1       8.666  27.282  -1.963  1.00  0.00     0.205 A 
ATOM      4  C   UNL     1       9.805  27.761  -1.295  1.00  0.00     0.184 A 
ATOM      5  C   UNL     1       9.659  28.568  -0.148  1.00  0.00     0.025 A 
ATOM      6  C   UNL     1       8.382  28.892   0.325  1.00  0.00     0.062 A 
ATOM      7  C   UNL     1      10.812  29.030   0.496  1.00  0.00     0.020 A 
ATOM      8  C   UNL     1      12.064  28.683  -0.008  1.00  0.00     0.094 A 
ATOM      9  C   UNL     1      12.135  27.880  -1.150  1.00  0.00     0.336 A 
ATOM     10  O   UNL     1      13.256  27.554  -1.621  1.00  0.00    -0.246 OA
ATOM     11  O   UNL     1      11.022  27.454  -1.743  1.00  0.00    -0.419 OA
ENDROOT
BRANCH   1  12
ATOM     12  O   UNL     1       5.938  28.716   0.098  1.00  0.00    -0.493 OA
ATOM     13  C   UNL     1       5.594  29.857   0.878  1.00  0.00     0.278 C 
ENDBRANCH   1  12
BRANCH   2  14
ATOM     14  O   UNL     1       6.240  27.147  -2.133  1.00  0.00    -0.502 OA
ATOM     15  H   UNL     1       5.984  26.166  -2.142  1.00  0.00     0.293 HD
ENDBRANCH   2  14
BRANCH   3  16
ATOM     16  O   UNL     1       8.790  26.483  -3.101  1.00  0.00    -0.502 OA
ATOM     17  H   UNL     1       8.162  25.710  -3.289  1.00  0.00     0.293 HD
ENDBRANCH   3  16
TORSDOF 3
ENDMDL
MODEL 4
REMARK VINA RESULT:    -5.918      8.519      9.975
REMARK INTER + INTRA:          -6.667
REMARK INTER:                  -6.598
REMARK INTRA:                  -0.069
REMARK UNBOUND:                -0.057
REMARK SMILES COc1cc2ccc(=O)oc2c(O)c1O
REMARK SMILES IDX 3 1 14 2 12 3 11 4 5 5 4 6 6 7 7 8 8 9 9 10 10 11 2 12 1 13
REMARK SMILES IDX 15 14 13 16
REMARK H PARENT 15 15 13 17
REMARK Flexibility Score: inf
ROOT
ATOM      1  C   UNL     1       2.021  33.448   4.253  1.00  0.00     0.165 A 
ATOM      2  C   UNL     1       0.711  33.797   4.620  1.00  0.00     0.204 A 
ATOM      3  C   UNL     1      -0.390  33.143   4.037  1.00  0.00     0.205 A 
ATOM      4  C   UNL     1      -0.178  32.136   3.081  1.00  0.00     0.184 A 
ATOM      5  C   UNL     1       1.138  31.785   2.711  1.00  0.00     0.025 A 
ATOM      6  C   UNL     1       2.229  32.439   3.295  1.00  0.00     0.062 A 
ATOM      7  C   UNL     1       1.317  30.778   1.756  1.00  0.00     0.020 A 
ATOM      8  C   UNL     1       0.203  30.153   1.200  1.00  0.00     0.094 A 
ATOM      9  C   UNL     1      -1.072  30.552   1.613  1.00  0.00     0.336 A 
ATOM     10  O   UNL     1      -2.092  30.000   1.124  1.00  0.00    -0.246 OA
ATOM     11  O   UNL     1      -1.215  31.512   2.523  1.00  0.00    -0.419 OA
ENDROOT
BRANCH   1  12
ATOM     12  O   UNL     1       3.086  34.129   4.863  1.00  0.00    -0.493 OA
ATOM     13  C   UNL     1       3.827  35.181   4.252  1.00  0.00     0.278 C 
ENDBRANCH   1  12
BRANCH   2  14
ATOM     14  O   UNL     1       0.521  34.800   5.571  1.00  0.00    -0.502 OA
ATOM     15  H   UNL     1       0.754  34.669   6.549  1.00  0.00     0.293 HD
ENDBRANCH   2  14
BRANCH   3  16
ATOM     16  O   UNL     1      -1.684  33.505   4.415  1.00  0.00    -0.502 OA
ATOM     17  H   UNL     1      -2.399  32.817   4.618  1.00  0.00     0.293 HD
ENDBRANCH   3  16
TORSDOF 3
ENDMDL
MODEL 5
REMARK VINA RESULT:    -5.875      1.310      4.716
REMARK INTER + INTRA:          -6.619
REMARK INTER:                  -6.550
REMARK INTRA:                  -0.069
REMARK UNBOUND:                -0.057
REMARK SMILES COc1cc2ccc(=O)oc2c(O)c1O
REMARK SMILES IDX 3 1 14 2 12 3 11 4 5 5 4 6 6 7 7 8 8 9 9 10 10 11 2 12 1 13
REMARK SMILES IDX 15 14 13 16
REMARK H PARENT 15 15 13 17
REMARK Flexibility Score: inf
ROOT
ATOM      1  C   UNL     1       7.051  30.157   1.578  1.00  0.00     0.165 A 
ATOM      2  C   UNL     1       6.056  29.820   0.646  1.00  0.00     0.204 A 
ATOM      3  C   UNL     1       6.361  29.001  -0.457  1.00  0.00     0.205 A 
ATOM      4  C   UNL     1       7.669  28.516  -0.626  1.00  0.00     0.184 A 
ATOM      5  C   UNL     1       8.669  28.854   0.310  1.00  0.00     0.025 A 
ATOM      6  C   UNL     1       8.360  29.670   1.405  1.00  0.00     0.062 A 
ATOM      7  C   UNL     1       9.962  28.356   0.115  1.00  0.00     0.020 A 
ATOM      8  C   UNL     1      10.227  27.548  -0.988  1.00  0.00     0.094 A 
ATOM      9  C   UNL     1       9.187  27.254  -1.876  1.00  0.00     0.336 A 
ATOM     10  O   UNL     1       9.405  26.524  -2.879  1.00  0.00    -0.246 OA
ATOM     11  O   UNL     1       7.966  27.740  -1.667  1.00  0.00    -0.419 OA
ENDROOT
BRANCH   1  12
ATOM     12  O   UNL     1       6.698  30.978   2.661  1.00  0.00    -0.493 OA
ATOM     13  C   UNL     1       6.990  32.369   2.748  1.00  0.00     0.278 C 
ENDBRANCH   1  12
BRANCH   2  14
ATOM     14  O   UNL     1       4.764  30.312   0.832  1.00  0.00    -0.502 OA
ATOM     15  H   UNL     1       4.470  30.747   1.699  1.00  0.00     0.293 HD
ENDBRANCH   2  14
BRANCH   3  16
ATOM     16  O   UNL     1       5.358  28.678  -1.372  1.00  0.00    -0.502 OA
ATOM     17  H   UNL     1       5.454  28.859  -2.364  1.00  0.00     0.293 HD
ENDBRANCH   3  16
TORSDOF 3
ENDMDL
MODEL 6
REMARK VINA RESULT:    -5.843      1.125      4.733
REMARK INTER + INTRA:          -6.584
REMARK INTER:                  -6.515
REMARK INTRA:                  -0.069
REMARK UNBOUND:                -0.057
REMARK SMILES COc1cc2ccc(=O)oc2c(O)c1O
REMARK SMILES IDX 3 1 14 2 12 3 11 4 5 5 4 6 6 7 7 8 8 9 9 10 10 11 2 12 1 13
REMARK SMILES IDX 15 14 13 16
REMARK H PARENT 15 15 13 17
REMARK Flexibility Score: inf
ROOT
ATOM      1  C   UNL     1       5.729  29.384   0.560  1.00  0.00     0.165 A 
ATOM      2  C   UNL     1       5.412  28.480  -0.465  1.00  0.00     0.204 A 
ATOM      3  C   UNL     1       6.431  27.788  -1.146  1.00  0.00     0.205 A 
ATOM      4  C   UNL     1       7.775  28.004  -0.797  1.00  0.00     0.184 A 
ATOM      5  C   UNL     1       8.095  28.913   0.234  1.00  0.00     0.025 A 
ATOM      6  C   UNL     1       7.076  29.598   0.907  1.00  0.00     0.062 A 
ATOM      7  C   UNL     1       9.442  29.108   0.559  1.00  0.00     0.020 A 
ATOM      8  C   UNL     1      10.423  28.406  -0.137  1.00  0.00     0.094 A 
ATOM      9  C   UNL     1      10.034  27.521  -1.148  1.00  0.00     0.336 A 
ATOM     10  O   UNL     1      10.906  26.876  -1.788  1.00  0.00    -0.246 OA
ATOM     11  O   UNL     1       8.746  27.355  -1.437  1.00  0.00    -0.419 OA
ENDROOT
BRANCH   1  12
ATOM     12  O   UNL     1       4.677  30.050   1.210  1.00  0.00    -0.493 OA
ATOM     13  C   UNL     1       4.165  29.694   2.490  1.00  0.00     0.278 C 
ENDBRANCH   1  12
BRANCH   2  14
ATOM     14  O   UNL     1       4.072  28.279  -0.797  1.00  0.00    -0.502 OA
ATOM     15  H   UNL     1       3.349  28.179  -0.093  1.00  0.00     0.293 HD
ENDBRANCH   2  14
BRANCH   3  16
ATOM     16  O   UNL     1       6.095  26.894  -2.163  1.00  0.00    -0.502 OA
ATOM     17  H   UNL     1       6.253  25.897  -2.080  1.00  0.00     0.293 HD
ENDBRANCH   3  16
TORSDOF 3
ENDMDL
MODEL 7
REMARK VINA RESULT:    -5.814      3.241      4.695
REMARK INTER + INTRA:          -6.551
REMARK INTER:                  -6.496
REMARK INTRA:                  -0.055
REMARK UNBOUND:                -0.057
REMARK SMILES COc1cc2ccc(=O)oc2c(O)c1O
REMARK SMILES IDX 3 1 14 2 12 3 11 4 5 5 4 6 6 7 7 8 8 9 9 10 10 11 2 12 1 13
REMARK SMILES IDX 15 14 13 16
REMARK H PARENT 15 15 13 17
REMARK Flexibility Score: inf
ROOT
ATOM      1  C   UNL     1       5.313  28.578   0.056  1.00  0.00     0.165 A 
ATOM      2  C   UNL     1       4.951  27.315  -0.440  1.00  0.00     0.204 A 
ATOM      3  C   UNL     1       3.837  26.635   0.087  1.00  0.00     0.205 A 
ATOM      4  C   UNL     1       3.082  27.223   1.115  1.00  0.00     0.184 A 
ATOM      5  C   UNL     1       3.445  28.492   1.614  1.00  0.00     0.025 A 
ATOM      6  C   UNL     1       4.554  29.164   1.086  1.00  0.00     0.062 A 
ATOM      7  C   UNL     1       2.673  29.053   2.638  1.00  0.00     0.020 A 
ATOM      8  C   UNL     1       1.578  28.350   3.134  1.00  0.00     0.094 A 
ATOM      9  C   UNL     1       1.276  27.096   2.593  1.00  0.00     0.336 A 
ATOM     10  O   UNL     1       0.290  26.445   3.027  1.00  0.00    -0.246 OA
ATOM     11  O   UNL     1       2.026  26.586   1.619  1.00  0.00    -0.419 OA
ENDROOT
BRANCH   1  12
ATOM     12  O   UNL     1       6.432  29.216  -0.502  1.00  0.00    -0.493 OA
ATOM     13  C   UNL     1       7.751  29.143   0.031  1.00  0.00     0.278 C 
ENDBRANCH   1  12
BRANCH   2  14
ATOM     14  O   UNL     1       5.714  26.747  -1.461  1.00  0.00    -0.502 OA
ATOM     15  H   UNL     1       5.772  25.745  -1.600  1.00  0.00     0.293 HD
ENDBRANCH   2  14
BRANCH   3  16
ATOM     16  O   UNL     1       3.495  25.380  -0.420  1.00  0.00    -0.502 OA
ATOM     17  H   UNL     1       2.545  25.029  -0.396  1.00  0.00     0.293 HD
ENDBRANCH   3  16
TORSDOF 3
ENDMDL
MODEL 8
REMARK VINA RESULT:    -5.805      1.398      1.967
REMARK INTER + INTRA:          -6.541
REMARK INTER:                  -6.474
REMARK INTRA:                  -0.067
REMARK UNBOUND:                -0.057
REMARK SMILES COc1cc2ccc(=O)oc2c(O)c1O
REMARK SMILES IDX 3 1 14 2 12 3 11 4 5 5 4 6 6 7 7 8 8 9 9 10 10 11 2 12 1 13
REMARK SMILES IDX 15 14 13 16
REMARK H PARENT 15 15 13 17
REMARK Flexibility Score: inf
ROOT
ATOM      1  C   UNL     1       8.242  27.763  -1.031  1.00  0.00     0.165 A 
ATOM      2  C   UNL     1       6.871  27.785  -1.333  1.00  0.00     0.204 A 
ATOM      3  C   UNL     1       6.005  28.659  -0.650  1.00  0.00     0.205 A 
ATOM      4  C   UNL     1       6.515  29.513   0.342  1.00  0.00     0.184 A 
ATOM      5  C   UNL     1       7.893  29.491   0.647  1.00  0.00     0.025 A 
ATOM      6  C   UNL     1       8.749  28.620  -0.036  1.00  0.00     0.062 A 
ATOM      7  C   UNL     1       8.371  30.353   1.639  1.00  0.00     0.020 A 
ATOM      8  C   UNL     1       7.484  31.204   2.295  1.00  0.00     0.094 A 
ATOM      9  C   UNL     1       6.131  31.173   1.942  1.00  0.00     0.336 A 
ATOM     10  O   UNL     1       5.313  31.933   2.522  1.00  0.00    -0.246 OA
ATOM     11  O   UNL     1       5.702  30.343   0.995  1.00  0.00    -0.419 OA
ENDROOT
BRANCH   1  12
ATOM     12  O   UNL     1       9.066  26.874  -1.740  1.00  0.00    -0.493 OA
ATOM     13  C   UNL     1       9.886  27.240  -2.845  1.00  0.00     0.278 C 
ENDBRANCH   1  12
BRANCH   2  14
ATOM     14  O   UNL     1       6.384  26.929  -2.321  1.00  0.00    -0.502 OA
ATOM     15  H   UNL     1       6.419  25.920  -2.228  1.00  0.00     0.293 HD
ENDBRANCH   2  14
BRANCH   3  16
ATOM     16  O   UNL     1       4.645  28.665  -0.965  1.00  0.00    -0.502 OA
ATOM     17  H   UNL     1       4.170  29.500  -1.288  1.00  0.00     0.293 HD
ENDBRANCH   3  16
TORSDOF 3
ENDMDL
MODEL 9
REMARK VINA RESULT:    -5.758      1.978      5.023
REMARK INTER + INTRA:          -6.488
REMARK INTER:                  -6.419
REMARK INTRA:                  -0.070
REMARK UNBOUND:                -0.057
REMARK SMILES COc1cc2ccc(=O)oc2c(O)c1O
REMARK SMILES IDX 3 1 14 2 12 3 11 4 5 5 4 6 6 7 7 8 8 9 9 10 10 11 2 12 1 13
REMARK SMILES IDX 15 14 13 16
REMARK H PARENT 15 15 13 17
REMARK Flexibility Score: inf
ROOT
ATOM      1  C   UNL     1       3.752  28.881   0.020  1.00  0.00     0.165 A 
ATOM      2  C   UNL     1       4.157  27.960  -0.959  1.00  0.00     0.204 A 
ATOM      3  C   UNL     1       5.523  27.700  -1.171  1.00  0.00     0.205 A 
ATOM      4  C   UNL     1       6.489  28.365  -0.397  1.00  0.00     0.184 A 
ATOM      5  C   UNL     1       6.083  29.290   0.588  1.00  0.00     0.025 A 
ATOM      6  C   UNL     1       4.722  29.545   0.794  1.00  0.00     0.062 A 
ATOM      7  C   UNL     1       7.068  29.937   1.343  1.00  0.00     0.020 A 
ATOM      8  C   UNL     1       8.411  29.654   1.105  1.00  0.00     0.094 A 
ATOM      9  C   UNL     1       8.741  28.726   0.112  1.00  0.00     0.336 A 
ATOM     10  O   UNL     1       9.949  28.455  -0.118  1.00  0.00    -0.246 OA
ATOM     11  O   UNL     1       7.785  28.125  -0.592  1.00  0.00    -0.419 OA
ENDROOT
BRANCH   1  12
ATOM     12  O   UNL     1       2.377  29.107   0.194  1.00  0.00    -0.493 OA
ATOM     13  C   UNL     1       1.608  28.606   1.283  1.00  0.00     0.278 C 
ENDBRANCH   1  12
BRANCH   2  14
ATOM     14  O   UNL     1       3.183  27.310  -1.718  1.00  0.00    -0.502 OA
ATOM     15  H   UNL     1       3.352  27.005  -2.669  1.00  0.00     0.293 HD
ENDBRANCH   2  14
BRANCH   3  16
ATOM     16  O   UNL     1       5.905  26.781  -2.151  1.00  0.00    -0.502 OA
ATOM     17  H   UNL     1       5.237  26.361  -2.786  1.00  0.00     0.293 HD
ENDBRANCH   3  16
TORSDOF 3
ENDMDL
