MODEL 1
REMARK VINA RESULT:    -5.282      0.000      0.000
REMARK INTER + INTRA:          -9.404
REMARK INTER:                  -8.370
REMARK INTRA:                  -1.034
REMARK UNBOUND:                -1.034
REMARK SMILES C[C@H]1O[C@@H](O[C@@H]2[C@H](Oc3cc(O)c4c(c3)O[C@@H](c3ccc(O)cc3)CC4=O)O[C@H](CO)[C@@H](O)[C@H]2O)[C@H](O)[C@H](O)[C@H]1O
REMARK SMILES IDX 6 1 34 2 32 3 29 4 28 5 7 6 5 7 4 8 1 9 2 10 40 11 3 12
REMARK SMILES IDX 38 13 36 14 41 15 39 17 37 19 35 21 8 23 9 24 10 25 15 26
REMARK SMILES IDX 11 27 14 28 13 29 16 30 26 31 17 32 27 33 25 34 12 35 18 37
REMARK SMILES IDX 19 38 24 39 20 40 23 41 21 42 22 43 33 45 30 47 31 48
REMARK H PARENT 41 16 39 18 37 20 35 22 12 36 22 44 33 46 31 49
REMARK Flexibility Score: inf
ROOT
ATOM      1  C   UNL     1      41.285  17.617  -4.137  1.00  0.00     0.221 C 
ATOM      2  C   UNL     1      40.672  18.797  -3.324  1.00  0.00     0.181 C 
ATOM      3  C   UNL     1      41.513  20.119  -3.304  1.00  0.00     0.177 C 
ATOM      4  C   UNL     1      43.074  19.873  -3.352  1.00  0.00     0.179 C 
ATOM      5  O   UNL     1      43.445  18.529  -3.631  1.00  0.00    -0.332 OA
ATOM      6  C   UNL     1      42.664  18.011  -4.684  1.00  0.00     0.339 C 
ENDROOT
BRANCH   1   7
ATOM      7  O   UNL     1      41.458  16.508  -3.256  1.00  0.00    -0.337 OA
BRANCH   7   8
ATOM      8  C   UNL     1      40.287  15.728  -3.022  1.00  0.00     0.282 C 
ATOM      9  C   UNL     1      38.875  13.937  -0.137  1.00  0.00     0.041 C 
ATOM     10  C   UNL     1      39.204  14.184  -1.611  1.00  0.00     0.150 C 
ATOM     11  C   UNL     1      39.642  12.899  -2.360  1.00  0.00     0.174 C 
ATOM     12  O   UNL     1      40.235  15.157  -1.708  1.00  0.00    -0.344 OA
ATOM     13  C   UNL     1      40.538  13.251  -3.575  1.00  0.00     0.179 C 
ATOM     14  C   UNL     1      40.191  14.644  -4.144  1.00  0.00     0.202 C 
BRANCH  11  15
ATOM     15  O   UNL     1      40.306  11.980  -1.514  1.00  0.00    -0.388 OA
ATOM     16  H   UNL     1      40.612  12.487  -0.714  1.00  0.00     0.211 HD
ENDBRANCH  11  15
BRANCH  13  17
ATOM     17  O   UNL     1      40.407  12.269  -4.563  1.00  0.00    -0.387 OA
ATOM     18  H   UNL     1      39.797  11.567  -4.206  1.00  0.00     0.211 HD
ENDBRANCH  13  17
BRANCH  14  19
ATOM     19  O   UNL     1      38.892  14.636  -4.684  1.00  0.00    -0.385 OA
ATOM     20  H   UNL     1      38.670  15.571  -4.935  1.00  0.00     0.211 HD
ENDBRANCH  14  19
ENDBRANCH   7   8
ENDBRANCH   1   7
BRANCH   2  21
ATOM     21  O   UNL     1      39.344  19.050  -3.726  1.00  0.00    -0.387 OA
ATOM     22  H   UNL     1      38.920  18.167  -3.887  1.00  0.00     0.211 HD
ENDBRANCH   2  21
BRANCH   6  23
ATOM     23  O   UNL     1      43.304  16.887  -5.297  1.00  0.00    -0.462 OA
BRANCH  23  24
ATOM     24  C   UNL     1      44.230  16.045  -4.687  1.00  0.00     0.130 A 
ATOM     25  C   UNL     1      43.767  15.073  -3.799  1.00  0.00     0.093 A 
ATOM     26  C   UNL     1      45.595  16.102  -4.999  1.00  0.00     0.094 A 
ATOM     27  C   UNL     1      44.644  14.135  -3.223  1.00  0.00     0.133 A 
ATOM     28  C   UNL     1      46.475  15.159  -4.472  1.00  0.00     0.138 A 
ATOM     29  C   UNL     1      46.016  14.170  -3.572  1.00  0.00     0.102 A 
ATOM     30  O   UNL     1      47.816  15.188  -4.859  1.00  0.00    -0.484 OA
ATOM     31  C   UNL     1      47.009  13.199  -3.048  1.00  0.00     0.174 C 
ATOM     32  C   UNL     1      48.623  14.007  -4.806  1.00  0.00     0.211 C 
ATOM     33  O   UNL     1      46.668  12.285  -2.256  1.00  0.00    -0.294 OA
ATOM     34  C   UNL     1      48.462  13.329  -3.435  1.00  0.00     0.131 C 
BRANCH  27  35
ATOM     35  O   UNL     1      44.168  13.185  -2.323  1.00  0.00    -0.507 OA
ATOM     36  H   UNL     1      43.613  12.402  -2.635  1.00  0.00     0.293 HD
ENDBRANCH  27  35
BRANCH  32  37
ATOM     37  C   UNL     1      50.084  14.322  -5.091  1.00  0.00    -0.007 A 
ATOM     38  C   UNL     1      50.990  13.264  -5.282  1.00  0.00     0.011 A 
ATOM     39  C   UNL     1      50.564  15.646  -5.171  1.00  0.00     0.011 A 
ATOM     40  C   UNL     1      52.343  13.510  -5.525  1.00  0.00     0.046 A 
ATOM     41  C   UNL     1      51.919  15.896  -5.420  1.00  0.00     0.046 A 
ATOM     42  C   UNL     1      52.815  14.833  -5.603  1.00  0.00     0.115 A 
BRANCH  42  43
ATOM     43  O   UNL     1      54.159  15.097  -5.864  1.00  0.00    -0.508 OA
ATOM     44  H   UNL     1      54.895  14.690  -5.299  1.00  0.00     0.293 HD
ENDBRANCH  42  43
ENDBRANCH  32  37
ENDBRANCH  23  24
ENDBRANCH   6  23
BRANCH   3  45
ATOM     45  O   UNL     1      41.120  21.007  -4.322  1.00  0.00    -0.387 OA
ATOM     46  H   UNL     1      40.809  20.470  -5.091  1.00  0.00     0.211 HD
ENDBRANCH   3  45
BRANCH   4  47
ATOM     47  C   UNL     1      43.739  20.291  -2.037  1.00  0.00     0.191 C 
BRANCH  47  48
ATOM     48  O   UNL     1      43.075  19.676  -0.963  1.00  0.00    -0.394 OA
ATOM     49  H   UNL     1      43.585  19.906  -0.135  1.00  0.00     0.210 HD
ENDBRANCH  47  48
ENDBRANCH   4  47
TORSDOF 14
ENDMDL
MODEL 2
REMARK VINA RESULT:    -5.223      1.770      4.497
REMARK INTER + INTRA:          -9.311
REMARK INTER:                  -9.627
REMARK INTRA:                   0.316
REMARK UNBOUND:                -1.034
REMARK SMILES C[C@H]1O[C@@H](O[C@@H]2[C@H](Oc3cc(O)c4c(c3)O[C@@H](c3ccc(O)cc3)CC4=O)O[C@H](CO)[C@@H](O)[C@H]2O)[C@H](O)[C@H](O)[C@H]1O
REMARK SMILES IDX 6 1 34 2 32 3 29 4 28 5 7 6 5 7 4 8 1 9 2 10 40 11 3 12
REMARK SMILES IDX 38 13 36 14 41 15 39 17 37 19 35 21 8 23 9 24 10 25 15 26
REMARK SMILES IDX 11 27 14 28 13 29 16 30 26 31 17 32 27 33 25 34 12 35 18 37
REMARK SMILES IDX 19 38 24 39 20 40 23 41 21 42 22 43 33 45 30 47 31 48
REMARK H PARENT 41 16 39 18 37 20 35 22 12 36 22 44 33 46 31 49
REMARK Flexibility Score: inf
ROOT
ATOM      1  C   UNL     1      42.771  16.464  -3.099  1.00  0.00     0.221 C 
ATOM      2  C   UNL     1      41.618  17.267  -2.428  1.00  0.00     0.181 C 
ATOM      3  C   UNL     1      40.200  16.603  -2.489  1.00  0.00     0.177 C 
ATOM      4  C   UNL     1      39.960  15.753  -3.800  1.00  0.00     0.179 C 
ATOM      5  O   UNL     1      41.127  15.547  -4.585  1.00  0.00    -0.332 OA
ATOM      6  C   UNL     1      42.217  15.196  -3.764  1.00  0.00     0.339 C 
ENDROOT
BRANCH   1   7
ATOM      7  O   UNL     1      43.353  17.279  -4.116  1.00  0.00    -0.337 OA
BRANCH   7   8
ATOM      8  C   UNL     1      43.676  18.610  -3.720  1.00  0.00     0.282 C 
ATOM      9  C   UNL     1      43.725  20.451  -0.536  1.00  0.00     0.041 C 
ATOM     10  C   UNL     1      43.521  20.254  -2.040  1.00  0.00     0.150 C 
ATOM     11  C   UNL     1      42.248  20.959  -2.578  1.00  0.00     0.174 C 
ATOM     12  O   UNL     1      43.443  18.865  -2.329  1.00  0.00    -0.344 OA
ATOM     13  C   UNL     1      41.734  20.256  -3.861  1.00  0.00     0.179 C 
ATOM     14  C   UNL     1      42.890  19.597  -4.643  1.00  0.00     0.202 C 
BRANCH  11  15
ATOM     15  O   UNL     1      41.217  21.025  -1.611  1.00  0.00    -0.388 OA
ATOM     16  H   UNL     1      41.494  21.700  -0.935  1.00  0.00     0.211 HD
ENDBRANCH  11  15
BRANCH  13  17
ATOM     17  O   UNL     1      41.056  21.178  -4.668  1.00  0.00    -0.387 OA
ATOM     18  H   UNL     1      40.112  21.214  -4.350  1.00  0.00     0.211 HD
ENDBRANCH  13  17
BRANCH  14  19
ATOM     19  O   UNL     1      43.766  20.583  -5.134  1.00  0.00    -0.385 OA
ATOM     20  H   UNL     1      44.584  20.119  -5.455  1.00  0.00     0.211 HD
ENDBRANCH  14  19
ENDBRANCH   7   8
ENDBRANCH   1   7
BRANCH   2  21
ATOM     21  O   UNL     1      41.953  17.621  -1.104  1.00  0.00    -0.387 OA
ATOM     22  H   UNL     1      42.650  18.324  -1.163  1.00  0.00     0.211 HD
ENDBRANCH   2  21
BRANCH   6  23
ATOM     23  O   UNL     1      43.238  14.532  -4.515  1.00  0.00    -0.462 OA
BRANCH  23  24
ATOM     24  C   UNL     1      44.378  13.932  -3.986  1.00  0.00     0.130 A 
ATOM     25  C   UNL     1      44.222  12.915  -3.041  1.00  0.00     0.093 A 
ATOM     26  C   UNL     1      45.663  14.271  -4.430  1.00  0.00     0.094 A 
ATOM     27  C   UNL     1      45.331  12.211  -2.540  1.00  0.00     0.133 A 
ATOM     28  C   UNL     1      46.772  13.559  -3.977  1.00  0.00     0.138 A 
ATOM     29  C   UNL     1      46.624  12.527  -3.022  1.00  0.00     0.102 A 
ATOM     30  O   UNL     1      48.033  13.862  -4.494  1.00  0.00    -0.484 OA
ATOM     31  C   UNL     1      47.850  11.813  -2.582  1.00  0.00     0.174 C 
ATOM     32  C   UNL     1      49.080  12.886  -4.502  1.00  0.00     0.211 C 
ATOM     33  O   UNL     1      47.790  10.877  -1.746  1.00  0.00    -0.294 OA
ATOM     34  C   UNL     1      49.197  12.239  -3.112  1.00  0.00     0.131 C 
BRANCH  27  35
ATOM     35  O   UNL     1      45.159  11.214  -1.582  1.00  0.00    -0.507 OA
ATOM     36  H   UNL     1      45.933  10.641  -1.281  1.00  0.00     0.293 HD
ENDBRANCH  27  35
BRANCH  32  37
ATOM     37  C   UNL     1      50.404  13.498  -4.933  1.00  0.00    -0.007 A 
ATOM     38  C   UNL     1      50.598  14.884  -4.792  1.00  0.00     0.011 A 
ATOM     39  C   UNL     1      51.450  12.720  -5.472  1.00  0.00     0.011 A 
ATOM     40  C   UNL     1      51.791  15.487  -5.195  1.00  0.00     0.046 A 
ATOM     41  C   UNL     1      52.648  13.322  -5.873  1.00  0.00     0.046 A 
ATOM     42  C   UNL     1      52.829  14.706  -5.733  1.00  0.00     0.115 A 
BRANCH  42  43
ATOM     43  O   UNL     1      54.034  15.290  -6.124  1.00  0.00    -0.508 OA
ATOM     44  H   UNL     1      54.754  14.751  -6.590  1.00  0.00     0.293 HD
ENDBRANCH  42  43
ENDBRANCH  32  37
ENDBRANCH  23  24
ENDBRANCH   6  23
BRANCH   3  45
ATOM     45  O   UNL     1      39.931  15.833  -1.343  1.00  0.00    -0.387 OA
ATOM     46  H   UNL     1      39.154  16.235  -0.882  1.00  0.00     0.211 HD
ENDBRANCH   3  45
BRANCH   4  47
ATOM     47  C   UNL     1      38.892  16.398  -4.689  1.00  0.00     0.191 C 
BRANCH  47  48
ATOM     48  O   UNL     1      39.335  17.665  -5.103  1.00  0.00    -0.394 OA
ATOM     49  H   UNL     1      40.173  17.860  -4.595  1.00  0.00     0.210 HD
ENDBRANCH  47  48
ENDBRANCH   4  47
TORSDOF 14
ENDMDL
MODEL 3
REMARK VINA RESULT:    -5.127      1.378      4.818
REMARK INTER + INTRA:          -9.158
REMARK INTER:                  -7.647
REMARK INTRA:                  -1.511
REMARK UNBOUND:                -1.034
REMARK SMILES C[C@H]1O[C@@H](O[C@@H]2[C@H](Oc3cc(O)c4c(c3)O[C@@H](c3ccc(O)cc3)CC4=O)O[C@H](CO)[C@@H](O)[C@H]2O)[C@H](O)[C@H](O)[C@H]1O
REMARK SMILES IDX 6 1 34 2 32 3 29 4 28 5 7 6 5 7 4 8 1 9 2 10 40 11 3 12
REMARK SMILES IDX 38 13 36 14 41 15 39 17 37 19 35 21 8 23 9 24 10 25 15 26
REMARK SMILES IDX 11 27 14 28 13 29 16 30 26 31 17 32 27 33 25 34 12 35 18 37
REMARK SMILES IDX 19 38 24 39 20 40 23 41 21 42 22 43 33 45 30 47 31 48
REMARK H PARENT 41 16 39 18 37 20 35 22 12 36 22 44 33 46 31 49
REMARK Flexibility Score: inf
ROOT
ATOM      1  C   UNL     1      40.903  16.245  -2.779  1.00  0.00     0.221 C 
ATOM      2  C   UNL     1      39.429  15.892  -2.419  1.00  0.00     0.181 C 
ATOM      3  C   UNL     1      39.079  14.365  -2.400  1.00  0.00     0.177 C 
ATOM      4  C   UNL     1      39.894  13.520  -3.458  1.00  0.00     0.179 C 
ATOM      5  O   UNL     1      40.955  14.231  -4.083  1.00  0.00    -0.332 OA
ATOM      6  C   UNL     1      41.683  14.969  -3.126  1.00  0.00     0.339 C 
ENDROOT
BRANCH   1   7
ATOM      7  O   UNL     1      40.895  17.086  -3.931  1.00  0.00    -0.337 OA
BRANCH   7   8
ATOM      8  C   UNL     1      40.721  18.477  -3.669  1.00  0.00     0.282 C 
ATOM      9  C   UNL     1      41.526  21.592  -5.450  1.00  0.00     0.041 C 
ATOM     10  C   UNL     1      41.341  20.677  -4.237  1.00  0.00     0.150 C 
ATOM     11  C   UNL     1      42.458  20.842  -3.174  1.00  0.00     0.174 C 
ATOM     12  O   UNL     1      41.303  19.324  -4.669  1.00  0.00    -0.344 OA
ATOM     13  C   UNL     1      42.613  19.547  -2.337  1.00  0.00     0.179 C 
ATOM     14  C   UNL     1      41.279  18.777  -2.240  1.00  0.00     0.202 C 
BRANCH  11  15
ATOM     15  O   UNL     1      43.700  21.205  -3.747  1.00  0.00    -0.388 OA
ATOM     16  H   UNL     1      43.502  21.666  -4.607  1.00  0.00     0.211 HD
ENDBRANCH  11  15
BRANCH  13  17
ATOM     17  O   UNL     1      43.094  19.861  -1.060  1.00  0.00    -0.387 OA
ATOM     18  H   UNL     1      43.991  20.280  -1.175  1.00  0.00     0.211 HD
ENDBRANCH  13  17
BRANCH  14  19
ATOM     19  O   UNL     1      40.337  19.529  -1.514  1.00  0.00    -0.385 OA
ATOM     20  H   UNL     1      39.916  20.168  -2.147  1.00  0.00     0.211 HD
ENDBRANCH  14  19
ENDBRANCH   7   8
ENDBRANCH   1   7
BRANCH   2  21
ATOM     21  O   UNL     1      39.042  16.514  -1.214  1.00  0.00    -0.387 OA
ATOM     22  H   UNL     1      38.514  17.317  -1.461  1.00  0.00     0.211 HD
ENDBRANCH   2  21
BRANCH   6  23
ATOM     23  O   UNL     1      42.991  15.292  -3.609  1.00  0.00    -0.462 OA
BRANCH  23  24
ATOM     24  C   UNL     1      44.142  14.535  -3.405  1.00  0.00     0.130 A 
ATOM     25  C   UNL     1      44.024  13.290  -2.784  1.00  0.00     0.093 A 
ATOM     26  C   UNL     1      45.394  14.958  -3.874  1.00  0.00     0.094 A 
ATOM     27  C   UNL     1      45.137  12.443  -2.634  1.00  0.00     0.133 A 
ATOM     28  C   UNL     1      46.501  14.118  -3.772  1.00  0.00     0.138 A 
ATOM     29  C   UNL     1      46.391  12.855  -3.145  1.00  0.00     0.102 A 
ATOM     30  O   UNL     1      47.720  14.528  -4.316  1.00  0.00    -0.484 OA
ATOM     31  C   UNL     1      47.612  12.014  -3.070  1.00  0.00     0.174 C 
ATOM     32  C   UNL     1      48.704  13.572  -4.722  1.00  0.00     0.211 C 
ATOM     33  O   UNL     1      47.584  10.875  -2.538  1.00  0.00    -0.294 OA
ATOM     34  C   UNL     1      48.922  12.543  -3.600  1.00  0.00     0.131 C 
BRANCH  27  35
ATOM     35  O   UNL     1      45.005  11.213  -1.993  1.00  0.00    -0.507 OA
ATOM     36  H   UNL     1      45.795  10.769  -1.549  1.00  0.00     0.293 HD
ENDBRANCH  27  35
BRANCH  32  37
ATOM     37  C   UNL     1      50.011  14.251  -5.103  1.00  0.00    -0.007 A 
ATOM     38  C   UNL     1      51.195  13.493  -5.129  1.00  0.00     0.011 A 
ATOM     39  C   UNL     1      50.076  15.621  -5.433  1.00  0.00     0.011 A 
ATOM     40  C   UNL     1      52.419  14.084  -5.453  1.00  0.00     0.046 A 
ATOM     41  C   UNL     1      51.301  16.213  -5.763  1.00  0.00     0.046 A 
ATOM     42  C   UNL     1      52.477  15.450  -5.781  1.00  0.00     0.115 A 
BRANCH  42  43
ATOM     43  O   UNL     1      53.688  16.052  -6.125  1.00  0.00    -0.508 OA
ATOM     44  H   UNL     1      54.450  15.513  -6.516  1.00  0.00     0.293 HD
ENDBRANCH  42  43
ENDBRANCH  32  37
ENDBRANCH  23  24
ENDBRANCH   6  23
BRANCH   3  45
ATOM     45  O   UNL     1      39.212  13.812  -1.114  1.00  0.00    -0.387 OA
ATOM     46  H   UNL     1      39.912  13.115  -1.153  1.00  0.00     0.211 HD
ENDBRANCH   3  45
BRANCH   4  47
ATOM     47  C   UNL     1      38.975  12.971  -4.554  1.00  0.00     0.191 C 
BRANCH  47  48
ATOM     48  O   UNL     1      38.924  13.886  -5.619  1.00  0.00    -0.394 OA
ATOM     49  H   UNL     1      38.731  13.359  -6.446  1.00  0.00     0.210 HD
ENDBRANCH  47  48
ENDBRANCH   4  47
TORSDOF 14
ENDMDL
MODEL 4
REMARK VINA RESULT:    -5.055      2.371      8.572
REMARK INTER + INTRA:          -9.044
REMARK INTER:                  -8.622
REMARK INTRA:                  -0.422
REMARK UNBOUND:                -1.034
REMARK SMILES C[C@H]1O[C@@H](O[C@@H]2[C@H](Oc3cc(O)c4c(c3)O[C@@H](c3ccc(O)cc3)CC4=O)O[C@H](CO)[C@@H](O)[C@H]2O)[C@H](O)[C@H](O)[C@H]1O
REMARK SMILES IDX 6 1 34 2 32 3 29 4 28 5 7 6 5 7 4 8 1 9 2 10 40 11 3 12
REMARK SMILES IDX 38 13 36 14 41 15 39 17 37 19 35 21 8 23 9 24 10 25 15 26
REMARK SMILES IDX 11 27 14 28 13 29 16 30 26 31 17 32 27 33 25 34 12 35 18 37
REMARK SMILES IDX 19 38 24 39 20 40 23 41 21 42 22 43 33 45 30 47 31 48
REMARK H PARENT 41 16 39 18 37 20 35 22 12 36 22 44 33 46 31 49
REMARK Flexibility Score: inf
ROOT
ATOM      1  C   UNL     1      46.844  12.921  -4.727  1.00  0.00     0.221 C 
ATOM      2  C   UNL     1      47.972  12.258  -5.573  1.00  0.00     0.181 C 
ATOM      3  C   UNL     1      49.435  12.508  -5.072  1.00  0.00     0.177 C 
ATOM      4  C   UNL     1      49.635  13.921  -4.393  1.00  0.00     0.179 C 
ATOM      5  O   UNL     1      48.426  14.628  -4.148  1.00  0.00    -0.332 OA
ATOM      6  C   UNL     1      47.454  13.766  -3.600  1.00  0.00     0.339 C 
ENDROOT
BRANCH   1   7
ATOM      7  O   UNL     1      46.097  13.789  -5.577  1.00  0.00    -0.337 OA
BRANCH   7   8
ATOM      8  C   UNL     1      44.727  13.434  -5.758  1.00  0.00     0.282 C 
ATOM      9  C   UNL     1      41.565  15.287  -6.058  1.00  0.00     0.041 C 
ATOM     10  C   UNL     1      42.482  14.136  -5.639  1.00  0.00     0.150 C 
ATOM     11  C   UNL     1      42.196  13.622  -4.204  1.00  0.00     0.174 C 
ATOM     12  O   UNL     1      43.837  14.557  -5.723  1.00  0.00    -0.344 OA
ATOM     13  C   UNL     1      43.461  12.965  -3.595  1.00  0.00     0.179 C 
ATOM     14  C   UNL     1      44.359  12.352  -4.691  1.00  0.00     0.202 C 
BRANCH  11  15
ATOM     15  O   UNL     1      41.718  14.643  -3.349  1.00  0.00    -0.388 OA
ATOM     16  H   UNL     1      40.761  14.792  -3.579  1.00  0.00     0.211 HD
ENDBRANCH  11  15
BRANCH  13  17
ATOM     17  O   UNL     1      43.088  11.989  -2.662  1.00  0.00    -0.387 OA
ATOM     18  H   UNL     1      42.092  11.991  -2.613  1.00  0.00     0.211 HD
ENDBRANCH  13  17
BRANCH  14  19
ATOM     19  O   UNL     1      43.697  11.279  -5.316  1.00  0.00    -0.385 OA
ATOM     20  H   UNL     1      43.129  11.660  -6.036  1.00  0.00     0.211 HD
ENDBRANCH  14  19
ENDBRANCH   7   8
ENDBRANCH   1   7
BRANCH   2  21
ATOM     21  O   UNL     1      47.727  10.880  -5.749  1.00  0.00    -0.387 OA
ATOM     22  H   UNL     1      48.531  10.500  -6.190  1.00  0.00     0.211 HD
ENDBRANCH   2  21
BRANCH   6  23
ATOM     23  O   UNL     1      46.437  14.503  -2.914  1.00  0.00    -0.462 OA
BRANCH  23  24
ATOM     24  C   UNL     1      45.936  15.745  -3.293  1.00  0.00     0.130 A 
ATOM     25  C   UNL     1      46.407  16.325  -4.474  1.00  0.00     0.093 A 
ATOM     26  C   UNL     1      44.926  16.386  -2.564  1.00  0.00     0.094 A 
ATOM     27  C   UNL     1      45.872  17.533  -4.956  1.00  0.00     0.133 A 
ATOM     28  C   UNL     1      44.354  17.563  -3.043  1.00  0.00     0.138 A 
ATOM     29  C   UNL     1      44.823  18.157  -4.238  1.00  0.00     0.102 A 
ATOM     30  O   UNL     1      43.295  18.142  -2.341  1.00  0.00    -0.484 OA
ATOM     31  C   UNL     1      44.169  19.412  -4.688  1.00  0.00     0.174 C 
ATOM     32  C   UNL     1      42.346  18.985  -3.002  1.00  0.00     0.211 C 
ATOM     33  O   UNL     1      44.526  19.986  -5.748  1.00  0.00    -0.294 OA
ATOM     34  C   UNL     1      43.085  20.037  -3.845  1.00  0.00     0.131 C 
BRANCH  27  35
ATOM     35  O   UNL     1      46.368  18.107  -6.123  1.00  0.00    -0.507 OA
ATOM     36  H   UNL     1      46.084  19.032  -6.412  1.00  0.00     0.293 HD
ENDBRANCH  27  35
BRANCH  32  37
ATOM     37  C   UNL     1      41.405  19.645  -2.006  1.00  0.00    -0.007 A 
ATOM     38  C   UNL     1      41.925  20.557  -1.071  1.00  0.00     0.011 A 
ATOM     39  C   UNL     1      40.021  19.373  -1.988  1.00  0.00     0.011 A 
ATOM     40  C   UNL     1      41.098  21.169  -0.126  1.00  0.00     0.046 A 
ATOM     41  C   UNL     1      39.189  19.989  -1.045  1.00  0.00     0.046 A 
ATOM     42  C   UNL     1      39.719  20.893  -0.113  1.00  0.00     0.115 A 
BRANCH  42  43
ATOM     43  O   UNL     1      38.875  21.509   0.811  1.00  0.00    -0.508 OA
ATOM     44  H   UNL     1      38.554  22.460   0.678  1.00  0.00     0.293 HD
ENDBRANCH  42  43
ENDBRANCH  32  37
ENDBRANCH  23  24
ENDBRANCH   6  23
BRANCH   3  45
ATOM     45  O   UNL     1      49.881  11.481  -4.220  1.00  0.00    -0.387 OA
ATOM     46  H   UNL     1      49.970  11.857  -3.310  1.00  0.00     0.211 HD
ENDBRANCH   3  45
BRANCH   4  47
ATOM     47  C   UNL     1      50.550  14.815  -5.236  1.00  0.00     0.191 C 
BRANCH  47  48
ATOM     48  O   UNL     1      51.626  15.254  -4.446  1.00  0.00    -0.394 OA
ATOM     49  H   UNL     1      51.441  16.206  -4.206  1.00  0.00     0.210 HD
ENDBRANCH  47  48
ENDBRANCH   4  47
TORSDOF 14
ENDMDL
MODEL 5
REMARK VINA RESULT:    -4.226      1.796      4.646
REMARK INTER + INTRA:          -7.731
REMARK INTER:                  -7.368
REMARK INTRA:                  -0.363
REMARK UNBOUND:                -1.034
REMARK SMILES C[C@H]1O[C@@H](O[C@@H]2[C@H](Oc3cc(O)c4c(c3)O[C@@H](c3ccc(O)cc3)CC4=O)O[C@H](CO)[C@@H](O)[C@H]2O)[C@H](O)[C@H](O)[C@H]1O
REMARK SMILES IDX 6 1 34 2 32 3 29 4 28 5 7 6 5 7 4 8 1 9 2 10 40 11 3 12
REMARK SMILES IDX 38 13 36 14 41 15 39 17 37 19 35 21 8 23 9 24 10 25 15 26
REMARK SMILES IDX 11 27 14 28 13 29 16 30 26 31 17 32 27 33 25 34 12 35 18 37
REMARK SMILES IDX 19 38 24 39 20 40 23 41 21 42 22 43 33 45 30 47 31 48
REMARK H PARENT 41 16 39 18 37 20 35 22 12 36 22 44 33 46 31 49
REMARK Flexibility Score: inf
ROOT
ATOM      1  C   UNL     1      41.515  17.314  -2.072  1.00  0.00     0.221 C 
ATOM      2  C   UNL     1      39.995  17.275  -2.407  1.00  0.00     0.181 C 
ATOM      3  C   UNL     1      39.526  16.080  -3.306  1.00  0.00     0.177 C 
ATOM      4  C   UNL     1      40.614  15.617  -4.355  1.00  0.00     0.179 C 
ATOM      5  O   UNL     1      41.897  16.197  -4.161  1.00  0.00    -0.332 OA
ATOM      6  C   UNL     1      42.247  16.174  -2.795  1.00  0.00     0.339 C 
ENDROOT
BRANCH   1   7
ATOM      7  O   UNL     1      42.048  18.550  -2.544  1.00  0.00    -0.337 OA
BRANCH   7   8
ATOM      8  C   UNL     1      42.289  18.614  -3.948  1.00  0.00     0.282 C 
ATOM      9  C   UNL     1      45.281  18.694  -6.084  1.00  0.00     0.041 C 
ATOM     10  C   UNL     1      43.853  19.040  -5.656  1.00  0.00     0.150 C 
ATOM     11  C   UNL     1      43.499  20.535  -5.873  1.00  0.00     0.174 C 
ATOM     12  O   UNL     1      43.679  18.713  -4.285  1.00  0.00    -0.344 OA
ATOM     13  C   UNL     1      42.377  20.978  -4.900  1.00  0.00     0.179 C 
ATOM     14  C   UNL     1      41.452  19.798  -4.533  1.00  0.00     0.202 C 
BRANCH  11  15
ATOM     15  O   UNL     1      44.624  21.382  -5.739  1.00  0.00    -0.388 OA
ATOM     16  H   UNL     1      44.754  21.836  -6.615  1.00  0.00     0.211 HD
ENDBRANCH  11  15
BRANCH  13  17
ATOM     17  O   UNL     1      41.639  22.023  -5.469  1.00  0.00    -0.387 OA
ATOM     18  H   UNL     1      42.021  22.878  -5.126  1.00  0.00     0.211 HD
ENDBRANCH  13  17
BRANCH  14  19
ATOM     19  O   UNL     1      40.749  19.362  -5.671  1.00  0.00    -0.385 OA
ATOM     20  H   UNL     1      40.427  20.172  -6.148  1.00  0.00     0.211 HD
ENDBRANCH  14  19
ENDBRANCH   7   8
ENDBRANCH   1   7
BRANCH   2  21
ATOM     21  O   UNL     1      39.217  17.359  -1.234  1.00  0.00    -0.387 OA
ATOM     22  H   UNL     1      38.506  16.671  -1.310  1.00  0.00     0.211 HD
ENDBRANCH   2  21
BRANCH   6  23
ATOM     23  O   UNL     1      43.662  16.291  -2.622  1.00  0.00    -0.462 OA
BRANCH  23  24
ATOM     24  C   UNL     1      44.594  15.276  -2.825  1.00  0.00     0.130 A 
ATOM     25  C   UNL     1      44.195  13.952  -2.626  1.00  0.00     0.093 A 
ATOM     26  C   UNL     1      45.887  15.545  -3.293  1.00  0.00     0.094 A 
ATOM     27  C   UNL     1      45.063  12.881  -2.905  1.00  0.00     0.133 A 
ATOM     28  C   UNL     1      46.749  14.499  -3.613  1.00  0.00     0.138 A 
ATOM     29  C   UNL     1      46.354  13.155  -3.416  1.00  0.00     0.102 A 
ATOM     30  O   UNL     1      48.004  14.790  -4.152  1.00  0.00    -0.484 OA
ATOM     31  C   UNL     1      47.325  12.091  -3.776  1.00  0.00     0.174 C 
ATOM     32  C   UNL     1      48.693  13.839  -4.969  1.00  0.00     0.211 C 
ATOM     33  O   UNL     1      47.036  10.875  -3.640  1.00  0.00    -0.294 OA
ATOM     34  C   UNL     1      48.699  12.466  -4.276  1.00  0.00     0.131 C 
BRANCH  27  35
ATOM     35  O   UNL     1      44.656  11.568  -2.681  1.00  0.00    -0.507 OA
ATOM     36  H   UNL     1      45.295  10.879  -2.312  1.00  0.00     0.293 HD
ENDBRANCH  27  35
BRANCH  32  37
ATOM     37  C   UNL     1      50.109  14.300  -5.280  1.00  0.00    -0.007 A 
ATOM     38  C   UNL     1      51.117  13.338  -5.473  1.00  0.00     0.011 A 
ATOM     39  C   UNL     1      50.448  15.665  -5.384  1.00  0.00     0.011 A 
ATOM     40  C   UNL     1      52.433  13.721  -5.739  1.00  0.00     0.046 A 
ATOM     41  C   UNL     1      51.765  16.050  -5.656  1.00  0.00     0.046 A 
ATOM     42  C   UNL     1      52.764  15.084  -5.841  1.00  0.00     0.115 A 
BRANCH  42  43
ATOM     43  O   UNL     1      54.070  15.483  -6.125  1.00  0.00    -0.508 OA
ATOM     44  H   UNL     1      54.603  15.050  -6.870  1.00  0.00     0.293 HD
ENDBRANCH  42  43
ENDBRANCH  32  37
ENDBRANCH  23  24
ENDBRANCH   6  23
BRANCH   3  45
ATOM     45  O   UNL     1      39.080  14.989  -2.538  1.00  0.00    -0.387 OA
ATOM     46  H   UNL     1      39.426  14.162  -2.956  1.00  0.00     0.211 HD
ENDBRANCH   3  45
BRANCH   4  47
ATOM     47  C   UNL     1      40.164  15.918  -5.788  1.00  0.00     0.191 C 
BRANCH  47  48
ATOM     48  O   UNL     1      39.183  16.924  -5.766  1.00  0.00    -0.394 OA
ATOM     49  H   UNL     1      38.382  16.538  -5.310  1.00  0.00     0.210 HD
ENDBRANCH  47  48
ENDBRANCH   4  47
TORSDOF 14
ENDMDL
MODEL 6
REMARK VINA RESULT:    -3.521      2.021      9.024
REMARK INTER + INTRA:          -6.613
REMARK INTER:                  -8.472
REMARK INTRA:                   1.858
REMARK UNBOUND:                -1.034
REMARK SMILES C[C@H]1O[C@@H](O[C@@H]2[C@H](Oc3cc(O)c4c(c3)O[C@@H](c3ccc(O)cc3)CC4=O)O[C@H](CO)[C@@H](O)[C@H]2O)[C@H](O)[C@H](O)[C@H]1O
REMARK SMILES IDX 6 1 34 2 32 3 29 4 28 5 7 6 5 7 4 8 1 9 2 10 40 11 3 12
REMARK SMILES IDX 38 13 36 14 41 15 39 17 37 19 35 21 8 23 9 24 10 25 15 26
REMARK SMILES IDX 11 27 14 28 13 29 16 30 26 31 17 32 27 33 25 34 12 35 18 37
REMARK SMILES IDX 19 38 24 39 20 40 23 41 21 42 22 43 33 45 30 47 31 48
REMARK H PARENT 41 16 39 18 37 20 35 22 12 36 22 44 33 46 31 49
REMARK Flexibility Score: inf
ROOT
ATOM      1  C   UNL     1      47.398  11.458  -4.299  1.00  0.00     0.221 C 
ATOM      2  C   UNL     1      48.700  11.992  -3.629  1.00  0.00     0.181 C 
ATOM      3  C   UNL     1      48.671  12.086  -2.065  1.00  0.00     0.177 C 
ATOM      4  C   UNL     1      47.243  12.428  -1.482  1.00  0.00     0.179 C 
ATOM      5  O   UNL     1      46.191  12.370  -2.437  1.00  0.00    -0.332 OA
ATOM      6  C   UNL     1      46.317  11.215  -3.237  1.00  0.00     0.339 C 
ENDROOT
BRANCH   1   7
ATOM      7  O   UNL     1      46.917  12.453  -5.201  1.00  0.00    -0.337 OA
BRANCH   7   8
ATOM      8  C   UNL     1      47.913  13.321  -5.739  1.00  0.00     0.282 C 
ATOM      9  C   UNL     1      51.568  13.183  -6.125  1.00  0.00     0.041 C 
ATOM     10  C   UNL     1      50.207  13.837  -5.871  1.00  0.00     0.150 C 
ATOM     11  C   UNL     1      50.237  14.877  -4.721  1.00  0.00     0.174 C 
ATOM     12  O   UNL     1      49.250  12.832  -5.568  1.00  0.00    -0.344 OA
ATOM     13  C   UNL     1      48.833  15.029  -4.083  1.00  0.00     0.179 C 
ATOM     14  C   UNL     1      47.716  14.738  -5.108  1.00  0.00     0.202 C 
BRANCH  11  15
ATOM     15  O   UNL     1      51.192  14.556  -3.727  1.00  0.00    -0.388 OA
ATOM     16  H   UNL     1      52.092  14.708  -4.125  1.00  0.00     0.211 HD
ENDBRANCH  11  15
BRANCH  13  17
ATOM     17  O   UNL     1      48.689  16.316  -3.551  1.00  0.00    -0.387 OA
ATOM     18  H   UNL     1      49.247  16.930  -4.103  1.00  0.00     0.211 HD
ENDBRANCH  13  17
BRANCH  14  19
ATOM     19  O   UNL     1      47.725  15.712  -6.124  1.00  0.00    -0.385 OA
ATOM     20  H   UNL     1      46.988  16.349  -5.930  1.00  0.00     0.211 HD
ENDBRANCH  14  19
ENDBRANCH   7   8
ENDBRANCH   1   7
BRANCH   2  21
ATOM     21  O   UNL     1      49.827  11.269  -4.071  1.00  0.00    -0.387 OA
ATOM     22  H   UNL     1      49.492  10.550  -4.667  1.00  0.00     0.211 HD
ENDBRANCH   2  21
BRANCH   6  23
ATOM     23  O   UNL     1      45.071  10.875  -3.853  1.00  0.00    -0.462 OA
BRANCH  23  24
ATOM     24  C   UNL     1      43.895  11.617  -3.773  1.00  0.00     0.130 A 
ATOM     25  C   UNL     1      42.675  10.936  -3.748  1.00  0.00     0.093 A 
ATOM     26  C   UNL     1      43.911  13.012  -3.644  1.00  0.00     0.094 A 
ATOM     27  C   UNL     1      41.461  11.626  -3.577  1.00  0.00     0.133 A 
ATOM     28  C   UNL     1      42.724  13.710  -3.434  1.00  0.00     0.138 A 
ATOM     29  C   UNL     1      41.484  13.031  -3.405  1.00  0.00     0.102 A 
ATOM     30  O   UNL     1      42.773  15.091  -3.230  1.00  0.00    -0.484 OA
ATOM     31  C   UNL     1      40.259  13.839  -3.179  1.00  0.00     0.174 C 
ATOM     32  C   UNL     1      41.738  15.765  -2.507  1.00  0.00     0.211 C 
ATOM     33  O   UNL     1      39.126  13.299  -3.128  1.00  0.00    -0.294 OA
ATOM     34  C   UNL     1      40.363  15.339  -3.048  1.00  0.00     0.131 C 
BRANCH  27  35
ATOM     35  O   UNL     1      40.252  10.934  -3.575  1.00  0.00    -0.507 OA
ATOM     36  H   UNL     1      40.187   9.997  -3.204  1.00  0.00     0.293 HD
ENDBRANCH  27  35
BRANCH  32  37
ATOM     37  C   UNL     1      41.909  17.275  -2.576  1.00  0.00    -0.007 A 
ATOM     38  C   UNL     1      43.194  17.828  -2.435  1.00  0.00     0.011 A 
ATOM     39  C   UNL     1      40.817  18.145  -2.779  1.00  0.00     0.011 A 
ATOM     40  C   UNL     1      43.391  19.210  -2.472  1.00  0.00     0.046 A 
ATOM     41  C   UNL     1      41.012  19.530  -2.821  1.00  0.00     0.046 A 
ATOM     42  C   UNL     1      42.297  20.072  -2.674  1.00  0.00     0.115 A 
BRANCH  42  43
ATOM     43  O   UNL     1      42.478  21.453  -2.732  1.00  0.00    -0.508 OA
ATOM     44  H   UNL     1      43.265  21.901  -2.278  1.00  0.00     0.293 HD
ENDBRANCH  42  43
ENDBRANCH  32  37
ENDBRANCH  23  24
ENDBRANCH   6  23
BRANCH   3  45
ATOM     45  O   UNL     1      49.190  10.927  -1.459  1.00  0.00    -0.387 OA
ATOM     46  H   UNL     1      49.182  11.066  -0.481  1.00  0.00     0.211 HD
ENDBRANCH   3  45
BRANCH   4  47
ATOM     47  C   UNL     1      47.227  13.818  -0.837  1.00  0.00     0.191 C 
BRANCH  47  48
ATOM     48  O   UNL     1      46.630  14.733  -1.719  1.00  0.00    -0.394 OA
ATOM     49  H   UNL     1      47.053  15.622  -1.547  1.00  0.00     0.210 HD
ENDBRANCH  47  48
ENDBRANCH   4  47
TORSDOF 14
ENDMDL
MODEL 7
REMARK VINA RESULT:    -3.179      2.272      8.474
REMARK INTER + INTRA:          -6.072
REMARK INTER:                  -6.362
REMARK INTRA:                   0.291
REMARK UNBOUND:                -1.034
REMARK SMILES C[C@H]1O[C@@H](O[C@@H]2[C@H](Oc3cc(O)c4c(c3)O[C@@H](c3ccc(O)cc3)CC4=O)O[C@H](CO)[C@@H](O)[C@H]2O)[C@H](O)[C@H](O)[C@H]1O
REMARK SMILES IDX 6 1 34 2 32 3 29 4 28 5 7 6 5 7 4 8 1 9 2 10 40 11 3 12
REMARK SMILES IDX 38 13 36 14 41 15 39 17 37 19 35 21 8 23 9 24 10 25 15 26
REMARK SMILES IDX 11 27 14 28 13 29 16 30 26 31 17 32 27 33 25 34 12 35 18 37
REMARK SMILES IDX 19 38 24 39 20 40 23 41 21 42 22 43 33 45 30 47 31 48
REMARK H PARENT 41 16 39 18 37 20 35 22 12 36 22 44 33 46 31 49
REMARK Flexibility Score: inf
ROOT
ATOM      1  C   UNL     1      47.291  14.599  -4.786  1.00  0.00     0.221 C 
ATOM      2  C   UNL     1      48.635  14.243  -4.084  1.00  0.00     0.181 C 
ATOM      3  C   UNL     1      49.695  15.394  -4.017  1.00  0.00     0.177 C 
ATOM      4  C   UNL     1      49.647  16.366  -5.263  1.00  0.00     0.179 C 
ATOM      5  O   UNL     1      48.522  16.175  -6.111  1.00  0.00    -0.332 OA
ATOM      6  C   UNL     1      47.348  16.028  -5.345  1.00  0.00     0.339 C 
ENDROOT
BRANCH   1   7
ATOM      7  O   UNL     1      47.104  13.703  -5.880  1.00  0.00    -0.337 OA
BRANCH   7   8
ATOM      8  C   UNL     1      46.516  12.447  -5.546  1.00  0.00     0.282 C 
ATOM      9  C   UNL     1      43.234  10.875  -6.070  1.00  0.00     0.041 C 
ATOM     10  C   UNL     1      44.529  11.203  -5.324  1.00  0.00     0.150 C 
ATOM     11  C   UNL     1      44.310  11.459  -3.809  1.00  0.00     0.174 C 
ATOM     12  O   UNL     1      45.133  12.349  -5.908  1.00  0.00    -0.344 OA
ATOM     13  C   UNL     1      45.429  12.369  -3.240  1.00  0.00     0.179 C 
ATOM     14  C   UNL     1      46.749  12.191  -4.021  1.00  0.00     0.202 C 
BRANCH  11  15
ATOM     15  O   UNL     1      43.040  12.017  -3.533  1.00  0.00    -0.388 OA
ATOM     16  H   UNL     1      42.402  11.259  -3.435  1.00  0.00     0.211 HD
ENDBRANCH  11  15
BRANCH  13  17
ATOM     17  O   UNL     1      45.620  12.094  -1.881  1.00  0.00    -0.387 OA
ATOM     18  H   UNL     1      46.412  11.492  -1.808  1.00  0.00     0.211 HD
ENDBRANCH  13  17
BRANCH  14  19
ATOM     19  O   UNL     1      47.252  10.891  -3.831  1.00  0.00    -0.385 OA
ATOM     20  H   UNL     1      47.185  10.418  -4.702  1.00  0.00     0.211 HD
ENDBRANCH  14  19
ENDBRANCH   7   8
ENDBRANCH   1   7
BRANCH   2  21
ATOM     21  O   UNL     1      48.406  13.693  -2.805  1.00  0.00    -0.387 OA
ATOM     22  H   UNL     1      49.105  14.061  -2.205  1.00  0.00     0.211 HD
ENDBRANCH   2  21
BRANCH   6  23
ATOM     23  O   UNL     1      46.182  16.313  -6.125  1.00  0.00    -0.462 OA
BRANCH  23  24
ATOM     24  C   UNL     1      44.864  16.187  -5.694  1.00  0.00     0.130 A 
ATOM     25  C   UNL     1      44.143  15.051  -6.069  1.00  0.00     0.093 A 
ATOM     26  C   UNL     1      44.275  17.128  -4.839  1.00  0.00     0.094 A 
ATOM     27  C   UNL     1      42.840  14.824  -5.589  1.00  0.00     0.133 A 
ATOM     28  C   UNL     1      43.002  16.905  -4.321  1.00  0.00     0.138 A 
ATOM     29  C   UNL     1      42.264  15.757  -4.693  1.00  0.00     0.102 A 
ATOM     30  O   UNL     1      42.467  17.817  -3.410  1.00  0.00    -0.484 OA
ATOM     31  C   UNL     1      40.912  15.584  -4.103  1.00  0.00     0.174 C 
ATOM     32  C   UNL     1      41.468  17.417  -2.466  1.00  0.00     0.211 C 
ATOM     33  O   UNL     1      40.207  14.581  -4.380  1.00  0.00    -0.294 OA
ATOM     34  C   UNL     1      40.351  16.645  -3.189  1.00  0.00     0.131 C 
BRANCH  27  35
ATOM     35  O   UNL     1      42.128  13.697  -5.989  1.00  0.00    -0.507 OA
ATOM     36  H   UNL     1      42.567  12.967  -6.530  1.00  0.00     0.293 HD
ENDBRANCH  27  35
BRANCH  32  37
ATOM     37  C   UNL     1      40.906  18.614  -1.714  1.00  0.00    -0.007 A 
ATOM     38  C   UNL     1      39.512  18.756  -1.592  1.00  0.00     0.011 A 
ATOM     39  C   UNL     1      41.739  19.591  -1.130  1.00  0.00     0.011 A 
ATOM     40  C   UNL     1      38.957  19.851  -0.928  1.00  0.00     0.046 A 
ATOM     41  C   UNL     1      41.184  20.687  -0.459  1.00  0.00     0.046 A 
ATOM     42  C   UNL     1      39.793  20.823  -0.348  1.00  0.00     0.115 A 
BRANCH  42  43
ATOM     43  O   UNL     1      39.255  21.913   0.335  1.00  0.00    -0.508 OA
ATOM     44  H   UNL     1      38.823  22.683  -0.160  1.00  0.00     0.293 HD
ENDBRANCH  42  43
ENDBRANCH  32  37
ENDBRANCH  23  24
ENDBRANCH   6  23
BRANCH   3  45
ATOM     45  O   UNL     1      49.605  16.122  -2.817  1.00  0.00    -0.387 OA
ATOM     46  H   UNL     1      48.893  15.714  -2.266  1.00  0.00     0.211 HD
ENDBRANCH   3  45
BRANCH   4  47
ATOM     47  C   UNL     1      50.915  16.238  -6.114  1.00  0.00     0.191 C 
BRANCH  47  48
ATOM     48  O   UNL     1      52.043  16.429  -5.298  1.00  0.00    -0.394 OA
ATOM     49  H   UNL     1      52.699  15.715  -5.538  1.00  0.00     0.210 HD
ENDBRANCH  47  48
ENDBRANCH   4  47
TORSDOF 14
ENDMDL
MODEL 8
REMARK VINA RESULT:    -2.906      2.126      2.866
REMARK INTER + INTRA:          -5.639
REMARK INTER:                  -6.778
REMARK INTRA:                   1.139
REMARK UNBOUND:                -1.034
REMARK SMILES C[C@H]1O[C@@H](O[C@@H]2[C@H](Oc3cc(O)c4c(c3)O[C@@H](c3ccc(O)cc3)CC4=O)O[C@H](CO)[C@@H](O)[C@H]2O)[C@H](O)[C@H](O)[C@H]1O
REMARK SMILES IDX 6 1 34 2 32 3 29 4 28 5 7 6 5 7 4 8 1 9 2 10 40 11 3 12
REMARK SMILES IDX 38 13 36 14 41 15 39 17 37 19 35 21 8 23 9 24 10 25 15 26
REMARK SMILES IDX 11 27 14 28 13 29 16 30 26 31 17 32 27 33 25 34 12 35 18 37
REMARK SMILES IDX 19 38 24 39 20 40 23 41 21 42 22 43 33 45 30 47 31 48
REMARK H PARENT 41 16 39 18 37 20 35 22 12 36 22 44 33 46 31 49
REMARK Flexibility Score: inf
ROOT
ATOM      1  C   UNL     1      43.008  19.841  -4.240  1.00  0.00     0.221 C 
ATOM      2  C   UNL     1      42.157  20.339  -3.035  1.00  0.00     0.181 C 
ATOM      3  C   UNL     1      42.573  19.781  -1.631  1.00  0.00     0.177 C 
ATOM      4  C   UNL     1      43.146  18.309  -1.683  1.00  0.00     0.179 C 
ATOM      5  O   UNL     1      43.399  17.827  -2.997  1.00  0.00    -0.332 OA
ATOM      6  C   UNL     1      44.047  18.814  -3.767  1.00  0.00     0.339 C 
ENDROOT
BRANCH   1   7
ATOM      7  O   UNL     1      42.138  19.195  -5.168  1.00  0.00    -0.337 OA
BRANCH   7   8
ATOM      8  C   UNL     1      40.764  19.152  -4.786  1.00  0.00     0.282 C 
ATOM      9  C   UNL     1      38.933  19.244  -1.599  1.00  0.00     0.041 C 
ATOM     10  C   UNL     1      39.217  18.820  -3.042  1.00  0.00     0.150 C 
ATOM     11  C   UNL     1      38.966  17.310  -3.293  1.00  0.00     0.174 C 
ATOM     12  O   UNL     1      40.566  19.129  -3.367  1.00  0.00    -0.344 OA
ATOM     13  C   UNL     1      39.824  16.802  -4.479  1.00  0.00     0.179 C 
ATOM     14  C   UNL     1      40.099  17.929  -5.497  1.00  0.00     0.202 C 
BRANCH  11  15
ATOM     15  O   UNL     1      39.209  16.523  -2.142  1.00  0.00    -0.388 OA
ATOM     16  H   UNL     1      39.752  15.741  -2.432  1.00  0.00     0.211 HD
ENDBRANCH  11  15
BRANCH  13  17
ATOM     17  O   UNL     1      39.184  15.722  -5.101  1.00  0.00    -0.387 OA
ATOM     18  H   UNL     1      39.363  14.912  -4.547  1.00  0.00     0.211 HD
ENDBRANCH  13  17
BRANCH  14  19
ATOM     19  O   UNL     1      38.897  18.334  -6.108  1.00  0.00    -0.385 OA
ATOM     20  H   UNL     1      38.883  19.327  -6.105  1.00  0.00     0.211 HD
ENDBRANCH  14  19
ENDBRANCH   7   8
ENDBRANCH   1   7
BRANCH   2  21
ATOM     21  O   UNL     1      42.084  21.748  -3.017  1.00  0.00    -0.387 OA
ATOM     22  H   UNL     1      43.002  22.084  -3.190  1.00  0.00     0.211 HD
ENDBRANCH   2  21
BRANCH   6  23
ATOM     23  O   UNL     1      44.729  18.233  -4.883  1.00  0.00    -0.462 OA
BRANCH  23  24
ATOM     24  C   UNL     1      45.354  16.989  -4.897  1.00  0.00     0.130 A 
ATOM     25  C   UNL     1      44.562  15.842  -4.812  1.00  0.00     0.093 A 
ATOM     26  C   UNL     1      46.739  16.862  -5.069  1.00  0.00     0.094 A 
ATOM     27  C   UNL     1      45.128  14.558  -4.914  1.00  0.00     0.133 A 
ATOM     28  C   UNL     1      47.315  15.602  -5.212  1.00  0.00     0.138 A 
ATOM     29  C   UNL     1      46.522  14.434  -5.128  1.00  0.00     0.102 A 
ATOM     30  O   UNL     1      48.685  15.503  -5.460  1.00  0.00    -0.484 OA
ATOM     31  C   UNL     1      47.203  13.124  -5.287  1.00  0.00     0.174 C 
ATOM     32  C   UNL     1      49.233  14.360  -6.124  1.00  0.00     0.211 C 
ATOM     33  O   UNL     1      46.558  12.047  -5.238  1.00  0.00    -0.294 OA
ATOM     34  C   UNL     1      48.701  13.075  -5.470  1.00  0.00     0.131 C 
BRANCH  27  35
ATOM     35  O   UNL     1      44.327  13.424  -4.806  1.00  0.00    -0.507 OA
ATOM     36  H   UNL     1      44.693  12.505  -5.005  1.00  0.00     0.293 HD
ENDBRANCH  27  35
BRANCH  32  37
ATOM     37  C   UNL     1      50.754  14.390  -6.112  1.00  0.00    -0.007 A 
ATOM     38  C   UNL     1      51.464  13.176  -6.125  1.00  0.00     0.011 A 
ATOM     39  C   UNL     1      51.481  15.598  -6.091  1.00  0.00     0.011 A 
ATOM     40  C   UNL     1      52.860  13.159  -6.094  1.00  0.00     0.046 A 
ATOM     41  C   UNL     1      52.880  15.584  -6.065  1.00  0.00     0.046 A 
ATOM     42  C   UNL     1      53.579  14.368  -6.071  1.00  0.00     0.115 A 
BRANCH  42  43
ATOM     43  O   UNL     1      54.974  14.370  -6.059  1.00  0.00    -0.508 OA
ATOM     44  H   UNL     1      55.495  13.762  -5.439  1.00  0.00     0.293 HD
ENDBRANCH  42  43
ENDBRANCH  32  37
ENDBRANCH  23  24
ENDBRANCH   6  23
BRANCH   3  45
ATOM     45  O   UNL     1      43.470  20.639  -0.969  1.00  0.00    -0.387 OA
ATOM     46  H   UNL     1      43.185  21.570  -1.142  1.00  0.00     0.211 HD
ENDBRANCH   3  45
BRANCH   4  47
ATOM     47  C   UNL     1      42.204  17.324  -0.984  1.00  0.00     0.191 C 
BRANCH  47  48
ATOM     48  O   UNL     1      42.160  16.124  -1.715  1.00  0.00    -0.394 OA
ATOM     49  H   UNL     1      42.232  15.379  -1.054  1.00  0.00     0.210 HD
ENDBRANCH  47  48
ENDBRANCH   4  47
TORSDOF 14
ENDMDL
