MODEL 1
REMARK VINA RESULT:    -5.964      0.000      0.000
REMARK INTER + INTRA:         -18.955
REMARK INTER:                 -15.029
REMARK INTRA:                  -3.926
REMARK UNBOUND:                -3.926
REMARK SMILES CCCCCCCCCCCCCCCCCCCCCCCCCCCC(=O)[O-]
REMARK SMILES IDX 15 1 16 2 17 3 18 4 19 5 20 6 21 7 22 8 23 9 24 10 25 11
REMARK SMILES IDX 26 12 27 13 28 14 29 15 30 16 14 17 13 18 12 19 11 20 10 21
REMARK SMILES IDX 9 22 8 23 7 24 6 25 5 26 4 27 3 28 2 29 1 30
REMARK H PARENT
REMARK Flexibility Score: inf
ROOT
ATOM      1  C   UNL     1      10.803 -33.337  21.284  1.00  0.00     0.000 C 
ENDROOT
BRANCH   1   2
ATOM      2  C   UNL     1       9.466 -32.587  21.392  1.00  0.00     0.000 C 
BRANCH   2   3
ATOM      3  C   UNL     1       9.382 -31.284  20.574  1.00  0.00     0.000 C 
BRANCH   3   4
ATOM      4  C   UNL     1       8.834 -30.077  21.364  1.00  0.00     0.000 C 
BRANCH   4   5
ATOM      5  C   UNL     1       8.194 -30.478  22.704  1.00  0.00     0.000 C 
BRANCH   5   6
ATOM      6  C   UNL     1       7.808 -29.268  23.570  1.00  0.00     0.000 C 
BRANCH   6   7
ATOM      7  C   UNL     1       7.786 -29.562  25.087  1.00  0.00     0.000 C 
BRANCH   7   8
ATOM      8  C   UNL     1       6.558 -30.376  25.534  1.00  0.00     0.000 C 
BRANCH   8   9
ATOM      9  C   UNL     1       5.273 -30.010  24.755  1.00  0.00     0.000 C 
BRANCH   9  10
ATOM     10  C   UNL     1       4.448 -28.940  25.488  1.00  0.00     0.000 C 
BRANCH  10  11
ATOM     11  C   UNL     1       2.940 -29.033  25.164  1.00  0.00     0.000 C 
BRANCH  11  12
ATOM     12  C   UNL     1       2.625 -28.891  23.663  1.00  0.00     0.006 C 
BRANCH  12  13
ATOM     13  C   UNL     1       1.124 -28.868  23.338  1.00  0.00     0.053 C 
BRANCH  13  14
ATOM     14  C   UNL     1       0.442 -30.150  23.714  1.00  0.00     0.041 C 
ATOM     15  O   UNL     1      -0.056 -30.291  24.863  1.00  0.00    -0.550 OA
ATOM     16  O   UNL     1       0.373 -31.196  22.802  1.00  0.00    -0.550 OA
ENDBRANCH  13  14
ENDBRANCH  12  13
ENDBRANCH  11  12
ENDBRANCH  10  11
ENDBRANCH   9  10
ENDBRANCH   8   9
ENDBRANCH   7   8
ENDBRANCH   6   7
ENDBRANCH   5   6
ENDBRANCH   4   5
ENDBRANCH   3   4
ENDBRANCH   2   3
ENDBRANCH   1   2
BRANCH   1  17
ATOM     17  C   UNL     1      12.017 -32.392  21.295  1.00  0.00     0.000 C 
BRANCH  17  18
ATOM     18  C   UNL     1      13.346 -33.134  21.500  1.00  0.00     0.000 C 
BRANCH  18  19
ATOM     19  C   UNL     1      14.226 -32.485  22.582  1.00  0.00     0.000 C 
BRANCH  19  20
ATOM     20  C   UNL     1      14.225 -33.285  23.894  1.00  0.00     0.000 C 
BRANCH  20  21
ATOM     21  C   UNL     1      13.864 -34.765  23.682  1.00  0.00     0.000 C 
BRANCH  21  22
ATOM     22  C   UNL     1      13.219 -35.404  24.922  1.00  0.00    -0.000 C 
BRANCH  22  23
ATOM     23  C   UNL     1      11.831 -35.998  24.624  1.00  0.00    -0.000 C 
BRANCH  23  24
ATOM     24  C   UNL     1      10.720 -35.370  25.481  1.00  0.00    -0.000 C 
BRANCH  24  25
ATOM     25  C   UNL     1      11.064 -33.943  25.938  1.00  0.00    -0.000 C 
BRANCH  25  26
ATOM     26  C   UNL     1      10.733 -32.880  24.877  1.00  0.00    -0.000 C 
BRANCH  26  27
ATOM     27  C   UNL     1      10.924 -31.430  25.373  1.00  0.00    -0.000 C 
BRANCH  27  28
ATOM     28  C   UNL     1      11.518 -30.518  24.284  1.00  0.00    -0.000 C 
BRANCH  28  29
ATOM     29  C   UNL     1      12.839 -29.865  24.718  1.00  0.00    -0.003 C 
ATOM     30  C   UNL     1      13.483 -29.036  23.606  1.00  0.00     0.004 C 
ENDBRANCH  28  29
ENDBRANCH  27  28
ENDBRANCH  26  27
ENDBRANCH  25  26
ENDBRANCH  24  25
ENDBRANCH  23  24
ENDBRANCH  22  23
ENDBRANCH  21  22
ENDBRANCH  20  21
ENDBRANCH  19  20
ENDBRANCH  18  19
ENDBRANCH  17  18
ENDBRANCH   1  17
TORSDOF 26
ENDMDL
MODEL 2
REMARK VINA RESULT:    -5.654      4.095      9.260
REMARK INTER + INTRA:         -18.173
REMARK INTER:                 -15.373
REMARK INTRA:                  -2.799
REMARK UNBOUND:                -3.926
REMARK SMILES CCCCCCCCCCCCCCCCCCCCCCCCCCCC(=O)[O-]
REMARK SMILES IDX 15 1 16 2 17 3 18 4 19 5 20 6 21 7 22 8 23 9 24 10 25 11
REMARK SMILES IDX 26 12 27 13 28 14 29 15 30 16 14 17 13 18 12 19 11 20 10 21
REMARK SMILES IDX 9 22 8 23 7 24 6 25 5 26 4 27 3 28 2 29 1 30
REMARK H PARENT
REMARK Flexibility Score: inf
ROOT
ATOM      1  C   UNL     1      11.385 -31.641  21.258  1.00  0.00     0.000 C 
ENDROOT
BRANCH   1   2
ATOM      2  C   UNL     1      11.180 -30.158  21.606  1.00  0.00     0.000 C 
BRANCH   2   3
ATOM      3  C   UNL     1      11.911 -29.680  22.874  1.00  0.00     0.000 C 
BRANCH   3   4
ATOM      4  C   UNL     1      11.466 -30.394  24.168  1.00  0.00     0.000 C 
BRANCH   4   5
ATOM      5  C   UNL     1      12.648 -30.895  25.014  1.00  0.00     0.000 C 
BRANCH   5   6
ATOM      6  C   UNL     1      12.225 -31.899  26.098  1.00  0.00     0.000 C 
BRANCH   6   7
ATOM      7  C   UNL     1      10.819 -32.503  25.881  1.00  0.00     0.000 C 
BRANCH   7   8
ATOM      8  C   UNL     1      10.827 -34.037  25.744  1.00  0.00     0.000 C 
BRANCH   8   9
ATOM      9  C   UNL     1      11.473 -34.524  24.425  1.00  0.00     0.000 C 
BRANCH   9  10
ATOM     10  C   UNL     1      12.277 -35.818  24.628  1.00  0.00     0.000 C 
BRANCH  10  11
ATOM     11  C   UNL     1      13.802 -35.584  24.545  1.00  0.00     0.000 C 
BRANCH  11  12
ATOM     12  C   UNL     1      14.183 -34.124  24.235  1.00  0.00     0.006 C 
BRANCH  12  13
ATOM     13  C   UNL     1      13.715 -33.634  22.857  1.00  0.00     0.053 C 
BRANCH  13  14
ATOM     14  C   UNL     1      14.821 -32.979  22.084  1.00  0.00     0.041 C 
ATOM     15  O   UNL     1      15.573 -32.135  22.642  1.00  0.00    -0.550 OA
ATOM     16  O   UNL     1      15.010 -33.287  20.742  1.00  0.00    -0.550 OA
ENDBRANCH  13  14
ENDBRANCH  12  13
ENDBRANCH  11  12
ENDBRANCH  10  11
ENDBRANCH   9  10
ENDBRANCH   8   9
ENDBRANCH   7   8
ENDBRANCH   6   7
ENDBRANCH   5   6
ENDBRANCH   4   5
ENDBRANCH   3   4
ENDBRANCH   2   3
ENDBRANCH   1   2
BRANCH   1  17
ATOM     17  C   UNL     1      10.161 -32.507  21.604  1.00  0.00     0.000 C 
BRANCH  17  18
ATOM     18  C   UNL     1       8.904 -32.098  20.820  1.00  0.00     0.000 C 
BRANCH  18  19
ATOM     19  C   UNL     1       7.787 -31.563  21.733  1.00  0.00     0.000 C 
BRANCH  19  20
ATOM     20  C   UNL     1       7.627 -30.038  21.628  1.00  0.00     0.000 C 
BRANCH  20  21
ATOM     21  C   UNL     1       7.796 -29.332  22.985  1.00  0.00     0.000 C 
BRANCH  21  22
ATOM     22  C   UNL     1       7.534 -30.266  24.177  1.00  0.00    -0.000 C 
BRANCH  22  23
ATOM     23  C   UNL     1       6.033 -30.451  24.461  1.00  0.00    -0.000 C 
BRANCH  23  24
ATOM     24  C   UNL     1       5.472 -29.378  25.409  1.00  0.00    -0.000 C 
BRANCH  24  25
ATOM     25  C   UNL     1       3.941 -29.266  25.331  1.00  0.00    -0.000 C 
BRANCH  25  26
ATOM     26  C   UNL     1       3.392 -29.554  23.923  1.00  0.00    -0.000 C 
BRANCH  26  27
ATOM     27  C   UNL     1       2.307 -28.555  23.465  1.00  0.00    -0.000 C 
BRANCH  27  28
ATOM     28  C   UNL     1       1.022 -29.265  23.004  1.00  0.00    -0.000 C 
BRANCH  28  29
ATOM     29  C   UNL     1       0.624 -30.425  23.930  1.00  0.00    -0.003 C 
ATOM     30  C   UNL     1      -0.114 -29.956  25.185  1.00  0.00     0.004 C 
ENDBRANCH  28  29
ENDBRANCH  27  28
ENDBRANCH  26  27
ENDBRANCH  25  26
ENDBRANCH  24  25
ENDBRANCH  23  24
ENDBRANCH  22  23
ENDBRANCH  21  22
ENDBRANCH  20  21
ENDBRANCH  19  20
ENDBRANCH  18  19
ENDBRANCH  17  18
ENDBRANCH   1  17
TORSDOF 26
ENDMDL
MODEL 3
REMARK VINA RESULT:    -5.487      4.119      8.883
REMARK INTER + INTRA:         -17.753
REMARK INTER:                 -14.172
REMARK INTRA:                  -3.581
REMARK UNBOUND:                -3.926
REMARK SMILES CCCCCCCCCCCCCCCCCCCCCCCCCCCC(=O)[O-]
REMARK SMILES IDX 15 1 16 2 17 3 18 4 19 5 20 6 21 7 22 8 23 9 24 10 25 11
REMARK SMILES IDX 26 12 27 13 28 14 29 15 30 16 14 17 13 18 12 19 11 20 10 21
REMARK SMILES IDX 9 22 8 23 7 24 6 25 5 26 4 27 3 28 2 29 1 30
REMARK H PARENT
REMARK Flexibility Score: inf
ROOT
ATOM      1  C   UNL     1      12.700 -29.689  24.973  1.00  0.00     0.000 C 
ENDROOT
BRANCH   1   2
ATOM      2  C   UNL     1      13.332 -29.410  23.600  1.00  0.00     0.000 C 
BRANCH   2   3
ATOM      3  C   UNL     1      12.331 -29.060  22.482  1.00  0.00     0.000 C 
BRANCH   3   4
ATOM      4  C   UNL     1      10.890 -29.544  22.750  1.00  0.00     0.000 C 
BRANCH   4   5
ATOM      5  C   UNL     1       9.984 -29.443  21.511  1.00  0.00     0.000 C 
BRANCH   5   6
ATOM      6  C   UNL     1       8.867 -30.499  21.500  1.00  0.00     0.000 C 
BRANCH   6   7
ATOM      7  C   UNL     1       9.314 -31.893  21.995  1.00  0.00     0.000 C 
BRANCH   7   8
ATOM      8  C   UNL     1       9.910 -32.775  20.882  1.00  0.00     0.000 C 
BRANCH   8   9
ATOM      9  C   UNL     1      11.456 -32.804  20.895  1.00  0.00     0.000 C 
BRANCH   9  10
ATOM     10  C   UNL     1      12.019 -32.581  22.308  1.00  0.00     0.000 C 
BRANCH  10  11
ATOM     11  C   UNL     1      12.782 -33.814  22.841  1.00  0.00     0.000 C 
BRANCH  11  12
ATOM     12  C   UNL     1      11.914 -34.745  23.709  1.00  0.00     0.006 C 
BRANCH  12  13
ATOM     13  C   UNL     1      12.567 -35.149  25.039  1.00  0.00     0.053 C 
BRANCH  13  14
ATOM     14  C   UNL     1      14.046 -35.358  24.903  1.00  0.00     0.041 C 
ATOM     15  O   UNL     1      14.853 -34.517  25.383  1.00  0.00    -0.550 OA
ATOM     16  O   UNL     1      14.534 -36.473  24.232  1.00  0.00    -0.550 OA
ENDBRANCH  13  14
ENDBRANCH  12  13
ENDBRANCH  11  12
ENDBRANCH  10  11
ENDBRANCH   9  10
ENDBRANCH   8   9
ENDBRANCH   7   8
ENDBRANCH   6   7
ENDBRANCH   5   6
ENDBRANCH   4   5
ENDBRANCH   3   4
ENDBRANCH   2   3
ENDBRANCH   1   2
BRANCH   1  17
ATOM     17  C   UNL     1      13.167 -31.024  25.581  1.00  0.00     0.000 C 
BRANCH  17  18
ATOM     18  C   UNL     1      11.998 -31.901  26.057  1.00  0.00     0.000 C 
BRANCH  18  19
ATOM     19  C   UNL     1      10.653 -31.477  25.441  1.00  0.00     0.000 C 
BRANCH  19  20
ATOM     20  C   UNL     1       9.513 -32.441  25.807  1.00  0.00     0.000 C 
BRANCH  20  21
ATOM     21  C   UNL     1       8.197 -31.708  26.119  1.00  0.00     0.000 C 
BRANCH  21  22
ATOM     22  C   UNL     1       7.379 -31.391  24.857  1.00  0.00    -0.000 C 
BRANCH  22  23
ATOM     23  C   UNL     1       6.975 -29.909  24.774  1.00  0.00    -0.000 C 
BRANCH  23  24
ATOM     24  C   UNL     1       5.704 -29.594  25.580  1.00  0.00    -0.000 C 
BRANCH  24  25
ATOM     25  C   UNL     1       4.480 -29.356  24.680  1.00  0.00    -0.000 C 
BRANCH  25  26
ATOM     26  C   UNL     1       3.312 -28.687  25.425  1.00  0.00    -0.000 C 
BRANCH  26  27
ATOM     27  C   UNL     1       2.173 -28.217  24.493  1.00  0.00    -0.000 C 
BRANCH  27  28
ATOM     28  C   UNL     1       1.793 -29.287  23.456  1.00  0.00    -0.000 C 
BRANCH  28  29
ATOM     29  C   UNL     1       0.707 -30.247  23.968  1.00  0.00    -0.003 C 
ATOM     30  C   UNL     1      -0.030 -30.965  22.837  1.00  0.00     0.004 C 
ENDBRANCH  28  29
ENDBRANCH  27  28
ENDBRANCH  26  27
ENDBRANCH  25  26
ENDBRANCH  24  25
ENDBRANCH  23  24
ENDBRANCH  22  23
ENDBRANCH  21  22
ENDBRANCH  20  21
ENDBRANCH  19  20
ENDBRANCH  18  19
ENDBRANCH  17  18
ENDBRANCH   1  17
TORSDOF 26
ENDMDL
MODEL 4
REMARK VINA RESULT:    -5.387      1.206      2.785
REMARK INTER + INTRA:         -17.502
REMARK INTER:                 -13.722
REMARK INTRA:                  -3.780
REMARK UNBOUND:                -3.926
REMARK SMILES CCCCCCCCCCCCCCCCCCCCCCCCCCCC(=O)[O-]
REMARK SMILES IDX 15 1 16 2 17 3 18 4 19 5 20 6 21 7 22 8 23 9 24 10 25 11
REMARK SMILES IDX 26 12 27 13 28 14 29 15 30 16 14 17 13 18 12 19 11 20 10 21
REMARK SMILES IDX 9 22 8 23 7 24 6 25 5 26 4 27 3 28 2 29 1 30
REMARK H PARENT
REMARK Flexibility Score: inf
ROOT
ATOM      1  C   UNL     1      10.699 -32.815  20.886  1.00  0.00     0.000 C 
ENDROOT
BRANCH   1   2
ATOM      2  C   UNL     1       9.475 -32.640  21.798  1.00  0.00     0.000 C 
BRANCH   2   3
ATOM      3  C   UNL     1       8.138 -32.435  21.060  1.00  0.00     0.000 C 
BRANCH   3   4
ATOM      4  C   UNL     1       7.203 -31.401  21.723  1.00  0.00     0.000 C 
BRANCH   4   5
ATOM      5  C   UNL     1       7.744 -29.963  21.639  1.00  0.00     0.000 C 
BRANCH   5   6
ATOM      6  C   UNL     1       8.031 -29.350  23.019  1.00  0.00     0.000 C 
BRANCH   6   7
ATOM      7  C   UNL     1       7.647 -30.265  24.205  1.00  0.00     0.000 C 
BRANCH   7   8
ATOM      8  C   UNL     1       6.536 -29.678  25.095  1.00  0.00     0.000 C 
BRANCH   8   9
ATOM      9  C   UNL     1       5.148 -29.682  24.412  1.00  0.00     0.000 C 
BRANCH   9  10
ATOM     10  C   UNL     1       4.016 -29.436  25.423  1.00  0.00     0.000 C 
BRANCH  10  11
ATOM     11  C   UNL     1       3.220 -28.148  25.114  1.00  0.00     0.000 C 
BRANCH  11  12
ATOM     12  C   UNL     1       2.016 -28.378  24.182  1.00  0.00     0.006 C 
BRANCH  12  13
ATOM     13  C   UNL     1       1.799 -29.847  23.790  1.00  0.00     0.053 C 
BRANCH  13  14
ATOM     14  C   UNL     1       0.518 -30.049  23.037  1.00  0.00     0.041 C 
ATOM     15  O   UNL     1       0.011 -29.100  22.380  1.00  0.00    -0.550 OA
ATOM     16  O   UNL     1      -0.125 -31.280  23.073  1.00  0.00    -0.550 OA
ENDBRANCH  13  14
ENDBRANCH  12  13
ENDBRANCH  11  12
ENDBRANCH  10  11
ENDBRANCH   9  10
ENDBRANCH   8   9
ENDBRANCH   7   8
ENDBRANCH   6   7
ENDBRANCH   5   6
ENDBRANCH   4   5
ENDBRANCH   3   4
ENDBRANCH   2   3
ENDBRANCH   1   2
BRANCH   1  17
ATOM     17  C   UNL     1      11.776 -31.741  21.124  1.00  0.00     0.000 C 
BRANCH  17  18
ATOM     18  C   UNL     1      11.204 -30.455  21.742  1.00  0.00     0.000 C 
BRANCH  18  19
ATOM     19  C   UNL     1      12.257 -29.664  22.538  1.00  0.00     0.000 C 
BRANCH  19  20
ATOM     20  C   UNL     1      12.324 -30.098  24.011  1.00  0.00     0.000 C 
BRANCH  20  21
ATOM     21  C   UNL     1      10.948 -30.498  24.572  1.00  0.00     0.000 C 
BRANCH  21  22
ATOM     22  C   UNL     1      10.967 -31.863  25.278  1.00  0.00    -0.000 C 
BRANCH  22  23
ATOM     23  C   UNL     1      12.236 -32.070  26.125  1.00  0.00    -0.000 C 
BRANCH  23  24
ATOM     24  C   UNL     1      12.761 -33.514  26.064  1.00  0.00    -0.000 C 
BRANCH  24  25
ATOM     25  C   UNL     1      12.074 -34.344  24.967  1.00  0.00    -0.000 C 
BRANCH  25  26
ATOM     26  C   UNL     1      12.814 -34.284  23.620  1.00  0.00    -0.000 C 
BRANCH  26  27
ATOM     27  C   UNL     1      14.313 -33.934  23.753  1.00  0.00    -0.000 C 
BRANCH  27  28
ATOM     28  C   UNL     1      14.653 -32.581  23.105  1.00  0.00    -0.000 C 
BRANCH  28  29
ATOM     29  C   UNL     1      15.571 -32.727  21.881  1.00  0.00    -0.003 C 
ATOM     30  C   UNL     1      14.876 -33.398  20.696  1.00  0.00     0.004 C 
ENDBRANCH  28  29
ENDBRANCH  27  28
ENDBRANCH  26  27
ENDBRANCH  25  26
ENDBRANCH  24  25
ENDBRANCH  23  24
ENDBRANCH  22  23
ENDBRANCH  21  22
ENDBRANCH  20  21
ENDBRANCH  19  20
ENDBRANCH  18  19
ENDBRANCH  17  18
ENDBRANCH   1  17
TORSDOF 26
ENDMDL
MODEL 5
REMARK VINA RESULT:    -5.313      3.753      8.693
REMARK INTER + INTRA:         -17.314
REMARK INTER:                 -14.976
REMARK INTRA:                  -2.337
REMARK UNBOUND:                -3.926
REMARK SMILES CCCCCCCCCCCCCCCCCCCCCCCCCCCC(=O)[O-]
REMARK SMILES IDX 15 1 16 2 17 3 18 4 19 5 20 6 21 7 22 8 23 9 24 10 25 11
REMARK SMILES IDX 26 12 27 13 28 14 29 15 30 16 14 17 13 18 12 19 11 20 10 21
REMARK SMILES IDX 9 22 8 23 7 24 6 25 5 26 4 27 3 28 2 29 1 30
REMARK H PARENT
REMARK Flexibility Score: inf
ROOT
ATOM      1  C   UNL     1      10.085 -33.456  20.955  1.00  0.00     0.000 C 
ENDROOT
BRANCH   1   2
ATOM      2  C   UNL     1      11.145 -33.102  22.011  1.00  0.00     0.000 C 
BRANCH   2   3
ATOM      3  C   UNL     1      12.327 -32.262  21.492  1.00  0.00     0.000 C 
BRANCH   3   4
ATOM      4  C   UNL     1      13.713 -32.804  21.898  1.00  0.00     0.000 C 
BRANCH   4   5
ATOM      5  C   UNL     1      13.638 -33.881  22.994  1.00  0.00     0.000 C 
BRANCH   5   6
ATOM      6  C   UNL     1      13.381 -33.294  24.392  1.00  0.00     0.000 C 
BRANCH   6   7
ATOM      7  C   UNL     1      13.074 -34.357  25.472  1.00  0.00     0.000 C 
BRANCH   7   8
ATOM      8  C   UNL     1      11.633 -34.285  26.008  1.00  0.00     0.000 C 
BRANCH   8   9
ATOM      9  C   UNL     1      10.755 -33.261  25.251  1.00  0.00     0.000 C 
BRANCH   9  10
ATOM     10  C   UNL     1      10.765 -31.885  25.935  1.00  0.00     0.000 C 
BRANCH  10  11
ATOM     11  C   UNL     1      10.391 -30.741  24.966  1.00  0.00     0.000 C 
BRANCH  11  12
ATOM     12  C   UNL     1      11.611 -30.084  24.292  1.00  0.00     0.006 C 
BRANCH  12  13
ATOM     13  C   UNL     1      12.859 -30.020  25.184  1.00  0.00     0.053 C 
BRANCH  13  14
ATOM     14  C   UNL     1      13.701 -28.812  24.894  1.00  0.00     0.041 C 
ATOM     15  O   UNL     1      14.112 -28.084  25.837  1.00  0.00    -0.550 OA
ATOM     16  O   UNL     1      14.017 -28.481  23.582  1.00  0.00    -0.550 OA
ENDBRANCH  13  14
ENDBRANCH  12  13
ENDBRANCH  11  12
ENDBRANCH  10  11
ENDBRANCH   9  10
ENDBRANCH   8   9
ENDBRANCH   7   8
ENDBRANCH   6   7
ENDBRANCH   5   6
ENDBRANCH   4   5
ENDBRANCH   3   4
ENDBRANCH   2   3
ENDBRANCH   1   2
BRANCH   1  17
ATOM     17  C   UNL     1       9.102 -32.302  20.691  1.00  0.00     0.000 C 
BRANCH  17  18
ATOM     18  C   UNL     1       9.228 -31.167  21.720  1.00  0.00     0.000 C 
BRANCH  18  19
ATOM     19  C   UNL     1       8.235 -30.021  21.460  1.00  0.00     0.000 C 
BRANCH  19  20
ATOM     20  C   UNL     1       7.466 -29.615  22.727  1.00  0.00     0.000 C 
BRANCH  20  21
ATOM     21  C   UNL     1       6.985 -30.830  23.540  1.00  0.00     0.000 C 
BRANCH  21  22
ATOM     22  C   UNL     1       7.197 -30.655  25.052  1.00  0.00    -0.000 C 
BRANCH  22  23
ATOM     23  C   UNL     1       6.197 -29.666  25.676  1.00  0.00    -0.000 C 
BRANCH  23  24
ATOM     24  C   UNL     1       4.791 -29.777  25.063  1.00  0.00    -0.000 C 
BRANCH  24  25
ATOM     25  C   UNL     1       3.710 -29.135  25.948  1.00  0.00    -0.000 C 
BRANCH  25  26
ATOM     26  C   UNL     1       2.413 -28.830  25.179  1.00  0.00    -0.000 C 
BRANCH  26  27
ATOM     27  C   UNL     1       2.494 -29.163  23.673  1.00  0.00    -0.000 C 
BRANCH  27  28
ATOM     28  C   UNL     1       1.345 -28.524  22.874  1.00  0.00    -0.000 C 
BRANCH  28  29
ATOM     29  C   UNL     1       0.153 -29.476  22.691  1.00  0.00    -0.003 C 
ATOM     30  C   UNL     1       0.371 -30.834  23.361  1.00  0.00     0.004 C 
ENDBRANCH  28  29
ENDBRANCH  27  28
ENDBRANCH  26  27
ENDBRANCH  25  26
ENDBRANCH  24  25
ENDBRANCH  23  24
ENDBRANCH  22  23
ENDBRANCH  21  22
ENDBRANCH  20  21
ENDBRANCH  19  20
ENDBRANCH  18  19
ENDBRANCH  17  18
ENDBRANCH   1  17
TORSDOF 26
ENDMDL
MODEL 6
REMARK VINA RESULT:    -5.202      1.497      3.488
REMARK INTER + INTRA:         -17.036
REMARK INTER:                 -14.645
REMARK INTRA:                  -2.391
REMARK UNBOUND:                -3.926
REMARK SMILES CCCCCCCCCCCCCCCCCCCCCCCCCCCC(=O)[O-]
REMARK SMILES IDX 15 1 16 2 17 3 18 4 19 5 20 6 21 7 22 8 23 9 24 10 25 11
REMARK SMILES IDX 26 12 27 13 28 14 29 15 30 16 14 17 13 18 12 19 11 20 10 21
REMARK SMILES IDX 9 22 8 23 7 24 6 25 5 26 4 27 3 28 2 29 1 30
REMARK H PARENT
REMARK Flexibility Score: inf
ROOT
ATOM      1  C   UNL     1       9.501 -30.648  20.783  1.00  0.00     0.000 C 
ENDROOT
BRANCH   1   2
ATOM      2  C   UNL     1       8.113 -30.230  21.297  1.00  0.00     0.000 C 
BRANCH   2   3
ATOM      3  C   UNL     1       7.321 -31.342  22.011  1.00  0.00     0.000 C 
BRANCH   3   4
ATOM      4  C   UNL     1       6.517 -30.857  23.236  1.00  0.00     0.000 C 
BRANCH   4   5
ATOM      5  C   UNL     1       7.264 -29.797  24.063  1.00  0.00     0.000 C 
BRANCH   5   6
ATOM      6  C   UNL     1       7.109 -30.002  25.579  1.00  0.00     0.000 C 
BRANCH   6   7
ATOM      7  C   UNL     1       5.640 -30.089  26.053  1.00  0.00     0.000 C 
BRANCH   7   8
ATOM      8  C   UNL     1       4.846 -28.790  25.824  1.00  0.00     0.000 C 
BRANCH   8   9
ATOM      9  C   UNL     1       3.378 -29.043  25.410  1.00  0.00     0.000 C 
BRANCH   9  10
ATOM     10  C   UNL     1       3.274 -29.549  23.961  1.00  0.00     0.000 C 
BRANCH  10  11
ATOM     11  C   UNL     1       2.259 -28.737  23.125  1.00  0.00     0.000 C 
BRANCH  11  12
ATOM     12  C   UNL     1       1.293 -27.895  23.980  1.00  0.00     0.006 C 
BRANCH  12  13
ATOM     13  C   UNL     1      -0.125 -28.478  24.079  1.00  0.00     0.053 C 
BRANCH  13  14
ATOM     14  C   UNL     1      -0.124 -29.886  24.593  1.00  0.00     0.041 C 
ATOM     15  O   UNL     1      -0.108 -30.109  25.834  1.00  0.00    -0.550 OA
ATOM     16  O   UNL     1      -0.124 -30.954  23.703  1.00  0.00    -0.550 OA
ENDBRANCH  13  14
ENDBRANCH  12  13
ENDBRANCH  11  12
ENDBRANCH  10  11
ENDBRANCH   9  10
ENDBRANCH   8   9
ENDBRANCH   7   8
ENDBRANCH   6   7
ENDBRANCH   5   6
ENDBRANCH   4   5
ENDBRANCH   3   4
ENDBRANCH   2   3
ENDBRANCH   1   2
BRANCH   1  17
ATOM     17  C   UNL     1       9.905 -32.059  21.246  1.00  0.00     0.000 C 
BRANCH  17  18
ATOM     18  C   UNL     1      10.987 -32.039  22.337  1.00  0.00     0.000 C 
BRANCH  18  19
ATOM     19  C   UNL     1      10.743 -30.945  23.391  1.00  0.00     0.000 C 
BRANCH  19  20
ATOM     20  C   UNL     1      10.924 -31.465  24.826  1.00  0.00     0.000 C 
BRANCH  20  21
ATOM     21  C   UNL     1      12.377 -31.351  25.316  1.00  0.00     0.000 C 
BRANCH  21  22
ATOM     22  C   UNL     1      12.952 -32.695  25.791  1.00  0.00    -0.000 C 
BRANCH  22  23
ATOM     23  C   UNL     1      12.114 -33.895  25.315  1.00  0.00    -0.000 C 
BRANCH  23  24
ATOM     24  C   UNL     1      12.664 -34.531  24.028  1.00  0.00    -0.000 C 
BRANCH  24  25
ATOM     25  C   UNL     1      14.138 -34.172  23.778  1.00  0.00    -0.000 C 
BRANCH  25  26
ATOM     26  C   UNL     1      14.308 -32.883  22.954  1.00  0.00    -0.000 C 
BRANCH  26  27
ATOM     27  C   UNL     1      14.406 -33.130  21.433  1.00  0.00    -0.000 C 
BRANCH  27  28
ATOM     28  C   UNL     1      15.864 -33.161  20.943  1.00  0.00    -0.000 C 
BRANCH  28  29
ATOM     29  C   UNL     1      16.000 -33.749  19.530  1.00  0.00    -0.003 C 
ATOM     30  C   UNL     1      16.022 -35.278  19.524  1.00  0.00     0.004 C 
ENDBRANCH  28  29
ENDBRANCH  27  28
ENDBRANCH  26  27
ENDBRANCH  25  26
ENDBRANCH  24  25
ENDBRANCH  23  24
ENDBRANCH  22  23
ENDBRANCH  21  22
ENDBRANCH  20  21
ENDBRANCH  19  20
ENDBRANCH  18  19
ENDBRANCH  17  18
ENDBRANCH   1  17
TORSDOF 26
ENDMDL
MODEL 7
REMARK VINA RESULT:    -5.126      1.287      3.769
REMARK INTER + INTRA:         -16.844
REMARK INTER:                 -13.931
REMARK INTRA:                  -2.913
REMARK UNBOUND:                -3.926
REMARK SMILES CCCCCCCCCCCCCCCCCCCCCCCCCCCC(=O)[O-]
REMARK SMILES IDX 15 1 16 2 17 3 18 4 19 5 20 6 21 7 22 8 23 9 24 10 25 11
REMARK SMILES IDX 26 12 27 13 28 14 29 15 30 16 14 17 13 18 12 19 11 20 10 21
REMARK SMILES IDX 9 22 8 23 7 24 6 25 5 26 4 27 3 28 2 29 1 30
REMARK H PARENT
REMARK Flexibility Score: inf
ROOT
ATOM      1  C   UNL     1      11.124 -35.371  24.807  1.00  0.00     0.000 C 
ENDROOT
BRANCH   1   2
ATOM      2  C   UNL     1      10.495 -34.892  26.125  1.00  0.00     0.000 C 
BRANCH   2   3
ATOM      3  C   UNL     1       9.816 -33.511  26.059  1.00  0.00     0.000 C 
BRANCH   3   4
ATOM      4  C   UNL     1      10.712 -32.395  25.481  1.00  0.00     0.000 C 
BRANCH   4   5
ATOM      5  C   UNL     1       9.960 -31.068  25.277  1.00  0.00     0.000 C 
BRANCH   5   6
ATOM      6  C   UNL     1       8.440 -31.207  25.465  1.00  0.00     0.000 C 
BRANCH   6   7
ATOM      7  C   UNL     1       7.760 -29.941  26.034  1.00  0.00     0.000 C 
BRANCH   7   8
ATOM      8  C   UNL     1       6.244 -29.889  25.768  1.00  0.00     0.000 C 
BRANCH   8   9
ATOM      9  C   UNL     1       5.874 -30.241  24.307  1.00  0.00     0.000 C 
BRANCH   9  10
ATOM     10  C   UNL     1       4.474 -29.726  23.934  1.00  0.00     0.000 C 
BRANCH  10  11
ATOM     11  C   UNL     1       3.859 -28.838  25.038  1.00  0.00     0.000 C 
BRANCH  11  12
ATOM     12  C   UNL     1       2.320 -28.803  25.012  1.00  0.00     0.006 C 
BRANCH  12  13
ATOM     13  C   UNL     1       1.708 -29.166  23.651  1.00  0.00     0.053 C 
BRANCH  13  14
ATOM     14  C   UNL     1       0.706 -30.277  23.758  1.00  0.00     0.041 C 
ATOM     15  O   UNL     1       0.577 -31.109  22.820  1.00  0.00    -0.550 OA
ATOM     16  O   UNL     1      -0.097 -30.384  24.887  1.00  0.00    -0.550 OA
ENDBRANCH  13  14
ENDBRANCH  12  13
ENDBRANCH  11  12
ENDBRANCH  10  11
ENDBRANCH   9  10
ENDBRANCH   8   9
ENDBRANCH   7   8
ENDBRANCH   6   7
ENDBRANCH   5   6
ENDBRANCH   4   5
ENDBRANCH   3   4
ENDBRANCH   2   3
ENDBRANCH   1   2
BRANCH   1  17
ATOM     17  C   UNL     1      11.465 -36.871  24.822  1.00  0.00     0.000 C 
BRANCH  17  18
ATOM     18  C   UNL     1      12.968 -37.137  25.000  1.00  0.00     0.000 C 
BRANCH  18  19
ATOM     19  C   UNL     1      13.841 -36.155  24.199  1.00  0.00     0.000 C 
BRANCH  19  20
ATOM     20  C   UNL     1      14.635 -35.203  25.108  1.00  0.00     0.000 C 
BRANCH  20  21
ATOM     21  C   UNL     1      14.354 -33.722  24.801  1.00  0.00     0.000 C 
BRANCH  21  22
ATOM     22  C   UNL     1      13.260 -33.532  23.738  1.00  0.00    -0.000 C 
BRANCH  22  23
ATOM     23  C   UNL     1      13.497 -32.287  22.866  1.00  0.00    -0.000 C 
BRANCH  23  24
ATOM     24  C   UNL     1      12.938 -32.444  21.442  1.00  0.00    -0.000 C 
BRANCH  24  25
ATOM     25  C   UNL     1      11.685 -31.586  21.203  1.00  0.00    -0.000 C 
BRANCH  25  26
ATOM     26  C   UNL     1      10.390 -32.416  21.179  1.00  0.00    -0.000 C 
BRANCH  26  27
ATOM     27  C   UNL     1       9.183 -31.698  21.823  1.00  0.00    -0.000 C 
BRANCH  27  28
ATOM     28  C   UNL     1       8.301 -30.995  20.776  1.00  0.00    -0.000 C 
BRANCH  28  29
ATOM     29  C   UNL     1       7.787 -29.629  21.259  1.00  0.00    -0.003 C 
ATOM     30  C   UNL     1       8.697 -28.992  22.310  1.00  0.00     0.004 C 
ENDBRANCH  28  29
ENDBRANCH  27  28
ENDBRANCH  26  27
ENDBRANCH  25  26
ENDBRANCH  24  25
ENDBRANCH  23  24
ENDBRANCH  22  23
ENDBRANCH  21  22
ENDBRANCH  20  21
ENDBRANCH  19  20
ENDBRANCH  18  19
ENDBRANCH  17  18
ENDBRANCH   1  17
TORSDOF 26
ENDMDL
MODEL 8
REMARK VINA RESULT:    -4.970      1.221      3.383
REMARK INTER + INTRA:         -16.450
REMARK INTER:                 -14.543
REMARK INTRA:                  -1.907
REMARK UNBOUND:                -3.926
REMARK SMILES CCCCCCCCCCCCCCCCCCCCCCCCCCCC(=O)[O-]
REMARK SMILES IDX 15 1 16 2 17 3 18 4 19 5 20 6 21 7 22 8 23 9 24 10 25 11
REMARK SMILES IDX 26 12 27 13 28 14 29 15 30 16 14 17 13 18 12 19 11 20 10 21
REMARK SMILES IDX 9 22 8 23 7 24 6 25 5 26 4 27 3 28 2 29 1 30
REMARK H PARENT
REMARK Flexibility Score: inf
ROOT
ATOM      1  C   UNL     1       9.899 -33.230  20.668  1.00  0.00     0.000 C 
ENDROOT
BRANCH   1   2
ATOM      2  C   UNL     1       8.937 -32.045  20.848  1.00  0.00     0.000 C 
BRANCH   2   3
ATOM      3  C   UNL     1       7.501 -32.427  21.254  1.00  0.00     0.000 C 
BRANCH   3   4
ATOM      4  C   UNL     1       6.912 -31.557  22.385  1.00  0.00     0.000 C 
BRANCH   4   5
ATOM      5  C   UNL     1       7.517 -30.144  22.431  1.00  0.00     0.000 C 
BRANCH   5   6
ATOM      6  C   UNL     1       7.947 -29.722  23.846  1.00  0.00     0.000 C 
BRANCH   6   7
ATOM      7  C   UNL     1       7.006 -30.228  24.964  1.00  0.00     0.000 C 
BRANCH   7   8
ATOM      8  C   UNL     1       5.515 -30.002  24.657  1.00  0.00     0.000 C 
BRANCH   8   9
ATOM      9  C   UNL     1       4.849 -28.982  25.611  1.00  0.00     0.000 C 
BRANCH   9  10
ATOM     10  C   UNL     1       3.324 -28.931  25.416  1.00  0.00     0.000 C 
BRANCH  10  11
ATOM     11  C   UNL     1       2.880 -29.559  24.076  1.00  0.00     0.000 C 
BRANCH  11  12
ATOM     12  C   UNL     1       2.135 -28.575  23.154  1.00  0.00     0.006 C 
BRANCH  12  13
ATOM     13  C   UNL     1       0.624 -28.830  23.057  1.00  0.00     0.053 C 
BRANCH  13  14
ATOM     14  C   UNL     1       0.248 -30.199  23.540  1.00  0.00     0.041 C 
ATOM     15  O   UNL     1       0.242 -31.175  22.743  1.00  0.00    -0.550 OA
ATOM     16  O   UNL     1      -0.113 -30.394  24.868  1.00  0.00    -0.550 OA
ENDBRANCH  13  14
ENDBRANCH  12  13
ENDBRANCH  11  12
ENDBRANCH  10  11
ENDBRANCH   9  10
ENDBRANCH   8   9
ENDBRANCH   7   8
ENDBRANCH   6   7
ENDBRANCH   5   6
ENDBRANCH   4   5
ENDBRANCH   3   4
ENDBRANCH   2   3
ENDBRANCH   1   2
BRANCH   1  17
ATOM     17  C   UNL     1      11.286 -32.968  21.281  1.00  0.00     0.000 C 
BRANCH  17  18
ATOM     18  C   UNL     1      11.295 -31.763  22.236  1.00  0.00     0.000 C 
BRANCH  18  19
ATOM     19  C   UNL     1      11.969 -30.525  21.619  1.00  0.00     0.000 C 
BRANCH  19  20
ATOM     20  C   UNL     1      12.050 -29.350  22.607  1.00  0.00     0.000 C 
BRANCH  20  21
ATOM     21  C   UNL     1      13.305 -29.411  23.494  1.00  0.00     0.000 C 
BRANCH  21  22
ATOM     22  C   UNL     1      12.984 -29.761  24.956  1.00  0.00    -0.000 C 
BRANCH  22  23
ATOM     23  C   UNL     1      11.575 -30.357  25.122  1.00  0.00    -0.000 C 
BRANCH  23  24
ATOM     24  C   UNL     1      11.569 -31.636  25.976  1.00  0.00    -0.000 C 
BRANCH  24  25
ATOM     25  C   UNL     1      12.783 -32.537  25.695  1.00  0.00    -0.000 C 
BRANCH  25  26
ATOM     26  C   UNL     1      12.448 -34.036  25.787  1.00  0.00    -0.000 C 
BRANCH  26  27
ATOM     27  C   UNL     1      12.055 -34.666  24.432  1.00  0.00    -0.000 C 
BRANCH  27  28
ATOM     28  C   UNL     1      11.755 -36.170  24.557  1.00  0.00    -0.000 C 
BRANCH  28  29
ATOM     29  C   UNL     1      12.989 -36.985  24.977  1.00  0.00    -0.003 C 
ATOM     30  C   UNL     1      14.291 -36.430  24.396  1.00  0.00     0.004 C 
ENDBRANCH  28  29
ENDBRANCH  27  28
ENDBRANCH  26  27
ENDBRANCH  25  26
ENDBRANCH  24  25
ENDBRANCH  23  24
ENDBRANCH  22  23
ENDBRANCH  21  22
ENDBRANCH  20  21
ENDBRANCH  19  20
ENDBRANCH  18  19
ENDBRANCH  17  18
ENDBRANCH   1  17
TORSDOF 26
ENDMDL
MODEL 9
REMARK VINA RESULT:    -4.836      1.151      2.433
REMARK INTER + INTRA:         -16.112
REMARK INTER:                 -12.645
REMARK INTRA:                  -3.468
REMARK UNBOUND:                -3.926
REMARK SMILES CCCCCCCCCCCCCCCCCCCCCCCCCCCC(=O)[O-]
REMARK SMILES IDX 15 1 16 2 17 3 18 4 19 5 20 6 21 7 22 8 23 9 24 10 25 11
REMARK SMILES IDX 26 12 27 13 28 14 29 15 30 16 14 17 13 18 12 19 11 20 10 21
REMARK SMILES IDX 9 22 8 23 7 24 6 25 5 26 4 27 3 28 2 29 1 30
REMARK H PARENT
REMARK Flexibility Score: inf
ROOT
ATOM      1  C   UNL     1      10.301 -31.177  21.032  1.00  0.00     0.000 C 
ENDROOT
BRANCH   1   2
ATOM      2  C   UNL     1       8.810 -31.101  20.667  1.00  0.00     0.000 C 
BRANCH   2   3
ATOM      3  C   UNL     1       8.083 -29.833  21.154  1.00  0.00     0.000 C 
BRANCH   3   4
ATOM      4  C   UNL     1       7.413 -29.981  22.536  1.00  0.00     0.000 C 
BRANCH   4   5
ATOM      5  C   UNL     1       7.982 -29.011  23.585  1.00  0.00     0.000 C 
BRANCH   5   6
ATOM      6  C   UNL     1       8.020 -29.614  24.999  1.00  0.00     0.000 C 
BRANCH   6   7
ATOM      7  C   UNL     1       7.177 -30.899  25.156  1.00  0.00     0.000 C 
BRANCH   7   8
ATOM      8  C   UNL     1       5.953 -30.719  26.073  1.00  0.00     0.000 C 
BRANCH   8   9
ATOM      9  C   UNL     1       5.395 -29.277  26.061  1.00  0.00     0.000 C 
BRANCH   9  10
ATOM     10  C   UNL     1       3.861 -29.260  25.957  1.00  0.00     0.000 C 
BRANCH  10  11
ATOM     11  C   UNL     1       3.359 -28.375  24.794  1.00  0.00     0.000 C 
BRANCH  11  12
ATOM     12  C   UNL     1       1.846 -28.504  24.532  1.00  0.00     0.006 C 
BRANCH  12  13
ATOM     13  C   UNL     1       1.355 -29.953  24.401  1.00  0.00     0.053 C 
BRANCH  13  14
ATOM     14  C   UNL     1       0.585 -30.178  23.134  1.00  0.00     0.041 C 
ATOM     15  O   UNL     1       0.332 -31.350  22.744  1.00  0.00    -0.550 OA
ATOM     16  O   UNL     1       0.162 -29.095  22.374  1.00  0.00    -0.550 OA
ENDBRANCH  13  14
ENDBRANCH  12  13
ENDBRANCH  11  12
ENDBRANCH  10  11
ENDBRANCH   9  10
ENDBRANCH   8   9
ENDBRANCH   7   8
ENDBRANCH   6   7
ENDBRANCH   5   6
ENDBRANCH   4   5
ENDBRANCH   3   4
ENDBRANCH   2   3
ENDBRANCH   1   2
BRANCH   1  17
ATOM     17  C   UNL     1      10.796 -32.623  21.211  1.00  0.00     0.000 C 
BRANCH  17  18
ATOM     18  C   UNL     1      10.348 -33.243  22.543  1.00  0.00     0.000 C 
BRANCH  18  19
ATOM     19  C   UNL     1      10.395 -32.240  23.708  1.00  0.00     0.000 C 
BRANCH  19  20
ATOM     20  C   UNL     1      10.895 -32.881  25.013  1.00  0.00     0.000 C 
BRANCH  20  21
ATOM     21  C   UNL     1      11.484 -34.284  24.792  1.00  0.00     0.000 C 
BRANCH  21  22
ATOM     22  C   UNL     1      12.790 -34.511  25.572  1.00  0.00    -0.000 C 
BRANCH  22  23
ATOM     23  C   UNL     1      14.039 -34.191  24.732  1.00  0.00    -0.000 C 
BRANCH  23  24
ATOM     24  C   UNL     1      13.718 -33.994  23.242  1.00  0.00    -0.000 C 
BRANCH  24  25
ATOM     25  C   UNL     1      14.451 -32.786  22.636  1.00  0.00    -0.000 C 
BRANCH  25  26
ATOM     26  C   UNL     1      14.257 -31.498  23.455  1.00  0.00    -0.000 C 
BRANCH  26  27
ATOM     27  C   UNL     1      13.109 -30.604  22.937  1.00  0.00    -0.000 C 
BRANCH  27  28
ATOM     28  C   UNL     1      12.737 -29.498  23.941  1.00  0.00    -0.000 C 
BRANCH  28  29
ATOM     29  C   UNL     1      13.937 -28.614  24.317  1.00  0.00    -0.003 C 
ATOM     30  C   UNL     1      14.131 -28.491  25.828  1.00  0.00     0.004 C 
ENDBRANCH  28  29
ENDBRANCH  27  28
ENDBRANCH  26  27
ENDBRANCH  25  26
ENDBRANCH  24  25
ENDBRANCH  23  24
ENDBRANCH  22  23
ENDBRANCH  21  22
ENDBRANCH  20  21
ENDBRANCH  19  20
ENDBRANCH  18  19
ENDBRANCH  17  18
ENDBRANCH   1  17
TORSDOF 26
ENDMDL
