MODEL 1
REMARK VINA RESULT:    -5.346      0.000      0.000
REMARK INTER + INTRA:          -8.775
REMARK INTER:                  -8.159
REMARK INTRA:                  -0.617
REMARK UNBOUND:                -0.617
REMARK SMILES CCCCCCCCCCC(=O)[O-]
REMARK SMILES IDX 7 1 8 2 9 3 10 4 11 5 12 6 13 7 6 8 5 9 4 10 3 11 2 12 1 13
REMARK H PARENT
REMARK Flexibility Score: inf
ROOT
ATOM      1  C   UNL     1      25.082   0.103  62.015  1.00  0.00     0.000 C 
ENDROOT
BRANCH   1   2
ATOM      2  C   UNL     1      25.901  -1.143  61.642  1.00  0.00     0.000 C 
BRANCH   2   3
ATOM      3  C   UNL     1      25.215  -2.453  62.065  1.00  0.00     0.006 C 
BRANCH   3   4
ATOM      4  C   UNL     1      25.552  -3.615  61.120  1.00  0.00     0.053 C 
BRANCH   4   5
ATOM      5  C   UNL     1      24.665  -3.630  59.914  1.00  0.00     0.041 C 
ATOM      6  O   UNL     1      23.473  -4.025  60.009  1.00  0.00    -0.550 OA
ATOM      7  O   UNL     1      25.162  -3.235  58.678  1.00  0.00    -0.550 OA
ENDBRANCH   4   5
ENDBRANCH   3   4
ENDBRANCH   2   3
ENDBRANCH   1   2
BRANCH   1   8
ATOM      8  C   UNL     1      25.914   1.153  62.771  1.00  0.00     0.000 C 
BRANCH   8   9
ATOM      9  C   UNL     1      25.531   2.594  62.394  1.00  0.00    -0.000 C 
BRANCH   9  10
ATOM     10  C   UNL     1      24.087   2.711  61.885  1.00  0.00    -0.000 C 
BRANCH  10  11
ATOM     11  C   UNL     1      23.272   3.674  62.762  1.00  0.00    -0.000 C 
BRANCH  11  12
ATOM     12  C   UNL     1      22.218   2.949  63.614  1.00  0.00    -0.003 C 
ATOM     13  C   UNL     1      21.714   1.662  62.962  1.00  0.00     0.004 C 
ENDBRANCH  11  12
ENDBRANCH  10  11
ENDBRANCH   9  10
ENDBRANCH   8   9
ENDBRANCH   1   8
TORSDOF 9
ENDMDL
MODEL 2
REMARK VINA RESULT:    -5.303      3.748      6.404
REMARK INTER + INTRA:          -8.710
REMARK INTER:                  -8.179
REMARK INTRA:                  -0.531
REMARK UNBOUND:                -0.617
REMARK SMILES CCCCCCCCCCC(=O)[O-]
REMARK SMILES IDX 7 1 8 2 9 3 10 4 11 5 12 6 13 7 6 8 5 9 4 10 3 11 2 12 1 13
REMARK H PARENT
REMARK Flexibility Score: inf
ROOT
ATOM      1  C   UNL     1      25.932   1.178  62.678  1.00  0.00     0.000 C 
ENDROOT
BRANCH   1   2
ATOM      2  C   UNL     1      25.308   2.526  62.282  1.00  0.00     0.000 C 
BRANCH   2   3
ATOM      3  C   UNL     1      23.841   2.655  62.727  1.00  0.00     0.006 C 
BRANCH   3   4
ATOM      4  C   UNL     1      23.659   3.708  63.828  1.00  0.00     0.053 C 
BRANCH   4   5
ATOM      5  C   UNL     1      23.897   3.136  65.192  1.00  0.00     0.041 C 
ATOM      6  O   UNL     1      22.935   2.677  65.862  1.00  0.00    -0.550 OA
ATOM      7  O   UNL     1      25.176   3.136  65.734  1.00  0.00    -0.550 OA
ENDBRANCH   4   5
ENDBRANCH   3   4
ENDBRANCH   2   3
ENDBRANCH   1   2
BRANCH   1   8
ATOM      8  C   UNL     1      25.090  -0.022  62.209  1.00  0.00     0.000 C 
BRANCH   8   9
ATOM      9  C   UNL     1      25.940  -1.114  61.537  1.00  0.00    -0.000 C 
BRANCH   9  10
ATOM     10  C   UNL     1      25.473  -2.533  61.891  1.00  0.00    -0.000 C 
BRANCH  10  11
ATOM     11  C   UNL     1      23.961  -2.559  62.167  1.00  0.00    -0.000 C 
BRANCH  11  12
ATOM     12  C   UNL     1      23.201  -3.486  61.206  1.00  0.00    -0.003 C 
ATOM     13  C   UNL     1      24.048  -3.925  60.012  1.00  0.00     0.004 C 
ENDBRANCH  11  12
ENDBRANCH  10  11
ENDBRANCH   9  10
ENDBRANCH   8   9
ENDBRANCH   1   8
TORSDOF 9
ENDMDL
MODEL 3
REMARK VINA RESULT:    -5.253      3.566      6.260
REMARK INTER + INTRA:          -8.634
REMARK INTER:                  -8.094
REMARK INTRA:                  -0.540
REMARK UNBOUND:                -0.617
REMARK SMILES CCCCCCCCCCC(=O)[O-]
REMARK SMILES IDX 7 1 8 2 9 3 10 4 11 5 12 6 13 7 6 8 5 9 4 10 3 11 2 12 1 13
REMARK H PARENT
REMARK Flexibility Score: inf
ROOT
ATOM      1  C   UNL     1      25.061   0.128  62.005  1.00  0.00     0.000 C 
ENDROOT
BRANCH   1   2
ATOM      2  C   UNL     1      25.891   1.189  62.747  1.00  0.00     0.000 C 
BRANCH   2   3
ATOM      3  C   UNL     1      25.521   2.625  62.338  1.00  0.00     0.006 C 
BRANCH   3   4
ATOM      4  C   UNL     1      24.011   2.794  62.120  1.00  0.00     0.053 C 
BRANCH   4   5
ATOM      5  C   UNL     1      23.341   3.413  63.308  1.00  0.00     0.041 C 
ATOM      6  O   UNL     1      22.100   3.283  63.474  1.00  0.00    -0.550 OA
ATOM      7  O   UNL     1      24.083   4.158  64.216  1.00  0.00    -0.550 OA
ENDBRANCH   4   5
ENDBRANCH   3   4
ENDBRANCH   2   3
ENDBRANCH   1   2
BRANCH   1   8
ATOM      8  C   UNL     1      25.888  -1.114  61.631  1.00  0.00     0.000 C 
BRANCH   8   9
ATOM      9  C   UNL     1      25.234  -2.424  62.101  1.00  0.00    -0.000 C 
BRANCH   9  10
ATOM     10  C   UNL     1      25.500  -3.597  61.146  1.00  0.00    -0.000 C 
BRANCH  10  11
ATOM     11  C   UNL     1      24.270  -3.878  60.268  1.00  0.00    -0.000 C 
BRANCH  11  12
ATOM     12  C   UNL     1      22.947  -3.606  61.000  1.00  0.00    -0.003 C 
ATOM     13  C   UNL     1      21.991  -2.731  60.189  1.00  0.00     0.004 C 
ENDBRANCH  11  12
ENDBRANCH  10  11
ENDBRANCH   9  10
ENDBRANCH   8   9
ENDBRANCH   1   8
TORSDOF 9
ENDMDL
MODEL 4
REMARK VINA RESULT:    -5.249      1.143      1.805
REMARK INTER + INTRA:          -8.627
REMARK INTER:                  -8.097
REMARK INTRA:                  -0.530
REMARK UNBOUND:                -0.617
REMARK SMILES CCCCCCCCCCC(=O)[O-]
REMARK SMILES IDX 7 1 8 2 9 3 10 4 11 5 12 6 13 7 6 8 5 9 4 10 3 11 2 12 1 13
REMARK H PARENT
REMARK Flexibility Score: inf
ROOT
ATOM      1  C   UNL     1      25.906  -1.168  61.636  1.00  0.00     0.000 C 
ENDROOT
BRANCH   1   2
ATOM      2  C   UNL     1      25.213  -2.485  62.020  1.00  0.00     0.000 C 
BRANCH   2   3
ATOM      3  C   UNL     1      23.785  -2.591  61.458  1.00  0.00     0.006 C 
BRANCH   3   4
ATOM      4  C   UNL     1      23.668  -3.669  60.372  1.00  0.00     0.053 C 
BRANCH   4   5
ATOM      5  C   UNL     1      23.967  -3.123  59.010  1.00  0.00     0.041 C 
ATOM      6  O   UNL     1      25.155  -3.056  58.600  1.00  0.00    -0.550 OA
ATOM      7  O   UNL     1      22.934  -2.660  58.203  1.00  0.00    -0.550 OA
ENDBRANCH   4   5
ENDBRANCH   3   4
ENDBRANCH   2   3
ENDBRANCH   1   2
BRANCH   1   8
ATOM      8  C   UNL     1      25.070   0.070  62.009  1.00  0.00     0.000 C 
BRANCH   8   9
ATOM      9  C   UNL     1      25.897   1.145  62.733  1.00  0.00    -0.000 C 
BRANCH   9  10
ATOM     10  C   UNL     1      25.519   2.572  62.307  1.00  0.00    -0.000 C 
BRANCH  10  11
ATOM     11  C   UNL     1      24.018   2.671  61.997  1.00  0.00    -0.000 C 
BRANCH  11  12
ATOM     12  C   UNL     1      23.305   3.726  62.858  1.00  0.00    -0.003 C 
ATOM     13  C   UNL     1      23.154   3.295  64.317  1.00  0.00     0.004 C 
ENDBRANCH  11  12
ENDBRANCH  10  11
ENDBRANCH   9  10
ENDBRANCH   8   9
ENDBRANCH   1   8
TORSDOF 9
ENDMDL
MODEL 5
REMARK VINA RESULT:    -5.218      1.454      2.029
REMARK INTER + INTRA:          -8.581
REMARK INTER:                  -7.940
REMARK INTRA:                  -0.641
REMARK UNBOUND:                -0.617
REMARK SMILES CCCCCCCCCCC(=O)[O-]
REMARK SMILES IDX 7 1 8 2 9 3 10 4 11 5 12 6 13 7 6 8 5 9 4 10 3 11 2 12 1 13
REMARK H PARENT
REMARK Flexibility Score: inf
ROOT
ATOM      1  C   UNL     1      25.943   1.152  62.758  1.00  0.00     0.000 C 
ENDROOT
BRANCH   1   2
ATOM      2  C   UNL     1      25.079  -0.033  62.295  1.00  0.00     0.000 C 
BRANCH   2   3
ATOM      3  C   UNL     1      25.896  -1.117  61.572  1.00  0.00     0.006 C 
BRANCH   3   4
ATOM      4  C   UNL     1      25.473  -2.533  61.985  1.00  0.00     0.053 C 
BRANCH   4   5
ATOM      5  C   UNL     1      24.012  -2.768  61.754  1.00  0.00     0.041 C 
ATOM      6  O   UNL     1      23.267  -3.112  62.709  1.00  0.00    -0.550 OA
ATOM      7  O   UNL     1      23.478  -2.636  60.478  1.00  0.00    -0.550 OA
ENDBRANCH   4   5
ENDBRANCH   3   4
ENDBRANCH   2   3
ENDBRANCH   1   2
BRANCH   1   8
ATOM      8  C   UNL     1      25.443   2.499  62.207  1.00  0.00     0.000 C 
BRANCH   8   9
ATOM      9  C   UNL     1      25.438   3.608  63.272  1.00  0.00    -0.000 C 
BRANCH   9  10
ATOM     10  C   UNL     1      25.414   3.055  64.705  1.00  0.00    -0.000 C 
BRANCH  10  11
ATOM     11  C   UNL     1      23.987   3.075  65.276  1.00  0.00    -0.000 C 
BRANCH  11  12
ATOM     12  C   UNL     1      22.978   3.732  64.321  1.00  0.00    -0.003 C 
ATOM     13  C   UNL     1      21.808   2.811  63.972  1.00  0.00     0.004 C 
ENDBRANCH  11  12
ENDBRANCH  10  11
ENDBRANCH   9  10
ENDBRANCH   8   9
ENDBRANCH   1   8
TORSDOF 9
ENDMDL
MODEL 6
REMARK VINA RESULT:    -5.108      3.798      6.232
REMARK INTER + INTRA:          -8.411
REMARK INTER:                  -7.852
REMARK INTRA:                  -0.560
REMARK UNBOUND:                -0.617
REMARK SMILES CCCCCCCCCCC(=O)[O-]
REMARK SMILES IDX 7 1 8 2 9 3 10 4 11 5 12 6 13 7 6 8 5 9 4 10 3 11 2 12 1 13
REMARK H PARENT
REMARK Flexibility Score: inf
ROOT
ATOM      1  C   UNL     1      25.943  -1.192  61.657  1.00  0.00     0.000 C 
ENDROOT
BRANCH   1   2
ATOM      2  C   UNL     1      25.091   0.038  62.011  1.00  0.00     0.000 C 
BRANCH   2   3
ATOM      3  C   UNL     1      25.897   1.129  62.738  1.00  0.00     0.006 C 
BRANCH   3   4
ATOM      4  C   UNL     1      25.437   2.542  62.352  1.00  0.00     0.053 C 
BRANCH   4   5
ATOM      5  C   UNL     1      25.001   3.332  63.546  1.00  0.00     0.041 C 
ATOM      6  O   UNL     1      23.964   4.043  63.491  1.00  0.00    -0.550 OA
ATOM      7  O   UNL     1      25.756   3.307  64.713  1.00  0.00    -0.550 OA
ENDBRANCH   4   5
ENDBRANCH   3   4
ENDBRANCH   2   3
ENDBRANCH   1   2
BRANCH   1   8
ATOM      8  C   UNL     1      25.272  -2.514  62.070  1.00  0.00     0.000 C 
BRANCH   8   9
ATOM      9  C   UNL     1      23.738  -2.407  62.121  1.00  0.00    -0.000 C 
BRANCH   9  10
ATOM     10  C   UNL     1      23.041  -3.442  61.226  1.00  0.00    -0.000 C 
BRANCH  10  11
ATOM     11  C   UNL     1      21.946  -2.781  60.374  1.00  0.00    -0.000 C 
BRANCH  11  12
ATOM     12  C   UNL     1      22.401  -2.517  58.930  1.00  0.00    -0.003 C 
ATOM     13  C   UNL     1      23.804  -3.051  58.644  1.00  0.00     0.004 C 
ENDBRANCH  11  12
ENDBRANCH  10  11
ENDBRANCH   9  10
ENDBRANCH   8   9
ENDBRANCH   1   8
TORSDOF 9
ENDMDL
MODEL 7
REMARK VINA RESULT:    -5.105      3.656      6.121
REMARK INTER + INTRA:          -8.408
REMARK INTER:                  -7.725
REMARK INTRA:                  -0.682
REMARK UNBOUND:                -0.617
REMARK SMILES CCCCCCCCCCC(=O)[O-]
REMARK SMILES IDX 7 1 8 2 9 3 10 4 11 5 12 6 13 7 6 8 5 9 4 10 3 11 2 12 1 13
REMARK H PARENT
REMARK Flexibility Score: inf
ROOT
ATOM      1  C   UNL     1      25.862  -1.713  61.612  1.00  0.00     0.000 C 
ENDROOT
BRANCH   1   2
ATOM      2  C   UNL     1      25.034  -0.477  62.000  1.00  0.00     0.000 C 
BRANCH   2   3
ATOM      3  C   UNL     1      25.910   0.709  62.440  1.00  0.00     0.006 C 
BRANCH   3   4
ATOM      4  C   UNL     1      25.149   2.041  62.387  1.00  0.00     0.053 C 
BRANCH   4   5
ATOM      5  C   UNL     1      25.336   2.840  63.640  1.00  0.00     0.041 C 
ATOM      6  O   UNL     1      26.031   2.383  64.585  1.00  0.00    -0.550 OA
ATOM      7  O   UNL     1      24.720   4.078  63.775  1.00  0.00    -0.550 OA
ENDBRANCH   4   5
ENDBRANCH   3   4
ENDBRANCH   2   3
ENDBRANCH   1   2
BRANCH   1   8
ATOM      8  C   UNL     1      26.227  -1.733  60.117  1.00  0.00     0.000 C 
BRANCH   8   9
ATOM      9  C   UNL     1      25.790  -3.033  59.419  1.00  0.00    -0.000 C 
BRANCH   9  10
ATOM     10  C   UNL     1      24.281  -3.078  59.140  1.00  0.00    -0.000 C 
BRANCH  10  11
ATOM     11  C   UNL     1      23.565  -3.995  60.145  1.00  0.00    -0.000 C 
BRANCH  11  12
ATOM     12  C   UNL     1      22.440  -3.274  60.904  1.00  0.00    -0.003 C 
ATOM     13  C   UNL     1      21.706  -2.248  60.041  1.00  0.00     0.004 C 
ENDBRANCH  11  12
ENDBRANCH  10  11
ENDBRANCH   9  10
ENDBRANCH   8   9
ENDBRANCH   1   8
TORSDOF 9
ENDMDL
MODEL 8
REMARK VINA RESULT:    -5.049      3.277      6.416
REMARK INTER + INTRA:          -8.322
REMARK INTER:                  -7.841
REMARK INTRA:                  -0.480
REMARK UNBOUND:                -0.617
REMARK SMILES CCCCCCCCCCC(=O)[O-]
REMARK SMILES IDX 7 1 8 2 9 3 10 4 11 5 12 6 13 7 6 8 5 9 4 10 3 11 2 12 1 13
REMARK H PARENT
REMARK Flexibility Score: inf
ROOT
ATOM      1  C   UNL     1      25.865   1.213  62.394  1.00  0.00     0.000 C 
ENDROOT
BRANCH   1   2
ATOM      2  C   UNL     1      25.711   1.933  63.744  1.00  0.00     0.000 C 
BRANCH   2   3
ATOM      3  C   UNL     1      25.500   3.449  63.587  1.00  0.00     0.006 C 
BRANCH   3   4
ATOM      4  C   UNL     1      24.146   3.907  64.146  1.00  0.00     0.053 C 
BRANCH   4   5
ATOM      5  C   UNL     1      23.016   3.554  63.229  1.00  0.00     0.041 C 
ATOM      6  O   UNL     1      21.892   3.241  63.701  1.00  0.00    -0.550 OA
ATOM      7  O   UNL     1      23.212   3.542  61.854  1.00  0.00    -0.550 OA
ENDBRANCH   4   5
ENDBRANCH   3   4
ENDBRANCH   2   3
ENDBRANCH   1   2
BRANCH   1   8
ATOM      8  C   UNL     1      25.086  -0.114  62.341  1.00  0.00     0.000 C 
BRANCH   8   9
ATOM      9  C   UNL     1      25.846  -1.215  61.583  1.00  0.00    -0.000 C 
BRANCH   9  10
ATOM     10  C   UNL     1      25.447  -2.629  62.032  1.00  0.00    -0.000 C 
BRANCH  10  11
ATOM     11  C   UNL     1      25.488  -3.611  60.851  1.00  0.00    -0.000 C 
BRANCH  11  12
ATOM     12  C   UNL     1      25.597  -2.898  59.494  1.00  0.00    -0.003 C 
ATOM     13  C   UNL     1      24.340  -3.059  58.638  1.00  0.00     0.004 C 
ENDBRANCH  11  12
ENDBRANCH  10  11
ENDBRANCH   9  10
ENDBRANCH   8   9
ENDBRANCH   1   8
TORSDOF 9
ENDMDL
MODEL 9
REMARK VINA RESULT:    -4.856      3.595      6.305
REMARK INTER + INTRA:          -8.028
REMARK INTER:                  -7.393
REMARK INTRA:                  -0.635
REMARK UNBOUND:                -0.617
REMARK SMILES CCCCCCCCCCC(=O)[O-]
REMARK SMILES IDX 7 1 8 2 9 3 10 4 11 5 12 6 13 7 6 8 5 9 4 10 3 11 2 12 1 13
REMARK H PARENT
REMARK Flexibility Score: inf
ROOT
ATOM      1  C   UNL     1      24.173   0.108  62.327  1.00  0.00     0.000 C 
ENDROOT
BRANCH   1   2
ATOM      2  C   UNL     1      23.952   1.628  62.392  1.00  0.00     0.000 C 
BRANCH   2   3
ATOM      3  C   UNL     1      25.247   2.426  62.165  1.00  0.00     0.006 C 
BRANCH   3   4
ATOM      4  C   UNL     1      25.489   3.464  63.269  1.00  0.00     0.053 C 
BRANCH   4   5
ATOM      5  C   UNL     1      25.625   2.823  64.616  1.00  0.00     0.041 C 
ATOM      6  O   UNL     1      24.745   3.009  65.497  1.00  0.00    -0.550 OA
ATOM      7  O   UNL     1      26.739   2.045  64.909  1.00  0.00    -0.550 OA
ENDBRANCH   4   5
ENDBRANCH   3   4
ENDBRANCH   2   3
ENDBRANCH   1   2
BRANCH   1   8
ATOM      8  C   UNL     1      25.632  -0.264  62.009  1.00  0.00     0.000 C 
BRANCH   8   9
ATOM      9  C   UNL     1      25.793  -1.741  61.613  1.00  0.00    -0.000 C 
BRANCH   9  10
ATOM     10  C   UNL     1      26.205  -1.920  60.144  1.00  0.00    -0.000 C 
BRANCH  10  11
ATOM     11  C   UNL     1      25.553  -3.174  59.542  1.00  0.00    -0.000 C 
BRANCH  11  12
ATOM     12  C   UNL     1      24.070  -2.962  59.198  1.00  0.00    -0.003 C 
ATOM     13  C   UNL     1      23.131  -3.705  60.149  1.00  0.00     0.004 C 
ENDBRANCH  11  12
ENDBRANCH  10  11
ENDBRANCH   9  10
ENDBRANCH   8   9
ENDBRANCH   1   8
TORSDOF 9
ENDMDL
