MODEL 1
REMARK VINA RESULT:    -3.072      0.000      0.000
REMARK INTER + INTRA:          -4.010
REMARK INTER:                  -3.611
REMARK INTRA:                  -0.398
REMARK UNBOUND:                -0.398
REMARK SMILES [NH3+][C@@H](CO)C(=O)[O-]
REMARK SMILES IDX 3 1 2 2 1 3 5 7 6 8 7 9 4 10
REMARK H PARENT 1 4 1 5 1 6 4 11
REMARK Flexibility Score: inf
ROOT
ATOM      1  C   UNL     1     115.464 125.436 144.283  1.00  0.00     0.227 C 
ENDROOT
BRANCH   1   2
ATOM      2  C   UNL     1     114.769 124.076 144.094  1.00  0.00     0.253 C 
BRANCH   2   3
ATOM      3  N   UNL     1     114.028 123.689 145.303  1.00  0.00    -0.348 N 
ATOM      4  H   UNL     1     113.296 122.982 145.062  1.00  0.00     0.345 HD
ATOM      5  H   UNL     1     113.570 124.521 145.739  1.00  0.00     0.345 HD
ATOM      6  H   UNL     1     114.682 123.255 145.995  1.00  0.00     0.345 HD
ENDBRANCH   2   3
BRANCH   2   7
ATOM      7  C   UNL     1     115.786 123.023 143.747  1.00  0.00     0.102 C 
ATOM      8  O   UNL     1     116.103 122.820 142.546  1.00  0.00    -0.544 OA
ATOM      9  O   UNL     1     116.394 122.277 144.750  1.00  0.00    -0.544 OA
ENDBRANCH   2   7
ENDBRANCH   1   2
BRANCH   1  10
ATOM     10  O   UNL     1     116.856 125.278 144.360  1.00  0.00    -0.390 OA
ATOM     11  H   UNL     1     117.237 125.732 143.563  1.00  0.00     0.210 HD
ENDBRANCH   1  10
TORSDOF 4
ENDMDL
MODEL 2
REMARK VINA RESULT:    -3.071      2.579      3.373
REMARK INTER + INTRA:          -4.007
REMARK INTER:                  -3.614
REMARK INTRA:                  -0.394
REMARK UNBOUND:                -0.398
REMARK SMILES [NH3+][C@@H](CO)C(=O)[O-]
REMARK SMILES IDX 3 1 2 2 1 3 5 7 6 8 7 9 4 10
REMARK H PARENT 1 4 1 5 1 6 4 11
REMARK Flexibility Score: inf
ROOT
ATOM      1  C   UNL     1     114.955 123.520 144.981  1.00  0.00     0.227 C 
ENDROOT
BRANCH   1   2
ATOM      2  C   UNL     1     115.411 124.566 143.947  1.00  0.00     0.253 C 
BRANCH   2   3
ATOM      3  N   UNL     1     116.601 125.288 144.417  1.00  0.00    -0.348 N 
ATOM      4  H   UNL     1     117.455 124.702 144.272  1.00  0.00     0.345 HD
ATOM      5  H   UNL     1     116.515 125.524 145.432  1.00  0.00     0.345 HD
ATOM      6  H   UNL     1     116.718 126.171 143.868  1.00  0.00     0.345 HD
ENDBRANCH   2   3
BRANCH   2   7
ATOM      7  C   UNL     1     114.292 125.532 143.666  1.00  0.00     0.102 C 
ATOM      8  O   UNL     1     114.298 126.677 144.188  1.00  0.00    -0.544 OA
ATOM      9  O   UNL     1     113.252 125.172 142.818  1.00  0.00    -0.544 OA
ENDBRANCH   2   7
ENDBRANCH   1   2
BRANCH   1  10
ATOM     10  O   UNL     1     113.713 123.870 145.530  1.00  0.00    -0.390 OA
ATOM     11  H   UNL     1     113.437 124.717 145.090  1.00  0.00     0.210 HD
ENDBRANCH   1  10
TORSDOF 4
ENDMDL
MODEL 3
REMARK VINA RESULT:    -3.069      2.126      3.058
REMARK INTER + INTRA:          -4.006
REMARK INTER:                  -3.780
REMARK INTRA:                  -0.226
REMARK UNBOUND:                -0.398
REMARK SMILES [NH3+][C@@H](CO)C(=O)[O-]
REMARK SMILES IDX 3 1 2 2 1 3 5 7 6 8 7 9 4 10
REMARK H PARENT 1 4 1 5 1 6 4 11
REMARK Flexibility Score: inf
ROOT
ATOM      1  C   UNL     1     116.014 122.902 143.814  1.00  0.00     0.227 C 
ENDROOT
BRANCH   1   2
ATOM      2  C   UNL     1     115.654 124.399 143.815  1.00  0.00     0.253 C 
BRANCH   2   3
ATOM      3  N   UNL     1     116.754 125.206 144.361  1.00  0.00    -0.348 N 
ATOM      4  H   UNL     1     117.314 125.619 143.580  1.00  0.00     0.345 HD
ATOM      5  H   UNL     1     117.381 124.622 144.960  1.00  0.00     0.345 HD
ATOM      6  H   UNL     1     116.366 125.992 144.933  1.00  0.00     0.345 HD
ENDBRANCH   2   3
BRANCH   2   7
ATOM      7  C   UNL     1     114.398 124.624 144.612  1.00  0.00     0.102 C 
ATOM      8  O   UNL     1     114.052 123.798 145.497  1.00  0.00    -0.544 OA
ATOM      9  O   UNL     1     113.618 125.752 144.388  1.00  0.00    -0.544 OA
ENDBRANCH   2   7
ENDBRANCH   1   2
BRANCH   1  10
ATOM     10  O   UNL     1     116.667 122.545 145.002  1.00  0.00    -0.390 OA
ATOM     11  H   UNL     1     116.954 123.392 145.433  1.00  0.00     0.210 HD
ENDBRANCH   1  10
TORSDOF 4
ENDMDL
MODEL 4
REMARK VINA RESULT:    -3.060      2.065      2.523
REMARK INTER + INTRA:          -3.994
REMARK INTER:                  -3.594
REMARK INTRA:                  -0.400
REMARK UNBOUND:                -0.398
REMARK SMILES [NH3+][C@@H](CO)C(=O)[O-]
REMARK SMILES IDX 3 1 2 2 1 3 5 7 6 8 7 9 4 10
REMARK H PARENT 1 4 1 5 1 6 4 11
REMARK Flexibility Score: inf
ROOT
ATOM      1  C   UNL     1     114.258 123.767 144.995  1.00  0.00     0.227 C 
ENDROOT
BRANCH   1   2
ATOM      2  C   UNL     1     115.697 123.354 144.632  1.00  0.00     0.253 C 
BRANCH   2   3
ATOM      3  N   UNL     1     116.513 124.527 144.293  1.00  0.00    -0.348 N 
ATOM      4  H   UNL     1     117.096 124.806 145.116  1.00  0.00     0.345 HD
ATOM      5  H   UNL     1     115.908 125.333 144.014  1.00  0.00     0.345 HD
ATOM      6  H   UNL     1     117.159 124.293 143.504  1.00  0.00     0.345 HD
ENDBRANCH   2   3
BRANCH   2   7
ATOM      7  C   UNL     1     115.678 122.383 143.483  1.00  0.00     0.102 C 
ATOM      8  O   UNL     1     115.819 121.150 143.693  1.00  0.00    -0.544 OA
ATOM      9  O   UNL     1     115.488 122.838 142.183  1.00  0.00    -0.544 OA
ENDBRANCH   2   7
ENDBRANCH   1   2
BRANCH   1  10
ATOM     10  O   UNL     1     113.325 122.959 144.329  1.00  0.00    -0.390 OA
ATOM     11  H   UNL     1     112.438 123.167 144.725  1.00  0.00     0.210 HD
ENDBRANCH   1  10
TORSDOF 4
ENDMDL
MODEL 5
REMARK VINA RESULT:    -3.025      1.254      2.570
REMARK INTER + INTRA:          -3.953
REMARK INTER:                  -3.727
REMARK INTRA:                  -0.227
REMARK UNBOUND:                -0.398
REMARK SMILES [NH3+][C@@H](CO)C(=O)[O-]
REMARK SMILES IDX 3 1 2 2 1 3 5 7 6 8 7 9 4 10
REMARK H PARENT 1 4 1 5 1 6 4 11
REMARK Flexibility Score: inf
ROOT
ATOM      1  C   UNL     1     115.879 122.873 144.061  1.00  0.00     0.227 C 
ENDROOT
BRANCH   1   2
ATOM      2  C   UNL     1     114.999 123.871 144.837  1.00  0.00     0.253 C 
BRANCH   2   3
ATOM      3  N   UNL     1     113.582 123.494 144.763  1.00  0.00    -0.348 N 
ATOM      4  H   UNL     1     113.387 123.013 143.855  1.00  0.00     0.345 HD
ATOM      5  H   UNL     1     112.969 124.338 144.841  1.00  0.00     0.345 HD
ATOM      6  H   UNL     1     113.351 122.830 145.538  1.00  0.00     0.345 HD
ENDBRANCH   2   3
BRANCH   2   7
ATOM      7  C   UNL     1     115.199 125.260 144.295  1.00  0.00     0.102 C 
ATOM      8  O   UNL     1     114.225 125.900 143.818  1.00  0.00    -0.544 OA
ATOM      9  O   UNL     1     116.455 125.853 144.330  1.00  0.00    -0.544 OA
ENDBRANCH   2   7
ENDBRANCH   1   2
BRANCH   1  10
ATOM     10  O   UNL     1     117.236 123.073 144.353  1.00  0.00    -0.390 OA
ATOM     11  H   UNL     1     117.728 122.312 143.947  1.00  0.00     0.210 HD
ENDBRANCH   1  10
TORSDOF 4
ENDMDL
MODEL 6
REMARK VINA RESULT:    -2.913      2.056      2.460
REMARK INTER + INTRA:          -3.822
REMARK INTER:                  -3.586
REMARK INTRA:                  -0.236
REMARK UNBOUND:                -0.398
REMARK SMILES [NH3+][C@@H](CO)C(=O)[O-]
REMARK SMILES IDX 3 1 2 2 1 3 5 7 6 8 7 9 4 10
REMARK H PARENT 1 4 1 5 1 6 4 11
REMARK Flexibility Score: inf
ROOT
ATOM      1  C   UNL     1     115.295 125.328 142.447  1.00  0.00     0.227 C 
ENDROOT
BRANCH   1   2
ATOM      2  C   UNL     1     115.401 125.399 143.982  1.00  0.00     0.253 C 
BRANCH   2   3
ATOM      3  N   UNL     1     116.777 125.692 144.404  1.00  0.00    -0.348 N 
ATOM      4  H   UNL     1     117.401 125.753 143.567  1.00  0.00     0.345 HD
ATOM      5  H   UNL     1     117.136 124.948 145.044  1.00  0.00     0.345 HD
ATOM      6  H   UNL     1     116.807 126.614 144.897  1.00  0.00     0.345 HD
ENDBRANCH   2   3
BRANCH   2   7
ATOM      7  C   UNL     1     114.935 124.103 144.589  1.00  0.00     0.102 C 
ATOM      8  O   UNL     1     113.804 124.031 145.137  1.00  0.00    -0.544 OA
ATOM      9  O   UNL     1     115.743 122.973 144.534  1.00  0.00    -0.544 OA
ENDBRANCH   2   7
ENDBRANCH   1   2
BRANCH   1  10
ATOM     10  O   UNL     1     116.099 124.298 141.939  1.00  0.00    -0.390 OA
ATOM     11  H   UNL     1     115.516 123.498 141.855  1.00  0.00     0.210 HD
ENDBRANCH   1  10
TORSDOF 4
ENDMDL
MODEL 7
REMARK VINA RESULT:    -2.872     13.716     14.512
REMARK INTER + INTRA:          -3.774
REMARK INTER:                  -3.553
REMARK INTRA:                  -0.221
REMARK UNBOUND:                -0.398
REMARK SMILES [NH3+][C@@H](CO)C(=O)[O-]
REMARK SMILES IDX 3 1 2 2 1 3 5 7 6 8 7 9 4 10
REMARK H PARENT 1 4 1 5 1 6 4 11
REMARK Flexibility Score: inf
ROOT
ATOM      1  C   UNL     1     127.039 114.143 140.629  1.00  0.00     0.227 C 
ENDROOT
BRANCH   1   2
ATOM      2  C   UNL     1     127.514 114.995 141.820  1.00  0.00     0.253 C 
BRANCH   2   3
ATOM      3  N   UNL     1     127.509 114.213 143.064  1.00  0.00    -0.348 N 
ATOM      4  H   UNL     1     127.244 114.826 143.869  1.00  0.00     0.345 HD
ATOM      5  H   UNL     1     128.452 113.798 143.245  1.00  0.00     0.345 HD
ATOM      6  H   UNL     1     126.803 113.444 142.996  1.00  0.00     0.345 HD
ENDBRANCH   2   3
BRANCH   2   7
ATOM      7  C   UNL     1     126.637 116.209 141.965  1.00  0.00     0.102 C 
ATOM      8  O   UNL     1     127.062 117.342 141.616  1.00  0.00    -0.544 OA
ATOM      9  O   UNL     1     125.348 116.087 142.469  1.00  0.00    -0.544 OA
ENDBRANCH   2   7
ENDBRANCH   1   2
BRANCH   1  10
ATOM     10  O   UNL     1     125.823 113.510 140.922  1.00  0.00    -0.390 OA
ATOM     11  H   UNL     1     125.963 113.003 141.765  1.00  0.00     0.210 HD
ENDBRANCH   1  10
TORSDOF 4
ENDMDL
MODEL 8
REMARK VINA RESULT:    -2.858      2.023      2.343
REMARK INTER + INTRA:          -3.758
REMARK INTER:                  -3.531
REMARK INTRA:                  -0.226
REMARK UNBOUND:                -0.398
REMARK SMILES [NH3+][C@@H](CO)C(=O)[O-]
REMARK SMILES IDX 3 1 2 2 1 3 5 7 6 8 7 9 4 10
REMARK H PARENT 1 4 1 5 1 6 4 11
REMARK Flexibility Score: inf
ROOT
ATOM      1  C   UNL     1     115.836 126.141 144.114  1.00  0.00     0.227 C 
ENDROOT
BRANCH   1   2
ATOM      2  C   UNL     1     115.624 124.628 143.927  1.00  0.00     0.253 C 
BRANCH   2   3
ATOM      3  N   UNL     1     116.819 123.873 144.330  1.00  0.00    -0.348 N 
ATOM      4  H   UNL     1     117.542 123.921 143.575  1.00  0.00     0.345 HD
ATOM      5  H   UNL     1     116.580 122.871 144.513  1.00  0.00     0.345 HD
ATOM      6  H   UNL     1     117.227 124.293 145.197  1.00  0.00     0.345 HD
ENDBRANCH   2   3
BRANCH   2   7
ATOM      7  C   UNL     1     115.280 124.331 142.493  1.00  0.00     0.102 C 
ATOM      8  O   UNL     1     114.601 123.312 142.202  1.00  0.00    -0.544 OA
ATOM      9  O   UNL     1     115.695 125.188 141.480  1.00  0.00    -0.544 OA
ENDBRANCH   2   7
ENDBRANCH   1   2
BRANCH   1  10
ATOM     10  O   UNL     1     117.099 126.529 143.644  1.00  0.00    -0.390 OA
ATOM     11  H   UNL     1     117.760 125.927 144.076  1.00  0.00     0.210 HD
ENDBRANCH   1  10
TORSDOF 4
ENDMDL
MODEL 9
REMARK VINA RESULT:    -2.841      3.247      3.847
REMARK INTER + INTRA:          -3.738
REMARK INTER:                  -3.338
REMARK INTRA:                  -0.399
REMARK UNBOUND:                -0.398
REMARK SMILES [NH3+][C@@H](CO)C(=O)[O-]
REMARK SMILES IDX 3 1 2 2 1 3 5 7 6 8 7 9 4 10
REMARK H PARENT 1 4 1 5 1 6 4 11
REMARK Flexibility Score: inf
ROOT
ATOM      1  C   UNL     1     114.130 123.869 145.041  1.00  0.00     0.227 C 
ENDROOT
BRANCH   1   2
ATOM      2  C   UNL     1     113.027 124.942 144.986  1.00  0.00     0.253 C 
BRANCH   2   3
ATOM      3  N   UNL     1     112.245 124.960 146.229  1.00  0.00    -0.348 N 
ATOM      4  H   UNL     1     112.610 124.236 146.891  1.00  0.00     0.345 HD
ATOM      5  H   UNL     1     111.235 124.769 146.036  1.00  0.00     0.345 HD
ATOM      6  H   UNL     1     112.336 125.895 146.690  1.00  0.00     0.345 HD
ENDBRANCH   2   3
BRANCH   2   7
ATOM      7  C   UNL     1     112.126 124.691 143.807  1.00  0.00     0.102 C 
ATOM      8  O   UNL     1     111.027 124.097 143.965  1.00  0.00    -0.544 OA
ATOM      9  O   UNL     1     112.493 125.126 142.539  1.00  0.00    -0.544 OA
ENDBRANCH   2   7
ENDBRANCH   1   2
BRANCH   1  10
ATOM     10  O   UNL     1     113.888 122.856 144.102  1.00  0.00    -0.390 OA
ATOM     11  H   UNL     1     113.394 123.279 143.351  1.00  0.00     0.210 HD
ENDBRANCH   1  10
TORSDOF 4
ENDMDL
