MODEL 1
REMARK VINA RESULT:    -4.693      0.000      0.000
REMARK INTER + INTRA:          -5.064
REMARK INTER:                  -4.967
REMARK INTRA:                  -0.097
REMARK UNBOUND:                -0.097
REMARK SMILES C=C(C)[C@H]1CC=C(C)C(=O)C1
REMARK SMILES IDX 8 1 7 2 6 3 5 4 4 5 11 6 9 7 10 8 2 9 1 10 3 11
REMARK H PARENT
REMARK Flexibility Score: inf
ROOT
ATOM      1  C   UNL     1     -21.959  22.967  40.726  1.00  0.00     0.048 C 
ATOM      2  C   UNL     1     -20.856  22.065  41.205  1.00  0.00    -0.012 C 
ATOM      3  C   UNL     1     -21.134  21.010  41.990  1.00  0.00    -0.019 C 
ATOM      4  C   UNL     1     -20.054  20.125  42.553  1.00  0.00     0.036 C 
ATOM      5  C   UNL     1     -18.840  20.057  41.606  1.00  0.00     0.025 C 
ATOM      6  C   UNL     1     -18.327  21.475  41.291  1.00  0.00     0.089 C 
ATOM      7  C   UNL     1     -19.453  22.351  40.813  1.00  0.00     0.158 C 
ATOM      8  O   UNL     1     -19.187  23.364  40.111  1.00  0.00    -0.295 OA
ENDROOT
BRANCH   5   9
ATOM      9  C   UNL     1     -17.735  19.181  42.179  1.00  0.00    -0.077 C 
ATOM     10  C   UNL     1     -17.381  19.301  43.469  1.00  0.00     0.008 C 
ATOM     11  C   UNL     1     -17.016  18.164  41.327  1.00  0.00     0.039 C 
ENDBRANCH   5   9
TORSDOF 1
ENDMDL
MODEL 2
REMARK VINA RESULT:    -4.304     15.833     17.055
REMARK INTER + INTRA:          -4.653
REMARK INTER:                  -4.554
REMARK INTRA:                  -0.098
REMARK UNBOUND:                -0.097
REMARK SMILES C=C(C)[C@H]1CC=C(C)C(=O)C1
REMARK SMILES IDX 8 1 7 2 6 3 5 4 4 5 11 6 9 7 10 8 2 9 1 10 3 11
REMARK H PARENT
REMARK Flexibility Score: inf
ROOT
ATOM      1  C   UNL     1      -7.255  27.241  45.617  1.00  0.00     0.048 C 
ATOM      2  C   UNL     1      -7.123  28.691  45.990  1.00  0.00    -0.012 C 
ATOM      3  C   UNL     1      -8.108  29.559  45.700  1.00  0.00    -0.019 C 
ATOM      4  C   UNL     1      -7.987  31.031  45.989  1.00  0.00     0.036 C 
ATOM      5  C   UNL     1      -7.099  31.286  47.222  1.00  0.00     0.025 C 
ATOM      6  C   UNL     1      -5.727  30.612  47.042  1.00  0.00     0.089 C 
ATOM      7  C   UNL     1      -5.892  29.164  46.672  1.00  0.00     0.158 C 
ATOM      8  O   UNL     1      -4.951  28.358  46.907  1.00  0.00    -0.295 OA
ENDROOT
BRANCH   5   9
ATOM      9  C   UNL     1      -6.955  32.775  47.507  1.00  0.00    -0.077 C 
ATOM     10  C   UNL     1      -7.483  33.676  46.662  1.00  0.00     0.008 C 
ATOM     11  C   UNL     1      -6.227  33.275  48.730  1.00  0.00     0.039 C 
ENDBRANCH   5   9
TORSDOF 1
ENDMDL
MODEL 3
REMARK VINA RESULT:    -4.244     15.521     16.569
REMARK INTER + INTRA:          -4.589
REMARK INTER:                  -4.491
REMARK INTRA:                  -0.099
REMARK UNBOUND:                -0.097
REMARK SMILES C=C(C)[C@H]1CC=C(C)C(=O)C1
REMARK SMILES IDX 8 1 7 2 6 3 5 4 4 5 11 6 9 7 10 8 2 9 1 10 3 11
REMARK H PARENT
REMARK Flexibility Score: inf
ROOT
ATOM      1  C   UNL     1      -5.398  32.945  47.616  1.00  0.00     0.048 C 
ATOM      2  C   UNL     1      -6.003  31.645  47.162  1.00  0.00    -0.012 C 
ATOM      3  C   UNL     1      -7.335  31.530  47.020  1.00  0.00    -0.019 C 
ATOM      4  C   UNL     1      -7.988  30.227  46.640  1.00  0.00     0.036 C 
ATOM      5  C   UNL     1      -7.061  29.378  45.749  1.00  0.00     0.025 C 
ATOM      6  C   UNL     1      -5.701  29.169  46.439  1.00  0.00     0.089 C 
ATOM      7  C   UNL     1      -5.121  30.485  46.880  1.00  0.00     0.158 C 
ATOM      8  O   UNL     1      -3.876  30.582  47.052  1.00  0.00    -0.295 OA
ENDROOT
BRANCH   5   9
ATOM      9  C   UNL     1      -7.707  28.050  45.378  1.00  0.00    -0.077 C 
ATOM     10  C   UNL     1      -7.137  26.896  45.759  1.00  0.00     0.008 C 
ATOM     11  C   UNL     1      -8.989  27.994  44.585  1.00  0.00     0.039 C 
ENDBRANCH   5   9
TORSDOF 1
ENDMDL
MODEL 4
REMARK VINA RESULT:    -4.134      1.274      4.394
REMARK INTER + INTRA:          -4.473
REMARK INTER:                  -4.379
REMARK INTRA:                  -0.094
REMARK UNBOUND:                -0.097
REMARK SMILES C=C(C)[C@H]1CC=C(C)C(=O)C1
REMARK SMILES IDX 8 1 7 2 6 3 5 4 4 5 11 6 9 7 10 8 2 9 1 10 3 11
REMARK H PARENT
REMARK Flexibility Score: inf
ROOT
ATOM      1  C   UNL     1     -17.729  19.127  42.094  1.00  0.00     0.048 C 
ATOM      2  C   UNL     1     -18.676  20.250  41.775  1.00  0.00    -0.012 C 
ATOM      3  C   UNL     1     -19.993  20.113  42.002  1.00  0.00    -0.019 C 
ATOM      4  C   UNL     1     -20.984  21.183  41.628  1.00  0.00     0.036 C 
ATOM      5  C   UNL     1     -20.349  22.584  41.711  1.00  0.00     0.025 C 
ATOM      6  C   UNL     1     -19.074  22.645  40.852  1.00  0.00     0.089 C 
ATOM      7  C   UNL     1     -18.147  21.511  41.196  1.00  0.00     0.158 C 
ATOM      8  O   UNL     1     -16.917  21.624  40.945  1.00  0.00    -0.295 OA
ENDROOT
BRANCH   5   9
ATOM      9  C   UNL     1     -21.340  23.669  41.314  1.00  0.00    -0.077 C 
ATOM     10  C   UNL     1     -21.030  24.963  41.496  1.00  0.00     0.008 C 
ATOM     11  C   UNL     1     -22.680  23.328  40.711  1.00  0.00     0.039 C 
ENDBRANCH   5   9
TORSDOF 1
ENDMDL
MODEL 5
REMARK VINA RESULT:    -4.106     16.010     17.159
REMARK INTER + INTRA:          -4.443
REMARK INTER:                  -4.345
REMARK INTRA:                  -0.098
REMARK UNBOUND:                -0.097
REMARK SMILES C=C(C)[C@H]1CC=C(C)C(=O)C1
REMARK SMILES IDX 8 1 7 2 6 3 5 4 4 5 11 6 9 7 10 8 2 9 1 10 3 11
REMARK H PARENT
REMARK Flexibility Score: inf
ROOT
ATOM      1  C   UNL     1      -3.919  32.427  47.540  1.00  0.00     0.048 C 
ATOM      2  C   UNL     1      -4.606  31.177  47.063  1.00  0.00    -0.012 C 
ATOM      3  C   UNL     1      -3.890  30.169  46.535  1.00  0.00    -0.019 C 
ATOM      4  C   UNL     1      -4.542  28.932  45.978  1.00  0.00     0.036 C 
ATOM      5  C   UNL     1      -5.857  28.615  46.717  1.00  0.00     0.025 C 
ATOM      6  C   UNL     1      -6.797  29.834  46.686  1.00  0.00     0.089 C 
ATOM      7  C   UNL     1      -6.082  31.066  47.169  1.00  0.00     0.158 C 
ATOM      8  O   UNL     1      -6.757  32.028  47.627  1.00  0.00    -0.295 OA
ENDROOT
BRANCH   5   9
ATOM      9  C   UNL     1      -6.533  27.377  46.144  1.00  0.00    -0.077 C 
ATOM     10  C   UNL     1      -7.584  27.505  45.319  1.00  0.00     0.008 C 
ATOM     11  C   UNL     1      -6.046  25.989  46.480  1.00  0.00     0.039 C 
ENDBRANCH   5   9
TORSDOF 1
ENDMDL
MODEL 6
REMARK VINA RESULT:    -3.999     15.480     16.424
REMARK INTER + INTRA:          -4.330
REMARK INTER:                  -4.232
REMARK INTRA:                  -0.098
REMARK UNBOUND:                -0.097
REMARK SMILES C=C(C)[C@H]1CC=C(C)C(=O)C1
REMARK SMILES IDX 8 1 7 2 6 3 5 4 4 5 11 6 9 7 10 8 2 9 1 10 3 11
REMARK H PARENT
REMARK Flexibility Score: inf
ROOT
ATOM      1  C   UNL     1      -7.618  33.942  46.553  1.00  0.00     0.048 C 
ATOM      2  C   UNL     1      -7.501  32.446  46.471  1.00  0.00    -0.012 C 
ATOM      3  C   UNL     1      -8.313  31.745  45.661  1.00  0.00    -0.019 C 
ATOM      4  C   UNL     1      -8.280  30.241  45.604  1.00  0.00     0.036 C 
ATOM      5  C   UNL     1      -6.867  29.703  45.899  1.00  0.00     0.025 C 
ATOM      6  C   UNL     1      -6.358  30.246  47.247  1.00  0.00     0.089 C 
ATOM      7  C   UNL     1      -6.487  31.744  47.298  1.00  0.00     0.158 C 
ATOM      8  O   UNL     1      -5.753  32.398  48.087  1.00  0.00    -0.295 OA
ENDROOT
BRANCH   5   9
ATOM      9  C   UNL     1      -6.831  28.181  45.864  1.00  0.00    -0.077 C 
ATOM     10  C   UNL     1      -7.849  27.497  45.319  1.00  0.00     0.008 C 
ATOM     11  C   UNL     1      -5.665  27.409  46.430  1.00  0.00     0.039 C 
ENDBRANCH   5   9
TORSDOF 1
ENDMDL
MODEL 7
REMARK VINA RESULT:    -3.967     16.946     18.010
REMARK INTER + INTRA:          -4.296
REMARK INTER:                  -4.199
REMARK INTRA:                  -0.097
REMARK UNBOUND:                -0.097
REMARK SMILES C=C(C)[C@H]1CC=C(C)C(=O)C1
REMARK SMILES IDX 8 1 7 2 6 3 5 4 4 5 11 6 9 7 10 8 2 9 1 10 3 11
REMARK H PARENT
REMARK Flexibility Score: inf
ROOT
ATOM      1  C   UNL     1      -8.645  29.842  45.258  1.00  0.00     0.048 C 
ATOM      2  C   UNL     1      -7.757  30.769  46.041  1.00  0.00    -0.012 C 
ATOM      3  C   UNL     1      -8.025  32.086  46.089  1.00  0.00    -0.019 C 
ATOM      4  C   UNL     1      -7.123  33.059  46.799  1.00  0.00     0.036 C 
ATOM      5  C   UNL     1      -6.415  32.393  47.994  1.00  0.00     0.025 C 
ATOM      6  C   UNL     1      -5.663  31.130  47.535  1.00  0.00     0.089 C 
ATOM      7  C   UNL     1      -6.576  30.223  46.756  1.00  0.00     0.158 C 
ATOM      8  O   UNL     1      -6.303  28.995  46.678  1.00  0.00    -0.295 OA
ENDROOT
BRANCH   5   9
ATOM      9  C   UNL     1      -5.484  33.366  48.704  1.00  0.00    -0.077 C 
ATOM     10  C   UNL     1      -4.225  33.532  48.269  1.00  0.00     0.008 C 
ATOM     11  C   UNL     1      -5.944  34.164  49.899  1.00  0.00     0.039 C 
ENDBRANCH   5   9
TORSDOF 1
ENDMDL
MODEL 8
REMARK VINA RESULT:    -3.963     15.089     16.132
REMARK INTER + INTRA:          -4.291
REMARK INTER:                  -4.193
REMARK INTRA:                  -0.098
REMARK UNBOUND:                -0.097
REMARK SMILES C=C(C)[C@H]1CC=C(C)C(=O)C1
REMARK SMILES IDX 8 1 7 2 6 3 5 4 4 5 11 6 9 7 10 8 2 9 1 10 3 11
REMARK H PARENT
REMARK Flexibility Score: inf
ROOT
ATOM      1  C   UNL     1      -6.503  33.209  48.027  1.00  0.00     0.048 C 
ATOM      2  C   UNL     1      -6.752  31.938  47.264  1.00  0.00    -0.012 C 
ATOM      3  C   UNL     1      -6.095  30.811  47.589  1.00  0.00    -0.019 C 
ATOM      4  C   UNL     1      -6.258  29.536  46.806  1.00  0.00     0.036 C 
ATOM      5  C   UNL     1      -7.669  29.434  46.196  1.00  0.00     0.025 C 
ATOM      6  C   UNL     1      -7.978  30.683  45.349  1.00  0.00     0.089 C 
ATOM      7  C   UNL     1      -7.722  31.936  46.140  1.00  0.00     0.158 C 
ATOM      8  O   UNL     1      -8.307  33.003  45.809  1.00  0.00    -0.295 OA
ENDROOT
BRANCH   5   9
ATOM      9  C   UNL     1      -7.835  28.157  45.384  1.00  0.00    -0.077 C 
ATOM     10  C   UNL     1      -8.703  28.118  44.361  1.00  0.00     0.008 C 
ATOM     11  C   UNL     1      -7.036  26.916  45.699  1.00  0.00     0.039 C 
ENDBRANCH   5   9
TORSDOF 1
ENDMDL
MODEL 9
REMARK VINA RESULT:    -3.937     15.274     16.554
REMARK INTER + INTRA:          -4.264
REMARK INTER:                  -4.167
REMARK INTRA:                  -0.097
REMARK UNBOUND:                -0.097
REMARK SMILES C=C(C)[C@H]1CC=C(C)C(=O)C1
REMARK SMILES IDX 8 1 7 2 6 3 5 4 4 5 11 6 9 7 10 8 2 9 1 10 3 11
REMARK H PARENT
REMARK Flexibility Score: inf
ROOT
ATOM      1  C   UNL     1      -7.010  27.061  45.203  1.00  0.00     0.048 C 
ATOM      2  C   UNL     1      -7.039  28.445  45.790  1.00  0.00    -0.012 C 
ATOM      3  C   UNL     1      -6.056  28.854  46.610  1.00  0.00    -0.019 C 
ATOM      4  C   UNL     1      -6.084  30.203  47.278  1.00  0.00     0.036 C 
ATOM      5  C   UNL     1      -6.817  31.241  46.408  1.00  0.00     0.025 C 
ATOM      6  C   UNL     1      -8.229  30.739  46.051  1.00  0.00     0.089 C 
ATOM      7  C   UNL     1      -8.166  29.355  45.465  1.00  0.00     0.158 C 
ATOM      8  O   UNL     1      -9.108  28.956  44.728  1.00  0.00    -0.295 OA
ENDROOT
BRANCH   5   9
ATOM      9  C   UNL     1      -6.867  32.603  47.087  1.00  0.00    -0.077 C 
ATOM     10  C   UNL     1      -7.614  33.589  46.564  1.00  0.00     0.008 C 
ATOM     11  C   UNL     1      -6.091  32.880  48.351  1.00  0.00     0.039 C 
ENDBRANCH   5   9
TORSDOF 1
ENDMDL
