MODEL 1
REMARK VINA RESULT:    -4.415      0.000      0.000
REMARK INTER + INTRA:          -5.789
REMARK INTER:                  -5.448
REMARK INTRA:                  -0.341
REMARK UNBOUND:                -0.341
REMARK SMILES O=c1c(O)c(-c2cc(O)c(O)c(O)c2)oc2cc(O)cc(O)c12
REMARK SMILES IDX 5 1 3 2 2 3 1 4 23 5 21 6 20 7 18 8 17 9 16 10 15 11 6 12
REMARK SMILES IDX 7 13 8 14 14 15 10 16 12 17 9 18 11 20 13 22 4 24 22 26
REMARK SMILES IDX 19 28
REMARK H PARENT 9 19 11 21 13 23 4 25 22 27 19 29
REMARK Flexibility Score: inf
ROOT
ATOM      1  C   UNL     1     162.354 174.840 164.350  1.00  0.00     0.180 A 
ATOM      2  C   UNL     1     162.866 176.147 164.425  1.00  0.00     0.208 A 
ATOM      3  C   UNL     1     162.554 176.937 165.543  1.00  0.00     0.238 A 
ATOM      4  O   UNL     1     162.970 178.125 165.579  1.00  0.00    -0.285 OA
ATOM      5  C   UNL     1     161.746 176.406 166.578  1.00  0.00     0.111 A 
ATOM      6  C   UNL     1     161.400 177.103 167.775  1.00  0.00     0.134 A 
ATOM      7  C   UNL     1     160.489 176.529 168.670  1.00  0.00     0.093 A 
ATOM      8  C   UNL     1     159.963 175.257 168.445  1.00  0.00     0.123 A 
ATOM      9  C   UNL     1     160.342 174.541 167.309  1.00  0.00     0.094 A 
ATOM     10  C   UNL     1     161.221 175.103 166.379  1.00  0.00     0.146 A 
ATOM     11  O   UNL     1     161.547 174.393 165.306  1.00  0.00    -0.452 OA
ENDROOT
BRANCH   1  12
ATOM     12  C   UNL     1     162.660 173.939 163.216  1.00  0.00     0.029 A 
ATOM     13  C   UNL     1     163.879 173.244 163.142  1.00  0.00     0.062 A 
ATOM     14  C   UNL     1     164.143 172.377 162.076  1.00  0.00     0.162 A 
ATOM     15  C   UNL     1     161.693 173.727 162.222  1.00  0.00     0.062 A 
ATOM     16  C   UNL     1     163.180 172.187 161.072  1.00  0.00     0.200 A 
ATOM     17  C   UNL     1     161.949 172.862 161.149  1.00  0.00     0.162 A 
BRANCH  14  18
ATOM     18  O   UNL     1     165.368 171.711 162.036  1.00  0.00    -0.504 OA
ATOM     19  H   UNL     1     165.526 170.844 162.536  1.00  0.00     0.293 HD
ENDBRANCH  14  18
BRANCH  16  20
ATOM     20  O   UNL     1     163.453 171.324 160.009  1.00  0.00    -0.502 OA
ATOM     21  H   UNL     1     163.059 171.463 159.086  1.00  0.00     0.293 HD
ENDBRANCH  16  20
BRANCH  17  22
ATOM     22  O   UNL     1     160.986 172.671 160.160  1.00  0.00    -0.504 OA
ATOM     23  H   UNL     1     160.462 171.805 160.088  1.00  0.00     0.293 HD
ENDBRANCH  17  22
ENDBRANCH   1  12
BRANCH   2  24
ATOM     24  O   UNL     1     163.643 176.659 163.382  1.00  0.00    -0.502 OA
ATOM     25  H   UNL     1     163.235 177.075 162.554  1.00  0.00     0.293 HD
ENDBRANCH   2  24
BRANCH   6  26
ATOM     26  O   UNL     1     161.939 178.340 168.141  1.00  0.00    -0.507 OA
ATOM     27  H   UNL     1     162.531 178.494 168.943  1.00  0.00     0.293 HD
ENDBRANCH   6  26
BRANCH   8  28
ATOM     28  O   UNL     1     159.072 174.709 169.365  1.00  0.00    -0.508 OA
ATOM     29  H   UNL     1     159.385 174.362 170.264  1.00  0.00     0.293 HD
ENDBRANCH   8  28
TORSDOF 7
ENDMDL
MODEL 2
REMARK VINA RESULT:    -4.415     15.048     18.494
REMARK INTER + INTRA:          -5.788
REMARK INTER:                  -5.457
REMARK INTRA:                  -0.332
REMARK UNBOUND:                -0.341
REMARK SMILES O=c1c(O)c(-c2cc(O)c(O)c(O)c2)oc2cc(O)cc(O)c12
REMARK SMILES IDX 5 1 3 2 2 3 1 4 23 5 21 6 20 7 18 8 17 9 16 10 15 11 6 12
REMARK SMILES IDX 7 13 8 14 14 15 10 16 12 17 9 18 11 20 13 22 4 24 22 26
REMARK SMILES IDX 19 28
REMARK H PARENT 9 19 11 21 13 23 4 25 22 27 19 29
REMARK Flexibility Score: inf
ROOT
ATOM      1  C   UNL     1     174.871 162.366 164.363  1.00  0.00     0.180 A 
ATOM      2  C   UNL     1     174.362 161.059 164.442  1.00  0.00     0.208 A 
ATOM      3  C   UNL     1     174.668 160.276 165.566  1.00  0.00     0.238 A 
ATOM      4  O   UNL     1     174.254 159.087 165.605  1.00  0.00    -0.285 OA
ATOM      5  C   UNL     1     175.466 160.814 166.604  1.00  0.00     0.111 A 
ATOM      6  C   UNL     1     175.805 160.123 167.806  1.00  0.00     0.134 A 
ATOM      7  C   UNL     1     176.709 160.704 168.705  1.00  0.00     0.093 A 
ATOM      8  C   UNL     1     177.233 161.977 168.478  1.00  0.00     0.123 A 
ATOM      9  C   UNL     1     176.861 162.685 167.335  1.00  0.00     0.094 A 
ATOM     10  C   UNL     1     175.990 162.116 166.401  1.00  0.00     0.146 A 
ATOM     11  O   UNL     1     175.670 162.820 165.323  1.00  0.00    -0.452 OA
ENDROOT
BRANCH   1  12
ATOM     12  C   UNL     1     174.571 163.261 163.222  1.00  0.00     0.029 A 
ATOM     13  C   UNL     1     173.337 163.925 163.118  1.00  0.00     0.062 A 
ATOM     14  C   UNL     1     173.078 164.786 162.047  1.00  0.00     0.162 A 
ATOM     15  C   UNL     1     175.558 163.499 162.253  1.00  0.00     0.062 A 
ATOM     16  C   UNL     1     174.061 165.002 161.067  1.00  0.00     0.200 A 
ATOM     17  C   UNL     1     175.307 164.359 161.175  1.00  0.00     0.162 A 
BRANCH  14  18
ATOM     18  O   UNL     1     171.838 165.420 161.975  1.00  0.00    -0.504 OA
ATOM     19  H   UNL     1     170.991 164.990 162.328  1.00  0.00     0.293 HD
ENDBRANCH  14  18
BRANCH  16  20
ATOM     20  O   UNL     1     173.793 165.859 159.998  1.00  0.00    -0.502 OA
ATOM     21  H   UNL     1     174.519 166.179 159.367  1.00  0.00     0.293 HD
ENDBRANCH  16  20
BRANCH  17  22
ATOM     22  O   UNL     1     176.290 164.576 160.211  1.00  0.00    -0.504 OA
ATOM     23  H   UNL     1     176.841 165.427 160.196  1.00  0.00     0.293 HD
ENDBRANCH  17  22
ENDBRANCH   1  12
BRANCH   2  24
ATOM     24  O   UNL     1     173.594 160.539 163.396  1.00  0.00    -0.502 OA
ATOM     25  H   UNL     1     172.934 161.103 162.874  1.00  0.00     0.293 HD
ENDBRANCH   2  24
BRANCH   6  26
ATOM     26  O   UNL     1     175.267 158.887 168.175  1.00  0.00    -0.507 OA
ATOM     27  H   UNL     1     174.979 158.169 167.527  1.00  0.00     0.293 HD
ENDBRANCH   6  26
BRANCH   8  28
ATOM     28  O   UNL     1     178.117 162.531 169.401  1.00  0.00    -0.508 OA
ATOM     29  H   UNL     1     178.697 161.950 169.995  1.00  0.00     0.293 HD
ENDBRANCH   8  28
TORSDOF 7
ENDMDL
MODEL 3
REMARK VINA RESULT:    -4.413     14.663     16.471
REMARK INTER + INTRA:          -5.787
REMARK INTER:                  -5.440
REMARK INTRA:                  -0.347
REMARK UNBOUND:                -0.341
REMARK SMILES O=c1c(O)c(-c2cc(O)c(O)c(O)c2)oc2cc(O)cc(O)c12
REMARK SMILES IDX 5 1 3 2 2 3 1 4 23 5 21 6 20 7 18 8 17 9 16 10 15 11 6 12
REMARK SMILES IDX 7 13 8 14 14 15 10 16 12 17 9 18 11 20 13 22 4 24 22 26
REMARK SMILES IDX 19 28
REMARK H PARENT 9 19 11 21 13 23 4 25 22 27 19 29
REMARK Flexibility Score: inf
ROOT
ATOM      1  C   UNL     1     174.881 174.848 172.875  1.00  0.00     0.180 A 
ATOM      2  C   UNL     1     174.377 176.157 172.790  1.00  0.00     0.208 A 
ATOM      3  C   UNL     1     174.685 176.933 171.661  1.00  0.00     0.238 A 
ATOM      4  O   UNL     1     174.276 178.123 171.616  1.00  0.00    -0.285 OA
ATOM      5  C   UNL     1     175.481 176.386 170.626  1.00  0.00     0.111 A 
ATOM      6  C   UNL     1     175.821 177.069 169.419  1.00  0.00     0.134 A 
ATOM      7  C   UNL     1     176.722 176.479 168.523  1.00  0.00     0.093 A 
ATOM      8  C   UNL     1     177.241 175.206 168.756  1.00  0.00     0.123 A 
ATOM      9  C   UNL     1     176.867 174.505 169.904  1.00  0.00     0.094 A 
ATOM     10  C   UNL     1     175.999 175.083 170.835  1.00  0.00     0.146 A 
ATOM     11  O   UNL     1     175.677 174.386 171.918  1.00  0.00    -0.452 OA
ENDROOT
BRANCH   1  12
ATOM     12  C   UNL     1     174.578 173.961 174.021  1.00  0.00     0.029 A 
ATOM     13  C   UNL     1     173.363 173.260 174.103  1.00  0.00     0.062 A 
ATOM     14  C   UNL     1     173.103 172.407 175.180  1.00  0.00     0.162 A 
ATOM     15  C   UNL     1     175.546 173.768 175.020  1.00  0.00     0.062 A 
ATOM     16  C   UNL     1     174.065 172.235 176.189  1.00  0.00     0.200 A 
ATOM     17  C   UNL     1     175.293 172.916 176.104  1.00  0.00     0.162 A 
BRANCH  14  18
ATOM     18  O   UNL     1     171.881 171.735 175.228  1.00  0.00    -0.504 OA
ATOM     19  H   UNL     1     171.004 172.221 175.375  1.00  0.00     0.293 HD
ENDBRANCH  14  18
BRANCH  16  20
ATOM     20  O   UNL     1     173.796 171.386 177.263  1.00  0.00    -0.502 OA
ATOM     21  H   UNL     1     172.862 171.273 177.641  1.00  0.00     0.293 HD
ENDBRANCH  16  20
BRANCH  17  22
ATOM     22  O   UNL     1     176.256 172.744 177.096  1.00  0.00    -0.504 OA
ATOM     23  H   UNL     1     176.037 172.876 178.078  1.00  0.00     0.293 HD
ENDBRANCH  17  22
ENDBRANCH   1  12
BRANCH   2  24
ATOM     24  O   UNL     1     173.612 176.685 173.834  1.00  0.00    -0.502 OA
ATOM     25  H   UNL     1     172.994 176.115 174.398  1.00  0.00     0.293 HD
ENDBRANCH   2  24
BRANCH   6  26
ATOM     26  O   UNL     1     175.288 178.305 169.044  1.00  0.00    -0.507 OA
ATOM     27  H   UNL     1     174.392 178.659 169.344  1.00  0.00     0.293 HD
ENDBRANCH   6  26
BRANCH   8  28
ATOM     28  O   UNL     1     178.121 174.643 167.836  1.00  0.00    -0.508 OA
ATOM     29  H   UNL     1     177.971 174.729 166.837  1.00  0.00     0.293 HD
ENDBRANCH   8  28
TORSDOF 7
ENDMDL
MODEL 4
REMARK VINA RESULT:    -4.410     18.096     20.688
REMARK INTER + INTRA:          -5.783
REMARK INTER:                  -5.428
REMARK INTRA:                  -0.355
REMARK UNBOUND:                -0.341
REMARK SMILES O=c1c(O)c(-c2cc(O)c(O)c(O)c2)oc2cc(O)cc(O)c12
REMARK SMILES IDX 5 1 3 2 2 3 1 4 23 5 21 6 20 7 18 8 17 9 16 10 15 11 6 12
REMARK SMILES IDX 7 13 8 14 14 15 10 16 12 17 9 18 11 20 13 22 4 24 22 26
REMARK SMILES IDX 19 28
REMARK H PARENT 9 19 11 21 13 23 4 25 22 27 19 29
REMARK Flexibility Score: inf
ROOT
ATOM      1  C   UNL     1     174.805 162.349 172.880  1.00  0.00     0.180 A 
ATOM      2  C   UNL     1     176.111 162.859 172.792  1.00  0.00     0.208 A 
ATOM      3  C   UNL     1     176.892 162.541 171.669  1.00  0.00     0.238 A 
ATOM      4  O   UNL     1     178.080 162.956 171.621  1.00  0.00    -0.285 OA
ATOM      5  C   UNL     1     176.352 161.728 170.643  1.00  0.00     0.111 A 
ATOM      6  C   UNL     1     177.040 161.376 169.442  1.00  0.00     0.134 A 
ATOM      7  C   UNL     1     176.458 160.460 168.557  1.00  0.00     0.093 A 
ATOM      8  C   UNL     1     175.187 159.936 168.794  1.00  0.00     0.123 A 
ATOM      9  C   UNL     1     174.481 160.321 169.934  1.00  0.00     0.094 A 
ATOM     10  C   UNL     1     175.051 161.205 170.855  1.00  0.00     0.146 A 
ATOM     11  O   UNL     1     174.350 161.537 171.932  1.00  0.00    -0.452 OA
ENDROOT
BRANCH   1  12
ATOM     12  C   UNL     1     173.913 162.661 174.020  1.00  0.00     0.029 A 
ATOM     13  C   UNL     1     173.174 163.855 174.064  1.00  0.00     0.062 A 
ATOM     14  C   UNL     1     172.317 164.125 175.137  1.00  0.00     0.162 A 
ATOM     15  C   UNL     1     173.755 161.722 175.051  1.00  0.00     0.062 A 
ATOM     16  C   UNL     1     172.181 163.191 176.178  1.00  0.00     0.200 A 
ATOM     17  C   UNL     1     172.900 161.984 176.130  1.00  0.00     0.162 A 
BRANCH  14  18
ATOM     18  O   UNL     1     171.607 165.325 175.148  1.00  0.00    -0.504 OA
ATOM     19  H   UNL     1     171.396 165.834 174.297  1.00  0.00     0.293 HD
ENDBRANCH  14  18
BRANCH  16  20
ATOM     20  O   UNL     1     171.327 163.470 177.246  1.00  0.00    -0.502 OA
ATOM     21  H   UNL     1     171.211 162.831 178.025  1.00  0.00     0.293 HD
ENDBRANCH  16  20
BRANCH  17  22
ATOM     22  O   UNL     1     172.762 161.050 177.155  1.00  0.00    -0.504 OA
ATOM     23  H   UNL     1     172.340 161.294 178.044  1.00  0.00     0.293 HD
ENDBRANCH  17  22
ENDBRANCH   1  12
BRANCH   2  24
ATOM     24  O   UNL     1     176.632 163.641 173.826  1.00  0.00    -0.502 OA
ATOM     25  H   UNL     1     177.619 163.655 174.053  1.00  0.00     0.293 HD
ENDBRANCH   2  24
BRANCH   6  26
ATOM     26  O   UNL     1     178.274 161.911 169.063  1.00  0.00    -0.507 OA
ATOM     27  H   UNL     1     178.505 162.216 168.130  1.00  0.00     0.293 HD
ENDBRANCH   6  26
BRANCH   8  28
ATOM     28  O   UNL     1     174.632 159.040 167.884  1.00  0.00    -0.508 OA
ATOM     29  H   UNL     1     175.212 158.486 167.264  1.00  0.00     0.293 HD
ENDBRANCH   8  28
TORSDOF 7
ENDMDL
MODEL 5
REMARK VINA RESULT:    -4.406     11.364     13.104
REMARK INTER + INTRA:          -5.778
REMARK INTER:                  -5.444
REMARK INTRA:                  -0.333
REMARK UNBOUND:                -0.341
REMARK SMILES O=c1c(O)c(-c2cc(O)c(O)c(O)c2)oc2cc(O)cc(O)c12
REMARK SMILES IDX 5 1 3 2 2 3 1 4 23 5 21 6 20 7 18 8 17 9 16 10 15 11 6 12
REMARK SMILES IDX 7 13 8 14 14 15 10 16 12 17 9 18 11 20 13 22 4 24 22 26
REMARK SMILES IDX 19 28
REMARK H PARENT 9 19 11 21 13 23 4 25 22 27 19 29
REMARK Flexibility Score: inf
ROOT
ATOM      1  C   UNL     1     162.371 162.321 164.348  1.00  0.00     0.180 A 
ATOM      2  C   UNL     1     161.070 162.843 164.444  1.00  0.00     0.208 A 
ATOM      3  C   UNL     1     160.295 162.534 165.572  1.00  0.00     0.238 A 
ATOM      4  O   UNL     1     159.111 162.960 165.628  1.00  0.00    -0.285 OA
ATOM      5  C   UNL     1     160.834 161.719 166.596  1.00  0.00     0.111 A 
ATOM      6  C   UNL     1     160.151 161.374 167.802  1.00  0.00     0.134 A 
ATOM      7  C   UNL     1     160.731 160.455 168.686  1.00  0.00     0.093 A 
ATOM      8  C   UNL     1     161.995 159.919 168.441  1.00  0.00     0.123 A 
ATOM      9  C   UNL     1     162.697 160.296 167.295  1.00  0.00     0.094 A 
ATOM     10  C   UNL     1     162.129 161.183 166.376  1.00  0.00     0.146 A 
ATOM     11  O   UNL     1     162.825 161.507 165.294  1.00  0.00    -0.452 OA
ENDROOT
BRANCH   1  12
ATOM     12  C   UNL     1     163.258 162.624 163.201  1.00  0.00     0.029 A 
ATOM     13  C   UNL     1     163.940 163.849 163.107  1.00  0.00     0.062 A 
ATOM     14  C   UNL     1     164.793 164.110 162.030  1.00  0.00     0.162 A 
ATOM     15  C   UNL     1     163.471 161.647 162.216  1.00  0.00     0.062 A 
ATOM     16  C   UNL     1     164.984 163.137 161.034  1.00  0.00     0.200 A 
ATOM     17  C   UNL     1     164.323 161.900 161.132  1.00  0.00     0.162 A 
BRANCH  14  18
ATOM     18  O   UNL     1     165.445 165.341 161.969  1.00  0.00    -0.504 OA
ATOM     19  H   UNL     1     166.142 165.547 161.262  1.00  0.00     0.293 HD
ENDBRANCH  14  18
BRANCH  16  20
ATOM     20  O   UNL     1     165.834 163.407 159.960  1.00  0.00    -0.502 OA
ATOM     21  H   UNL     1     166.129 164.348 159.729  1.00  0.00     0.293 HD
ENDBRANCH  16  20
BRANCH  17  22
ATOM     22  O   UNL     1     164.516 160.927 160.153  1.00  0.00    -0.504 OA
ATOM     23  H   UNL     1     165.032 161.124 159.303  1.00  0.00     0.293 HD
ENDBRANCH  17  22
ENDBRANCH   1  12
BRANCH   2  24
ATOM     24  O   UNL     1     160.549 163.628 163.411  1.00  0.00    -0.502 OA
ATOM     25  H   UNL     1     159.564 163.636 163.179  1.00  0.00     0.293 HD
ENDBRANCH   2  24
BRANCH   6  26
ATOM     26  O   UNL     1     158.924 161.922 168.189  1.00  0.00    -0.507 OA
ATOM     27  H   UNL     1     158.481 161.764 169.081  1.00  0.00     0.293 HD
ENDBRANCH   6  26
BRANCH   8  28
ATOM     28  O   UNL     1     162.548 159.020 169.349  1.00  0.00    -0.508 OA
ATOM     29  H   UNL     1     163.322 158.418 169.094  1.00  0.00     0.293 HD
ENDBRANCH   8  28
TORSDOF 7
ENDMDL
MODEL 6
REMARK VINA RESULT:    -4.394      5.823     10.186
REMARK INTER + INTRA:          -5.763
REMARK INTER:                  -5.409
REMARK INTRA:                  -0.354
REMARK UNBOUND:                -0.341
REMARK SMILES O=c1c(O)c(-c2cc(O)c(O)c(O)c2)oc2cc(O)cc(O)c12
REMARK SMILES IDX 5 1 3 2 2 3 1 4 23 5 21 6 20 7 18 8 17 9 16 10 15 11 6 12
REMARK SMILES IDX 7 13 8 14 14 15 10 16 12 17 9 18 11 20 13 22 4 24 22 26
REMARK SMILES IDX 19 28
REMARK H PARENT 9 19 11 21 13 23 4 25 22 27 19 29
REMARK Flexibility Score: inf
ROOT
ATOM      1  C   UNL     1     162.377 174.820 172.853  1.00  0.00     0.180 A 
ATOM      2  C   UNL     1     161.070 174.311 172.772  1.00  0.00     0.208 A 
ATOM      3  C   UNL     1     160.282 174.631 171.655  1.00  0.00     0.238 A 
ATOM      4  O   UNL     1     159.093 174.217 171.614  1.00  0.00    -0.285 OA
ATOM      5  C   UNL     1     160.815 175.445 170.626  1.00  0.00     0.111 A 
ATOM      6  C   UNL     1     160.120 175.799 169.431  1.00  0.00     0.134 A 
ATOM      7  C   UNL     1     160.697 176.715 168.542  1.00  0.00     0.093 A 
ATOM      8  C   UNL     1     161.970 177.238 168.772  1.00  0.00     0.123 A 
ATOM      9  C   UNL     1     162.683 176.851 169.907  1.00  0.00     0.094 A 
ATOM     10  C   UNL     1     162.118 175.967 170.831  1.00  0.00     0.146 A 
ATOM     11  O   UNL     1     162.826 175.633 171.903  1.00  0.00    -0.452 OA
ENDROOT
BRANCH   1  12
ATOM     12  C   UNL     1     163.276 174.506 173.986  1.00  0.00     0.029 A 
ATOM     13  C   UNL     1     164.009 173.308 174.028  1.00  0.00     0.062 A 
ATOM     14  C   UNL     1     164.872 173.036 175.094  1.00  0.00     0.162 A 
ATOM     15  C   UNL     1     163.447 175.446 175.013  1.00  0.00     0.062 A 
ATOM     16  C   UNL     1     165.023 173.971 176.131  1.00  0.00     0.200 A 
ATOM     17  C   UNL     1     164.310 175.182 176.087  1.00  0.00     0.162 A 
BRANCH  14  18
ATOM     18  O   UNL     1     165.577 171.832 175.102  1.00  0.00    -0.504 OA
ATOM     19  H   UNL     1     166.536 171.771 175.422  1.00  0.00     0.293 HD
ENDBRANCH  14  18
BRANCH  16  20
ATOM     20  O   UNL     1     165.883 173.691 177.194  1.00  0.00    -0.502 OA
ATOM     21  H   UNL     1     165.550 173.310 178.073  1.00  0.00     0.293 HD
ENDBRANCH  16  20
BRANCH  17  22
ATOM     22  O   UNL     1     164.460 176.118 177.108  1.00  0.00    -0.504 OA
ATOM     23  H   UNL     1     164.152 177.078 176.999  1.00  0.00     0.293 HD
ENDBRANCH  17  22
ENDBRANCH   1  12
BRANCH   2  24
ATOM     24  O   UNL     1     160.555 173.528 173.809  1.00  0.00    -0.502 OA
ATOM     25  H   UNL     1     160.198 172.593 173.659  1.00  0.00     0.293 HD
ENDBRANCH   2  24
BRANCH   6  26
ATOM     26  O   UNL     1     158.883 175.265 169.059  1.00  0.00    -0.507 OA
ATOM     27  H   UNL     1     158.640 174.287 169.114  1.00  0.00     0.293 HD
ENDBRANCH   6  26
BRANCH   8  28
ATOM     28  O   UNL     1     162.520 178.134 167.859  1.00  0.00    -0.508 OA
ATOM     29  H   UNL     1     162.587 177.912 166.872  1.00  0.00     0.293 HD
ENDBRANCH   8  28
TORSDOF 7
ENDMDL
MODEL 7
REMARK VINA RESULT:    -4.394     13.627     16.177
REMARK INTER + INTRA:          -5.763
REMARK INTER:                  -5.411
REMARK INTRA:                  -0.351
REMARK UNBOUND:                -0.341
REMARK SMILES O=c1c(O)c(-c2cc(O)c(O)c(O)c2)oc2cc(O)cc(O)c12
REMARK SMILES IDX 5 1 3 2 2 3 1 4 23 5 21 6 20 7 18 8 17 9 16 10 15 11 6 12
REMARK SMILES IDX 7 13 8 14 14 15 10 16 12 17 9 18 11 20 13 22 4 24 22 26
REMARK SMILES IDX 19 28
REMARK H PARENT 9 19 11 21 13 23 4 25 22 27 19 29
REMARK Flexibility Score: inf
ROOT
ATOM      1  C   UNL     1     162.373 162.395 172.877  1.00  0.00     0.180 A 
ATOM      2  C   UNL     1     162.885 161.089 172.808  1.00  0.00     0.208 A 
ATOM      3  C   UNL     1     162.575 160.295 171.692  1.00  0.00     0.238 A 
ATOM      4  O   UNL     1     162.991 159.106 171.661  1.00  0.00    -0.285 OA
ATOM      5  C   UNL     1     161.769 160.821 170.654  1.00  0.00     0.111 A 
ATOM      6  C   UNL     1     161.425 160.119 169.459  1.00  0.00     0.134 A 
ATOM      7  C   UNL     1     160.515 160.690 168.560  1.00  0.00     0.093 A 
ATOM      8  C   UNL     1     159.989 161.963 168.779  1.00  0.00     0.123 A 
ATOM      9  C   UNL     1     160.366 162.683 169.914  1.00  0.00     0.094 A 
ATOM     10  C   UNL     1     161.243 162.124 170.847  1.00  0.00     0.146 A 
ATOM     11  O   UNL     1     161.567 162.839 171.918  1.00  0.00    -0.452 OA
ENDROOT
BRANCH   1  12
ATOM     12  C   UNL     1     162.677 163.301 174.008  1.00  0.00     0.029 A 
ATOM     13  C   UNL     1     163.879 164.026 174.062  1.00  0.00     0.062 A 
ATOM     14  C   UNL     1     164.141 164.896 175.126  1.00  0.00     0.162 A 
ATOM     15  C   UNL     1     161.722 163.487 175.020  1.00  0.00     0.062 A 
ATOM     16  C   UNL     1     163.191 165.060 176.148  1.00  0.00     0.200 A 
ATOM     17  C   UNL     1     161.976 164.355 176.091  1.00  0.00     0.162 A 
BRANCH  14  18
ATOM     18  O   UNL     1     165.350 165.592 175.146  1.00  0.00    -0.504 OA
ATOM     19  H   UNL     1     165.982 165.549 175.937  1.00  0.00     0.293 HD
ENDBRANCH  14  18
BRANCH  16  20
ATOM     20  O   UNL     1     163.462 165.927 177.208  1.00  0.00    -0.502 OA
ATOM     21  H   UNL     1     162.939 165.899 178.075  1.00  0.00     0.293 HD
ENDBRANCH  16  20
BRANCH  17  22
ATOM     22  O   UNL     1     161.026 164.520 177.097  1.00  0.00    -0.504 OA
ATOM     23  H   UNL     1     160.543 165.401 177.232  1.00  0.00     0.293 HD
ENDBRANCH  17  22
ENDBRANCH   1  12
BRANCH   2  24
ATOM     24  O   UNL     1     163.660 160.581 173.854  1.00  0.00    -0.502 OA
ATOM     25  H   UNL     1     164.105 159.672 173.809  1.00  0.00     0.293 HD
ENDBRANCH   2  24
BRANCH   6  26
ATOM     26  O   UNL     1     161.964 158.881 169.099  1.00  0.00    -0.507 OA
ATOM     27  H   UNL     1     162.419 158.244 169.736  1.00  0.00     0.293 HD
ENDBRANCH   6  26
BRANCH   8  28
ATOM     28  O   UNL     1     159.099 162.506 167.856  1.00  0.00    -0.508 OA
ATOM     29  H   UNL     1     158.830 163.483 167.890  1.00  0.00     0.293 HD
ENDBRANCH   8  28
TORSDOF 7
ENDMDL
MODEL 8
REMARK VINA RESULT:    -4.380     11.309     13.045
REMARK INTER + INTRA:          -5.746
REMARK INTER:                  -5.393
REMARK INTRA:                  -0.353
REMARK UNBOUND:                -0.341
REMARK SMILES O=c1c(O)c(-c2cc(O)c(O)c(O)c2)oc2cc(O)cc(O)c12
REMARK SMILES IDX 5 1 3 2 2 3 1 4 23 5 21 6 20 7 18 8 17 9 16 10 15 11 6 12
REMARK SMILES IDX 7 13 8 14 14 15 10 16 12 17 9 18 11 20 13 22 4 24 22 26
REMARK SMILES IDX 19 28
REMARK H PARENT 9 19 11 21 13 23 4 25 22 27 19 29
REMARK Flexibility Score: inf
ROOT
ATOM      1  C   UNL     1     174.811 174.812 164.376  1.00  0.00     0.180 A 
ATOM      2  C   UNL     1     176.122 174.312 164.442  1.00  0.00     0.208 A 
ATOM      3  C   UNL     1     176.917 174.631 165.553  1.00  0.00     0.238 A 
ATOM      4  O   UNL     1     178.109 174.225 165.581  1.00  0.00    -0.285 OA
ATOM      5  C   UNL     1     176.388 175.435 166.592  1.00  0.00     0.111 A 
ATOM      6  C   UNL     1     177.091 175.787 167.783  1.00  0.00     0.134 A 
ATOM      7  C   UNL     1     176.516 176.694 168.682  1.00  0.00     0.093 A 
ATOM      8  C   UNL     1     175.238 177.209 168.467  1.00  0.00     0.123 A 
ATOM      9  C   UNL     1     174.517 176.824 167.336  1.00  0.00     0.094 A 
ATOM     10  C   UNL     1     175.079 175.949 166.402  1.00  0.00     0.146 A 
ATOM     11  O   UNL     1     174.364 175.616 165.335  1.00  0.00    -0.452 OA
ENDROOT
BRANCH   1  12
ATOM     12  C   UNL     1     173.903 174.498 163.249  1.00  0.00     0.029 A 
ATOM     13  C   UNL     1     173.184 173.292 163.203  1.00  0.00     0.062 A 
ATOM     14  C   UNL     1     172.312 173.021 162.143  1.00  0.00     0.162 A 
ATOM     15  C   UNL     1     173.711 175.447 162.232  1.00  0.00     0.062 A 
ATOM     16  C   UNL     1     172.141 173.964 161.116  1.00  0.00     0.200 A 
ATOM     17  C   UNL     1     172.840 175.183 161.165  1.00  0.00     0.162 A 
BRANCH  14  18
ATOM     18  O   UNL     1     171.622 171.809 162.131  1.00  0.00    -0.504 OA
ATOM     19  H   UNL     1     170.909 171.603 161.441  1.00  0.00     0.293 HD
ENDBRANCH  14  18
BRANCH  16  20
ATOM     20  O   UNL     1     171.273 173.684 160.060  1.00  0.00    -0.502 OA
ATOM     21  H   UNL     1     170.338 174.071 160.011  1.00  0.00     0.293 HD
ENDBRANCH  16  20
BRANCH  17  22
ATOM     22  O   UNL     1     172.668 176.127 160.154  1.00  0.00    -0.504 OA
ATOM     23  H   UNL     1     173.246 176.125 159.321  1.00  0.00     0.293 HD
ENDBRANCH  17  22
ENDBRANCH   1  12
BRANCH   2  24
ATOM     24  O   UNL     1     176.633 173.539 163.395  1.00  0.00    -0.502 OA
ATOM     25  H   UNL     1     176.708 172.530 163.451  1.00  0.00     0.293 HD
ENDBRANCH   2  24
BRANCH   6  26
ATOM     26  O   UNL     1     178.335 175.259 168.140  1.00  0.00    -0.507 OA
ATOM     27  H   UNL     1     179.098 175.103 167.499  1.00  0.00     0.293 HD
ENDBRANCH   6  26
BRANCH   8  28
ATOM     28  O   UNL     1     174.690 178.096 169.390  1.00  0.00    -0.508 OA
ATOM     29  H   UNL     1     174.000 178.787 169.117  1.00  0.00     0.293 HD
ENDBRANCH   8  28
TORSDOF 7
ENDMDL
MODEL 9
REMARK VINA RESULT:    -4.331     16.193     17.312
REMARK INTER + INTRA:          -5.686
REMARK INTER:                  -5.332
REMARK INTRA:                  -0.353
REMARK UNBOUND:                -0.341
REMARK SMILES O=c1c(O)c(-c2cc(O)c(O)c(O)c2)oc2cc(O)cc(O)c12
REMARK SMILES IDX 5 1 3 2 2 3 1 4 23 5 21 6 20 7 18 8 17 9 16 10 15 11 6 12
REMARK SMILES IDX 7 13 8 14 14 15 10 16 12 17 9 18 11 20 13 22 4 24 22 26
REMARK SMILES IDX 19 28
REMARK H PARENT 9 19 11 21 13 23 4 25 22 27 19 29
REMARK Flexibility Score: inf
ROOT
ATOM      1  C   UNL     1     171.200 167.813 177.530  1.00  0.00     0.180 A 
ATOM      2  C   UNL     1     172.212 168.604 178.098  1.00  0.00     0.208 A 
ATOM      3  C   UNL     1     171.953 169.959 178.358  1.00  0.00     0.238 A 
ATOM      4  O   UNL     1     172.881 170.675 178.817  1.00  0.00    -0.285 OA
ATOM      5  C   UNL     1     170.680 170.502 178.061  1.00  0.00     0.111 A 
ATOM      6  C   UNL     1     170.294 171.852 178.320  1.00  0.00     0.134 A 
ATOM      7  C   UNL     1     169.053 172.315 177.865  1.00  0.00     0.093 A 
ATOM      8  C   UNL     1     168.158 171.461 177.221  1.00  0.00     0.123 A 
ATOM      9  C   UNL     1     168.500 170.124 177.017  1.00  0.00     0.094 A 
ATOM     10  C   UNL     1     169.747 169.642 177.426  1.00  0.00     0.146 A 
ATOM     11  O   UNL     1     170.037 168.367 177.203  1.00  0.00    -0.452 OA
ENDROOT
BRANCH   1  12
ATOM     12  C   UNL     1     171.390 166.371 177.251  1.00  0.00     0.029 A 
ATOM     13  C   UNL     1     171.966 165.929 176.048  1.00  0.00     0.062 A 
ATOM     14  C   UNL     1     172.160 164.565 175.810  1.00  0.00     0.162 A 
ATOM     15  C   UNL     1     171.042 165.426 178.229  1.00  0.00     0.062 A 
ATOM     16  C   UNL     1     171.790 163.622 176.783  1.00  0.00     0.200 A 
ATOM     17  C   UNL     1     171.232 164.057 177.998  1.00  0.00     0.162 A 
BRANCH  14  18
ATOM     18  O   UNL     1     172.729 164.165 174.600  1.00  0.00    -0.504 OA
ATOM     19  H   UNL     1     172.939 164.825 173.860  1.00  0.00     0.293 HD
ENDBRANCH  14  18
BRANCH  16  20
ATOM     20  O   UNL     1     171.983 162.262 176.535  1.00  0.00    -0.502 OA
ATOM     21  H   UNL     1     172.551 161.928 175.765  1.00  0.00     0.293 HD
ENDBRANCH  16  20
BRANCH  17  22
ATOM     22  O   UNL     1     170.870 163.127 178.971  1.00  0.00    -0.504 OA
ATOM     23  H   UNL     1     170.020 163.230 179.514  1.00  0.00     0.293 HD
ENDBRANCH  17  22
ENDBRANCH   1  12
BRANCH   2  24
ATOM     24  O   UNL     1     173.469 168.053 178.364  1.00  0.00    -0.502 OA
ATOM     25  H   UNL     1     173.598 167.271 178.994  1.00  0.00     0.293 HD
ENDBRANCH   2  24
BRANCH   6  26
ATOM     26  O   UNL     1     171.075 172.764 179.036  1.00  0.00    -0.507 OA
ATOM     27  H   UNL     1     171.012 173.767 178.949  1.00  0.00     0.293 HD
ENDBRANCH   6  26
BRANCH   8  28
ATOM     28  O   UNL     1     166.925 171.952 176.796  1.00  0.00    -0.508 OA
ATOM     29  H   UNL     1     166.418 172.648 177.331  1.00  0.00     0.293 HD
ENDBRANCH   8  28
TORSDOF 7
ENDMDL
