MODEL 1
REMARK VINA RESULT:    -7.042      0.000      0.000
REMARK INTER + INTRA:         -10.262
REMARK INTER:                  -9.306
REMARK INTRA:                  -0.956
REMARK UNBOUND:                -0.956
REMARK SMILES CC[C@H](C=C[C@H](C)[C@H]1CC[C@H]2C3=CC[C@@H]4C[C@H](O)CC[C@@]4(C)[C@H]3CC[C@]12C)C(C)C
REMARK SMILES IDX 6 1 7 2 5 3 4 4 3 5 2 6 1 7 28 8 29 9 30 10 8 11 9 12 26 13
REMARK SMILES IDX 10 14 11 15 25 16 27 17 12 18 24 19 23 20 13 21 21 22 14 23
REMARK SMILES IDX 15 24 20 25 22 26 16 27 19 28 17 29 18 30
REMARK H PARENT 18 31
REMARK Flexibility Score: inf
ROOT
ATOM      1  C   UNL     1      12.023 -16.573  31.651  1.00  0.00     0.012 C 
ATOM      2  C   UNL     1      10.990 -15.876  32.562  1.00  0.00     0.012 C 
ENDROOT
BRANCH   1   3
ATOM      3  C   UNL     1      11.758 -18.066  31.616  1.00  0.00    -0.028 C 
ATOM      4  C   UNL     1      10.516 -18.579  31.709  1.00  0.00    -0.027 C 
BRANCH   4   5
ATOM      5  C   UNL     1      10.174 -20.055  31.599  1.00  0.00     0.014 C 
BRANCH   5   6
ATOM      6  C   UNL     1      10.379 -20.839  32.923  1.00  0.00     0.004 C 
ATOM      7  C   UNL     1      10.046 -20.101  34.219  1.00  0.00     0.004 C 
ENDBRANCH   5   6
BRANCH   5   8
ATOM      8  C   UNL     1       8.868 -20.397  30.802  1.00  0.00    -0.011 C 
ATOM      9  C   UNL     1       8.069 -21.502  31.514  1.00  0.00     0.008 C 
ATOM     10  C   UNL     1       9.078 -20.804  29.331  1.00  0.00     0.008 C 
ENDBRANCH   5   8
ENDBRANCH   4   5
ENDBRANCH   1   3
BRANCH   1  11
ATOM     11  C   UNL     1      12.176 -16.014  30.194  1.00  0.00     0.002 C 
ATOM     12  C   UNL     1      11.254 -14.840  29.776  1.00  0.00     0.005 C 
ATOM     13  C   UNL     1      13.593 -15.573  29.745  1.00  0.00    -0.023 C 
ATOM     14  C   UNL     1      12.015 -14.055  28.688  1.00  0.00     0.009 C 
ATOM     15  C   UNL     1      13.251 -14.910  28.404  1.00  0.00     0.021 C 
ATOM     16  C   UNL     1      14.580 -16.737  29.466  1.00  0.00     0.008 C 
ATOM     17  C   UNL     1      14.228 -14.570  30.753  1.00  0.00     0.012 C 
ATOM     18  C   UNL     1      14.501 -14.355  27.758  1.00  0.00    -0.067 C 
ATOM     19  C   UNL     1      15.857 -16.255  28.721  1.00  0.00     0.009 C 
ATOM     20  C   UNL     1      15.545 -15.431  27.430  1.00  0.00     0.021 C 
ATOM     21  C   UNL     1      14.761 -13.030  27.698  1.00  0.00    -0.027 C 
ATOM     22  C   UNL     1      16.802 -14.860  26.661  1.00  0.00    -0.023 C 
ATOM     23  C   UNL     1      16.066 -12.469  27.210  1.00  0.00     0.031 C 
ATOM     24  C   UNL     1      17.210 -13.492  27.298  1.00  0.00     0.002 C 
ATOM     25  C   UNL     1      18.025 -15.829  26.736  1.00  0.00     0.010 C 
ATOM     26  C   UNL     1      16.394 -14.698  25.164  1.00  0.00     0.012 C 
ATOM     27  C   UNL     1      18.505 -12.901  26.695  1.00  0.00     0.036 C 
ATOM     28  C   UNL     1      19.300 -15.244  26.107  1.00  0.00     0.032 C 
ATOM     29  C   UNL     1      19.669 -13.905  26.767  1.00  0.00     0.114 C 
BRANCH  29  30
ATOM     30  O   UNL     1      20.827 -13.366  26.180  1.00  0.00    -0.393 OA
ATOM     31  H   UNL     1      21.613 -13.801  26.607  1.00  0.00     0.210 HD
ENDBRANCH  29  30
ENDBRANCH   1  11
TORSDOF 6
ENDMDL
MODEL 2
REMARK VINA RESULT:    -6.990      1.696      2.369
REMARK INTER + INTRA:         -10.194
REMARK INTER:                 -10.186
REMARK INTRA:                  -0.008
REMARK UNBOUND:                -0.956
REMARK SMILES CC[C@H](C=C[C@H](C)[C@H]1CC[C@H]2C3=CC[C@@H]4C[C@H](O)CC[C@@]4(C)[C@H]3CC[C@]12C)C(C)C
REMARK SMILES IDX 6 1 7 2 5 3 4 4 3 5 2 6 1 7 28 8 29 9 30 10 8 11 9 12 26 13
REMARK SMILES IDX 10 14 11 15 25 16 27 17 12 18 24 19 23 20 13 21 21 22 14 23
REMARK SMILES IDX 15 24 20 25 22 26 16 27 19 28 17 29 18 30
REMARK H PARENT 18 31
REMARK Flexibility Score: inf
ROOT
ATOM      1  C   UNL     1      13.009 -16.398  30.496  1.00  0.00     0.012 C 
ATOM      2  C   UNL     1      13.645 -15.618  31.667  1.00  0.00     0.012 C 
ENDROOT
BRANCH   1   3
ATOM      3  C   UNL     1      11.777 -17.140  30.978  1.00  0.00    -0.028 C 
ATOM      4  C   UNL     1      11.819 -18.021  31.996  1.00  0.00    -0.027 C 
BRANCH   4   5
ATOM      5  C   UNL     1      10.611 -18.734  32.579  1.00  0.00     0.014 C 
BRANCH   5   6
ATOM      6  C   UNL     1       9.363 -17.822  32.722  1.00  0.00     0.004 C 
ATOM      7  C   UNL     1       9.617 -16.353  33.057  1.00  0.00     0.004 C 
ENDBRANCH   5   6
BRANCH   5   8
ATOM      8  C   UNL     1      10.339 -20.178  32.033  1.00  0.00    -0.011 C 
ATOM      9  C   UNL     1       9.313 -20.142  30.887  1.00  0.00     0.008 C 
ATOM     10  C   UNL     1       9.877 -21.206  33.083  1.00  0.00     0.008 C 
ENDBRANCH   5   8
ENDBRANCH   4   5
ENDBRANCH   1   3
BRANCH   1  11
ATOM     11  C   UNL     1      12.681 -15.585  29.196  1.00  0.00     0.002 C 
ATOM     12  C   UNL     1      11.634 -14.448  29.307  1.00  0.00     0.005 C 
ATOM     13  C   UNL     1      13.872 -14.943  28.438  1.00  0.00    -0.023 C 
ATOM     14  C   UNL     1      11.991 -13.420  28.214  1.00  0.00     0.009 C 
ATOM     15  C   UNL     1      13.106 -14.094  27.414  1.00  0.00     0.021 C 
ATOM     16  C   UNL     1      14.765 -15.945  27.658  1.00  0.00     0.008 C 
ATOM     17  C   UNL     1      14.752 -14.073  29.383  1.00  0.00     0.012 C 
ATOM     18  C   UNL     1      14.073 -13.323  26.543  1.00  0.00    -0.067 C 
ATOM     19  C   UNL     1      15.728 -15.225  26.673  1.00  0.00     0.009 C 
ATOM     20  C   UNL     1      15.001 -14.224  25.718  1.00  0.00     0.021 C 
ATOM     21  C   UNL     1      14.254 -11.989  26.665  1.00  0.00    -0.027 C 
ATOM     22  C   UNL     1      15.936 -13.414  24.733  1.00  0.00    -0.023 C 
ATOM     23  C   UNL     1      15.321 -11.233  25.927  1.00  0.00     0.031 C 
ATOM     24  C   UNL     1      16.472 -12.144  25.471  1.00  0.00     0.002 C 
ATOM     25  C   UNL     1      17.155 -14.264  24.252  1.00  0.00     0.010 C 
ATOM     26  C   UNL     1      15.077 -13.036  23.488  1.00  0.00     0.012 C 
ATOM     27  C   UNL     1      17.493 -11.341  24.633  1.00  0.00     0.036 C 
ATOM     28  C   UNL     1      18.150 -13.463  23.396  1.00  0.00     0.032 C 
ATOM     29  C   UNL     1      18.657 -12.229  24.160  1.00  0.00     0.114 C 
BRANCH  29  30
ATOM     30  O   UNL     1      19.555 -11.491  23.369  1.00  0.00    -0.393 OA
ATOM     31  H   UNL     1      19.202 -11.481  22.440  1.00  0.00     0.210 HD
ENDBRANCH  29  30
ENDBRANCH   1  11
TORSDOF 6
ENDMDL
MODEL 3
REMARK VINA RESULT:    -6.863      2.563      4.676
REMARK INTER + INTRA:         -10.026
REMARK INTER:                  -9.699
REMARK INTRA:                  -0.327
REMARK UNBOUND:                -0.956
REMARK SMILES CC[C@H](C=C[C@H](C)[C@H]1CC[C@H]2C3=CC[C@@H]4C[C@H](O)CC[C@@]4(C)[C@H]3CC[C@]12C)C(C)C
REMARK SMILES IDX 6 1 7 2 5 3 4 4 3 5 2 6 1 7 28 8 29 9 30 10 8 11 9 12 26 13
REMARK SMILES IDX 10 14 11 15 25 16 27 17 12 18 24 19 23 20 13 21 21 22 14 23
REMARK SMILES IDX 15 24 20 25 22 26 16 27 19 28 17 29 18 30
REMARK H PARENT 18 31
REMARK Flexibility Score: inf
ROOT
ATOM      1  C   UNL     1      12.525 -13.205  27.571  1.00  0.00     0.012 C 
ATOM      2  C   UNL     1      11.698 -14.147  26.670  1.00  0.00     0.012 C 
ENDROOT
BRANCH   1   3
ATOM      3  C   UNL     1      12.502 -13.704  29.003  1.00  0.00    -0.028 C 
ATOM      4  C   UNL     1      11.690 -14.701  29.404  1.00  0.00    -0.027 C 
BRANCH   4   5
ATOM      5  C   UNL     1      11.675 -15.303  30.800  1.00  0.00     0.014 C 
BRANCH   5   6
ATOM      6  C   UNL     1      10.245 -15.569  31.343  1.00  0.00     0.004 C 
ATOM      7  C   UNL     1       9.978 -15.185  32.797  1.00  0.00     0.004 C 
ENDBRANCH   5   6
BRANCH   5   8
ATOM      8  C   UNL     1      12.727 -16.433  31.068  1.00  0.00    -0.011 C 
ATOM      9  C   UNL     1      12.042 -17.691  31.629  1.00  0.00     0.008 C 
ATOM     10  C   UNL     1      13.892 -16.044  31.998  1.00  0.00     0.008 C 
ENDBRANCH   5   8
ENDBRANCH   4   5
ENDBRANCH   1   3
BRANCH   1  11
ATOM     11  C   UNL     1      13.998 -12.909  27.123  1.00  0.00     0.002 C 
ATOM     12  C   UNL     1      14.827 -11.924  27.986  1.00  0.00     0.005 C 
ATOM     13  C   UNL     1      14.938 -14.125  26.913  1.00  0.00    -0.023 C 
ATOM     14  C   UNL     1      16.305 -12.325  27.807  1.00  0.00     0.009 C 
ATOM     15  C   UNL     1      16.274 -13.397  26.716  1.00  0.00     0.021 C 
ATOM     16  C   UNL     1      14.652 -14.956  25.633  1.00  0.00     0.008 C 
ATOM     17  C   UNL     1      14.954 -15.059  28.159  1.00  0.00     0.012 C 
ATOM     18  C   UNL     1      17.392 -14.395  26.514  1.00  0.00    -0.067 C 
ATOM     19  C   UNL     1      15.805 -15.948  25.311  1.00  0.00     0.009 C 
ATOM     20  C   UNL     1      17.211 -15.266  25.264  1.00  0.00     0.021 C 
ATOM     21  C   UNL     1      18.320 -14.648  27.463  1.00  0.00    -0.027 C 
ATOM     22  C   UNL     1      18.433 -16.234  25.001  1.00  0.00    -0.023 C 
ATOM     23  C   UNL     1      19.337 -15.747  27.348  1.00  0.00     0.031 C 
ATOM     24  C   UNL     1      18.901 -16.843  26.362  1.00  0.00     0.002 C 
ATOM     25  C   UNL     1      18.058 -17.402  24.034  1.00  0.00     0.010 C 
ATOM     26  C   UNL     1      19.559 -15.385  24.334  1.00  0.00     0.012 C 
ATOM     27  C   UNL     1      20.020 -17.898  26.204  1.00  0.00     0.036 C 
ATOM     28  C   UNL     1      19.187 -18.430  23.861  1.00  0.00     0.032 C 
ATOM     29  C   UNL     1      19.612 -19.010  25.221  1.00  0.00     0.114 C 
BRANCH  29  30
ATOM     30  O   UNL     1      20.654 -19.938  25.060  1.00  0.00    -0.393 OA
ATOM     31  H   UNL     1      20.273 -20.848  25.190  1.00  0.00     0.210 HD
ENDBRANCH  29  30
ENDBRANCH   1  11
TORSDOF 6
ENDMDL
MODEL 4
REMARK VINA RESULT:    -6.781      2.083      3.491
REMARK INTER + INTRA:          -9.917
REMARK INTER:                  -9.640
REMARK INTRA:                  -0.278
REMARK UNBOUND:                -0.956
REMARK SMILES CC[C@H](C=C[C@H](C)[C@H]1CC[C@H]2C3=CC[C@@H]4C[C@H](O)CC[C@@]4(C)[C@H]3CC[C@]12C)C(C)C
REMARK SMILES IDX 6 1 7 2 5 3 4 4 3 5 2 6 1 7 28 8 29 9 30 10 8 11 9 12 26 13
REMARK SMILES IDX 10 14 11 15 25 16 27 17 12 18 24 19 23 20 13 21 21 22 14 23
REMARK SMILES IDX 15 24 20 25 22 26 16 27 19 28 17 29 18 30
REMARK H PARENT 18 31
REMARK Flexibility Score: inf
ROOT
ATOM      1  C   UNL     1      10.571 -16.526  32.419  1.00  0.00     0.012 C 
ATOM      2  C   UNL     1       9.258 -15.837  31.990  1.00  0.00     0.012 C 
ENDROOT
BRANCH   1   3
ATOM      3  C   UNL     1      10.620 -17.938  31.866  1.00  0.00    -0.028 C 
ATOM      4  C   UNL     1       9.933 -18.953  32.424  1.00  0.00    -0.027 C 
BRANCH   4   5
ATOM      5  C   UNL     1       9.873 -20.369  31.875  1.00  0.00     0.014 C 
BRANCH   5   6
ATOM      6  C   UNL     1      10.282 -21.452  32.910  1.00  0.00     0.004 C 
ATOM      7  C   UNL     1       9.887 -22.893  32.592  1.00  0.00     0.004 C 
ENDBRANCH   5   6
BRANCH   5   8
ATOM      8  C   UNL     1       8.622 -20.708  30.994  1.00  0.00    -0.011 C 
ATOM      9  C   UNL     1       8.956 -20.570  29.499  1.00  0.00     0.008 C 
ATOM     10  C   UNL     1       7.356 -19.885  31.299  1.00  0.00     0.008 C 
ENDBRANCH   5   8
ENDBRANCH   4   5
ENDBRANCH   1   3
BRANCH   1  11
ATOM     11  C   UNL     1      11.907 -15.770  32.096  1.00  0.00     0.002 C 
ATOM     12  C   UNL     1      13.221 -16.361  32.666  1.00  0.00     0.005 C 
ATOM     13  C   UNL     1      12.223 -15.487  30.605  1.00  0.00    -0.023 C 
ATOM     14  C   UNL     1      14.346 -15.929  31.703  1.00  0.00     0.009 C 
ATOM     15  C   UNL     1      13.660 -14.965  30.733  1.00  0.00     0.021 C 
ATOM     16  C   UNL     1      11.363 -14.369  29.956  1.00  0.00     0.008 C 
ATOM     17  C   UNL     1      12.142 -16.783  29.745  1.00  0.00     0.012 C 
ATOM     18  C   UNL     1      14.224 -14.635  29.369  1.00  0.00    -0.067 C 
ATOM     19  C   UNL     1      11.934 -13.914  28.584  1.00  0.00     0.009 C 
ATOM     20  C   UNL     1      13.448 -13.528  28.642  1.00  0.00     0.021 C 
ATOM     21  C   UNL     1      15.160 -15.400  28.765  1.00  0.00    -0.027 C 
ATOM     22  C   UNL     1      14.104 -13.115  27.264  1.00  0.00    -0.023 C 
ATOM     23  C   UNL     1      15.613 -15.183  27.350  1.00  0.00     0.031 C 
ATOM     24  C   UNL     1      14.578 -14.406  26.520  1.00  0.00     0.002 C 
ATOM     25  C   UNL     1      13.100 -12.350  26.344  1.00  0.00     0.010 C 
ATOM     26  C   UNL     1      15.298 -12.166  27.587  1.00  0.00     0.012 C 
ATOM     27  C   UNL     1      15.130 -14.123  25.104  1.00  0.00     0.036 C 
ATOM     28  C   UNL     1      13.668 -12.048  24.948  1.00  0.00     0.032 C 
ATOM     29  C   UNL     1      14.116 -13.343  24.249  1.00  0.00     0.114 C 
BRANCH  29  30
ATOM     30  O   UNL     1      14.648 -13.062  22.979  1.00  0.00    -0.393 OA
ATOM     31  H   UNL     1      13.894 -12.797  22.387  1.00  0.00     0.210 HD
ENDBRANCH  29  30
ENDBRANCH   1  11
TORSDOF 6
ENDMDL
MODEL 5
REMARK VINA RESULT:    -6.134      9.189     11.459
REMARK INTER + INTRA:          -9.062
REMARK INTER:                  -7.768
REMARK INTRA:                  -1.294
REMARK UNBOUND:                -0.956
REMARK SMILES CC[C@H](C=C[C@H](C)[C@H]1CC[C@H]2C3=CC[C@@H]4C[C@H](O)CC[C@@]4(C)[C@H]3CC[C@]12C)C(C)C
REMARK SMILES IDX 6 1 7 2 5 3 4 4 3 5 2 6 1 7 28 8 29 9 30 10 8 11 9 12 26 13
REMARK SMILES IDX 10 14 11 15 25 16 27 17 12 18 24 19 23 20 13 21 21 22 14 23
REMARK SMILES IDX 15 24 20 25 22 26 16 27 19 28 17 29 18 30
REMARK H PARENT 18 31
REMARK Flexibility Score: inf
ROOT
ATOM      1  C   UNL     1       2.083 -19.408  29.090  1.00  0.00     0.012 C 
ATOM      2  C   UNL     1       0.878 -19.939  29.895  1.00  0.00     0.012 C 
ENDROOT
BRANCH   1   3
ATOM      3  C   UNL     1       3.375 -19.730  29.817  1.00  0.00    -0.028 C 
ATOM      4  C   UNL     1       3.955 -20.943  29.749  1.00  0.00    -0.027 C 
BRANCH   4   5
ATOM      5  C   UNL     1       5.287 -21.308  30.384  1.00  0.00     0.014 C 
BRANCH   5   6
ATOM      6  C   UNL     1       6.446 -20.358  29.978  1.00  0.00     0.004 C 
ATOM      7  C   UNL     1       6.946 -20.457  28.538  1.00  0.00     0.004 C 
ENDBRANCH   5   6
BRANCH   5   8
ATOM      8  C   UNL     1       5.236 -21.711  31.898  1.00  0.00    -0.011 C 
ATOM      9  C   UNL     1       5.464 -20.484  32.796  1.00  0.00     0.008 C 
ATOM     10  C   UNL     1       6.214 -22.825  32.318  1.00  0.00     0.008 C 
ENDBRANCH   5   8
ENDBRANCH   4   5
ENDBRANCH   1   3
BRANCH   1  11
ATOM     11  C   UNL     1       2.181 -19.846  27.588  1.00  0.00     0.002 C 
ATOM     12  C   UNL     1       0.885 -20.344  26.900  1.00  0.00     0.005 C 
ATOM     13  C   UNL     1       2.784 -18.827  26.586  1.00  0.00    -0.023 C 
ATOM     14  C   UNL     1       1.044 -20.038  25.397  1.00  0.00     0.009 C 
ATOM     15  C   UNL     1       2.486 -19.547  25.264  1.00  0.00     0.021 C 
ATOM     16  C   UNL     1       4.321 -18.638  26.694  1.00  0.00     0.008 C 
ATOM     17  C   UNL     1       2.073 -17.444  26.676  1.00  0.00     0.012 C 
ATOM     18  C   UNL     1       2.967 -18.718  24.094  1.00  0.00    -0.067 C 
ATOM     19  C   UNL     1       4.902 -17.867  25.475  1.00  0.00     0.009 C 
ATOM     20  C   UNL     1       4.483 -18.479  24.099  1.00  0.00     0.021 C 
ATOM     21  C   UNL     1       2.118 -18.064  23.270  1.00  0.00    -0.027 C 
ATOM     22  C   UNL     1       4.992 -17.703  22.820  1.00  0.00    -0.023 C 
ATOM     23  C   UNL     1       2.577 -17.108  22.207  1.00  0.00     0.031 C 
ATOM     24  C   UNL     1       3.984 -16.555  22.487  1.00  0.00     0.002 C 
ATOM     25  C   UNL     1       6.406 -17.076  23.039  1.00  0.00     0.010 C 
ATOM     26  C   UNL     1       5.087 -18.739  21.658  1.00  0.00     0.012 C 
ATOM     27  C   UNL     1       4.450 -15.656  21.319  1.00  0.00     0.036 C 
ATOM     28  C   UNL     1       6.872 -16.208  21.860  1.00  0.00     0.032 C 
ATOM     29  C   UNL     1       5.857 -15.089  21.571  1.00  0.00     0.114 C 
BRANCH  29  30
ATOM     30  O   UNL     1       6.280 -14.306  20.483  1.00  0.00    -0.393 OA
ATOM     31  H   UNL     1       5.495 -13.786  20.161  1.00  0.00     0.210 HD
ENDBRANCH  29  30
ENDBRANCH   1  11
TORSDOF 6
ENDMDL
MODEL 6
REMARK VINA RESULT:    -6.116      4.519      8.496
REMARK INTER + INTRA:          -9.039
REMARK INTER:                  -7.961
REMARK INTRA:                  -1.077
REMARK UNBOUND:                -0.956
REMARK SMILES CC[C@H](C=C[C@H](C)[C@H]1CC[C@H]2C3=CC[C@@H]4C[C@H](O)CC[C@@]4(C)[C@H]3CC[C@]12C)C(C)C
REMARK SMILES IDX 6 1 7 2 5 3 4 4 3 5 2 6 1 7 28 8 29 9 30 10 8 11 9 12 26 13
REMARK SMILES IDX 10 14 11 15 25 16 27 17 12 18 24 19 23 20 13 21 21 22 14 23
REMARK SMILES IDX 15 24 20 25 22 26 16 27 19 28 17 29 18 30
REMARK H PARENT 18 31
REMARK Flexibility Score: inf
ROOT
ATOM      1  C   UNL     1      19.633 -18.553  25.044  1.00  0.00     0.012 C 
ATOM      2  C   UNL     1      21.052 -19.115  25.280  1.00  0.00     0.012 C 
ENDROOT
BRANCH   1   3
ATOM      3  C   UNL     1      18.744 -19.626  24.444  1.00  0.00    -0.028 C 
ATOM      4  C   UNL     1      18.279 -19.552  23.182  1.00  0.00    -0.027 C 
BRANCH   4   5
ATOM      5  C   UNL     1      17.455 -20.628  22.495  1.00  0.00     0.014 C 
BRANCH   5   6
ATOM      6  C   UNL     1      15.923 -20.410  22.623  1.00  0.00     0.004 C 
ATOM      7  C   UNL     1      15.274 -20.843  23.937  1.00  0.00     0.004 C 
ENDBRANCH   5   6
BRANCH   5   8
ATOM      8  C   UNL     1      17.962 -21.079  21.082  1.00  0.00    -0.011 C 
ATOM      9  C   UNL     1      19.493 -21.223  21.073  1.00  0.00     0.008 C 
ATOM     10  C   UNL     1      17.539 -20.174  19.908  1.00  0.00     0.008 C 
ENDBRANCH   5   8
ENDBRANCH   4   5
ENDBRANCH   1   3
BRANCH   1  11
ATOM     11  C   UNL     1      18.923 -17.882  26.271  1.00  0.00     0.002 C 
ATOM     12  C   UNL     1      19.801 -17.055  27.244  1.00  0.00     0.005 C 
ATOM     13  C   UNL     1      17.704 -16.969  25.977  1.00  0.00    -0.023 C 
ATOM     14  C   UNL     1      18.874 -15.994  27.871  1.00  0.00     0.009 C 
ATOM     15  C   UNL     1      17.479 -16.372  27.372  1.00  0.00     0.021 C 
ATOM     16  C   UNL     1      16.411 -17.722  25.563  1.00  0.00     0.008 C 
ATOM     17  C   UNL     1      18.045 -15.880  24.918  1.00  0.00     0.012 C 
ATOM     18  C   UNL     1      16.324 -15.395  27.345  1.00  0.00    -0.067 C 
ATOM     19  C   UNL     1      15.161 -16.799  25.597  1.00  0.00     0.009 C 
ATOM     20  C   UNL     1      14.988 -16.042  26.954  1.00  0.00     0.021 C 
ATOM     21  C   UNL     1      16.502 -14.058  27.424  1.00  0.00    -0.027 C 
ATOM     22  C   UNL     1      13.769 -15.040  27.030  1.00  0.00    -0.023 C 
ATOM     23  C   UNL     1      15.389 -13.067  27.236  1.00  0.00     0.031 C 
ATOM     24  C   UNL     1      14.210 -13.658  26.447  1.00  0.00     0.002 C 
ATOM     25  C   UNL     1      12.537 -15.553  26.219  1.00  0.00     0.010 C 
ATOM     26  C   UNL     1      13.357 -14.926  28.530  1.00  0.00     0.012 C 
ATOM     27  C   UNL     1      13.053 -12.635  26.365  1.00  0.00     0.036 C 
ATOM     28  C   UNL     1      11.382 -14.541  26.168  1.00  0.00     0.032 C 
ATOM     29  C   UNL     1      11.856 -13.200  25.582  1.00  0.00     0.114 C 
BRANCH  29  30
ATOM     30  O   UNL     1      10.800 -12.272  25.550  1.00  0.00    -0.393 OA
ATOM     31  H   UNL     1      11.023 -11.584  24.868  1.00  0.00     0.210 HD
ENDBRANCH  29  30
ENDBRANCH   1  11
TORSDOF 6
ENDMDL
MODEL 7
REMARK VINA RESULT:    -6.105      4.893      8.118
REMARK INTER + INTRA:          -9.024
REMARK INTER:                  -8.001
REMARK INTRA:                  -1.023
REMARK UNBOUND:                -0.956
REMARK SMILES CC[C@H](C=C[C@H](C)[C@H]1CC[C@H]2C3=CC[C@@H]4C[C@H](O)CC[C@@]4(C)[C@H]3CC[C@]12C)C(C)C
REMARK SMILES IDX 6 1 7 2 5 3 4 4 3 5 2 6 1 7 28 8 29 9 30 10 8 11 9 12 26 13
REMARK SMILES IDX 10 14 11 15 25 16 27 17 12 18 24 19 23 20 13 21 21 22 14 23
REMARK SMILES IDX 15 24 20 25 22 26 16 27 19 28 17 29 18 30
REMARK H PARENT 18 31
REMARK Flexibility Score: inf
ROOT
ATOM      1  C   UNL     1      16.425 -13.792  26.569  1.00  0.00     0.012 C 
ATOM      2  C   UNL     1      17.023 -12.516  27.199  1.00  0.00     0.012 C 
ENDROOT
BRANCH   1   3
ATOM      3  C   UNL     1      14.997 -13.532  26.128  1.00  0.00    -0.028 C 
ATOM      4  C   UNL     1      14.174 -12.708  26.804  1.00  0.00    -0.027 C 
BRANCH   4   5
ATOM      5  C   UNL     1      12.764 -12.340  26.373  1.00  0.00     0.014 C 
BRANCH   5   6
ATOM      6  C   UNL     1      12.667 -11.895  24.889  1.00  0.00     0.004 C 
ATOM      7  C   UNL     1      11.390 -11.168  24.470  1.00  0.00     0.004 C 
ENDBRANCH   5   6
BRANCH   5   8
ATOM      8  C   UNL     1      11.626 -13.294  26.873  1.00  0.00    -0.011 C 
ATOM      9  C   UNL     1      11.884 -13.736  28.324  1.00  0.00     0.008 C 
ATOM     10  C   UNL     1      11.384 -14.545  26.008  1.00  0.00     0.008 C 
ENDBRANCH   5   8
ENDBRANCH   4   5
ENDBRANCH   1   3
BRANCH   1  11
ATOM     11  C   UNL     1      17.240 -14.457  25.406  1.00  0.00     0.002 C 
ATOM     12  C   UNL     1      18.572 -13.783  24.986  1.00  0.00     0.005 C 
ATOM     13  C   UNL     1      17.595 -15.959  25.552  1.00  0.00    -0.023 C 
ATOM     14  C   UNL     1      19.464 -14.903  24.411  1.00  0.00     0.009 C 
ATOM     15  C   UNL     1      18.545 -16.124  24.359  1.00  0.00     0.021 C 
ATOM     16  C   UNL     1      16.403 -16.933  25.355  1.00  0.00     0.008 C 
ATOM     17  C   UNL     1      18.299 -16.252  26.910  1.00  0.00     0.012 C 
ATOM     18  C   UNL     1      19.069 -17.542  24.296  1.00  0.00    -0.067 C 
ATOM     19  C   UNL     1      16.872 -18.406  25.194  1.00  0.00     0.009 C 
ATOM     20  C   UNL     1      17.966 -18.589  24.092  1.00  0.00     0.021 C 
ATOM     21  C   UNL     1      20.340 -17.862  24.624  1.00  0.00    -0.027 C 
ATOM     22  C   UNL     1      18.529 -20.057  23.922  1.00  0.00    -0.023 C 
ATOM     23  C   UNL     1      20.833 -19.277  24.726  1.00  0.00     0.031 C 
ATOM     24  C   UNL     1      19.688 -20.278  24.948  1.00  0.00     0.002 C 
ATOM     25  C   UNL     1      17.430 -21.139  24.170  1.00  0.00     0.010 C 
ATOM     26  C   UNL     1      19.030 -20.192  22.451  1.00  0.00     0.012 C 
ATOM     27  C   UNL     1      20.233 -21.725  24.947  1.00  0.00     0.036 C 
ATOM     28  C   UNL     1      17.976 -22.574  24.139  1.00  0.00     0.032 C 
ATOM     29  C   UNL     1      19.107 -22.751  25.166  1.00  0.00     0.114 C 
BRANCH  29  30
ATOM     30  O   UNL     1      19.614 -24.062  25.124  1.00  0.00    -0.393 OA
ATOM     31  H   UNL     1      20.511 -24.053  25.555  1.00  0.00     0.210 HD
ENDBRANCH  29  30
ENDBRANCH   1  11
TORSDOF 6
ENDMDL
MODEL 8
REMARK VINA RESULT:    -6.060      6.422      8.837
REMARK INTER + INTRA:          -8.965
REMARK INTER:                  -7.964
REMARK INTRA:                  -1.002
REMARK UNBOUND:                -0.956
REMARK SMILES CC[C@H](C=C[C@H](C)[C@H]1CC[C@H]2C3=CC[C@@H]4C[C@H](O)CC[C@@]4(C)[C@H]3CC[C@]12C)C(C)C
REMARK SMILES IDX 6 1 7 2 5 3 4 4 3 5 2 6 1 7 28 8 29 9 30 10 8 11 9 12 26 13
REMARK SMILES IDX 10 14 11 15 25 16 27 17 12 18 24 19 23 20 13 21 21 22 14 23
REMARK SMILES IDX 15 24 20 25 22 26 16 27 19 28 17 29 18 30
REMARK H PARENT 18 31
REMARK Flexibility Score: inf
ROOT
ATOM      1  C   UNL     1      16.674 -24.204  23.457  1.00  0.00     0.012 C 
ATOM      2  C   UNL     1      17.260 -25.351  22.606  1.00  0.00     0.012 C 
ENDROOT
BRANCH   1   3
ATOM      3  C   UNL     1      15.655 -24.755  24.437  1.00  0.00    -0.028 C 
ATOM      4  C   UNL     1      14.582 -25.463  24.037  1.00  0.00    -0.027 C 
BRANCH   4   5
ATOM      5  C   UNL     1      13.571 -26.110  24.969  1.00  0.00     0.014 C 
BRANCH   5   6
ATOM      6  C   UNL     1      14.194 -26.635  26.290  1.00  0.00     0.004 C 
ATOM      7  C   UNL     1      14.738 -28.063  26.276  1.00  0.00     0.004 C 
ENDBRANCH   5   6
BRANCH   5   8
ATOM      8  C   UNL     1      12.199 -25.367  25.112  1.00  0.00    -0.011 C 
ATOM      9  C   UNL     1      11.649 -24.967  23.732  1.00  0.00     0.008 C 
ATOM     10  C   UNL     1      12.212 -24.123  26.021  1.00  0.00     0.008 C 
ENDBRANCH   5   8
ENDBRANCH   4   5
ENDBRANCH   1   3
BRANCH   1  11
ATOM     11  C   UNL     1      17.698 -23.278  24.201  1.00  0.00     0.002 C 
ATOM     12  C   UNL     1      19.188 -23.707  24.196  1.00  0.00     0.005 C 
ATOM     13  C   UNL     1      17.725 -21.780  23.801  1.00  0.00    -0.023 C 
ATOM     14  C   UNL     1      20.014 -22.410  24.321  1.00  0.00     0.009 C 
ATOM     15  C   UNL     1      18.969 -21.322  24.573  1.00  0.00     0.021 C 
ATOM     16  C   UNL     1      16.515 -20.949  24.307  1.00  0.00     0.008 C 
ATOM     17  C   UNL     1      17.886 -21.599  22.263  1.00  0.00     0.012 C 
ATOM     18  C   UNL     1      19.235 -19.855  24.320  1.00  0.00    -0.067 C 
ATOM     19  C   UNL     1      16.753 -19.421  24.159  1.00  0.00     0.009 C 
ATOM     20  C   UNL     1      18.098 -18.940  24.793  1.00  0.00     0.021 C 
ATOM     21  C   UNL     1      20.256 -19.425  23.545  1.00  0.00    -0.027 C 
ATOM     22  C   UNL     1      18.427 -17.403  24.622  1.00  0.00    -0.023 C 
ATOM     23  C   UNL     1      20.440 -17.988  23.149  1.00  0.00     0.031 C 
ATOM     24  C   UNL     1      19.132 -17.186  23.243  1.00  0.00     0.002 C 
ATOM     25  C   UNL     1      17.140 -16.520  24.669  1.00  0.00     0.010 C 
ATOM     26  C   UNL     1      19.350 -16.993  25.810  1.00  0.00     0.012 C 
ATOM     27  C   UNL     1      19.392 -15.696  22.922  1.00  0.00     0.036 C 
ATOM     28  C   UNL     1      17.414 -15.036  24.376  1.00  0.00     0.032 C 
ATOM     29  C   UNL     1      18.100 -14.866  23.010  1.00  0.00     0.114 C 
BRANCH  29  30
ATOM     30  O   UNL     1      18.362 -13.509  22.753  1.00  0.00    -0.393 OA
ATOM     31  H   UNL     1      17.496 -13.069  22.537  1.00  0.00     0.210 HD
ENDBRANCH  29  30
ENDBRANCH   1  11
TORSDOF 6
ENDMDL
MODEL 9
REMARK VINA RESULT:    -5.987      4.637      7.987
REMARK INTER + INTRA:          -8.868
REMARK INTER:                  -7.591
REMARK INTRA:                  -1.277
REMARK UNBOUND:                -0.956
REMARK SMILES CC[C@H](C=C[C@H](C)[C@H]1CC[C@H]2C3=CC[C@@H]4C[C@H](O)CC[C@@]4(C)[C@H]3CC[C@]12C)C(C)C
REMARK SMILES IDX 6 1 7 2 5 3 4 4 3 5 2 6 1 7 28 8 29 9 30 10 8 11 9 12 26 13
REMARK SMILES IDX 10 14 11 15 25 16 27 17 12 18 24 19 23 20 13 21 21 22 14 23
REMARK SMILES IDX 15 24 20 25 22 26 16 27 19 28 17 29 18 30
REMARK H PARENT 18 31
REMARK Flexibility Score: inf
ROOT
ATOM      1  C   UNL     1      19.448 -19.236  24.355  1.00  0.00     0.012 C 
ATOM      2  C   UNL     1      20.922 -19.141  23.906  1.00  0.00     0.012 C 
ENDROOT
BRANCH   1   3
ATOM      3  C   UNL     1      19.057 -20.690  24.541  1.00  0.00    -0.028 C 
ATOM      4  C   UNL     1      17.875 -21.177  24.117  1.00  0.00    -0.027 C 
BRANCH   4   5
ATOM      5  C   UNL     1      17.455 -22.635  24.199  1.00  0.00     0.014 C 
BRANCH   5   6
ATOM      6  C   UNL     1      18.584 -23.577  24.696  1.00  0.00     0.004 C 
ATOM      7  C   UNL     1      18.408 -24.191  26.084  1.00  0.00     0.004 C 
ENDBRANCH   5   6
BRANCH   5   8
ATOM      8  C   UNL     1      16.032 -22.905  24.796  1.00  0.00    -0.011 C 
ATOM      9  C   UNL     1      15.351 -24.080  24.073  1.00  0.00     0.008 C 
ATOM     10  C   UNL     1      15.074 -21.698  24.794  1.00  0.00     0.008 C 
ENDBRANCH   5   8
ENDBRANCH   4   5
ENDBRANCH   1   3
BRANCH   1  11
ATOM     11  C   UNL     1      19.034 -18.396  25.613  1.00  0.00     0.002 C 
ATOM     12  C   UNL     1      20.117 -17.500  26.265  1.00  0.00     0.005 C 
ATOM     13  C   UNL     1      17.797 -17.472  25.476  1.00  0.00    -0.023 C 
ATOM     14  C   UNL     1      19.368 -16.333  26.940  1.00  0.00     0.009 C 
ATOM     15  C   UNL     1      17.891 -16.706  26.802  1.00  0.00     0.021 C 
ATOM     16  C   UNL     1      16.432 -18.210  25.445  1.00  0.00     0.008 C 
ATOM     17  C   UNL     1      17.918 -16.530  24.242  1.00  0.00     0.012 C 
ATOM     18  C   UNL     1      16.775 -15.689  26.903  1.00  0.00    -0.067 C 
ATOM     19  C   UNL     1      15.235 -17.235  25.632  1.00  0.00     0.009 C 
ATOM     20  C   UNL     1      15.376 -16.319  26.890  1.00  0.00     0.021 C 
ATOM     21  C   UNL     1      16.989 -14.361  26.776  1.00  0.00    -0.027 C 
ATOM     22  C   UNL     1      14.219 -15.262  27.101  1.00  0.00    -0.023 C 
ATOM     23  C   UNL     1      15.880 -13.351  26.709  1.00  0.00     0.031 C 
ATOM     24  C   UNL     1      14.547 -13.978  26.271  1.00  0.00     0.002 C 
ATOM     25  C   UNL     1      12.831 -15.812  26.642  1.00  0.00     0.010 C 
ATOM     26  C   UNL     1      14.146 -14.955  28.629  1.00  0.00     0.012 C 
ATOM     27  C   UNL     1      13.418 -12.922  26.313  1.00  0.00     0.036 C 
ATOM     28  C   UNL     1      11.711 -14.763  26.715  1.00  0.00     0.032 C 
ATOM     29  C   UNL     1      12.069 -13.522  25.880  1.00  0.00     0.114 C 
BRANCH  29  30
ATOM     30  O   UNL     1      11.048 -12.559  25.961  1.00  0.00    -0.393 OA
ATOM     31  H   UNL     1      10.799 -12.303  25.032  1.00  0.00     0.210 HD
ENDBRANCH  29  30
ENDBRANCH   1  11
TORSDOF 6
ENDMDL
