MODEL 1
REMARK VINA RESULT:    -4.830      0.000      0.000
REMARK INTER + INTRA:         -11.608
REMARK INTER:                  -9.065
REMARK INTRA:                  -2.543
REMARK UNBOUND:                -2.543
REMARK SMILES CCCCCCCCC=CCCCCCCCC(=O)[O-]
REMARK SMILES IDX 10 1 9 2 11 3 12 4 13 5 14 6 15 7 16 8 17 9 18 10 19 11
REMARK SMILES IDX 20 12 8 13 7 14 6 15 5 16 4 17 3 18 2 19 1 20
REMARK H PARENT
REMARK Flexibility Score: inf
ROOT
ATOM      1  C   UNL     1       7.363 -13.601  -2.261  1.00  0.00    -0.031 C 
ATOM      2  C   UNL     1       7.538 -12.718  -1.260  1.00  0.00    -0.031 C 
ENDROOT
BRANCH   1   3
ATOM      3  C   UNL     1       7.307 -13.238  -3.725  1.00  0.00     0.027 C 
BRANCH   3   4
ATOM      4  C   UNL     1       5.874 -13.289  -4.276  1.00  0.00     0.004 C 
BRANCH   4   5
ATOM      5  C   UNL     1       5.470 -11.975  -4.961  1.00  0.00     0.000 C 
BRANCH   5   6
ATOM      6  C   UNL     1       3.959 -11.940  -5.230  1.00  0.00     0.000 C 
BRANCH   6   7
ATOM      7  C   UNL     1       3.555 -10.814  -6.195  1.00  0.00     0.000 C 
BRANCH   7   8
ATOM      8  C   UNL     1       4.740 -10.297  -7.030  1.00  0.00     0.006 C 
BRANCH   8   9
ATOM      9  C   UNL     1       4.310  -9.229  -8.045  1.00  0.00     0.053 C 
BRANCH   9  10
ATOM     10  C   UNL     1       4.926  -7.898  -7.742  1.00  0.00     0.041 C 
ATOM     11  O   UNL     1       5.171  -7.568  -6.552  1.00  0.00    -0.550 OA
ATOM     12  O   UNL     1       5.199  -7.008  -8.773  1.00  0.00    -0.550 OA
ENDBRANCH   9  10
ENDBRANCH   8   9
ENDBRANCH   7   8
ENDBRANCH   6   7
ENDBRANCH   5   6
ENDBRANCH   4   5
ENDBRANCH   3   4
ENDBRANCH   1   3
BRANCH   2  13
ATOM     13  C   UNL     1       7.799 -11.245  -1.455  1.00  0.00     0.027 C 
BRANCH  13  14
ATOM     14  C   UNL     1       6.484 -10.489  -1.694  1.00  0.00     0.004 C 
BRANCH  14  15
ATOM     15  C   UNL     1       5.307 -11.068  -0.889  1.00  0.00     0.000 C 
BRANCH  15  16
ATOM     16  C   UNL     1       3.959 -11.085  -1.633  1.00  0.00     0.000 C 
BRANCH  16  17
ATOM     17  C   UNL     1       3.134 -12.374  -1.457  1.00  0.00    -0.000 C 
BRANCH  17  18
ATOM     18  C   UNL     1       3.970 -13.591  -1.006  1.00  0.00    -0.000 C 
BRANCH  18  19
ATOM     19  C   UNL     1       3.345 -14.924  -1.439  1.00  0.00    -0.003 C 
ATOM     20  C   UNL     1       2.847 -14.857  -2.881  1.00  0.00     0.004 C 
ENDBRANCH  18  19
ENDBRANCH  17  18
ENDBRANCH  16  17
ENDBRANCH  15  16
ENDBRANCH  14  15
ENDBRANCH  13  14
ENDBRANCH   2  13
TORSDOF 15
ENDMDL
MODEL 2
REMARK VINA RESULT:    -4.792      1.979      3.160
REMARK INTER + INTRA:         -11.536
REMARK INTER:                  -9.690
REMARK INTRA:                  -1.847
REMARK UNBOUND:                -2.543
REMARK SMILES CCCCCCCCC=CCCCCCCCC(=O)[O-]
REMARK SMILES IDX 10 1 9 2 11 3 12 4 13 5 14 6 15 7 16 8 17 9 18 10 19 11
REMARK SMILES IDX 20 12 8 13 7 14 6 15 5 16 4 17 3 18 2 19 1 20
REMARK H PARENT
REMARK Flexibility Score: inf
ROOT
ATOM      1  C   UNL     1       7.273 -13.367  -3.953  1.00  0.00    -0.031 C 
ATOM      2  C   UNL     1       7.710 -13.724  -2.731  1.00  0.00    -0.031 C 
ENDROOT
BRANCH   1   3
ATOM      3  C   UNL     1       6.186 -12.352  -4.213  1.00  0.00     0.027 C 
BRANCH   3   4
ATOM      4  C   UNL     1       4.886 -13.013  -4.693  1.00  0.00     0.004 C 
BRANCH   4   5
ATOM      5  C   UNL     1       3.976 -12.027  -5.441  1.00  0.00     0.000 C 
BRANCH   5   6
ATOM      6  C   UNL     1       4.777 -11.214  -6.467  1.00  0.00     0.000 C 
BRANCH   6   7
ATOM      7  C   UNL     1       4.553  -9.699  -6.327  1.00  0.00     0.000 C 
BRANCH   7   8
ATOM      8  C   UNL     1       3.969  -9.066  -7.602  1.00  0.00     0.006 C 
BRANCH   8   9
ATOM      9  C   UNL     1       2.552  -9.574  -7.904  1.00  0.00     0.053 C 
BRANCH   9  10
ATOM     10  C   UNL     1       1.526  -8.502  -7.705  1.00  0.00     0.041 C 
ATOM     11  O   UNL     1       1.468  -7.873  -6.616  1.00  0.00    -0.550 OA
ATOM     12  O   UNL     1       0.611  -8.220  -8.712  1.00  0.00    -0.550 OA
ENDBRANCH   9  10
ENDBRANCH   8   9
ENDBRANCH   7   8
ENDBRANCH   6   7
ENDBRANCH   5   6
ENDBRANCH   4   5
ENDBRANCH   3   4
ENDBRANCH   1   3
BRANCH   2  13
ATOM     13  C   UNL     1       7.247 -13.097  -1.440  1.00  0.00     0.027 C 
BRANCH  13  14
ATOM     14  C   UNL     1       8.447 -12.642  -0.597  1.00  0.00     0.004 C 
BRANCH  14  15
ATOM     15  C   UNL     1       8.361 -11.160  -0.188  1.00  0.00     0.000 C 
BRANCH  15  16
ATOM     16  C   UNL     1       7.684 -10.241  -1.221  1.00  0.00     0.000 C 
BRANCH  16  17
ATOM     17  C   UNL     1       6.950  -9.024  -0.629  1.00  0.00    -0.000 C 
BRANCH  17  18
ATOM     18  C   UNL     1       5.414  -9.180  -0.595  1.00  0.00    -0.000 C 
BRANCH  18  19
ATOM     19  C   UNL     1       4.912 -10.258  -1.566  1.00  0.00    -0.003 C 
ATOM     20  C   UNL     1       4.132 -11.343  -0.829  1.00  0.00     0.004 C 
ENDBRANCH  18  19
ENDBRANCH  17  18
ENDBRANCH  16  17
ENDBRANCH  15  16
ENDBRANCH  14  15
ENDBRANCH  13  14
ENDBRANCH   2  13
TORSDOF 15
ENDMDL
MODEL 3
REMARK VINA RESULT:    -4.783      1.769      4.234
REMARK INTER + INTRA:         -11.521
REMARK INTER:                  -9.848
REMARK INTRA:                  -1.673
REMARK UNBOUND:                -2.543
REMARK SMILES CCCCCCCCC=CCCCCCCCC(=O)[O-]
REMARK SMILES IDX 10 1 9 2 11 3 12 4 13 5 14 6 15 7 16 8 17 9 18 10 19 11
REMARK SMILES IDX 20 12 8 13 7 14 6 15 5 16 4 17 3 18 2 19 1 20
REMARK H PARENT
REMARK Flexibility Score: inf
ROOT
ATOM      1  C   UNL     1       2.885 -14.091  -4.203  1.00  0.00    -0.031 C 
ATOM      2  C   UNL     1       4.016 -13.439  -3.872  1.00  0.00    -0.031 C 
ENDROOT
BRANCH   1   3
ATOM      3  C   UNL     1       2.446 -14.379  -5.618  1.00  0.00     0.027 C 
BRANCH   3   4
ATOM      4  C   UNL     1       1.007 -13.908  -5.880  1.00  0.00     0.004 C 
BRANCH   4   5
ATOM      5  C   UNL     1       0.839 -12.400  -5.643  1.00  0.00     0.000 C 
BRANCH   5   6
ATOM      6  C   UNL     1       1.407 -11.593  -6.820  1.00  0.00     0.000 C 
BRANCH   6   7
ATOM      7  C   UNL     1       2.268 -10.406  -6.362  1.00  0.00     0.000 C 
BRANCH   7   8
ATOM      8  C   UNL     1       3.623 -10.341  -7.089  1.00  0.00     0.006 C 
BRANCH   8   9
ATOM      9  C   UNL     1       4.649  -9.493  -6.327  1.00  0.00     0.053 C 
BRANCH   9  10
ATOM     10  C   UNL     1       4.772  -8.118  -6.906  1.00  0.00     0.041 C 
ATOM     11  O   UNL     1       4.887  -7.119  -6.150  1.00  0.00    -0.550 OA
ATOM     12  O   UNL     1       4.724  -7.938  -8.283  1.00  0.00    -0.550 OA
ENDBRANCH   9  10
ENDBRANCH   8   9
ENDBRANCH   7   8
ENDBRANCH   6   7
ENDBRANCH   5   6
ENDBRANCH   4   5
ENDBRANCH   3   4
ENDBRANCH   1   3
BRANCH   2  13
ATOM     13  C   UNL     1       5.060 -12.981  -4.858  1.00  0.00     0.027 C 
BRANCH  13  14
ATOM     14  C   UNL     1       6.261 -12.362  -4.128  1.00  0.00     0.004 C 
BRANCH  14  15
ATOM     15  C   UNL     1       7.324 -13.405  -3.739  1.00  0.00     0.000 C 
BRANCH  15  16
ATOM     16  C   UNL     1       7.453 -13.666  -2.227  1.00  0.00     0.000 C 
BRANCH  16  17
ATOM     17  C   UNL     1       7.501 -12.402  -1.349  1.00  0.00    -0.000 C 
BRANCH  17  18
ATOM     18  C   UNL     1       8.593 -12.444  -0.258  1.00  0.00    -0.000 C 
BRANCH  18  19
ATOM     19  C   UNL     1       9.104 -11.045   0.115  1.00  0.00    -0.003 C 
ATOM     20  C   UNL     1       8.038  -9.983  -0.145  1.00  0.00     0.004 C 
ENDBRANCH  18  19
ENDBRANCH  17  18
ENDBRANCH  16  17
ENDBRANCH  15  16
ENDBRANCH  14  15
ENDBRANCH  13  14
ENDBRANCH   2  13
TORSDOF 15
ENDMDL
MODEL 4
REMARK VINA RESULT:    -4.770      1.247      2.129
REMARK INTER + INTRA:         -11.496
REMARK INTER:                  -9.073
REMARK INTRA:                  -2.424
REMARK UNBOUND:                -2.543
REMARK SMILES CCCCCCCCC=CCCCCCCCC(=O)[O-]
REMARK SMILES IDX 10 1 9 2 11 3 12 4 13 5 14 6 15 7 16 8 17 9 18 10 19 11
REMARK SMILES IDX 20 12 8 13 7 14 6 15 5 16 4 17 3 18 2 19 1 20
REMARK H PARENT
REMARK Flexibility Score: inf
ROOT
ATOM      1  C   UNL     1       7.464 -13.340  -1.996  1.00  0.00    -0.031 C 
ATOM      2  C   UNL     1       8.017 -12.852  -0.870  1.00  0.00    -0.031 C 
ENDROOT
BRANCH   1   3
ATOM      3  C   UNL     1       7.291 -12.558  -3.275  1.00  0.00     0.027 C 
BRANCH   3   4
ATOM      4  C   UNL     1       6.605 -13.390  -4.369  1.00  0.00     0.004 C 
BRANCH   4   5
ATOM      5  C   UNL     1       5.122 -13.023  -4.533  1.00  0.00     0.000 C 
BRANCH   5   6
ATOM      6  C   UNL     1       4.955 -11.835  -5.491  1.00  0.00     0.000 C 
BRANCH   6   7
ATOM      7  C   UNL     1       3.485 -11.422  -5.671  1.00  0.00     0.000 C 
BRANCH   7   8
ATOM      8  C   UNL     1       3.290 -10.406  -6.810  1.00  0.00     0.006 C 
BRANCH   8   9
ATOM      9  C   UNL     1       4.612  -9.750  -7.232  1.00  0.00     0.053 C 
BRANCH   9  10
ATOM     10  C   UNL     1       4.525  -8.255  -7.194  1.00  0.00     0.041 C 
ATOM     11  O   UNL     1       5.549  -7.555  -7.401  1.00  0.00    -0.550 OA
ATOM     12  O   UNL     1       3.317  -7.637  -6.895  1.00  0.00    -0.550 OA
ENDBRANCH   9  10
ENDBRANCH   8   9
ENDBRANCH   7   8
ENDBRANCH   6   7
ENDBRANCH   5   6
ENDBRANCH   4   5
ENDBRANCH   3   4
ENDBRANCH   1   3
BRANCH   2  13
ATOM     13  C   UNL     1       8.633 -11.481  -0.744  1.00  0.00     0.027 C 
BRANCH  13  14
ATOM     14  C   UNL     1       8.052 -10.734   0.465  1.00  0.00     0.004 C 
BRANCH  14  15
ATOM     15  C   UNL     1       7.091  -9.602   0.061  1.00  0.00     0.000 C 
BRANCH  15  16
ATOM     16  C   UNL     1       6.932  -9.397  -1.457  1.00  0.00     0.000 C 
BRANCH  16  17
ATOM     17  C   UNL     1       5.551  -9.774  -2.025  1.00  0.00    -0.000 C 
BRANCH  17  18
ATOM     18  C   UNL     1       4.542 -10.236  -0.951  1.00  0.00    -0.000 C 
BRANCH  18  19
ATOM     19  C   UNL     1       3.669 -11.404  -1.430  1.00  0.00    -0.003 C 
ATOM     20  C   UNL     1       4.182 -12.734  -0.883  1.00  0.00     0.004 C 
ENDBRANCH  18  19
ENDBRANCH  17  18
ENDBRANCH  16  17
ENDBRANCH  15  16
ENDBRANCH  14  15
ENDBRANCH  13  14
ENDBRANCH   2  13
TORSDOF 15
ENDMDL
MODEL 5
REMARK VINA RESULT:    -4.755      2.005      3.546
REMARK INTER + INTRA:         -11.468
REMARK INTER:                  -9.151
REMARK INTRA:                  -2.317
REMARK UNBOUND:                -2.543
REMARK SMILES CCCCCCCCC=CCCCCCCCC(=O)[O-]
REMARK SMILES IDX 10 1 9 2 11 3 12 4 13 5 14 6 15 7 16 8 17 9 18 10 19 11
REMARK SMILES IDX 20 12 8 13 7 14 6 15 5 16 4 17 3 18 2 19 1 20
REMARK H PARENT
REMARK Flexibility Score: inf
ROOT
ATOM      1  C   UNL     1       7.949 -10.311   0.361  1.00  0.00    -0.031 C 
ATOM      2  C   UNL     1       6.903  -9.617  -0.125  1.00  0.00    -0.031 C 
ENDROOT
BRANCH   1   3
ATOM      3  C   UNL     1       8.909 -11.115  -0.481  1.00  0.00     0.027 C 
BRANCH   3   4
ATOM      4  C   UNL     1       8.610 -12.621  -0.415  1.00  0.00     0.004 C 
BRANCH   4   5
ATOM      5  C   UNL     1       7.366 -13.001  -1.232  1.00  0.00     0.000 C 
BRANCH   5   6
ATOM      6  C   UNL     1       7.757 -13.782  -2.494  1.00  0.00     0.000 C 
BRANCH   6   7
ATOM      7  C   UNL     1       7.202 -13.146  -3.779  1.00  0.00     0.000 C 
BRANCH   7   8
ATOM      8  C   UNL     1       5.664 -13.133  -3.818  1.00  0.00     0.006 C 
BRANCH   8   9
ATOM      9  C   UNL     1       5.122 -13.047  -5.251  1.00  0.00     0.053 C 
BRANCH   9  10
ATOM     10  C   UNL     1       4.626 -11.672  -5.573  1.00  0.00     0.041 C 
ATOM     11  O   UNL     1       3.796 -11.103  -4.816  1.00  0.00    -0.550 OA
ATOM     12  O   UNL     1       5.054 -11.031  -6.729  1.00  0.00    -0.550 OA
ENDBRANCH   9  10
ENDBRANCH   8   9
ENDBRANCH   7   8
ENDBRANCH   6   7
ENDBRANCH   5   6
ENDBRANCH   4   5
ENDBRANCH   3   4
ENDBRANCH   1   3
BRANCH   2  13
ATOM     13  C   UNL     1       6.585  -9.462  -1.590  1.00  0.00     0.027 C 
BRANCH  13  14
ATOM     14  C   UNL     1       5.131  -9.865  -1.876  1.00  0.00     0.004 C 
BRANCH  14  15
ATOM     15  C   UNL     1       4.488 -10.641  -0.712  1.00  0.00     0.000 C 
BRANCH  15  16
ATOM     16  C   UNL     1       3.800 -11.959  -1.114  1.00  0.00     0.000 C 
BRANCH  16  17
ATOM     17  C   UNL     1       3.007 -12.650   0.011  1.00  0.00    -0.000 C 
BRANCH  17  18
ATOM     18  C   UNL     1       2.565 -14.088  -0.333  1.00  0.00    -0.000 C 
BRANCH  18  19
ATOM     19  C   UNL     1       3.544 -14.791  -1.284  1.00  0.00    -0.003 C 
ATOM     20  C   UNL     1       2.837 -15.262  -2.553  1.00  0.00     0.004 C 
ENDBRANCH  18  19
ENDBRANCH  17  18
ENDBRANCH  16  17
ENDBRANCH  15  16
ENDBRANCH  14  15
ENDBRANCH  13  14
ENDBRANCH   2  13
TORSDOF 15
ENDMDL
MODEL 6
REMARK VINA RESULT:    -4.743      2.384      4.845
REMARK INTER + INTRA:         -11.444
REMARK INTER:                  -8.506
REMARK INTRA:                  -2.939
REMARK UNBOUND:                -2.543
REMARK SMILES CCCCCCCCC=CCCCCCCCC(=O)[O-]
REMARK SMILES IDX 10 1 9 2 11 3 12 4 13 5 14 6 15 7 16 8 17 9 18 10 19 11
REMARK SMILES IDX 20 12 8 13 7 14 6 15 5 16 4 17 3 18 2 19 1 20
REMARK H PARENT
REMARK Flexibility Score: inf
ROOT
ATOM      1  C   UNL     1       6.690 -13.370  -3.917  1.00  0.00    -0.031 C 
ATOM      2  C   UNL     1       5.682 -12.956  -4.708  1.00  0.00    -0.031 C 
ENDROOT
BRANCH   1   3
ATOM      3  C   UNL     1       7.290 -12.558  -2.796  1.00  0.00     0.027 C 
BRANCH   3   4
ATOM      4  C   UNL     1       7.589 -13.418  -1.559  1.00  0.00     0.004 C 
BRANCH   4   5
ATOM      5  C   UNL     1       8.406 -12.654  -0.506  1.00  0.00     0.000 C 
BRANCH   5   6
ATOM      6  C   UNL     1       8.442 -11.153  -0.823  1.00  0.00     0.000 C 
BRANCH   6   7
ATOM      7  C   UNL     1       7.858 -10.294   0.310  1.00  0.00     0.000 C 
BRANCH   7   8
ATOM      8  C   UNL     1       7.169  -9.019  -0.209  1.00  0.00     0.006 C 
BRANCH   8   9
ATOM      9  C   UNL     1       6.572  -9.213  -1.609  1.00  0.00     0.053 C 
BRANCH   9  10
ATOM     10  C   UNL     1       5.267  -8.493  -1.759  1.00  0.00     0.041 C 
ATOM     11  O   UNL     1       4.526  -8.308  -0.759  1.00  0.00    -0.550 OA
ATOM     12  O   UNL     1       4.855  -8.055  -3.012  1.00  0.00    -0.550 OA
ENDBRANCH   9  10
ENDBRANCH   8   9
ENDBRANCH   7   8
ENDBRANCH   6   7
ENDBRANCH   5   6
ENDBRANCH   4   5
ENDBRANCH   3   4
ENDBRANCH   1   3
BRANCH   2  13
ATOM     13  C   UNL     1       4.938 -11.656  -4.534  1.00  0.00     0.027 C 
BRANCH  13  14
ATOM     14  C   UNL     1       3.423 -11.880  -4.638  1.00  0.00     0.004 C 
BRANCH  14  15
ATOM     15  C   UNL     1       3.042 -13.371  -4.677  1.00  0.00     0.000 C 
BRANCH  15  16
ATOM     16  C   UNL     1       2.251 -13.870  -3.454  1.00  0.00     0.000 C 
BRANCH  16  17
ATOM     17  C   UNL     1       2.963 -14.944  -2.611  1.00  0.00    -0.000 C 
BRANCH  17  18
ATOM     18  C   UNL     1       3.963 -14.367  -1.586  1.00  0.00    -0.000 C 
BRANCH  18  19
ATOM     19  C   UNL     1       3.358 -13.228  -0.753  1.00  0.00    -0.003 C 
ATOM     20  C   UNL     1       4.210 -11.964  -0.850  1.00  0.00     0.004 C 
ENDBRANCH  18  19
ENDBRANCH  17  18
ENDBRANCH  16  17
ENDBRANCH  15  16
ENDBRANCH  14  15
ENDBRANCH  13  14
ENDBRANCH   2  13
TORSDOF 15
ENDMDL
MODEL 7
REMARK VINA RESULT:    -4.664      2.982      3.977
REMARK INTER + INTRA:         -11.297
REMARK INTER:                  -8.508
REMARK INTRA:                  -2.789
REMARK UNBOUND:                -2.543
REMARK SMILES CCCCCCCCC=CCCCCCCCC(=O)[O-]
REMARK SMILES IDX 10 1 9 2 11 3 12 4 13 5 14 6 15 7 16 8 17 9 18 10 19 11
REMARK SMILES IDX 20 12 8 13 7 14 6 15 5 16 4 17 3 18 2 19 1 20
REMARK H PARENT
REMARK Flexibility Score: inf
ROOT
ATOM      1  C   UNL     1       7.458 -13.495  -1.998  1.00  0.00    -0.031 C 
ATOM      2  C   UNL     1       7.989 -12.952  -0.886  1.00  0.00    -0.031 C 
ENDROOT
BRANCH   1   3
ATOM      3  C   UNL     1       7.398 -12.810  -3.341  1.00  0.00     0.027 C 
BRANCH   3   4
ATOM      4  C   UNL     1       6.173 -13.250  -4.156  1.00  0.00     0.004 C 
BRANCH   4   5
ATOM      5  C   UNL     1       5.537 -12.081  -4.924  1.00  0.00     0.000 C 
BRANCH   5   6
ATOM      6  C   UNL     1       4.098 -12.417  -5.341  1.00  0.00     0.000 C 
BRANCH   6   7
ATOM      7  C   UNL     1       3.592 -13.727  -4.717  1.00  0.00     0.000 C 
BRANCH   7   8
ATOM      8  C   UNL     1       2.056 -13.809  -4.674  1.00  0.00     0.006 C 
BRANCH   8   9
ATOM      9  C   UNL     1       1.472 -14.411  -5.959  1.00  0.00     0.053 C 
BRANCH   9  10
ATOM     10  C   UNL     1       0.528 -13.465  -6.635  1.00  0.00     0.041 C 
ATOM     11  O   UNL     1       0.122 -13.700  -7.803  1.00  0.00    -0.550 OA
ATOM     12  O   UNL     1       0.123 -12.305  -5.986  1.00  0.00    -0.550 OA
ENDBRANCH   9  10
ENDBRANCH   8   9
ENDBRANCH   7   8
ENDBRANCH   6   7
ENDBRANCH   5   6
ENDBRANCH   4   5
ENDBRANCH   3   4
ENDBRANCH   1   3
BRANCH   2  13
ATOM     13  C   UNL     1       8.687 -11.616  -0.835  1.00  0.00     0.027 C 
BRANCH  13  14
ATOM     14  C   UNL     1       8.174 -10.780   0.345  1.00  0.00     0.004 C 
BRANCH  14  15
ATOM     15  C   UNL     1       7.312  -9.585  -0.101  1.00  0.00     0.000 C 
BRANCH  15  16
ATOM     16  C   UNL     1       6.927  -9.584  -1.591  1.00  0.00     0.000 C 
BRANCH  16  17
ATOM     17  C   UNL     1       5.466  -9.968  -1.888  1.00  0.00    -0.000 C 
BRANCH  17  18
ATOM     18  C   UNL     1       4.853 -10.932  -0.849  1.00  0.00    -0.000 C 
BRANCH  18  19
ATOM     19  C   UNL     1       3.788 -11.853  -1.460  1.00  0.00    -0.003 C 
ATOM     20  C   UNL     1       4.026 -13.308  -1.062  1.00  0.00     0.004 C 
ENDBRANCH  18  19
ENDBRANCH  17  18
ENDBRANCH  16  17
ENDBRANCH  15  16
ENDBRANCH  14  15
ENDBRANCH  13  14
ENDBRANCH   2  13
TORSDOF 15
ENDMDL
MODEL 8
REMARK VINA RESULT:    -4.604      2.397      4.252
REMARK INTER + INTRA:         -11.185
REMARK INTER:                  -9.331
REMARK INTRA:                  -1.854
REMARK UNBOUND:                -2.543
REMARK SMILES CCCCCCCCC=CCCCCCCCC(=O)[O-]
REMARK SMILES IDX 10 1 9 2 11 3 12 4 13 5 14 6 15 7 16 8 17 9 18 10 19 11
REMARK SMILES IDX 20 12 8 13 7 14 6 15 5 16 4 17 3 18 2 19 1 20
REMARK H PARENT
REMARK Flexibility Score: inf
ROOT
ATOM      1  C   UNL     1       4.819 -12.844  -4.550  1.00  0.00    -0.031 C 
ATOM      2  C   UNL     1       6.055 -13.372  -4.632  1.00  0.00    -0.031 C 
ENDROOT
BRANCH   1   3
ATOM      3  C   UNL     1       4.441 -11.679  -3.668  1.00  0.00     0.027 C 
BRANCH   3   4
ATOM      4  C   UNL     1       4.301 -10.375  -4.468  1.00  0.00     0.004 C 
BRANCH   4   5
ATOM      5  C   UNL     1       3.805 -10.624  -5.901  1.00  0.00     0.000 C 
BRANCH   5   6
ATOM      6  C   UNL     1       4.659  -9.853  -6.917  1.00  0.00     0.000 C 
BRANCH   6   7
ATOM      7  C   UNL     1       3.819  -9.233  -8.046  1.00  0.00     0.000 C 
BRANCH   7   8
ATOM      8  C   UNL     1       2.808  -8.195  -7.530  1.00  0.00     0.006 C 
BRANCH   8   9
ATOM      9  C   UNL     1       1.378  -8.497  -7.999  1.00  0.00     0.053 C 
BRANCH   9  10
ATOM     10  C   UNL     1       0.522  -8.998  -6.876  1.00  0.00     0.041 C 
ATOM     11  O   UNL     1       0.775  -8.666  -5.689  1.00  0.00    -0.550 OA
ATOM     12  O   UNL     1      -0.536  -9.858  -7.140  1.00  0.00    -0.550 OA
ENDBRANCH   9  10
ENDBRANCH   8   9
ENDBRANCH   7   8
ENDBRANCH   6   7
ENDBRANCH   5   6
ENDBRANCH   4   5
ENDBRANCH   3   4
ENDBRANCH   1   3
BRANCH   2  13
ATOM     13  C   UNL     1       7.269 -12.821  -3.925  1.00  0.00     0.027 C 
BRANCH  13  14
ATOM     14  C   UNL     1       7.599 -13.659  -2.682  1.00  0.00     0.004 C 
BRANCH  14  15
ATOM     15  C   UNL     1       7.183 -12.969  -1.370  1.00  0.00     0.000 C 
BRANCH  15  16
ATOM     16  C   UNL     1       8.352 -12.509  -0.480  1.00  0.00     0.000 C 
BRANCH  16  17
ATOM     17  C   UNL     1       8.583 -10.987  -0.442  1.00  0.00    -0.000 C 
BRANCH  17  18
ATOM     18  C   UNL     1       7.651 -10.193  -1.383  1.00  0.00    -0.000 C 
BRANCH  18  19
ATOM     19  C   UNL     1       6.723  -9.238  -0.620  1.00  0.00    -0.003 C 
ATOM     20  C   UNL     1       5.300  -9.788  -0.555  1.00  0.00     0.004 C 
ENDBRANCH  18  19
ENDBRANCH  17  18
ENDBRANCH  16  17
ENDBRANCH  15  16
ENDBRANCH  14  15
ENDBRANCH  13  14
ENDBRANCH   2  13
TORSDOF 15
ENDMDL
MODEL 9
REMARK VINA RESULT:    -4.603      2.744      6.905
REMARK INTER + INTRA:         -11.182
REMARK INTER:                  -8.962
REMARK INTRA:                  -2.220
REMARK UNBOUND:                -2.543
REMARK SMILES CCCCCCCCC=CCCCCCCCC(=O)[O-]
REMARK SMILES IDX 10 1 9 2 11 3 12 4 13 5 14 6 15 7 16 8 17 9 18 10 19 11
REMARK SMILES IDX 20 12 8 13 7 14 6 15 5 16 4 17 3 18 2 19 1 20
REMARK H PARENT
REMARK Flexibility Score: inf
ROOT
ATOM      1  C   UNL     1       4.048 -10.661  -4.977  1.00  0.00    -0.031 C 
ATOM      2  C   UNL     1       2.829 -10.290  -5.411  1.00  0.00    -0.031 C 
ENDROOT
BRANCH   1   3
ATOM      3  C   UNL     1       5.032 -11.476  -5.780  1.00  0.00     0.027 C 
BRANCH   3   4
ATOM      4  C   UNL     1       4.986 -12.965  -5.405  1.00  0.00     0.004 C 
BRANCH   4   5
ATOM      5  C   UNL     1       5.353 -13.204  -3.933  1.00  0.00     0.000 C 
BRANCH   5   6
ATOM      6  C   UNL     1       6.865 -13.062  -3.715  1.00  0.00     0.000 C 
BRANCH   6   7
ATOM      7  C   UNL     1       7.321 -13.604  -2.350  1.00  0.00     0.000 C 
BRANCH   7   8
ATOM      8  C   UNL     1       7.623 -12.485  -1.339  1.00  0.00     0.006 C 
BRANCH   8   9
ATOM      9  C   UNL     1       7.586 -11.094  -1.986  1.00  0.00     0.053 C 
BRANCH   9  10
ATOM     10  C   UNL     1       6.473 -10.257  -1.436  1.00  0.00     0.041 C 
ATOM     11  O   UNL     1       5.479 -10.803  -0.891  1.00  0.00    -0.550 OA
ATOM     12  O   UNL     1       6.519  -8.874  -1.556  1.00  0.00    -0.550 OA
ENDBRANCH   9  10
ENDBRANCH   8   9
ENDBRANCH   7   8
ENDBRANCH   6   7
ENDBRANCH   5   6
ENDBRANCH   4   5
ENDBRANCH   3   4
ENDBRANCH   1   3
BRANCH   2  13
ATOM     13  C   UNL     1       2.298 -10.551  -6.798  1.00  0.00     0.027 C 
BRANCH  13  14
ATOM     14  C   UNL     1       1.530  -9.330  -7.324  1.00  0.00     0.004 C 
BRANCH  14  15
ATOM     15  C   UNL     1       2.233  -8.650  -8.512  1.00  0.00     0.000 C 
BRANCH  15  16
ATOM     16  C   UNL     1       3.659  -9.156  -8.798  1.00  0.00     0.000 C 
BRANCH  16  17
ATOM     17  C   UNL     1       4.760  -8.083  -8.711  1.00  0.00    -0.000 C 
BRANCH  17  18
ATOM     18  C   UNL     1       5.198  -7.758  -7.267  1.00  0.00    -0.000 C 
BRANCH  18  19
ATOM     19  C   UNL     1       4.614  -6.431  -6.762  1.00  0.00    -0.003 C 
ATOM     20  C   UNL     1       3.640  -6.662  -5.609  1.00  0.00     0.004 C 
ENDBRANCH  18  19
ENDBRANCH  17  18
ENDBRANCH  16  17
ENDBRANCH  15  16
ENDBRANCH  14  15
ENDBRANCH  13  14
ENDBRANCH   2  13
TORSDOF 15
ENDMDL
