MODEL 1
REMARK VINA RESULT:    -4.489      0.000      0.000
REMARK INTER + INTRA:          -7.564
REMARK INTER:                  -7.113
REMARK INTRA:                  -0.451
REMARK UNBOUND:                -0.451
REMARK SMILES CCCCCCCCCCCC(=O)[O-]
REMARK SMILES IDX 7 1 8 2 9 3 10 4 11 5 12 6 13 7 14 8 6 9 5 10 4 11 3 12 2 13
REMARK SMILES IDX 1 14
REMARK H PARENT
REMARK Flexibility Score: inf
ROOT
ATOM      1  C   UNL     1      -9.532   5.129 -10.670  1.00  0.00     0.000 C 
ENDROOT
BRANCH   1   2
ATOM      2  C   UNL     1      -8.322   5.006 -11.609  1.00  0.00     0.000 C 
BRANCH   2   3
ATOM      3  C   UNL     1      -8.745   4.451 -12.978  1.00  0.00     0.000 C 
BRANCH   3   4
ATOM      4  C   UNL     1      -8.009   5.129 -14.144  1.00  0.00     0.006 C 
BRANCH   4   5
ATOM      5  C   UNL     1      -6.632   4.509 -14.414  1.00  0.00     0.053 C 
BRANCH   5   6
ATOM      6  C   UNL     1      -5.553   5.525 -14.210  1.00  0.00     0.041 C 
ATOM      7  O   UNL     1      -5.192   5.844 -13.047  1.00  0.00    -0.550 OA
ATOM      8  O   UNL     1      -4.978   6.159 -15.305  1.00  0.00    -0.550 OA
ENDBRANCH   5   6
ENDBRANCH   4   5
ENDBRANCH   3   4
ENDBRANCH   2   3
ENDBRANCH   1   2
BRANCH   1   9
ATOM      9  C   UNL     1      -9.283   4.484  -9.297  1.00  0.00     0.000 C 
BRANCH   9  10
ATOM     10  C   UNL     1      -9.126   5.525  -8.175  1.00  0.00    -0.000 C 
BRANCH  10  11
ATOM     11  C   UNL     1      -7.825   5.342  -7.378  1.00  0.00    -0.000 C 
BRANCH  11  12
ATOM     12  C   UNL     1      -7.999   5.651  -5.883  1.00  0.00    -0.000 C 
BRANCH  12  13
ATOM     13  C   UNL     1      -9.407   6.180  -5.592  1.00  0.00    -0.003 C 
ATOM     14  C   UNL     1      -9.384   7.233  -4.488  1.00  0.00     0.004 C 
ENDBRANCH  12  13
ENDBRANCH  11  12
ENDBRANCH  10  11
ENDBRANCH   9  10
ENDBRANCH   1   9
TORSDOF 10
ENDMDL
MODEL 2
REMARK VINA RESULT:    -4.474      3.824      7.697
REMARK INTER + INTRA:          -7.541
REMARK INTER:                  -7.151
REMARK INTRA:                  -0.390
REMARK UNBOUND:                -0.451
REMARK SMILES CCCCCCCCCCCC(=O)[O-]
REMARK SMILES IDX 7 1 8 2 9 3 10 4 11 5 12 6 13 7 14 8 6 9 5 10 4 11 3 12 2 13
REMARK SMILES IDX 1 14
REMARK H PARENT
REMARK Flexibility Score: inf
ROOT
ATOM      1  C   UNL     1      -9.567   5.101 -10.581  1.00  0.00     0.000 C 
ENDROOT
BRANCH   1   2
ATOM      2  C   UNL     1      -9.274   4.504  -9.196  1.00  0.00     0.000 C 
BRANCH   2   3
ATOM      3  C   UNL     1      -9.047   5.613  -8.158  1.00  0.00     0.000 C 
BRANCH   3   4
ATOM      4  C   UNL     1      -7.598   5.660  -7.648  1.00  0.00     0.006 C 
BRANCH   4   5
ATOM      5  C   UNL     1      -7.480   6.298  -6.258  1.00  0.00     0.053 C 
BRANCH   5   6
ATOM      6  C   UNL     1      -8.014   5.372  -5.212  1.00  0.00     0.041 C 
ATOM      7  O   UNL     1      -9.116   5.614  -4.653  1.00  0.00    -0.550 OA
ATOM      8  O   UNL     1      -7.272   4.266  -4.817  1.00  0.00    -0.550 OA
ENDBRANCH   5   6
ENDBRANCH   4   5
ENDBRANCH   3   4
ENDBRANCH   2   3
ENDBRANCH   1   2
BRANCH   1   9
ATOM      9  C   UNL     1      -8.381   4.961 -11.549  1.00  0.00     0.000 C 
BRANCH   9  10
ATOM     10  C   UNL     1      -8.821   4.572 -12.971  1.00  0.00    -0.000 C 
BRANCH  10  11
ATOM     11  C   UNL     1      -8.003   5.285 -14.058  1.00  0.00    -0.000 C 
BRANCH  11  12
ATOM     12  C   UNL     1      -6.489   5.175 -13.828  1.00  0.00    -0.000 C 
BRANCH  12  13
ATOM     13  C   UNL     1      -5.735   5.096 -15.160  1.00  0.00    -0.003 C 
ATOM     14  C   UNL     1      -6.166   6.215 -16.105  1.00  0.00     0.004 C 
ENDBRANCH  12  13
ENDBRANCH  11  12
ENDBRANCH  10  11
ENDBRANCH   9  10
ENDBRANCH   1   9
TORSDOF 10
ENDMDL
MODEL 3
REMARK VINA RESULT:    -4.423      4.045      7.689
REMARK INTER + INTRA:          -7.460
REMARK INTER:                  -6.995
REMARK INTRA:                  -0.465
REMARK UNBOUND:                -0.451
REMARK SMILES CCCCCCCCCCCC(=O)[O-]
REMARK SMILES IDX 7 1 8 2 9 3 10 4 11 5 12 6 13 7 14 8 6 9 5 10 4 11 3 12 2 13
REMARK SMILES IDX 1 14
REMARK H PARENT
REMARK Flexibility Score: inf
ROOT
ATOM      1  C   UNL     1      -9.278   4.492  -9.237  1.00  0.00     0.000 C 
ENDROOT
BRANCH   1   2
ATOM      2  C   UNL     1      -8.976   5.575  -8.190  1.00  0.00     0.000 C 
BRANCH   2   3
ATOM      3  C   UNL     1      -7.474   5.628  -7.873  1.00  0.00     0.000 C 
BRANCH   3   4
ATOM      4  C   UNL     1      -7.129   6.688  -6.815  1.00  0.00     0.006 C 
BRANCH   4   5
ATOM      5  C   UNL     1      -6.953   6.089  -5.414  1.00  0.00     0.053 C 
BRANCH   5   6
ATOM      6  C   UNL     1      -8.187   6.301  -4.596  1.00  0.00     0.041 C 
ATOM      7  O   UNL     1      -9.124   5.461  -4.633  1.00  0.00    -0.550 OA
ATOM      8  O   UNL     1      -8.324   7.451  -3.830  1.00  0.00    -0.550 OA
ENDBRANCH   5   6
ENDBRANCH   4   5
ENDBRANCH   3   4
ENDBRANCH   2   3
ENDBRANCH   1   2
BRANCH   1   9
ATOM      9  C   UNL     1      -9.561   5.079 -10.630  1.00  0.00     0.000 C 
BRANCH   9  10
ATOM     10  C   UNL     1      -8.296   5.170 -11.501  1.00  0.00    -0.000 C 
BRANCH  10  11
ATOM     11  C   UNL     1      -8.497   4.563 -12.898  1.00  0.00    -0.000 C 
BRANCH  11  12
ATOM     12  C   UNL     1      -7.170   4.198 -13.581  1.00  0.00    -0.000 C 
BRANCH  12  13
ATOM     13  C   UNL     1      -6.804   5.227 -14.656  1.00  0.00    -0.003 C 
ATOM     14  C   UNL     1      -8.015   6.069 -15.049  1.00  0.00     0.004 C 
ENDBRANCH  12  13
ENDBRANCH  11  12
ENDBRANCH  10  11
ENDBRANCH   9  10
ENDBRANCH   1   9
TORSDOF 10
ENDMDL
MODEL 4
REMARK VINA RESULT:    -4.396      2.493      3.544
REMARK INTER + INTRA:          -7.417
REMARK INTER:                  -6.725
REMARK INTRA:                  -0.692
REMARK UNBOUND:                -0.451
REMARK SMILES CCCCCCCCCCCC(=O)[O-]
REMARK SMILES IDX 7 1 8 2 9 3 10 4 11 5 12 6 13 7 14 8 6 9 5 10 4 11 3 12 2 13
REMARK SMILES IDX 1 14
REMARK H PARENT
REMARK Flexibility Score: inf
ROOT
ATOM      1  C   UNL     1      -4.324   6.729  -9.481  1.00  0.00     0.000 C 
ENDROOT
BRANCH   1   2
ATOM      2  C   UNL     1      -4.333   6.595 -11.011  1.00  0.00     0.000 C 
BRANCH   2   3
ATOM      3  C   UNL     1      -5.653   5.979 -11.500  1.00  0.00     0.000 C 
BRANCH   3   4
ATOM      4  C   UNL     1      -5.643   5.677 -13.007  1.00  0.00     0.006 C 
BRANCH   4   5
ATOM      5  C   UNL     1      -6.519   4.473 -13.374  1.00  0.00     0.053 C 
BRANCH   5   6
ATOM      6  C   UNL     1      -7.947   4.891 -13.524  1.00  0.00     0.041 C 
ATOM      7  O   UNL     1      -8.819   4.473 -12.718  1.00  0.00    -0.550 OA
ATOM      8  O   UNL     1      -8.325   5.706 -14.584  1.00  0.00    -0.550 OA
ENDBRANCH   5   6
ENDBRANCH   4   5
ENDBRANCH   3   4
ENDBRANCH   2   3
ENDBRANCH   1   2
BRANCH   1   9
ATOM      9  C   UNL     1      -5.714   6.513  -8.860  1.00  0.00     0.000 C 
BRANCH   9  10
ATOM     10  C   UNL     1      -5.797   7.014  -7.407  1.00  0.00    -0.000 C 
BRANCH  10  11
ATOM     11  C   UNL     1      -7.176   6.771  -6.776  1.00  0.00    -0.000 C 
BRANCH  11  12
ATOM     12  C   UNL     1      -7.762   5.399  -7.145  1.00  0.00    -0.000 C 
BRANCH  12  13
ATOM     13  C   UNL     1      -9.075   5.554  -7.920  1.00  0.00    -0.003 C 
ATOM     14  C   UNL     1      -9.082   4.683  -9.173  1.00  0.00     0.004 C 
ENDBRANCH  12  13
ENDBRANCH  11  12
ENDBRANCH  10  11
ENDBRANCH   9  10
ENDBRANCH   1   9
TORSDOF 10
ENDMDL
MODEL 5
REMARK VINA RESULT:    -4.297      1.651      2.680
REMARK INTER + INTRA:          -7.260
REMARK INTER:                  -6.768
REMARK INTRA:                  -0.492
REMARK UNBOUND:                -0.451
REMARK SMILES CCCCCCCCCCCC(=O)[O-]
REMARK SMILES IDX 7 1 8 2 9 3 10 4 11 5 12 6 13 7 14 8 6 9 5 10 4 11 3 12 2 13
REMARK SMILES IDX 1 14
REMARK H PARENT
REMARK Flexibility Score: inf
ROOT
ATOM      1  C   UNL     1      -7.432   5.371 -12.195  1.00  0.00     0.000 C 
ENDROOT
BRANCH   1   2
ATOM      2  C   UNL     1      -7.078   5.237 -13.684  1.00  0.00     0.000 C 
BRANCH   2   3
ATOM      3  C   UNL     1      -8.306   5.505 -14.566  1.00  0.00     0.000 C 
BRANCH   3   4
ATOM      4  C   UNL     1      -8.004   6.466 -15.727  1.00  0.00     0.006 C 
BRANCH   4   5
ATOM      5  C   UNL     1      -6.851   5.977 -16.613  1.00  0.00     0.053 C 
BRANCH   5   6
ATOM      6  C   UNL     1      -5.760   6.999 -16.661  1.00  0.00     0.041 C 
ATOM      7  O   UNL     1      -4.769   6.906 -15.889  1.00  0.00    -0.550 OA
ATOM      8  O   UNL     1      -5.859   8.082 -17.524  1.00  0.00    -0.550 OA
ENDBRANCH   5   6
ENDBRANCH   4   5
ENDBRANCH   3   4
ENDBRANCH   2   3
ENDBRANCH   1   2
BRANCH   1   9
ATOM      9  C   UNL     1      -8.667   4.543 -11.804  1.00  0.00     0.000 C 
BRANCH   9  10
ATOM     10  C   UNL     1      -9.479   5.192 -10.670  1.00  0.00    -0.000 C 
BRANCH  10  11
ATOM     11  C   UNL     1      -9.272   4.491  -9.319  1.00  0.00    -0.000 C 
BRANCH  11  12
ATOM     12  C   UNL     1      -9.041   5.481  -8.168  1.00  0.00    -0.000 C 
BRANCH  12  13
ATOM     13  C   UNL     1      -7.572   5.481  -7.731  1.00  0.00    -0.003 C 
ATOM     14  C   UNL     1      -7.214   6.772  -7.000  1.00  0.00     0.004 C 
ENDBRANCH  12  13
ENDBRANCH  11  12
ENDBRANCH  10  11
ENDBRANCH   9  10
ENDBRANCH   1   9
TORSDOF 10
ENDMDL
MODEL 6
REMARK VINA RESULT:    -4.295      3.161      7.142
REMARK INTER + INTRA:          -7.258
REMARK INTER:                  -6.838
REMARK INTRA:                  -0.419
REMARK UNBOUND:                -0.451
REMARK SMILES CCCCCCCCCCCC(=O)[O-]
REMARK SMILES IDX 7 1 8 2 9 3 10 4 11 5 12 6 13 7 14 8 6 9 5 10 4 11 3 12 2 13
REMARK SMILES IDX 1 14
REMARK H PARENT
REMARK Flexibility Score: inf
ROOT
ATOM      1  C   UNL     1      -9.658   5.440  -9.956  1.00  0.00     0.000 C 
ENDROOT
BRANCH   1   2
ATOM      2  C   UNL     1      -8.876   4.863  -8.767  1.00  0.00     0.000 C 
BRANCH   2   3
ATOM      3  C   UNL     1      -9.170   5.652  -7.482  1.00  0.00     0.000 C 
BRANCH   3   4
ATOM      4  C   UNL     1      -7.918   5.861  -6.616  1.00  0.00     0.006 C 
BRANCH   4   5
ATOM      5  C   UNL     1      -6.740   6.440  -7.410  1.00  0.00     0.053 C 
BRANCH   5   6
ATOM      6  C   UNL     1      -5.970   7.408  -6.571  1.00  0.00     0.041 C 
ATOM      7  O   UNL     1      -4.713   7.447  -6.638  1.00  0.00    -0.550 OA
ATOM      8  O   UNL     1      -6.636   8.237  -5.676  1.00  0.00    -0.550 OA
ENDBRANCH   5   6
ENDBRANCH   4   5
ENDBRANCH   3   4
ENDBRANCH   2   3
ENDBRANCH   1   2
BRANCH   1   9
ATOM      9  C   UNL     1      -9.346   4.717 -11.277  1.00  0.00     0.000 C 
BRANCH   9  10
ATOM     10  C   UNL     1      -8.019   5.179 -11.904  1.00  0.00    -0.000 C 
BRANCH  10  11
ATOM     11  C   UNL     1      -7.780   4.569 -13.294  1.00  0.00    -0.000 C 
BRANCH  11  12
ATOM     12  C   UNL     1      -7.995   5.581 -14.429  1.00  0.00    -0.000 C 
BRANCH  12  13
ATOM     13  C   UNL     1      -6.887   5.468 -15.482  1.00  0.00    -0.003 C 
ATOM     14  C   UNL     1      -5.511   5.688 -14.862  1.00  0.00     0.004 C 
ENDBRANCH  12  13
ENDBRANCH  11  12
ENDBRANCH  10  11
ENDBRANCH   9  10
ENDBRANCH   1   9
TORSDOF 10
ENDMDL
MODEL 7
REMARK VINA RESULT:    -4.277      1.397      1.585
REMARK INTER + INTRA:          -7.229
REMARK INTER:                  -6.872
REMARK INTRA:                  -0.357
REMARK UNBOUND:                -0.451
REMARK SMILES CCCCCCCCCCCC(=O)[O-]
REMARK SMILES IDX 7 1 8 2 9 3 10 4 11 5 12 6 13 7 14 8 6 9 5 10 4 11 3 12 2 13
REMARK SMILES IDX 1 14
REMARK H PARENT
REMARK Flexibility Score: inf
ROOT
ATOM      1  C   UNL     1      -9.522   5.135 -10.746  1.00  0.00     0.000 C 
ENDROOT
BRANCH   1   2
ATOM      2  C   UNL     1      -8.291   4.975 -11.651  1.00  0.00     0.000 C 
BRANCH   2   3
ATOM      3  C   UNL     1      -8.696   4.466 -13.043  1.00  0.00     0.000 C 
BRANCH   3   4
ATOM      4  C   UNL     1      -8.075   5.293 -14.179  1.00  0.00     0.006 C 
BRANCH   4   5
ATOM      5  C   UNL     1      -6.542   5.258 -14.165  1.00  0.00     0.053 C 
BRANCH   5   6
ATOM      6  C   UNL     1      -6.032   4.294 -15.189  1.00  0.00     0.041 C 
ATOM      7  O   UNL     1      -5.542   3.190 -14.832  1.00  0.00    -0.550 OA
ATOM      8  O   UNL     1      -6.052   4.634 -16.536  1.00  0.00    -0.550 OA
ENDBRANCH   5   6
ENDBRANCH   4   5
ENDBRANCH   3   4
ENDBRANCH   2   3
ENDBRANCH   1   2
BRANCH   1   9
ATOM      9  C   UNL     1      -9.332   4.483  -9.367  1.00  0.00     0.000 C 
BRANCH   9  10
ATOM     10  C   UNL     1      -8.447   5.325  -8.432  1.00  0.00    -0.000 C 
BRANCH  10  11
ATOM     11  C   UNL     1      -9.131   5.634  -7.091  1.00  0.00    -0.000 C 
BRANCH  11  12
ATOM     12  C   UNL     1      -8.150   5.620  -5.910  1.00  0.00    -0.000 C 
BRANCH  12  13
ATOM     13  C   UNL     1      -6.905   6.459  -6.220  1.00  0.00    -0.003 C 
ATOM     14  C   UNL     1      -6.976   7.824  -5.543  1.00  0.00     0.004 C 
ENDBRANCH  12  13
ENDBRANCH  11  12
ENDBRANCH  10  11
ENDBRANCH   9  10
ENDBRANCH   1   9
TORSDOF 10
ENDMDL
MODEL 8
REMARK VINA RESULT:    -4.130      3.000      7.477
REMARK INTER + INTRA:          -6.996
REMARK INTER:                  -6.524
REMARK INTRA:                  -0.472
REMARK UNBOUND:                -0.451
REMARK SMILES CCCCCCCCCCCC(=O)[O-]
REMARK SMILES IDX 7 1 8 2 9 3 10 4 11 5 12 6 13 7 14 8 6 9 5 10 4 11 3 12 2 13
REMARK SMILES IDX 1 14
REMARK H PARENT
REMARK Flexibility Score: inf
ROOT
ATOM      1  C   UNL     1      -7.981   5.221 -11.646  1.00  0.00     0.000 C 
ENDROOT
BRANCH   1   2
ATOM      2  C   UNL     1      -9.442   4.851 -11.351  1.00  0.00     0.000 C 
BRANCH   2   3
ATOM      3  C   UNL     1      -9.849   5.304  -9.941  1.00  0.00     0.000 C 
BRANCH   3   4
ATOM      4  C   UNL     1      -8.828   4.891  -8.868  1.00  0.00     0.006 C 
BRANCH   4   5
ATOM      5  C   UNL     1      -9.007   5.662  -7.554  1.00  0.00     0.053 C 
BRANCH   5   6
ATOM      6  C   UNL     1      -7.715   5.720  -6.803  1.00  0.00     0.041 C 
ATOM      7  O   UNL     1      -7.578   5.084  -5.725  1.00  0.00    -0.550 OA
ATOM      8  O   UNL     1      -6.676   6.516  -7.268  1.00  0.00    -0.550 OA
ENDBRANCH   5   6
ENDBRANCH   4   5
ENDBRANCH   3   4
ENDBRANCH   2   3
ENDBRANCH   1   2
BRANCH   1   9
ATOM      9  C   UNL     1      -7.618   5.058 -13.131  1.00  0.00     0.000 C 
BRANCH   9  10
ATOM     10  C   UNL     1      -6.109   4.850 -13.351  1.00  0.00    -0.000 C 
BRANCH  10  11
ATOM     11  C   UNL     1      -5.606   5.503 -14.647  1.00  0.00    -0.000 C 
BRANCH  11  12
ATOM     12  C   UNL     1      -6.229   4.879 -15.905  1.00  0.00    -0.000 C 
BRANCH  12  13
ATOM     13  C   UNL     1      -6.625   5.961 -16.916  1.00  0.00    -0.003 C 
ATOM     14  C   UNL     1      -7.814   6.775 -16.416  1.00  0.00     0.004 C 
ENDBRANCH  12  13
ENDBRANCH  11  12
ENDBRANCH  10  11
ENDBRANCH   9  10
ENDBRANCH   1   9
TORSDOF 10
ENDMDL
MODEL 9
REMARK VINA RESULT:    -4.080      4.682      8.225
REMARK INTER + INTRA:          -6.917
REMARK INTER:                  -6.346
REMARK INTRA:                  -0.571
REMARK UNBOUND:                -0.451
REMARK SMILES CCCCCCCCCCCC(=O)[O-]
REMARK SMILES IDX 7 1 8 2 9 3 10 4 11 5 12 6 13 7 14 8 6 9 5 10 4 11 3 12 2 13
REMARK SMILES IDX 1 14
REMARK H PARENT
REMARK Flexibility Score: inf
ROOT
ATOM      1  C   UNL     1      -7.523   5.533  -7.513  1.00  0.00     0.000 C 
ENDROOT
BRANCH   1   2
ATOM      2  C   UNL     1      -7.199   6.750  -6.633  1.00  0.00     0.000 C 
BRANCH   2   3
ATOM      3  C   UNL     1      -7.008   6.331  -5.168  1.00  0.00     0.000 C 
BRANCH   3   4
ATOM      4  C   UNL     1      -8.336   6.008  -4.466  1.00  0.00     0.006 C 
BRANCH   4   5
ATOM      5  C   UNL     1      -9.391   7.104  -4.664  1.00  0.00     0.053 C 
BRANCH   5   6
ATOM      6  C   UNL     1      -9.495   7.955  -3.439  1.00  0.00     0.041 C 
ATOM      7  O   UNL     1     -10.625   8.273  -2.981  1.00  0.00    -0.550 OA
ATOM      8  O   UNL     1      -8.346   8.441  -2.829  1.00  0.00    -0.550 OA
ENDBRANCH   5   6
ENDBRANCH   4   5
ENDBRANCH   3   4
ENDBRANCH   2   3
ENDBRANCH   1   2
BRANCH   1   9
ATOM      9  C   UNL     1      -8.937   5.597  -8.114  1.00  0.00     0.000 C 
BRANCH   9  10
ATOM     10  C   UNL     1      -9.133   4.602  -9.270  1.00  0.00    -0.000 C 
BRANCH  10  11
ATOM     11  C   UNL     1      -9.783   5.249 -10.503  1.00  0.00    -0.000 C 
BRANCH  11  12
ATOM     12  C   UNL     1      -9.124   4.811 -11.819  1.00  0.00    -0.000 C 
BRANCH  12  13
ATOM     13  C   UNL     1      -7.656   5.250 -11.871  1.00  0.00    -0.003 C 
ATOM     14  C   UNL     1      -7.002   4.834 -13.185  1.00  0.00     0.004 C 
ENDBRANCH  12  13
ENDBRANCH  11  12
ENDBRANCH  10  11
ENDBRANCH   9  10
ENDBRANCH   1   9
TORSDOF 10
ENDMDL
