MODEL 1
REMARK VINA RESULT:    -4.930      0.000      0.000
REMARK INTER + INTRA:         -10.517
REMARK INTER:                  -8.964
REMARK INTRA:                  -1.552
REMARK UNBOUND:                -1.552
REMARK SMILES CCCCCCCCCCCCCC[C@@H](C)C(=O)[O-]
REMARK SMILES IDX 9 1 10 2 11 3 12 4 13 5 14 6 15 7 16 8 17 9 18 10 19 11 8 12
REMARK SMILES IDX 7 13 6 14 5 15 4 16 3 17 2 18 1 19
REMARK H PARENT
REMARK Flexibility Score: inf
ROOT
ATOM      1  C   UNL     1      23.967 -26.044  34.311  1.00  0.00     0.000 C 
ENDROOT
BRANCH   1   2
ATOM      2  C   UNL     1      24.780 -27.293  33.927  1.00  0.00     0.000 C 
BRANCH   2   3
ATOM      3  C   UNL     1      24.638 -27.747  32.459  1.00  0.00     0.000 C 
BRANCH   3   4
ATOM      4  C   UNL     1      25.547 -27.019  31.453  1.00  0.00     0.000 C 
BRANCH   4   5
ATOM      5  C   UNL     1      24.760 -26.361  30.307  1.00  0.00     0.001 C 
BRANCH   5   6
ATOM      6  C   UNL     1      24.234 -24.959  30.675  1.00  0.00     0.009 C 
BRANCH   6   7
ATOM      7  C   UNL     1      25.279 -24.044  31.352  1.00  0.00     0.032 C 
ATOM      8  C   UNL     1      26.223 -23.444  30.305  1.00  0.00     0.014 C 
BRANCH   7   9
ATOM      9  C   UNL     1      24.625 -22.943  32.143  1.00  0.00     0.044 C 
ATOM     10  O   UNL     1      23.848 -22.126  31.581  1.00  0.00    -0.550 OA
ATOM     11  O   UNL     1      24.875 -22.824  33.503  1.00  0.00    -0.550 OA
ENDBRANCH   7   9
ENDBRANCH   6   7
ENDBRANCH   5   6
ENDBRANCH   4   5
ENDBRANCH   3   4
ENDBRANCH   2   3
ENDBRANCH   1   2
BRANCH   1  12
ATOM     12  C   UNL     1      22.458 -26.216  34.068  1.00  0.00     0.000 C 
BRANCH  12  13
ATOM     13  C   UNL     1      21.847 -25.056  33.260  1.00  0.00    -0.000 C 
BRANCH  13  14
ATOM     14  C   UNL     1      20.326 -24.862  33.430  1.00  0.00    -0.000 C 
BRANCH  14  15
ATOM     15  C   UNL     1      19.765 -23.537  32.885  1.00  0.00    -0.000 C 
BRANCH  15  16
ATOM     16  C   UNL     1      20.618 -22.319  33.277  1.00  0.00    -0.000 C 
BRANCH  16  17
ATOM     17  C   UNL     1      20.087 -21.001  32.686  1.00  0.00    -0.000 C 
BRANCH  17  18
ATOM     18  C   UNL     1      20.975 -20.369  31.599  1.00  0.00    -0.003 C 
ATOM     19  C   UNL     1      20.194 -19.486  30.626  1.00  0.00     0.004 C 
ENDBRANCH  17  18
ENDBRANCH  16  17
ENDBRANCH  15  16
ENDBRANCH  14  15
ENDBRANCH  13  14
ENDBRANCH  12  13
ENDBRANCH   1  12
TORSDOF 14
ENDMDL
MODEL 2
REMARK VINA RESULT:    -4.869     11.187     13.226
REMARK INTER + INTRA:         -10.406
REMARK INTER:                  -8.599
REMARK INTRA:                  -1.807
REMARK UNBOUND:                -1.552
REMARK SMILES CCCCCCCCCCCCCC[C@@H](C)C(=O)[O-]
REMARK SMILES IDX 9 1 10 2 11 3 12 4 13 5 14 6 15 7 16 8 17 9 18 10 19 11 8 12
REMARK SMILES IDX 7 13 6 14 5 15 4 16 3 17 2 18 1 19
REMARK H PARENT
REMARK Flexibility Score: inf
ROOT
ATOM      1  C   UNL     1      13.800 -15.705  39.596  1.00  0.00     0.000 C 
ENDROOT
BRANCH   1   2
ATOM      2  C   UNL     1      15.130 -15.263  40.231  1.00  0.00     0.000 C 
BRANCH   2   3
ATOM      3  C   UNL     1      15.755 -13.987  39.631  1.00  0.00     0.000 C 
BRANCH   3   4
ATOM      4  C   UNL     1      15.023 -13.406  38.407  1.00  0.00     0.000 C 
BRANCH   4   5
ATOM      5  C   UNL     1      15.973 -13.085  37.242  1.00  0.00     0.001 C 
BRANCH   5   6
ATOM      6  C   UNL     1      15.924 -14.145  36.123  1.00  0.00     0.009 C 
BRANCH   6   7
ATOM      7  C   UNL     1      17.103 -15.146  36.142  1.00  0.00     0.032 C 
ATOM      8  C   UNL     1      18.207 -14.653  37.083  1.00  0.00     0.014 C 
BRANCH   7   9
ATOM      9  C   UNL     1      16.655 -16.523  36.554  1.00  0.00     0.044 C 
ATOM     10  O   UNL     1      17.423 -17.275  37.212  1.00  0.00    -0.550 OA
ATOM     11  O   UNL     1      15.387 -16.971  36.209  1.00  0.00    -0.550 OA
ENDBRANCH   7   9
ENDBRANCH   6   7
ENDBRANCH   5   6
ENDBRANCH   4   5
ENDBRANCH   3   4
ENDBRANCH   2   3
ENDBRANCH   1   2
BRANCH   1  12
ATOM     12  C   UNL     1      13.706 -17.227  39.404  1.00  0.00     0.000 C 
BRANCH  12  13
ATOM     13  C   UNL     1      15.060 -17.937  39.584  1.00  0.00    -0.000 C 
BRANCH  13  14
ATOM     14  C   UNL     1      14.998 -19.478  39.617  1.00  0.00    -0.000 C 
BRANCH  14  15
ATOM     15  C   UNL     1      13.916 -20.076  40.534  1.00  0.00    -0.000 C 
BRANCH  15  16
ATOM     16  C   UNL     1      12.902 -20.947  39.775  1.00  0.00    -0.000 C 
BRANCH  16  17
ATOM     17  C   UNL     1      13.455 -21.488  38.445  1.00  0.00    -0.000 C 
BRANCH  17  18
ATOM     18  C   UNL     1      12.604 -21.162  37.203  1.00  0.00    -0.003 C 
ATOM     19  C   UNL     1      11.974 -19.771  37.258  1.00  0.00     0.004 C 
ENDBRANCH  17  18
ENDBRANCH  16  17
ENDBRANCH  15  16
ENDBRANCH  14  15
ENDBRANCH  13  14
ENDBRANCH  12  13
ENDBRANCH   1  12
TORSDOF 14
ENDMDL
MODEL 3
REMARK VINA RESULT:    -4.856      2.594      4.641
REMARK INTER + INTRA:         -10.382
REMARK INTER:                  -9.104
REMARK INTRA:                  -1.278
REMARK UNBOUND:                -1.552
REMARK SMILES CCCCCCCCCCCCCC[C@@H](C)C(=O)[O-]
REMARK SMILES IDX 9 1 10 2 11 3 12 4 13 5 14 6 15 7 16 8 17 9 18 10 19 11 8 12
REMARK SMILES IDX 7 13 6 14 5 15 4 16 3 17 2 18 1 19
REMARK H PARENT
REMARK Flexibility Score: inf
ROOT
ATOM      1  C   UNL     1      23.642 -22.095  33.174  1.00  0.00     0.000 C 
ENDROOT
BRANCH   1   2
ATOM      2  C   UNL     1      24.812 -22.991  32.730  1.00  0.00     0.000 C 
BRANCH   2   3
ATOM      3  C   UNL     1      24.875 -23.295  31.219  1.00  0.00     0.000 C 
BRANCH   3   4
ATOM      4  C   UNL     1      25.634 -24.578  30.836  1.00  0.00     0.000 C 
BRANCH   4   5
ATOM      5  C   UNL     1      27.065 -24.300  30.348  1.00  0.00     0.001 C 
BRANCH   5   6
ATOM      6  C   UNL     1      27.194 -22.950  29.614  1.00  0.00     0.009 C 
BRANCH   6   7
ATOM      7  C   UNL     1      28.625 -22.621  29.133  1.00  0.00     0.032 C 
ATOM      8  C   UNL     1      29.012 -23.517  27.951  1.00  0.00     0.014 C 
BRANCH   7   9
ATOM      9  C   UNL     1      28.761 -21.173  28.743  1.00  0.00     0.044 C 
ATOM     10  O   UNL     1      28.548 -20.261  29.585  1.00  0.00    -0.550 OA
ATOM     11  O   UNL     1      29.125 -20.836  27.446  1.00  0.00    -0.550 OA
ENDBRANCH   7   9
ENDBRANCH   6   7
ENDBRANCH   5   6
ENDBRANCH   4   5
ENDBRANCH   3   4
ENDBRANCH   2   3
ENDBRANCH   1   2
BRANCH   1  12
ATOM     12  C   UNL     1      23.195 -21.111  32.080  1.00  0.00     0.000 C 
BRANCH  12  13
ATOM     13  C   UNL     1      21.690 -20.794  32.139  1.00  0.00    -0.000 C 
BRANCH  13  14
ATOM     14  C   UNL     1      20.900 -21.543  33.232  1.00  0.00    -0.000 C 
BRANCH  14  15
ATOM     15  C   UNL     1      19.962 -22.654  32.724  1.00  0.00    -0.000 C 
BRANCH  15  16
ATOM     16  C   UNL     1      19.656 -23.714  33.794  1.00  0.00    -0.000 C 
BRANCH  16  17
ATOM     17  C   UNL     1      20.279 -25.085  33.474  1.00  0.00    -0.000 C 
BRANCH  17  18
ATOM     18  C   UNL     1      21.798 -25.069  33.224  1.00  0.00    -0.003 C 
ATOM     19  C   UNL     1      22.546 -26.148  34.009  1.00  0.00     0.004 C 
ENDBRANCH  17  18
ENDBRANCH  16  17
ENDBRANCH  15  16
ENDBRANCH  14  15
ENDBRANCH  13  14
ENDBRANCH  12  13
ENDBRANCH   1  12
TORSDOF 14
ENDMDL
MODEL 4
REMARK VINA RESULT:    -4.803     11.050     12.969
REMARK INTER + INTRA:         -10.287
REMARK INTER:                  -8.372
REMARK INTRA:                  -1.915
REMARK UNBOUND:                -1.552
REMARK SMILES CCCCCCCCCCCCCC[C@@H](C)C(=O)[O-]
REMARK SMILES IDX 9 1 10 2 11 3 12 4 13 5 14 6 15 7 16 8 17 9 18 10 19 11 8 12
REMARK SMILES IDX 7 13 6 14 5 15 4 16 3 17 2 18 1 19
REMARK H PARENT
REMARK Flexibility Score: inf
ROOT
ATOM      1  C   UNL     1      15.293 -17.659  39.590  1.00  0.00     0.000 C 
ENDROOT
BRANCH   1   2
ATOM      2  C   UNL     1      13.950 -16.914  39.503  1.00  0.00     0.000 C 
BRANCH   2   3
ATOM      3  C   UNL     1      14.018 -15.396  39.771  1.00  0.00     0.000 C 
BRANCH   3   4
ATOM      4  C   UNL     1      15.400 -14.863  40.192  1.00  0.00     0.000 C 
BRANCH   4   5
ATOM      5  C   UNL     1      15.988 -13.866  39.179  1.00  0.00     0.001 C 
BRANCH   5   6
ATOM      6  C   UNL     1      15.415 -14.050  37.760  1.00  0.00     0.009 C 
BRANCH   6   7
ATOM      7  C   UNL     1      16.403 -14.678  36.751  1.00  0.00     0.032 C 
ATOM      8  C   UNL     1      17.835 -14.611  37.292  1.00  0.00     0.014 C 
BRANCH   7   9
ATOM      9  C   UNL     1      16.041 -16.105  36.434  1.00  0.00     0.044 C 
ATOM     10  O   UNL     1      14.870 -16.405  36.080  1.00  0.00    -0.550 OA
ATOM     11  O   UNL     1      17.004 -17.101  36.529  1.00  0.00    -0.550 OA
ENDBRANCH   7   9
ENDBRANCH   6   7
ENDBRANCH   5   6
ENDBRANCH   4   5
ENDBRANCH   3   4
ENDBRANCH   2   3
ENDBRANCH   1   2
BRANCH   1  12
ATOM     12  C   UNL     1      15.158 -19.168  39.333  1.00  0.00     0.000 C 
BRANCH  12  13
ATOM     13  C   UNL     1      14.210 -19.862  40.328  1.00  0.00    -0.000 C 
BRANCH  13  14
ATOM     14  C   UNL     1      14.228 -21.404  40.293  1.00  0.00    -0.000 C 
BRANCH  14  15
ATOM     15  C   UNL     1      14.580 -22.029  38.930  1.00  0.00    -0.000 C 
BRANCH  15  16
ATOM     16  C   UNL     1      13.420 -22.835  38.325  1.00  0.00    -0.000 C 
BRANCH  16  17
ATOM     17  C   UNL     1      12.808 -22.163  37.082  1.00  0.00    -0.000 C 
BRANCH  17  18
ATOM     18  C   UNL     1      11.922 -20.938  37.373  1.00  0.00    -0.003 C 
ATOM     19  C   UNL     1      12.482 -19.641  36.788  1.00  0.00     0.004 C 
ENDBRANCH  17  18
ENDBRANCH  16  17
ENDBRANCH  15  16
ENDBRANCH  14  15
ENDBRANCH  13  14
ENDBRANCH  12  13
ENDBRANCH   1  12
TORSDOF 14
ENDMDL
MODEL 5
REMARK VINA RESULT:    -4.801     11.241     14.196
REMARK INTER + INTRA:         -10.283
REMARK INTER:                  -8.247
REMARK INTRA:                  -2.036
REMARK UNBOUND:                -1.552
REMARK SMILES CCCCCCCCCCCCCC[C@@H](C)C(=O)[O-]
REMARK SMILES IDX 9 1 10 2 11 3 12 4 13 5 14 6 15 7 16 8 17 9 18 10 19 11 8 12
REMARK SMILES IDX 7 13 6 14 5 15 4 16 3 17 2 18 1 19
REMARK H PARENT
REMARK Flexibility Score: inf
ROOT
ATOM      1  C   UNL     1      12.966 -14.008  37.807  1.00  0.00     0.000 C 
ENDROOT
BRANCH   1   2
ATOM      2  C   UNL     1      11.645 -14.556  38.374  1.00  0.00     0.000 C 
BRANCH   2   3
ATOM      3  C   UNL     1      11.746 -15.211  39.767  1.00  0.00     0.000 C 
BRANCH   3   4
ATOM      4  C   UNL     1      13.013 -16.050  40.010  1.00  0.00     0.000 C 
BRANCH   4   5
ATOM      5  C   UNL     1      12.752 -17.563  39.921  1.00  0.00     0.001 C 
BRANCH   5   6
ATOM      6  C   UNL     1      13.664 -18.266  38.895  1.00  0.00     0.009 C 
BRANCH   6   7
ATOM      7  C   UNL     1      14.662 -17.325  38.181  1.00  0.00     0.032 C 
ATOM      8  C   UNL     1      16.094 -17.849  38.333  1.00  0.00     0.014 C 
BRANCH   7   9
ATOM      9  C   UNL     1      14.326 -17.165  36.722  1.00  0.00     0.044 C 
ATOM     10  O   UNL     1      13.130 -17.216  36.331  1.00  0.00    -0.550 OA
ATOM     11  O   UNL     1      15.341 -16.958  35.798  1.00  0.00    -0.550 OA
ENDBRANCH   7   9
ENDBRANCH   6   7
ENDBRANCH   5   6
ENDBRANCH   4   5
ENDBRANCH   3   4
ENDBRANCH   2   3
ENDBRANCH   1   2
BRANCH   1  12
ATOM     12  C   UNL     1      13.432 -12.723  38.510  1.00  0.00     0.000 C 
BRANCH  12  13
ATOM     13  C   UNL     1      14.962 -12.557  38.502  1.00  0.00    -0.000 C 
BRANCH  13  14
ATOM     14  C   UNL     1      15.765 -13.818  38.884  1.00  0.00    -0.000 C 
BRANCH  14  15
ATOM     15  C   UNL     1      16.716 -14.349  37.796  1.00  0.00    -0.000 C 
BRANCH  15  16
ATOM     16  C   UNL     1      16.623 -13.557  36.482  1.00  0.00    -0.000 C 
BRANCH  16  17
ATOM     17  C   UNL     1      17.442 -14.190  35.342  1.00  0.00    -0.000 C 
BRANCH  17  18
ATOM     18  C   UNL     1      18.599 -13.325  34.811  1.00  0.00    -0.003 C 
ATOM     19  C   UNL     1      19.090 -13.762  33.431  1.00  0.00     0.004 C 
ENDBRANCH  17  18
ENDBRANCH  16  17
ENDBRANCH  15  16
ENDBRANCH  14  15
ENDBRANCH  13  14
ENDBRANCH  12  13
ENDBRANCH   1  12
TORSDOF 14
ENDMDL
MODEL 6
REMARK VINA RESULT:    -4.770     11.692     13.515
REMARK INTER + INTRA:         -10.226
REMARK INTER:                  -8.178
REMARK INTRA:                  -2.048
REMARK UNBOUND:                -1.552
REMARK SMILES CCCCCCCCCCCCCC[C@@H](C)C(=O)[O-]
REMARK SMILES IDX 9 1 10 2 11 3 12 4 13 5 14 6 15 7 16 8 17 9 18 10 19 11 8 12
REMARK SMILES IDX 7 13 6 14 5 15 4 16 3 17 2 18 1 19
REMARK H PARENT
REMARK Flexibility Score: inf
ROOT
ATOM      1  C   UNL     1      14.031 -16.897  38.903  1.00  0.00     0.000 C 
ENDROOT
BRANCH   1   2
ATOM      2  C   UNL     1      15.220 -17.711  39.444  1.00  0.00     0.000 C 
BRANCH   2   3
ATOM      3  C   UNL     1      14.992 -19.234  39.530  1.00  0.00     0.000 C 
BRANCH   3   4
ATOM      4  C   UNL     1      13.752 -19.671  40.331  1.00  0.00     0.000 C 
BRANCH   4   5
ATOM      5  C   UNL     1      12.705 -20.390  39.464  1.00  0.00     0.001 C 
BRANCH   5   6
ATOM      6  C   UNL     1      13.325 -21.085  38.235  1.00  0.00     0.009 C 
BRANCH   6   7
ATOM      7  C   UNL     1      12.408 -21.112  36.990  1.00  0.00     0.032 C 
ATOM      8  C   UNL     1      11.141 -21.925  37.276  1.00  0.00     0.014 C 
BRANCH   7   9
ATOM      9  C   UNL     1      12.036 -19.723  36.544  1.00  0.00     0.044 C 
ATOM     10  O   UNL     1      12.928 -18.898  36.211  1.00  0.00    -0.550 OA
ATOM     11  O   UNL     1      10.701 -19.345  36.497  1.00  0.00    -0.550 OA
ENDBRANCH   7   9
ENDBRANCH   6   7
ENDBRANCH   5   6
ENDBRANCH   4   5
ENDBRANCH   3   4
ENDBRANCH   2   3
ENDBRANCH   1   2
BRANCH   1  12
ATOM     12  C   UNL     1      13.903 -15.515  39.563  1.00  0.00     0.000 C 
BRANCH  12  13
ATOM     13  C   UNL     1      15.169 -15.101  40.334  1.00  0.00    -0.000 C 
BRANCH  13  14
ATOM     14  C   UNL     1      15.920 -13.879  39.766  1.00  0.00    -0.000 C 
BRANCH  14  15
ATOM     15  C   UNL     1      15.246 -13.192  38.564  1.00  0.00    -0.000 C 
BRANCH  15  16
ATOM     16  C   UNL     1      15.982 -13.448  37.239  1.00  0.00    -0.000 C 
BRANCH  16  17
ATOM     17  C   UNL     1      17.284 -14.249  37.422  1.00  0.00    -0.000 C 
BRANCH  17  18
ATOM     18  C   UNL     1      17.252 -15.683  36.860  1.00  0.00    -0.003 C 
ATOM     19  C   UNL     1      16.080 -15.928  35.911  1.00  0.00     0.004 C 
ENDBRANCH  17  18
ENDBRANCH  16  17
ENDBRANCH  15  16
ENDBRANCH  14  15
ENDBRANCH  13  14
ENDBRANCH  12  13
ENDBRANCH   1  12
TORSDOF 14
ENDMDL
MODEL 7
REMARK VINA RESULT:    -4.745     10.762     13.634
REMARK INTER + INTRA:         -10.181
REMARK INTER:                  -8.656
REMARK INTRA:                  -1.525
REMARK UNBOUND:                -1.552
REMARK SMILES CCCCCCCCCCCCCC[C@@H](C)C(=O)[O-]
REMARK SMILES IDX 9 1 10 2 11 3 12 4 13 5 14 6 15 7 16 8 17 9 18 10 19 11 8 12
REMARK SMILES IDX 7 13 6 14 5 15 4 16 3 17 2 18 1 19
REMARK H PARENT
REMARK Flexibility Score: inf
ROOT
ATOM      1  C   UNL     1      15.138 -15.412  39.695  1.00  0.00     0.000 C 
ENDROOT
BRANCH   1   2
ATOM      2  C   UNL     1      15.793 -14.021  39.618  1.00  0.00     0.000 C 
BRANCH   2   3
ATOM      3  C   UNL     1      14.981 -12.951  38.860  1.00  0.00     0.000 C 
BRANCH   3   4
ATOM      4  C   UNL     1      14.803 -13.203  37.352  1.00  0.00     0.000 C 
BRANCH   4   5
ATOM      5  C   UNL     1      16.083 -12.925  36.546  1.00  0.00     0.001 C 
BRANCH   5   6
ATOM      6  C   UNL     1      16.393 -14.032  35.518  1.00  0.00     0.009 C 
BRANCH   6   7
ATOM      7  C   UNL     1      17.411 -15.087  36.007  1.00  0.00     0.032 C 
ATOM      8  C   UNL     1      18.273 -14.515  37.137  1.00  0.00     0.014 C 
BRANCH   7   9
ATOM      9  C   UNL     1      16.727 -16.346  36.471  1.00  0.00     0.044 C 
ATOM     10  O   UNL     1      15.534 -16.584  36.142  1.00  0.00    -0.550 OA
ATOM     11  O   UNL     1      17.413 -17.254  37.265  1.00  0.00    -0.550 OA
ENDBRANCH   7   9
ENDBRANCH   6   7
ENDBRANCH   5   6
ENDBRANCH   4   5
ENDBRANCH   3   4
ENDBRANCH   2   3
ENDBRANCH   1   2
BRANCH   1  12
ATOM     12  C   UNL     1      13.633 -15.347  40.002  1.00  0.00     0.000 C 
BRANCH  12  13
ATOM     13  C   UNL     1      12.814 -16.375  39.200  1.00  0.00    -0.000 C 
BRANCH  13  14
ATOM     14  C   UNL     1      12.034 -17.402  40.045  1.00  0.00    -0.000 C 
BRANCH  14  15
ATOM     15  C   UNL     1      12.447 -18.872  39.844  1.00  0.00    -0.000 C 
BRANCH  15  16
ATOM     16  C   UNL     1      13.904 -19.145  40.252  1.00  0.00    -0.000 C 
BRANCH  16  17
ATOM     17  C   UNL     1      14.542 -20.298  39.456  1.00  0.00    -0.000 C 
BRANCH  17  18
ATOM     18  C   UNL     1      13.851 -21.664  39.618  1.00  0.00    -0.003 C 
ATOM     19  C   UNL     1      14.787 -22.844  39.355  1.00  0.00     0.004 C 
ENDBRANCH  17  18
ENDBRANCH  16  17
ENDBRANCH  15  16
ENDBRANCH  14  15
ENDBRANCH  13  14
ENDBRANCH  12  13
ENDBRANCH   1  12
TORSDOF 14
ENDMDL
MODEL 8
REMARK VINA RESULT:    -4.726     11.962     13.989
REMARK INTER + INTRA:         -10.147
REMARK INTER:                  -7.821
REMARK INTRA:                  -2.326
REMARK UNBOUND:                -1.552
REMARK SMILES CCCCCCCCCCCCCC[C@@H](C)C(=O)[O-]
REMARK SMILES IDX 9 1 10 2 11 3 12 4 13 5 14 6 15 7 16 8 17 9 18 10 19 11 8 12
REMARK SMILES IDX 7 13 6 14 5 15 4 16 3 17 2 18 1 19
REMARK H PARENT
REMARK Flexibility Score: inf
ROOT
ATOM      1  C   UNL     1      12.812 -16.249  38.480  1.00  0.00     0.000 C 
ENDROOT
BRANCH   1   2
ATOM      2  C   UNL     1      11.940 -15.056  38.051  1.00  0.00     0.000 C 
BRANCH   2   3
ATOM      3  C   UNL     1      12.314 -13.702  38.690  1.00  0.00     0.000 C 
BRANCH   3   4
ATOM      4  C   UNL     1      13.193 -12.784  37.822  1.00  0.00     0.000 C 
BRANCH   4   5
ATOM      5  C   UNL     1      14.684 -12.860  38.193  1.00  0.00     0.001 C 
BRANCH   5   6
ATOM      6  C   UNL     1      15.589 -13.124  36.973  1.00  0.00     0.009 C 
BRANCH   6   7
ATOM      7  C   UNL     1      16.374 -14.455  37.040  1.00  0.00     0.032 C 
ATOM      8  C   UNL     1      15.702 -15.516  36.163  1.00  0.00     0.014 C 
BRANCH   7   9
ATOM      9  C   UNL     1      17.808 -14.275  36.619  1.00  0.00     0.044 C 
ATOM     10  O   UNL     1      18.748 -14.641  37.374  1.00  0.00    -0.550 OA
ATOM     11  O   UNL     1      18.102 -13.703  35.388  1.00  0.00    -0.550 OA
ENDBRANCH   7   9
ENDBRANCH   6   7
ENDBRANCH   5   6
ENDBRANCH   4   5
ENDBRANCH   3   4
ENDBRANCH   2   3
ENDBRANCH   1   2
BRANCH   1  12
ATOM     12  C   UNL     1      13.643 -15.959  39.741  1.00  0.00     0.000 C 
BRANCH  12  13
ATOM     13  C   UNL     1      15.040 -16.604  39.698  1.00  0.00    -0.000 C 
BRANCH  13  14
ATOM     14  C   UNL     1      15.122 -17.953  38.954  1.00  0.00    -0.000 C 
BRANCH  14  15
ATOM     15  C   UNL     1      14.946 -19.204  39.833  1.00  0.00    -0.000 C 
BRANCH  15  16
ATOM     16  C   UNL     1      13.503 -19.734  39.836  1.00  0.00    -0.000 C 
BRANCH  16  17
ATOM     17  C   UNL     1      13.126 -20.453  38.528  1.00  0.00    -0.000 C 
BRANCH  17  18
ATOM     18  C   UNL     1      12.014 -19.773  37.707  1.00  0.00    -0.003 C 
ATOM     19  C   UNL     1      12.487 -19.305  36.331  1.00  0.00     0.004 C 
ENDBRANCH  17  18
ENDBRANCH  16  17
ENDBRANCH  15  16
ENDBRANCH  14  15
ENDBRANCH  13  14
ENDBRANCH  12  13
ENDBRANCH   1  12
TORSDOF 14
ENDMDL
MODEL 9
REMARK VINA RESULT:    -4.712     11.570     13.258
REMARK INTER + INTRA:         -10.121
REMARK INTER:                  -8.161
REMARK INTRA:                  -1.959
REMARK UNBOUND:                -1.552
REMARK SMILES CCCCCCCCCCCCCC[C@@H](C)C(=O)[O-]
REMARK SMILES IDX 9 1 10 2 11 3 12 4 13 5 14 6 15 7 16 8 17 9 18 10 19 11 8 12
REMARK SMILES IDX 7 13 6 14 5 15 4 16 3 17 2 18 1 19
REMARK H PARENT
REMARK Flexibility Score: inf
ROOT
ATOM      1  C   UNL     1      15.364 -18.046  39.594  1.00  0.00     0.000 C 
ENDROOT
BRANCH   1   2
ATOM      2  C   UNL     1      14.044 -17.264  39.707  1.00  0.00     0.000 C 
BRANCH   2   3
ATOM      3  C   UNL     1      14.161 -15.740  39.503  1.00  0.00     0.000 C 
BRANCH   3   4
ATOM      4  C   UNL     1      15.170 -15.027  40.422  1.00  0.00     0.000 C 
BRANCH   4   5
ATOM      5  C   UNL     1      15.948 -13.913  39.701  1.00  0.00     0.001 C 
BRANCH   5   6
ATOM      6  C   UNL     1      15.747 -13.938  38.173  1.00  0.00     0.009 C 
BRANCH   6   7
ATOM      7  C   UNL     1      17.030 -14.240  37.366  1.00  0.00     0.032 C 
ATOM      8  C   UNL     1      17.143 -15.743  37.085  1.00  0.00     0.014 C 
BRANCH   7   9
ATOM      9  C   UNL     1      17.067 -13.473  36.072  1.00  0.00     0.044 C 
ATOM     10  O   UNL     1      17.788 -13.864  35.116  1.00  0.00    -0.550 OA
ATOM     11  O   UNL     1      16.301 -12.324  35.926  1.00  0.00    -0.550 OA
ENDBRANCH   7   9
ENDBRANCH   6   7
ENDBRANCH   5   6
ENDBRANCH   4   5
ENDBRANCH   3   4
ENDBRANCH   2   3
ENDBRANCH   1   2
BRANCH   1  12
ATOM     12  C   UNL     1      15.152 -19.532  39.260  1.00  0.00     0.000 C 
BRANCH  12  13
ATOM     13  C   UNL     1      14.293 -20.264  40.307  1.00  0.00    -0.000 C 
BRANCH  13  14
ATOM     14  C   UNL     1      13.031 -20.960  39.756  1.00  0.00    -0.000 C 
BRANCH  14  15
ATOM     15  C   UNL     1      13.146 -21.492  38.316  1.00  0.00    -0.000 C 
BRANCH  15  16
ATOM     16  C   UNL     1      12.038 -20.962  37.392  1.00  0.00    -0.000 C 
BRANCH  16  17
ATOM     17  C   UNL     1      12.506 -19.796  36.503  1.00  0.00    -0.000 C 
BRANCH  17  18
ATOM     18  C   UNL     1      11.977 -18.409  36.913  1.00  0.00    -0.003 C 
ATOM     19  C   UNL     1      10.884 -18.477  37.979  1.00  0.00     0.004 C 
ENDBRANCH  17  18
ENDBRANCH  16  17
ENDBRANCH  15  16
ENDBRANCH  14  15
ENDBRANCH  13  14
ENDBRANCH  12  13
ENDBRANCH   1  12
TORSDOF 14
ENDMDL
