MODEL 1
REMARK VINA RESULT:    -3.834      0.000      0.000
REMARK INTER + INTRA:          -6.125
REMARK INTER:                  -5.179
REMARK INTRA:                  -0.946
REMARK UNBOUND:                -0.946
REMARK SMILES CC(=O)CCC=C(C)CCC=C(C)C
REMARK SMILES IDX 7 1 6 2 8 3 9 4 10 5 11 6 13 7 12 8 14 9 5 10 4 11 2 12 3 13
REMARK SMILES IDX 1 14
REMARK H PARENT
REMARK Flexibility Score: inf
ROOT
ATOM      1  C   UNL     1     -29.200 -13.334  25.189  1.00  0.00    -0.077 C 
ATOM      2  C   UNL     1     -30.120 -14.037  24.494  1.00  0.00    -0.028 C 
ATOM      3  C   UNL     1     -27.723 -13.622  25.053  1.00  0.00     0.039 C 
ENDROOT
BRANCH   1   4
ATOM      4  C   UNL     1     -29.656 -12.234  26.125  1.00  0.00     0.034 C 
BRANCH   4   5
ATOM      5  C   UNL     1     -29.912 -10.916  25.379  1.00  0.00     0.032 C 
BRANCH   5   6
ATOM      6  C   UNL     1     -28.780  -9.934  25.571  1.00  0.00    -0.028 C 
ATOM      7  C   UNL     1     -27.540 -10.701  23.535  1.00  0.00     0.039 C 
ATOM      8  C   UNL     1     -27.730  -9.800  24.729  1.00  0.00    -0.080 C 
ATOM      9  C   UNL     1     -26.675  -8.762  25.009  1.00  0.00     0.039 C 
ENDBRANCH   5   6
ENDBRANCH   4   5
ENDBRANCH   1   4
BRANCH   2  10
ATOM     10  C   UNL     1     -29.759 -15.144  23.534  1.00  0.00     0.035 C 
BRANCH  10  11
ATOM     11  C   UNL     1     -30.048 -14.735  22.082  1.00  0.00     0.079 C 
BRANCH  11  12
ATOM     12  C   UNL     1     -29.311 -13.495  21.625  1.00  0.00     0.130 C 
ATOM     13  O   UNL     1     -28.091 -13.528  21.582  1.00  0.00    -0.300 OA
ATOM     14  C   UNL     1     -30.013 -12.228  21.221  1.00  0.00     0.087 C 
ENDBRANCH  11  12
ENDBRANCH  10  11
ENDBRANCH   2  10
TORSDOF 6
ENDMDL
MODEL 2
REMARK VINA RESULT:    -3.783      1.439      4.480
REMARK INTER + INTRA:          -6.056
REMARK INTER:                  -5.043
REMARK INTRA:                  -1.013
REMARK UNBOUND:                -0.946
REMARK SMILES CC(=O)CCC=C(C)CCC=C(C)C
REMARK SMILES IDX 7 1 6 2 8 3 9 4 10 5 11 6 13 7 12 8 14 9 5 10 4 11 2 12 3 13
REMARK SMILES IDX 1 14
REMARK H PARENT
REMARK Flexibility Score: inf
ROOT
ATOM      1  C   UNL     1     -29.397 -13.395  25.058  1.00  0.00    -0.077 C 
ATOM      2  C   UNL     1     -30.112 -12.335  25.494  1.00  0.00    -0.028 C 
ATOM      3  C   UNL     1     -27.891 -13.427  25.169  1.00  0.00     0.039 C 
ENDROOT
BRANCH   1   4
ATOM      4  C   UNL     1     -30.119 -14.577  24.445  1.00  0.00     0.034 C 
BRANCH   4   5
ATOM      5  C   UNL     1     -29.646 -14.857  23.011  1.00  0.00     0.032 C 
BRANCH   5   6
ATOM      6  C   UNL     1     -30.122 -13.795  22.047  1.00  0.00    -0.028 C 
ATOM      7  C   UNL     1     -27.835 -12.828  21.716  1.00  0.00     0.039 C 
ATOM      8  C   UNL     1     -29.314 -12.905  21.428  1.00  0.00    -0.080 C 
ATOM      9  C   UNL     1     -29.900 -11.911  20.460  1.00  0.00     0.039 C 
ENDBRANCH   5   6
ENDBRANCH   4   5
ENDBRANCH   1   4
BRANCH   2  10
ATOM     10  C   UNL     1     -29.480 -11.118  26.125  1.00  0.00     0.035 C 
BRANCH  10  11
ATOM     11  C   UNL     1     -29.281  -9.999  25.093  1.00  0.00     0.079 C 
BRANCH  11  12
ATOM     12  C   UNL     1     -27.843  -9.561  24.916  1.00  0.00     0.130 C 
ATOM     13  O   UNL     1     -27.298  -9.782  23.846  1.00  0.00    -0.300 OA
ATOM     14  C   UNL     1     -27.060  -8.867  25.996  1.00  0.00     0.087 C 
ENDBRANCH  11  12
ENDBRANCH  10  11
ENDBRANCH   2  10
TORSDOF 6
ENDMDL
MODEL 3
REMARK VINA RESULT:    -3.643      2.170      5.289
REMARK INTER + INTRA:          -5.867
REMARK INTER:                  -5.336
REMARK INTRA:                  -0.531
REMARK UNBOUND:                -0.946
REMARK SMILES CC(=O)CCC=C(C)CCC=C(C)C
REMARK SMILES IDX 7 1 6 2 8 3 9 4 10 5 11 6 13 7 12 8 14 9 5 10 4 11 2 12 3 13
REMARK SMILES IDX 1 14
REMARK H PARENT
REMARK Flexibility Score: inf
ROOT
ATOM      1  C   UNL     1     -27.255 -12.717  24.311  1.00  0.00    -0.077 C 
ATOM      2  C   UNL     1     -28.368 -12.013  24.609  1.00  0.00    -0.028 C 
ATOM      3  C   UNL     1     -26.404 -13.338  25.394  1.00  0.00     0.039 C 
ENDROOT
BRANCH   1   4
ATOM      4  C   UNL     1     -26.850 -12.889  22.862  1.00  0.00     0.034 C 
BRANCH   4   5
ATOM      5  C   UNL     1     -28.069 -12.943  21.929  1.00  0.00     0.032 C 
BRANCH   5   6
ATOM      6  C   UNL     1     -28.412 -14.361  21.537  1.00  0.00    -0.028 C 
ATOM      7  C   UNL     1     -30.125 -14.627  23.346  1.00  0.00     0.039 C 
ATOM      8  C   UNL     1     -29.361 -15.114  22.140  1.00  0.00    -0.080 C 
ATOM      9  C   UNL     1     -29.638 -16.508  21.640  1.00  0.00     0.039 C 
ENDBRANCH   5   6
ENDBRANCH   4   5
ENDBRANCH   1   4
BRANCH   2  10
ATOM     10  C   UNL     1     -28.853 -11.796  26.022  1.00  0.00     0.035 C 
BRANCH  10  11
ATOM     11  C   UNL     1     -29.714 -10.528  26.124  1.00  0.00     0.079 C 
BRANCH  11  12
ATOM     12  C   UNL     1     -29.044  -9.275  25.605  1.00  0.00     0.130 C 
ATOM     13  O   UNL     1     -29.751  -8.364  25.203  1.00  0.00    -0.300 OA
ATOM     14  C   UNL     1     -27.550  -9.101  25.565  1.00  0.00     0.087 C 
ENDBRANCH  11  12
ENDBRANCH  10  11
ENDBRANCH   2  10
TORSDOF 6
ENDMDL
MODEL 4
REMARK VINA RESULT:    -3.511      1.505      2.496
REMARK INTER + INTRA:          -5.689
REMARK INTER:                  -5.581
REMARK INTRA:                  -0.108
REMARK UNBOUND:                -0.946
REMARK SMILES CC(=O)CCC=C(C)CCC=C(C)C
REMARK SMILES IDX 7 1 6 2 8 3 9 4 10 5 11 6 13 7 12 8 14 9 5 10 4 11 2 12 3 13
REMARK SMILES IDX 1 14
REMARK H PARENT
REMARK Flexibility Score: inf
ROOT
ATOM      1  C   UNL     1     -27.880 -12.817  24.072  1.00  0.00    -0.077 C 
ATOM      2  C   UNL     1     -29.153 -13.248  23.933  1.00  0.00    -0.028 C 
ATOM      3  C   UNL     1     -27.127 -12.203  22.915  1.00  0.00     0.039 C 
ENDROOT
BRANCH   1   4
ATOM      4  C   UNL     1     -27.192 -12.953  25.414  1.00  0.00     0.034 C 
BRANCH   4   5
ATOM      5  C   UNL     1     -27.052 -11.598  26.125  1.00  0.00     0.032 C 
BRANCH   5   6
ATOM      6  C   UNL     1     -28.352 -10.829  26.125  1.00  0.00    -0.028 C 
ATOM      7  C   UNL     1     -27.419  -8.918  24.802  1.00  0.00     0.039 C 
ATOM      8  C   UNL     1     -28.541  -9.644  25.501  1.00  0.00    -0.080 C 
ATOM      9  C   UNL     1     -29.894  -8.984  25.544  1.00  0.00     0.039 C 
ENDBRANCH   5   6
ENDBRANCH   4   5
ENDBRANCH   1   4
BRANCH   2  10
ATOM     10  C   UNL     1     -29.921 -13.147  22.637  1.00  0.00     0.035 C 
BRANCH  10  11
ATOM     11  C   UNL     1     -29.430 -14.187  21.619  1.00  0.00     0.079 C 
BRANCH  11  12
ATOM     12  C   UNL     1     -29.695 -15.622  22.016  1.00  0.00     0.130 C 
ATOM     13  O   UNL     1     -29.552 -16.493  21.171  1.00  0.00    -0.300 OA
ATOM     14  C   UNL     1     -30.125 -16.024  23.400  1.00  0.00     0.087 C 
ENDBRANCH  11  12
ENDBRANCH  10  11
ENDBRANCH   2  10
TORSDOF 6
ENDMDL
MODEL 5
REMARK VINA RESULT:    -3.435      2.023      5.276
REMARK INTER + INTRA:          -5.586
REMARK INTER:                  -4.981
REMARK INTRA:                  -0.605
REMARK UNBOUND:                -0.946
REMARK SMILES CC(=O)CCC=C(C)CCC=C(C)C
REMARK SMILES IDX 7 1 6 2 8 3 9 4 10 5 11 6 13 7 12 8 14 9 5 10 4 11 2 12 3 13
REMARK SMILES IDX 1 14
REMARK H PARENT
REMARK Flexibility Score: inf
ROOT
ATOM      1  C   UNL     1     -27.870 -12.035  22.851  1.00  0.00    -0.077 C 
ATOM      2  C   UNL     1     -28.312 -11.711  24.086  1.00  0.00    -0.028 C 
ATOM      3  C   UNL     1     -26.491 -12.613  22.636  1.00  0.00     0.039 C 
ENDROOT
BRANCH   1   4
ATOM      4  C   UNL     1     -28.775 -11.815  21.657  1.00  0.00     0.034 C 
BRANCH   4   5
ATOM      5  C   UNL     1     -30.123 -12.532  21.819  1.00  0.00     0.032 C 
BRANCH   5   6
ATOM      6  C   UNL     1     -29.999 -14.019  21.581  1.00  0.00    -0.028 C 
ATOM      7  C   UNL     1     -30.125 -14.594  24.015  1.00  0.00     0.039 C 
ATOM      8  C   UNL     1     -30.039 -14.957  22.554  1.00  0.00    -0.080 C 
ATOM      9  C   UNL     1     -29.936 -16.415  22.191  1.00  0.00     0.039 C 
ENDBRANCH   5   6
ENDBRANCH   4   5
ENDBRANCH   1   4
BRANCH   2  10
ATOM     10  C   UNL     1     -27.485 -11.902  25.335  1.00  0.00     0.035 C 
BRANCH  10  11
ATOM     11  C   UNL     1     -27.331 -10.583  26.105  1.00  0.00     0.079 C 
BRANCH  11  12
ATOM     12  C   UNL     1     -28.019  -9.399  25.461  1.00  0.00     0.130 C 
ATOM     13  O   UNL     1     -27.425  -8.791  24.583  1.00  0.00    -0.300 OA
ATOM     14  C   UNL     1     -29.398  -8.941  25.849  1.00  0.00     0.087 C 
ENDBRANCH  11  12
ENDBRANCH  10  11
ENDBRANCH   2  10
TORSDOF 6
ENDMDL
MODEL 6
REMARK VINA RESULT:    -2.761      1.286      2.504
REMARK INTER + INTRA:          -4.676
REMARK INTER:                  -4.463
REMARK INTRA:                  -0.213
REMARK UNBOUND:                -0.946
REMARK SMILES CC(=O)CCC=C(C)CCC=C(C)C
REMARK SMILES IDX 7 1 6 2 8 3 9 4 10 5 11 6 13 7 12 8 14 9 5 10 4 11 2 12 3 13
REMARK SMILES IDX 1 14
REMARK H PARENT
REMARK Flexibility Score: inf
ROOT
ATOM      1  C   UNL     1     -27.868 -12.509  25.689  1.00  0.00    -0.077 C 
ATOM      2  C   UNL     1     -29.151 -12.861  25.458  1.00  0.00    -0.028 C 
ATOM      3  C   UNL     1     -26.740 -13.503  25.538  1.00  0.00     0.039 C 
ENDROOT
BRANCH   1   4
ATOM      4  C   UNL     1     -27.551 -11.089  26.109  1.00  0.00     0.034 C 
BRANCH   4   5
ATOM      5  C   UNL     1     -27.331 -10.170  24.898  1.00  0.00     0.032 C 
BRANCH   5   6
ATOM      6  C   UNL     1     -28.275 -10.499  23.765  1.00  0.00    -0.028 C 
ATOM      7  C   UNL     1     -26.596 -11.903  22.547  1.00  0.00     0.039 C 
ATOM      8  C   UNL     1     -27.970 -11.308  22.725  1.00  0.00    -0.080 C 
ATOM      9  C   UNL     1     -29.007 -11.589  21.669  1.00  0.00     0.039 C 
ENDBRANCH   5   6
ENDBRANCH   4   5
ENDBRANCH   1   4
BRANCH   2  10
ATOM     10  C   UNL     1     -29.561 -14.250  25.029  1.00  0.00     0.035 C 
BRANCH  10  11
ATOM     11  C   UNL     1     -30.125 -14.246  23.601  1.00  0.00     0.079 C 
BRANCH  11  12
ATOM     12  C   UNL     1     -29.378 -15.136  22.632  1.00  0.00     0.130 C 
ATOM     13  O   UNL     1     -28.225 -14.846  22.349  1.00  0.00    -0.300 OA
ATOM     14  C   UNL     1     -29.989 -16.359  22.005  1.00  0.00     0.087 C 
ENDBRANCH  11  12
ENDBRANCH  10  11
ENDBRANCH   2  10
TORSDOF 6
ENDMDL
MODEL 7
REMARK VINA RESULT:    -2.737      2.171      4.402
REMARK INTER + INTRA:          -4.644
REMARK INTER:                  -3.857
REMARK INTRA:                  -0.786
REMARK UNBOUND:                -0.946
REMARK SMILES CC(=O)CCC=C(C)CCC=C(C)C
REMARK SMILES IDX 7 1 6 2 8 3 9 4 10 5 11 6 13 7 12 8 14 9 5 10 4 11 2 12 3 13
REMARK SMILES IDX 1 14
REMARK H PARENT
REMARK Flexibility Score: inf
ROOT
ATOM      1  C   UNL     1     -30.004 -12.755  23.463  1.00  0.00    -0.077 C 
ATOM      2  C   UNL     1     -30.031 -12.850  24.810  1.00  0.00    -0.028 C 
ATOM      3  C   UNL     1     -30.077 -11.416  22.767  1.00  0.00     0.039 C 
ENDROOT
BRANCH   1   4
ATOM      4  C   UNL     1     -29.900 -14.016  22.631  1.00  0.00     0.034 C 
BRANCH   4   5
ATOM      5  C   UNL     1     -28.447 -14.327  22.242  1.00  0.00     0.032 C 
BRANCH   5   6
ATOM      6  C   UNL     1     -27.519 -14.248  23.432  1.00  0.00    -0.028 C 
ATOM      7  C   UNL     1     -26.641 -11.986  22.814  1.00  0.00     0.039 C 
ATOM      8  C   UNL     1     -26.734 -13.187  23.722  1.00  0.00    -0.080 C 
ATOM      9  C   UNL     1     -25.871 -13.210  24.957  1.00  0.00     0.039 C 
ENDBRANCH   5   6
ENDBRANCH   4   5
ENDBRANCH   1   4
BRANCH   2  10
ATOM     10  C   UNL     1     -30.125 -11.648  25.720  1.00  0.00     0.035 C 
BRANCH  10  11
ATOM     11  C   UNL     1     -28.735 -11.069  26.019  1.00  0.00     0.079 C 
BRANCH  11  12
ATOM     12  C   UNL     1     -28.536  -9.647  25.542  1.00  0.00     0.130 C 
ATOM     13  O   UNL     1     -29.436  -8.841  25.729  1.00  0.00    -0.300 OA
ATOM     14  C   UNL     1     -27.282  -9.181  24.853  1.00  0.00     0.087 C 
ENDBRANCH  11  12
ENDBRANCH  10  11
ENDBRANCH   2  10
TORSDOF 6
ENDMDL
