MODEL 1
REMARK VINA RESULT:    -4.182      0.000      0.000
REMARK INTER + INTRA:          -4.883
REMARK INTER:                  -4.671
REMARK INTRA:                  -0.212
REMARK UNBOUND:                -0.212
REMARK SMILES O=C([O-])c1ccccc1C(=O)[O-]
REMARK SMILES IDX 4 1 9 2 5 3 8 4 6 5 7 6 2 7 1 8 3 9 10 10 11 11 12 12
REMARK H PARENT
REMARK Flexibility Score: inf
ROOT
ATOM      1  C   UNL     1      56.139  26.802  50.211  1.00  0.00     0.006 A 
ATOM      2  C   UNL     1      55.962  28.171  50.556  1.00  0.00     0.006 A 
ATOM      3  C   UNL     1      55.058  26.088  49.662  1.00  0.00     0.010 A 
ATOM      4  C   UNL     1      54.692  28.756  50.398  1.00  0.00     0.010 A 
ATOM      5  C   UNL     1      53.813  26.695  49.493  1.00  0.00     0.001 A 
ATOM      6  C   UNL     1      53.628  28.023  49.872  1.00  0.00     0.001 A 
ENDROOT
BRANCH   1   7
ATOM      7  C   UNL     1      57.400  26.068  50.473  1.00  0.00     0.072 C 
ATOM      8  O   UNL     1      57.528  25.384  51.524  1.00  0.00    -0.545 OA
ATOM      9  O   UNL     1      58.477  26.176  49.602  1.00  0.00    -0.545 OA
ENDBRANCH   1   7
BRANCH   2  10
ATOM     10  C   UNL     1      57.072  29.038  51.012  1.00  0.00     0.072 C 
ATOM     11  O   UNL     1      57.239  29.281  52.236  1.00  0.00    -0.545 OA
ATOM     12  O   UNL     1      57.986  29.541  50.093  1.00  0.00    -0.545 OA
ENDBRANCH   2  10
TORSDOF 2
ENDMDL
MODEL 2
REMARK VINA RESULT:    -4.168      0.063      2.868
REMARK INTER + INTRA:          -4.868
REMARK INTER:                  -4.661
REMARK INTRA:                  -0.207
REMARK UNBOUND:                -0.212
REMARK SMILES O=C([O-])c1ccccc1C(=O)[O-]
REMARK SMILES IDX 4 1 9 2 5 3 8 4 6 5 7 6 2 7 1 8 3 9 10 10 11 11 12 12
REMARK H PARENT
REMARK Flexibility Score: inf
ROOT
ATOM      1  C   UNL     1      55.936  28.181  50.548  1.00  0.00     0.006 A 
ATOM      2  C   UNL     1      56.124  26.808  50.226  1.00  0.00     0.006 A 
ATOM      3  C   UNL     1      54.666  28.760  50.368  1.00  0.00     0.010 A 
ATOM      4  C   UNL     1      55.051  26.083  49.674  1.00  0.00     0.010 A 
ATOM      5  C   UNL     1      53.610  28.016  49.840  1.00  0.00     0.001 A 
ATOM      6  C   UNL     1      53.806  26.684  49.483  1.00  0.00     0.001 A 
ENDROOT
BRANCH   1   7
ATOM      7  C   UNL     1      57.044  29.055  51.001  1.00  0.00     0.072 C 
ATOM      8  O   UNL     1      57.114  29.415  52.207  1.00  0.00    -0.545 OA
ATOM      9  O   UNL     1      57.979  29.542  50.096  1.00  0.00    -0.545 OA
ENDBRANCH   1   7
BRANCH   2  10
ATOM     10  C   UNL     1      57.381  26.078  50.508  1.00  0.00     0.072 C 
ATOM     11  O   UNL     1      57.486  25.345  51.527  1.00  0.00    -0.545 OA
ATOM     12  O   UNL     1      58.440  26.141  49.610  1.00  0.00    -0.545 OA
ENDBRANCH   2  10
TORSDOF 2
ENDMDL
MODEL 3
REMARK VINA RESULT:    -4.153     11.778     13.801
REMARK INTER + INTRA:          -4.851
REMARK INTER:                  -4.665
REMARK INTRA:                  -0.186
REMARK UNBOUND:                -0.212
REMARK SMILES O=C([O-])c1ccccc1C(=O)[O-]
REMARK SMILES IDX 4 1 9 2 5 3 8 4 6 5 7 6 2 7 1 8 3 9 10 10 11 11 12 12
REMARK H PARENT
REMARK Flexibility Score: inf
ROOT
ATOM      1  C   UNL     1      62.117  33.806  60.311  1.00  0.00     0.006 A 
ATOM      2  C   UNL     1      63.487  33.582  60.624  1.00  0.00     0.006 A 
ATOM      3  C   UNL     1      61.583  35.099  60.460  1.00  0.00     0.010 A 
ATOM      4  C   UNL     1      64.253  34.646  61.136  1.00  0.00     0.010 A 
ATOM      5  C   UNL     1      62.368  36.145  60.948  1.00  0.00     0.001 A 
ATOM      6  C   UNL     1      63.697  35.915  61.296  1.00  0.00     0.001 A 
ENDROOT
BRANCH   1   7
ATOM      7  C   UNL     1      61.202  32.715  59.901  1.00  0.00     0.072 C 
ATOM      8  O   UNL     1      60.771  32.661  58.718  1.00  0.00    -0.545 OA
ATOM      9  O   UNL     1      60.755  31.779  60.825  1.00  0.00    -0.545 OA
ENDBRANCH   1   7
BRANCH   2  10
ATOM     10  C   UNL     1      64.172  32.294  60.373  1.00  0.00     0.072 C 
ATOM     11  O   UNL     1      64.112  31.357  61.213  1.00  0.00    -0.545 OA
ATOM     12  O   UNL     1      64.836  32.080  59.170  1.00  0.00    -0.545 OA
ENDBRANCH   2  10
TORSDOF 2
ENDMDL
MODEL 4
REMARK VINA RESULT:    -4.132     11.775     13.764
REMARK INTER + INTRA:          -4.828
REMARK INTER:                  -4.622
REMARK INTRA:                  -0.206
REMARK UNBOUND:                -0.212
REMARK SMILES O=C([O-])c1ccccc1C(=O)[O-]
REMARK SMILES IDX 4 1 9 2 5 3 8 4 6 5 7 6 2 7 1 8 3 9 10 10 11 11 12 12
REMARK H PARENT
REMARK Flexibility Score: inf
ROOT
ATOM      1  C   UNL     1      63.480  33.622  60.629  1.00  0.00     0.006 A 
ATOM      2  C   UNL     1      62.124  33.898  60.298  1.00  0.00     0.006 A 
ATOM      3  C   UNL     1      64.269  34.641  61.192  1.00  0.00     0.010 A 
ATOM      4  C   UNL     1      61.628  35.201  60.482  1.00  0.00     0.010 A 
ATOM      5  C   UNL     1      63.749  35.922  61.387  1.00  0.00     0.001 A 
ATOM      6  C   UNL     1      62.435  36.203  61.022  1.00  0.00     0.001 A 
ENDROOT
BRANCH   1   7
ATOM      7  C   UNL     1      64.125  32.320  60.339  1.00  0.00     0.072 C 
ATOM      8  O   UNL     1      64.119  31.403  61.204  1.00  0.00    -0.545 OA
ATOM      9  O   UNL     1      64.801  32.113  59.142  1.00  0.00    -0.545 OA
ENDBRANCH   1   7
BRANCH   2  10
ATOM     10  C   UNL     1      61.181  32.857  59.829  1.00  0.00     0.072 C 
ATOM     11  O   UNL     1      60.864  32.775  58.612  1.00  0.00    -0.545 OA
ATOM     12  O   UNL     1      60.684  31.914  60.720  1.00  0.00    -0.545 OA
ENDBRANCH   2  10
TORSDOF 2
ENDMDL
MODEL 5
REMARK VINA RESULT:    -3.743     12.152     13.325
REMARK INTER + INTRA:          -4.393
REMARK INTER:                  -4.182
REMARK INTRA:                  -0.212
REMARK UNBOUND:                -0.212
REMARK SMILES O=C([O-])c1ccccc1C(=O)[O-]
REMARK SMILES IDX 4 1 9 2 5 3 8 4 6 5 7 6 2 7 1 8 3 9 10 10 11 11 12 12
REMARK H PARENT
REMARK Flexibility Score: inf
ROOT
ATOM      1  C   UNL     1      61.841  32.641  60.431  1.00  0.00     0.006 A 
ATOM      2  C   UNL     1      63.247  32.435  60.483  1.00  0.00     0.006 A 
ATOM      3  C   UNL     1      60.983  31.652  60.947  1.00  0.00     0.010 A 
ATOM      4  C   UNL     1      63.741  31.218  60.989  1.00  0.00     0.010 A 
ATOM      5  C   UNL     1      61.496  30.462  61.465  1.00  0.00     0.001 A 
ATOM      6  C   UNL     1      62.871  30.241  61.475  1.00  0.00     0.001 A 
ENDROOT
BRANCH   1   7
ATOM      7  C   UNL     1      61.230  33.829  59.789  1.00  0.00     0.072 C 
ATOM      8  O   UNL     1      60.815  33.763  58.601  1.00  0.00    -0.545 OA
ATOM      9  O   UNL     1      61.168  35.045  60.460  1.00  0.00    -0.545 OA
ENDBRANCH   1   7
BRANCH   2  10
ATOM     10  C   UNL     1      64.230  33.471  60.091  1.00  0.00     0.072 C 
ATOM     11  O   UNL     1      64.726  33.484  58.934  1.00  0.00    -0.545 OA
ATOM     12  O   UNL     1      64.566  34.485  60.981  1.00  0.00    -0.545 OA
ENDBRANCH   2  10
TORSDOF 2
ENDMDL
MODEL 6
REMARK VINA RESULT:    -3.743      1.982      4.273
REMARK INTER + INTRA:          -4.393
REMARK INTER:                  -4.188
REMARK INTRA:                  -0.204
REMARK UNBOUND:                -0.212
REMARK SMILES O=C([O-])c1ccccc1C(=O)[O-]
REMARK SMILES IDX 4 1 9 2 5 3 8 4 6 5 7 6 2 7 1 8 3 9 10 10 11 11 12 12
REMARK H PARENT
REMARK Flexibility Score: inf
ROOT
ATOM      1  C   UNL     1      57.174  28.533  50.449  1.00  0.00     0.006 A 
ATOM      2  C   UNL     1      57.334  27.121  50.369  1.00  0.00     0.006 A 
ATOM      3  C   UNL     1      58.199  29.367  49.965  1.00  0.00     0.010 A 
ATOM      4  C   UNL     1      58.540  26.598  49.866  1.00  0.00     0.010 A 
ATOM      5  C   UNL     1      59.377  28.826  49.450  1.00  0.00     0.001 A 
ATOM      6  C   UNL     1      59.552  27.444  49.411  1.00  0.00     0.001 A 
ENDROOT
BRANCH   1   7
ATOM      7  C   UNL     1      56.000  29.169  51.091  1.00  0.00     0.072 C 
ATOM      8  O   UNL     1      56.074  29.582  52.279  1.00  0.00    -0.545 OA
ATOM      9  O   UNL     1      54.787  29.259  50.419  1.00  0.00    -0.545 OA
ENDBRANCH   1   7
BRANCH   2  10
ATOM     10  C   UNL     1      56.260  26.166  50.726  1.00  0.00     0.072 C 
ATOM     11  O   UNL     1      56.219  25.641  51.870  1.00  0.00    -0.545 OA
ATOM     12  O   UNL     1      55.244  25.889  49.819  1.00  0.00    -0.545 OA
ENDBRANCH   2  10
TORSDOF 2
ENDMDL
MODEL 7
REMARK VINA RESULT:    -3.697     13.214     14.701
REMARK INTER + INTRA:          -4.342
REMARK INTER:                  -4.119
REMARK INTRA:                  -0.223
REMARK UNBOUND:                -0.212
REMARK SMILES O=C([O-])c1ccccc1C(=O)[O-]
REMARK SMILES IDX 4 1 9 2 5 3 8 4 6 5 7 6 2 7 1 8 3 9 10 10 11 11 12 12
REMARK H PARENT
REMARK Flexibility Score: inf
ROOT
ATOM      1  C   UNL     1      62.391  35.049  60.400  1.00  0.00     0.006 A 
ATOM      2  C   UNL     1      63.720  34.640  60.705  1.00  0.00     0.006 A 
ATOM      3  C   UNL     1      61.400  34.068  60.211  1.00  0.00     0.010 A 
ATOM      4  C   UNL     1      64.020  33.266  60.746  1.00  0.00     0.010 A 
ATOM      5  C   UNL     1      61.716  32.710  60.278  1.00  0.00     0.001 A 
ATOM      6  C   UNL     1      63.026  32.311  60.533  1.00  0.00     0.001 A 
ENDROOT
BRANCH   1   7
ATOM      7  C   UNL     1      62.017  36.468  60.199  1.00  0.00     0.072 C 
ATOM      8  O   UNL     1      61.394  37.092  61.099  1.00  0.00    -0.545 OA
ATOM      9  O   UNL     1      62.287  37.110  58.996  1.00  0.00    -0.545 OA
ENDBRANCH   1   7
BRANCH   2  10
ATOM     10  C   UNL     1      64.797  35.595  61.053  1.00  0.00     0.072 C 
ATOM     11  O   UNL     1      65.640  35.958  60.190  1.00  0.00    -0.545 OA
ATOM     12  O   UNL     1      64.849  36.154  62.325  1.00  0.00    -0.545 OA
ENDBRANCH   2  10
TORSDOF 2
ENDMDL
MODEL 8
REMARK VINA RESULT:    -3.682     13.049     14.540
REMARK INTER + INTRA:          -4.325
REMARK INTER:                  -4.142
REMARK INTRA:                  -0.183
REMARK UNBOUND:                -0.212
REMARK SMILES O=C([O-])c1ccccc1C(=O)[O-]
REMARK SMILES IDX 4 1 9 2 5 3 8 4 6 5 7 6 2 7 1 8 3 9 10 10 11 11 12 12
REMARK H PARENT
REMARK Flexibility Score: inf
ROOT
ATOM      1  C   UNL     1      63.738  34.482  60.708  1.00  0.00     0.006 A 
ATOM      2  C   UNL     1      62.403  34.873  60.407  1.00  0.00     0.006 A 
ATOM      3  C   UNL     1      64.058  33.113  60.749  1.00  0.00     0.010 A 
ATOM      4  C   UNL     1      61.425  33.879  60.223  1.00  0.00     0.010 A 
ATOM      5  C   UNL     1      63.076  32.143  60.542  1.00  0.00     0.001 A 
ATOM      6  C   UNL     1      61.760  32.526  60.290  1.00  0.00     0.001 A 
ENDROOT
BRANCH   1   7
ATOM      7  C   UNL     1      64.798  35.458  61.053  1.00  0.00     0.072 C 
ATOM      8  O   UNL     1      64.919  35.870  62.238  1.00  0.00    -0.545 OA
ATOM      9  O   UNL     1      65.628  35.982  60.068  1.00  0.00    -0.545 OA
ENDBRANCH   1   7
BRANCH   2  10
ATOM     10  C   UNL     1      62.001  36.285  60.207  1.00  0.00     0.072 C 
ATOM     11  O   UNL     1      61.743  36.724  59.056  1.00  0.00    -0.545 OA
ATOM     12  O   UNL     1      61.840  37.125  61.303  1.00  0.00    -0.545 OA
ENDBRANCH   2  10
TORSDOF 2
ENDMDL
