MODEL 1
REMARK VINA RESULT:    -4.216      0.000      0.000
REMARK INTER + INTRA:          -7.514
REMARK INTER:                  -6.434
REMARK INTRA:                  -1.079
REMARK UNBOUND:                -1.079
REMARK SMILES CCCCCCCCCC=CC(=O)[O-]
REMARK SMILES IDX 7 1 8 2 9 3 10 4 11 5 12 6 13 7 14 8 6 9 5 10 4 11 3 12 2 13
REMARK SMILES IDX 1 14
REMARK H PARENT
REMARK Flexibility Score: inf
ROOT
ATOM      1  C   UNL     1      -9.772   3.345  -3.644  1.00  0.00     0.000 C 
ENDROOT
BRANCH   1   2
ATOM      2  C   UNL     1      -9.748   3.432  -5.181  1.00  0.00     0.004 C 
BRANCH   2   3
ATOM      3  C   UNL     1      -9.240   2.135  -5.823  1.00  0.00     0.027 C 
BRANCH   3   4
ATOM      4  C   UNL     1      -7.884   1.751  -5.299  1.00  0.00    -0.025 C 
ATOM      5  C   UNL     1      -6.765   2.305  -5.777  1.00  0.00     0.020 C 
BRANCH   5   6
ATOM      6  C   UNL     1      -5.433   1.964  -5.255  1.00  0.00     0.064 C 
ATOM      7  O   UNL     1      -5.196   0.827  -4.766  1.00  0.00    -0.545 OA
ATOM      8  O   UNL     1      -4.418   2.911  -5.302  1.00  0.00    -0.545 OA
ENDBRANCH   5   6
ENDBRANCH   3   4
ENDBRANCH   2   3
ENDBRANCH   1   2
BRANCH   1   9
ATOM      9  C   UNL     1      -9.104   4.556  -2.972  1.00  0.00     0.000 C 
BRANCH   9  10
ATOM     10  C   UNL     1      -7.601   4.339  -2.720  1.00  0.00     0.000 C 
BRANCH  10  11
ATOM     11  C   UNL     1      -6.719   5.262  -3.577  1.00  0.00    -0.000 C 
BRANCH  11  12
ATOM     12  C   UNL     1      -7.129   6.742  -3.466  1.00  0.00    -0.000 C 
BRANCH  12  13
ATOM     13  C   UNL     1      -6.184   7.547  -2.560  1.00  0.00    -0.003 C 
ATOM     14  C   UNL     1      -6.556   7.452  -1.080  1.00  0.00     0.004 C 
ENDBRANCH  12  13
ENDBRANCH  11  12
ENDBRANCH  10  11
ENDBRANCH   9  10
ENDBRANCH   1   9
TORSDOF 9
ENDMDL
MODEL 2
REMARK VINA RESULT:    -4.172     14.880     17.545
REMARK INTER + INTRA:          -7.447
REMARK INTER:                  -6.811
REMARK INTRA:                  -0.636
REMARK UNBOUND:                -1.079
REMARK SMILES CCCCCCCCCC=CC(=O)[O-]
REMARK SMILES IDX 7 1 8 2 9 3 10 4 11 5 12 6 13 7 14 8 6 9 5 10 4 11 3 12 2 13
REMARK SMILES IDX 1 14
REMARK H PARENT
REMARK Flexibility Score: inf
ROOT
ATOM      1  C   UNL     1       8.637  -2.236  -0.176  1.00  0.00     0.000 C 
ENDROOT
BRANCH   1   2
ATOM      2  C   UNL     1       8.818  -0.909  -0.935  1.00  0.00     0.004 C 
BRANCH   2   3
ATOM      3  C   UNL     1       8.360  -1.015  -2.396  1.00  0.00     0.027 C 
BRANCH   3   4
ATOM      4  C   UNL     1       8.275   0.337  -3.048  1.00  0.00    -0.025 C 
ATOM      5  C   UNL     1       7.114   0.830  -3.491  1.00  0.00     0.020 C 
BRANCH   5   6
ATOM      6  C   UNL     1       7.008   2.163  -4.105  1.00  0.00     0.064 C 
ATOM      7  O   UNL     1       5.917   2.577  -4.580  1.00  0.00    -0.545 OA
ATOM      8  O   UNL     1       8.131   2.980  -4.162  1.00  0.00    -0.545 OA
ENDBRANCH   5   6
ENDBRANCH   3   4
ENDBRANCH   2   3
ENDBRANCH   1   2
BRANCH   1   9
ATOM      9  C   UNL     1       9.976  -2.860   0.253  1.00  0.00     0.000 C 
BRANCH   9  10
ATOM     10  C   UNL     1       9.800  -4.231   0.929  1.00  0.00     0.000 C 
BRANCH  10  11
ATOM     11  C   UNL     1       8.395  -4.420   1.526  1.00  0.00    -0.000 C 
BRANCH  11  12
ATOM     12  C   UNL     1       7.613  -5.559   0.847  1.00  0.00    -0.000 C 
BRANCH  12  13
ATOM     13  C   UNL     1       8.186  -5.925  -0.531  1.00  0.00    -0.003 C 
ATOM     14  C   UNL     1       7.338  -5.394  -1.687  1.00  0.00     0.004 C 
ENDBRANCH  12  13
ENDBRANCH  11  12
ENDBRANCH  10  11
ENDBRANCH   9  10
ENDBRANCH   1   9
TORSDOF 9
ENDMDL
MODEL 3
REMARK VINA RESULT:    -4.157     12.463     13.971
REMARK INTER + INTRA:          -7.424
REMARK INTER:                  -5.786
REMARK INTRA:                  -1.638
REMARK UNBOUND:                -1.079
REMARK SMILES CCCCCCCCCC=CC(=O)[O-]
REMARK SMILES IDX 7 1 8 2 9 3 10 4 11 5 12 6 13 7 14 8 6 9 5 10 4 11 3 12 2 13
REMARK SMILES IDX 1 14
REMARK H PARENT
REMARK Flexibility Score: inf
ROOT
ATOM      1  C   UNL     1       5.122   5.764  -7.234  1.00  0.00     0.000 C 
ENDROOT
BRANCH   1   2
ATOM      2  C   UNL     1       5.341   4.268  -7.522  1.00  0.00     0.004 C 
BRANCH   2   3
ATOM      3  C   UNL     1       4.893   3.385  -6.350  1.00  0.00     0.027 C 
BRANCH   3   4
ATOM      4  C   UNL     1       6.035   2.579  -5.796  1.00  0.00    -0.025 C 
ATOM      5  C   UNL     1       6.293   2.538  -4.484  1.00  0.00     0.020 C 
BRANCH   5   6
ATOM      6  C   UNL     1       7.388   1.731  -3.923  1.00  0.00     0.064 C 
ATOM      7  O   UNL     1       8.563   2.180  -3.860  1.00  0.00    -0.545 OA
ATOM      8  O   UNL     1       7.121   0.450  -3.455  1.00  0.00    -0.545 OA
ENDBRANCH   5   6
ENDBRANCH   3   4
ENDBRANCH   2   3
ENDBRANCH   1   2
BRANCH   1   9
ATOM      9  C   UNL     1       4.189   6.007  -6.036  1.00  0.00     0.000 C 
BRANCH   9  10
ATOM     10  C   UNL     1       4.714   7.099  -5.088  1.00  0.00     0.000 C 
BRANCH  10  11
ATOM     11  C   UNL     1       6.250   7.122  -5.006  1.00  0.00    -0.000 C 
BRANCH  11  12
ATOM     12  C   UNL     1       6.801   6.138  -3.959  1.00  0.00    -0.000 C 
BRANCH  12  13
ATOM     13  C   UNL     1       8.260   5.743  -4.233  1.00  0.00    -0.003 C 
ATOM     14  C   UNL     1       8.513   5.385  -5.697  1.00  0.00     0.004 C 
ENDBRANCH  12  13
ENDBRANCH  11  12
ENDBRANCH  10  11
ENDBRANCH   9  10
ENDBRANCH   1   9
TORSDOF 9
ENDMDL
MODEL 4
REMARK VINA RESULT:    -4.124     12.122     14.227
REMARK INTER + INTRA:          -7.373
REMARK INTER:                  -6.206
REMARK INTRA:                  -1.166
REMARK UNBOUND:                -1.079
REMARK SMILES CCCCCCCCCC=CC(=O)[O-]
REMARK SMILES IDX 7 1 8 2 9 3 10 4 11 5 12 6 13 7 14 8 6 9 5 10 4 11 3 12 2 13
REMARK SMILES IDX 1 14
REMARK H PARENT
REMARK Flexibility Score: inf
ROOT
ATOM      1  C   UNL     1       6.272   6.343  -4.258  1.00  0.00     0.000 C 
ENDROOT
BRANCH   1   2
ATOM      2  C   UNL     1       7.757   6.519  -4.622  1.00  0.00     0.004 C 
BRANCH   2   3
ATOM      3  C   UNL     1       8.401   5.201  -5.069  1.00  0.00     0.027 C 
BRANCH   3   4
ATOM      4  C   UNL     1       7.606   4.011  -4.607  1.00  0.00    -0.025 C 
ATOM      5  C   UNL     1       8.200   2.875  -4.227  1.00  0.00     0.020 C 
BRANCH   5   6
ATOM      6  C   UNL     1       7.439   1.713  -3.744  1.00  0.00     0.064 C 
ATOM      7  O   UNL     1       6.181   1.681  -3.815  1.00  0.00    -0.545 OA
ATOM      8  O   UNL     1       8.118   0.631  -3.198  1.00  0.00    -0.545 OA
ENDBRANCH   5   6
ENDBRANCH   3   4
ENDBRANCH   2   3
ENDBRANCH   1   2
BRANCH   1   9
ATOM      9  C   UNL     1       5.337   7.149  -5.175  1.00  0.00     0.000 C 
BRANCH   9  10
ATOM     10  C   UNL     1       3.962   6.483  -5.352  1.00  0.00     0.000 C 
BRANCH  10  11
ATOM     11  C   UNL     1       3.720   6.002  -6.792  1.00  0.00    -0.000 C 
BRANCH  11  12
ATOM     12  C   UNL     1       4.729   4.927  -7.233  1.00  0.00    -0.000 C 
BRANCH  12  13
ATOM     13  C   UNL     1       4.579   3.618  -6.442  1.00  0.00    -0.003 C 
ATOM     14  C   UNL     1       5.289   2.438  -7.105  1.00  0.00     0.004 C 
ENDBRANCH  12  13
ENDBRANCH  11  12
ENDBRANCH  10  11
ENDBRANCH   9  10
ENDBRANCH   1   9
TORSDOF 9
ENDMDL
MODEL 5
REMARK VINA RESULT:    -4.109      1.171      1.724
REMARK INTER + INTRA:          -7.350
REMARK INTER:                  -6.156
REMARK INTRA:                  -1.194
REMARK UNBOUND:                -1.079
REMARK SMILES CCCCCCCCCC=CC(=O)[O-]
REMARK SMILES IDX 7 1 8 2 9 3 10 4 11 5 12 6 13 7 14 8 6 9 5 10 4 11 3 12 2 13
REMARK SMILES IDX 1 14
REMARK H PARENT
REMARK Flexibility Score: inf
ROOT
ATOM      1  C   UNL     1      -9.981   3.027  -3.571  1.00  0.00     0.000 C 
ENDROOT
BRANCH   1   2
ATOM      2  C   UNL     1      -9.864   1.698  -4.339  1.00  0.00     0.004 C 
BRANCH   2   3
ATOM      3  C   UNL     1      -8.938   1.816  -5.556  1.00  0.00     0.027 C 
BRANCH   3   4
ATOM      4  C   UNL     1      -7.490   1.839  -5.151  1.00  0.00    -0.025 C 
ATOM      5  C   UNL     1      -6.604   2.634  -5.759  1.00  0.00     0.020 C 
BRANCH   5   6
ATOM      6  C   UNL     1      -5.190   2.691  -5.355  1.00  0.00     0.064 C 
ATOM      7  O   UNL     1      -4.265   2.543  -6.197  1.00  0.00    -0.545 OA
ATOM      8  O   UNL     1      -4.870   2.912  -4.021  1.00  0.00    -0.545 OA
ENDBRANCH   5   6
ENDBRANCH   3   4
ENDBRANCH   2   3
ENDBRANCH   1   2
BRANCH   1   9
ATOM      9  C   UNL     1     -10.043   4.247  -4.505  1.00  0.00     0.000 C 
BRANCH   9  10
ATOM     10  C   UNL     1      -9.427   5.508  -3.874  1.00  0.00     0.000 C 
BRANCH  10  11
ATOM     11  C   UNL     1      -8.724   5.216  -2.538  1.00  0.00    -0.000 C 
BRANCH  11  12
ATOM     12  C   UNL     1      -7.194   5.134  -2.681  1.00  0.00    -0.000 C 
BRANCH  12  13
ATOM     13  C   UNL     1      -6.676   5.895  -3.912  1.00  0.00    -0.003 C 
ATOM     14  C   UNL     1      -6.117   7.274  -3.565  1.00  0.00     0.004 C 
ENDBRANCH  12  13
ENDBRANCH  11  12
ENDBRANCH  10  11
ENDBRANCH   9  10
ENDBRANCH   1   9
TORSDOF 9
ENDMDL
MODEL 6
REMARK VINA RESULT:    -4.069      2.230      4.497
REMARK INTER + INTRA:          -7.290
REMARK INTER:                  -5.860
REMARK INTRA:                  -1.430
REMARK UNBOUND:                -1.079
REMARK SMILES CCCCCCCCCC=CC(=O)[O-]
REMARK SMILES IDX 7 1 8 2 9 3 10 4 11 5 12 6 13 7 14 8 6 9 5 10 4 11 3 12 2 13
REMARK SMILES IDX 1 14
REMARK H PARENT
REMARK Flexibility Score: inf
ROOT
ATOM      1  C   UNL     1      -9.815   3.608  -4.558  1.00  0.00     0.000 C 
ENDROOT
BRANCH   1   2
ATOM      2  C   UNL     1      -9.390   4.606  -3.466  1.00  0.00     0.004 C 
BRANCH   2   3
ATOM      3  C   UNL     1      -8.200   4.090  -2.646  1.00  0.00     0.027 C 
BRANCH   3   4
ATOM      4  C   UNL     1      -7.033   5.036  -2.708  1.00  0.00    -0.025 C 
ATOM      5  C   UNL     1      -6.748   5.727  -3.817  1.00  0.00     0.020 C 
BRANCH   5   6
ATOM      6  C   UNL     1      -5.629   6.679  -3.886  1.00  0.00     0.064 C 
ATOM      7  O   UNL     1      -4.951   6.814  -4.939  1.00  0.00    -0.545 OA
ATOM      8  O   UNL     1      -5.313   7.443  -2.769  1.00  0.00    -0.545 OA
ENDBRANCH   5   6
ENDBRANCH   3   4
ENDBRANCH   2   3
ENDBRANCH   1   2
BRANCH   1   9
ATOM      9  C   UNL     1      -9.475   2.153  -4.196  1.00  0.00     0.000 C 
BRANCH   9  10
ATOM     10  C   UNL     1      -8.706   1.429  -5.315  1.00  0.00     0.000 C 
BRANCH  10  11
ATOM     11  C   UNL     1      -7.455   2.200  -5.766  1.00  0.00    -0.000 C 
BRANCH  11  12
ATOM     12  C   UNL     1      -6.195   1.794  -4.980  1.00  0.00    -0.000 C 
BRANCH  12  13
ATOM     13  C   UNL     1      -5.068   2.832  -5.098  1.00  0.00    -0.003 C 
ATOM     14  C   UNL     1      -5.125   3.625  -6.403  1.00  0.00     0.004 C 
ENDBRANCH  12  13
ENDBRANCH  11  12
ENDBRANCH  10  11
ENDBRANCH   9  10
ENDBRANCH   1   9
TORSDOF 9
ENDMDL
MODEL 7
REMARK VINA RESULT:    -4.036     18.019     19.110
REMARK INTER + INTRA:          -7.238
REMARK INTER:                  -6.385
REMARK INTRA:                  -0.854
REMARK UNBOUND:                -1.079
REMARK SMILES CCCCCCCCCC=CC(=O)[O-]
REMARK SMILES IDX 7 1 8 2 9 3 10 4 11 5 12 6 13 7 14 8 6 9 5 10 4 11 3 12 2 13
REMARK SMILES IDX 1 14
REMARK H PARENT
REMARK Flexibility Score: inf
ROOT
ATOM      1  C   UNL     1       6.711   1.031   7.970  1.00  0.00     0.000 C 
ENDROOT
BRANCH   1   2
ATOM      2  C   UNL     1       7.865   1.324   6.994  1.00  0.00     0.004 C 
BRANCH   2   3
ATOM      3  C   UNL     1       8.779   2.446   7.503  1.00  0.00     0.027 C 
BRANCH   3   4
ATOM      4  C   UNL     1       8.936   3.539   6.483  1.00  0.00    -0.025 C 
ATOM      5  C   UNL     1       8.226   4.670   6.551  1.00  0.00     0.020 C 
BRANCH   5   6
ATOM      6  C   UNL     1       8.389   5.761   5.578  1.00  0.00     0.064 C 
ATOM      7  O   UNL     1       9.393   6.523   5.614  1.00  0.00    -0.545 OA
ATOM      8  O   UNL     1       7.420   5.957   4.602  1.00  0.00    -0.545 OA
ENDBRANCH   5   6
ENDBRANCH   3   4
ENDBRANCH   2   3
ENDBRANCH   1   2
BRANCH   1   9
ATOM      9  C   UNL     1       5.806   2.252   8.201  1.00  0.00     0.000 C 
BRANCH   9  10
ATOM     10  C   UNL     1       5.599   2.562   9.694  1.00  0.00     0.000 C 
BRANCH  10  11
ATOM     11  C   UNL     1       4.969   1.386  10.459  1.00  0.00    -0.000 C 
BRANCH  11  12
ATOM     12  C   UNL     1       3.625   0.941   9.856  1.00  0.00    -0.000 C 
BRANCH  12  13
ATOM     13  C   UNL     1       3.506  -0.588   9.749  1.00  0.00    -0.003 C 
ATOM     14  C   UNL     1       4.727  -1.319  10.307  1.00  0.00     0.004 C 
ENDBRANCH  12  13
ENDBRANCH  11  12
ENDBRANCH  10  11
ENDBRANCH   9  10
ENDBRANCH   1   9
TORSDOF 9
ENDMDL
MODEL 8
REMARK VINA RESULT:    -3.975     11.971     14.159
REMARK INTER + INTRA:          -7.146
REMARK INTER:                  -5.495
REMARK INTRA:                  -1.650
REMARK UNBOUND:                -1.079
REMARK SMILES CCCCCCCCCC=CC(=O)[O-]
REMARK SMILES IDX 7 1 8 2 9 3 10 4 11 5 12 6 13 7 14 8 6 9 5 10 4 11 3 12 2 13
REMARK SMILES IDX 1 14
REMARK H PARENT
REMARK Flexibility Score: inf
ROOT
ATOM      1  C   UNL     1       6.010   2.295  -4.741  1.00  0.00     0.000 C 
ENDROOT
BRANCH   1   2
ATOM      2  C   UNL     1       6.044   1.907  -6.230  1.00  0.00     0.004 C 
BRANCH   2   3
ATOM      3  C   UNL     1       5.117   2.789  -7.077  1.00  0.00     0.027 C 
BRANCH   3   4
ATOM      4  C   UNL     1       4.483   3.876  -6.253  1.00  0.00    -0.025 C 
ATOM      5  C   UNL     1       4.554   5.161  -6.615  1.00  0.00     0.020 C 
BRANCH   5   6
ATOM      6  C   UNL     1       3.915   6.234  -5.837  1.00  0.00     0.064 C 
ATOM      7  O   UNL     1       4.246   6.460  -4.643  1.00  0.00    -0.545 OA
ATOM      8  O   UNL     1       2.928   7.012  -6.430  1.00  0.00    -0.545 OA
ENDBRANCH   5   6
ENDBRANCH   3   4
ENDBRANCH   2   3
ENDBRANCH   1   2
BRANCH   1   9
ATOM      9  C   UNL     1       7.374   2.124  -4.053  1.00  0.00     0.000 C 
BRANCH   9  10
ATOM     10  C   UNL     1       8.331   3.296  -4.336  1.00  0.00     0.000 C 
BRANCH  10  11
ATOM     11  C   UNL     1       7.613   4.655  -4.347  1.00  0.00    -0.000 C 
BRANCH  11  12
ATOM     12  C   UNL     1       8.134   5.589  -5.454  1.00  0.00    -0.000 C 
BRANCH  12  13
ATOM     13  C   UNL     1       8.901   4.832  -6.550  1.00  0.00    -0.003 C 
ATOM     14  C   UNL     1       8.108   4.707  -7.851  1.00  0.00     0.004 C 
ENDBRANCH  12  13
ENDBRANCH  11  12
ENDBRANCH  10  11
ENDBRANCH   9  10
ENDBRANCH   1   9
TORSDOF 9
ENDMDL
MODEL 9
REMARK VINA RESULT:    -3.955     12.385     13.623
REMARK INTER + INTRA:          -7.116
REMARK INTER:                  -6.060
REMARK INTRA:                  -1.056
REMARK UNBOUND:                -1.079
REMARK SMILES CCCCCCCCCC=CC(=O)[O-]
REMARK SMILES IDX 7 1 8 2 9 3 10 4 11 5 12 6 13 7 14 8 6 9 5 10 4 11 3 12 2 13
REMARK SMILES IDX 1 14
REMARK H PARENT
REMARK Flexibility Score: inf
ROOT
ATOM      1  C   UNL     1      -8.033  -7.628   3.929  1.00  0.00     0.000 C 
ENDROOT
BRANCH   1   2
ATOM      2  C   UNL     1      -7.763  -7.397   5.427  1.00  0.00     0.004 C 
BRANCH   2   3
ATOM      3  C   UNL     1      -7.939  -5.926   5.824  1.00  0.00     0.027 C 
BRANCH   3   4
ATOM      4  C   UNL     1      -6.629  -5.295   6.205  1.00  0.00    -0.025 C 
ATOM      5  C   UNL     1      -5.542  -6.032   6.458  1.00  0.00     0.020 C 
BRANCH   5   6
ATOM      6  C   UNL     1      -4.245  -5.430   6.802  1.00  0.00     0.064 C 
ATOM      7  O   UNL     1      -4.003  -5.027   7.972  1.00  0.00    -0.545 OA
ATOM      8  O   UNL     1      -3.270  -5.302   5.821  1.00  0.00    -0.545 OA
ENDBRANCH   5   6
ENDBRANCH   3   4
ENDBRANCH   2   3
ENDBRANCH   1   2
BRANCH   1   9
ATOM      9  C   UNL     1      -8.490  -6.351   3.206  1.00  0.00     0.000 C 
BRANCH   9  10
ATOM     10  C   UNL     1      -8.159  -6.371   1.703  1.00  0.00     0.000 C 
BRANCH  10  11
ATOM     11  C   UNL     1      -6.883  -5.582   1.368  1.00  0.00    -0.000 C 
BRANCH  11  12
ATOM     12  C   UNL     1      -6.176  -5.040   2.623  1.00  0.00    -0.000 C 
BRANCH  12  13
ATOM     13  C   UNL     1      -4.650  -5.210   2.559  1.00  0.00    -0.003 C 
ATOM     14  C   UNL     1      -4.162  -5.672   1.186  1.00  0.00     0.004 C 
ENDBRANCH  12  13
ENDBRANCH  11  12
ENDBRANCH  10  11
ENDBRANCH   9  10
ENDBRANCH   1   9
TORSDOF 9
ENDMDL
