MODEL 1
REMARK VINA RESULT:    -4.070      0.000      0.000
REMARK INTER + INTRA:         -16.275
REMARK INTER:                 -10.733
REMARK INTRA:                  -5.542
REMARK UNBOUND:                -5.542
REMARK SMILES CCCCCCCCCCCCCCCCCCCCCCCCCCCCCC(=O)[O-]
REMARK SMILES IDX 16 1 17 2 18 3 19 4 20 5 21 6 22 7 23 8 24 9 25 10 26 11
REMARK SMILES IDX 27 12 28 13 29 14 30 15 31 16 32 17 15 18 14 19 13 20 12 21
REMARK SMILES IDX 11 22 10 23 9 24 8 25 7 26 6 27 5 28 4 29 3 30 2 31 1 32
REMARK H PARENT
REMARK Flexibility Score: inf
ROOT
ATOM      1  C   UNL     1     -23.990  31.163 -40.437  1.00  0.00     0.000 C 
ENDROOT
BRANCH   1   2
ATOM      2  C   UNL     1     -24.994  30.587 -41.453  1.00  0.00     0.000 C 
BRANCH   2   3
ATOM      3  C   UNL     1     -24.758  29.113 -41.834  1.00  0.00     0.000 C 
BRANCH   3   4
ATOM      4  C   UNL     1     -26.052  28.270 -41.878  1.00  0.00     0.000 C 
BRANCH   4   5
ATOM      5  C   UNL     1     -26.848  28.355 -40.564  1.00  0.00     0.000 C 
BRANCH   5   6
ATOM      6  C   UNL     1     -28.336  28.666 -40.786  1.00  0.00     0.000 C 
BRANCH   6   7
ATOM      7  C   UNL     1     -28.561  29.793 -41.806  1.00  0.00     0.000 C 
BRANCH   7   8
ATOM      8  C   UNL     1     -29.309  30.995 -41.206  1.00  0.00     0.000 C 
BRANCH   8   9
ATOM      9  C   UNL     1     -28.363  32.117 -40.743  1.00  0.00     0.000 C 
BRANCH   9  10
ATOM     10  C   UNL     1     -28.376  32.288 -39.216  1.00  0.00     0.000 C 
BRANCH  10  11
ATOM     11  C   UNL     1     -27.059  31.828 -38.564  1.00  0.00     0.000 C 
BRANCH  11  12
ATOM     12  C   UNL     1     -27.241  30.531 -37.748  1.00  0.00     0.000 C 
BRANCH  12  13
ATOM     13  C   UNL     1     -28.701  30.254 -37.353  1.00  0.00     0.006 C 
BRANCH  13  14
ATOM     14  C   UNL     1     -28.833  29.604 -35.971  1.00  0.00     0.053 C 
BRANCH  14  15
ATOM     15  C   UNL     1     -29.345  30.590 -34.970  1.00  0.00     0.041 C 
ATOM     16  O   UNL     1     -29.216  31.827 -35.175  1.00  0.00    -0.550 OA
ATOM     17  O   UNL     1     -29.986  30.147 -33.820  1.00  0.00    -0.550 OA
ENDBRANCH  14  15
ENDBRANCH  13  14
ENDBRANCH  12  13
ENDBRANCH  11  12
ENDBRANCH  10  11
ENDBRANCH   9  10
ENDBRANCH   8   9
ENDBRANCH   7   8
ENDBRANCH   6   7
ENDBRANCH   5   6
ENDBRANCH   4   5
ENDBRANCH   3   4
ENDBRANCH   2   3
ENDBRANCH   1   2
BRANCH   1  18
ATOM     18  C   UNL     1     -23.742  30.284 -39.198  1.00  0.00     0.000 C 
BRANCH  18  19
ATOM     19  C   UNL     1     -22.254  29.993 -38.958  1.00  0.00     0.000 C 
BRANCH  19  20
ATOM     20  C   UNL     1     -21.691  29.071 -40.051  1.00  0.00     0.000 C 
BRANCH  20  21
ATOM     21  C   UNL     1     -20.445  29.659 -40.733  1.00  0.00     0.000 C 
BRANCH  21  22
ATOM     22  C   UNL     1     -20.783  30.426 -42.024  1.00  0.00     0.000 C 
BRANCH  22  23
ATOM     23  C   UNL     1     -19.550  31.146 -42.612  1.00  0.00     0.000 C 
BRANCH  23  24
ATOM     24  C   UNL     1     -18.303  31.067 -41.716  1.00  0.00    -0.000 C 
BRANCH  24  25
ATOM     25  C   UNL     1     -18.035  32.369 -40.946  1.00  0.00    -0.000 C 
BRANCH  25  26
ATOM     26  C   UNL     1     -18.136  32.196 -39.413  1.00  0.00    -0.000 C 
BRANCH  26  27
ATOM     27  C   UNL     1     -19.465  32.697 -38.819  1.00  0.00    -0.000 C 
BRANCH  27  28
ATOM     28  C   UNL     1     -20.324  33.523 -39.792  1.00  0.00    -0.000 C 
BRANCH  28  29
ATOM     29  C   UNL     1     -21.786  33.700 -39.323  1.00  0.00    -0.000 C 
BRANCH  29  30
ATOM     30  C   UNL     1     -21.880  34.239 -37.889  1.00  0.00    -0.000 C 
BRANCH  30  31
ATOM     31  C   UNL     1     -22.901  33.444 -37.067  1.00  0.00    -0.003 C 
ATOM     32  C   UNL     1     -24.330  33.814 -37.455  1.00  0.00     0.004 C 
ENDBRANCH  30  31
ENDBRANCH  29  30
ENDBRANCH  28  29
ENDBRANCH  27  28
ENDBRANCH  26  27
ENDBRANCH  25  26
ENDBRANCH  24  25
ENDBRANCH  23  24
ENDBRANCH  22  23
ENDBRANCH  21  22
ENDBRANCH  20  21
ENDBRANCH  19  20
ENDBRANCH  18  19
ENDBRANCH   1  18
TORSDOF 28
ENDMDL
MODEL 2
REMARK VINA RESULT:    -3.988      2.556      5.660
REMARK INTER + INTRA:         -16.058
REMARK INTER:                 -10.759
REMARK INTRA:                  -5.299
REMARK UNBOUND:                -5.542
REMARK SMILES CCCCCCCCCCCCCCCCCCCCCCCCCCCCCC(=O)[O-]
REMARK SMILES IDX 16 1 17 2 18 3 19 4 20 5 21 6 22 7 23 8 24 9 25 10 26 11
REMARK SMILES IDX 27 12 28 13 29 14 30 15 31 16 32 17 15 18 14 19 13 20 12 21
REMARK SMILES IDX 11 22 10 23 9 24 8 25 7 26 6 27 5 28 4 29 3 30 2 31 1 32
REMARK H PARENT
REMARK Flexibility Score: inf
ROOT
ATOM      1  C   UNL     1     -18.130  32.949 -39.869  1.00  0.00     0.000 C 
ENDROOT
BRANCH   1   2
ATOM      2  C   UNL     1     -19.457  33.141 -39.111  1.00  0.00     0.000 C 
BRANCH   2   3
ATOM      3  C   UNL     1     -20.664  33.503 -39.997  1.00  0.00     0.000 C 
BRANCH   3   4
ATOM      4  C   UNL     1     -22.027  33.179 -39.347  1.00  0.00     0.000 C 
BRANCH   4   5
ATOM      5  C   UNL     1     -22.331  34.091 -38.145  1.00  0.00     0.000 C 
BRANCH   5   6
ATOM      6  C   UNL     1     -23.513  33.591 -37.300  1.00  0.00     0.000 C 
BRANCH   6   7
ATOM      7  C   UNL     1     -24.861  34.163 -37.768  1.00  0.00     0.000 C 
BRANCH   7   8
ATOM      8  C   UNL     1     -25.943  33.082 -37.916  1.00  0.00     0.000 C 
BRANCH   8   9
ATOM      9  C   UNL     1     -27.335  33.564 -37.470  1.00  0.00     0.000 C 
BRANCH   9  10
ATOM     10  C   UNL     1     -28.260  33.840 -38.666  1.00  0.00     0.000 C 
BRANCH  10  11
ATOM     11  C   UNL     1     -28.186  32.730 -39.730  1.00  0.00     0.000 C 
BRANCH  11  12
ATOM     12  C   UNL     1     -28.981  31.475 -39.312  1.00  0.00     0.000 C 
BRANCH  12  13
ATOM     13  C   UNL     1     -28.165  30.174 -39.401  1.00  0.00     0.006 C 
BRANCH  13  14
ATOM     14  C   UNL     1     -28.842  29.103 -40.265  1.00  0.00     0.053 C 
BRANCH  14  15
ATOM     15  C   UNL     1     -28.126  28.947 -41.569  1.00  0.00     0.041 C 
ATOM     16  O   UNL     1     -27.774  27.805 -41.967  1.00  0.00    -0.550 OA
ATOM     17  O   UNL     1     -27.869  30.061 -42.360  1.00  0.00    -0.550 OA
ENDBRANCH  14  15
ENDBRANCH  13  14
ENDBRANCH  12  13
ENDBRANCH  11  12
ENDBRANCH  10  11
ENDBRANCH   9  10
ENDBRANCH   8   9
ENDBRANCH   7   8
ENDBRANCH   6   7
ENDBRANCH   5   6
ENDBRANCH   4   5
ENDBRANCH   3   4
ENDBRANCH   2   3
ENDBRANCH   1   2
BRANCH   1  18
ATOM     18  C   UNL     1     -18.026  31.643 -40.677  1.00  0.00     0.000 C 
BRANCH  18  19
ATOM     19  C   UNL     1     -17.763  31.881 -42.170  1.00  0.00     0.000 C 
BRANCH  19  20
ATOM     20  C   UNL     1     -19.010  31.555 -43.006  1.00  0.00     0.000 C 
BRANCH  20  21
ATOM     21  C   UNL     1     -19.903  30.495 -42.342  1.00  0.00     0.000 C 
BRANCH  21  22
ATOM     22  C   UNL     1     -21.402  30.822 -42.464  1.00  0.00     0.000 C 
BRANCH  22  23
ATOM     23  C   UNL     1     -22.232  29.598 -42.906  1.00  0.00     0.000 C 
BRANCH  23  24
ATOM     24  C   UNL     1     -23.148  29.042 -41.803  1.00  0.00    -0.000 C 
BRANCH  24  25
ATOM     25  C   UNL     1     -24.442  29.854 -41.634  1.00  0.00    -0.000 C 
BRANCH  25  26
ATOM     26  C   UNL     1     -24.655  30.358 -40.188  1.00  0.00    -0.000 C 
BRANCH  26  27
ATOM     27  C   UNL     1     -24.097  29.408 -39.113  1.00  0.00    -0.000 C 
BRANCH  27  28
ATOM     28  C   UNL     1     -23.208  30.093 -38.060  1.00  0.00    -0.000 C 
BRANCH  28  29
ATOM     29  C   UNL     1     -21.872  29.357 -37.811  1.00  0.00    -0.000 C 
BRANCH  29  30
ATOM     30  C   UNL     1     -20.826  29.661 -38.893  1.00  0.00    -0.000 C 
BRANCH  30  31
ATOM     31  C   UNL     1     -20.123  28.379 -39.356  1.00  0.00    -0.003 C 
ATOM     32  C   UNL     1     -21.096  27.205 -39.410  1.00  0.00     0.004 C 
ENDBRANCH  30  31
ENDBRANCH  29  30
ENDBRANCH  28  29
ENDBRANCH  27  28
ENDBRANCH  26  27
ENDBRANCH  25  26
ENDBRANCH  24  25
ENDBRANCH  23  24
ENDBRANCH  22  23
ENDBRANCH  21  22
ENDBRANCH  20  21
ENDBRANCH  19  20
ENDBRANCH  18  19
ENDBRANCH   1  18
TORSDOF 28
ENDMDL
MODEL 3
REMARK VINA RESULT:    -3.955      1.884      4.447
REMARK INTER + INTRA:         -15.971
REMARK INTER:                 -10.865
REMARK INTRA:                  -5.106
REMARK UNBOUND:                -5.542
REMARK SMILES CCCCCCCCCCCCCCCCCCCCCCCCCCCCCC(=O)[O-]
REMARK SMILES IDX 16 1 17 2 18 3 19 4 20 5 21 6 22 7 23 8 24 9 25 10 26 11
REMARK SMILES IDX 27 12 28 13 29 14 30 15 31 16 32 17 15 18 14 19 13 20 12 21
REMARK SMILES IDX 11 22 10 23 9 24 8 25 7 26 6 27 5 28 4 29 3 30 2 31 1 32
REMARK H PARENT
REMARK Flexibility Score: inf
ROOT
ATOM      1  C   UNL     1     -24.734  33.068 -38.110  1.00  0.00     0.000 C 
ENDROOT
BRANCH   1   2
ATOM      2  C   UNL     1     -25.623  34.082 -37.366  1.00  0.00     0.000 C 
BRANCH   2   3
ATOM      3  C   UNL     1     -27.057  34.211 -37.913  1.00  0.00     0.000 C 
BRANCH   3   4
ATOM      4  C   UNL     1     -28.133  33.621 -36.975  1.00  0.00     0.000 C 
BRANCH   4   5
ATOM      5  C   UNL     1     -29.169  32.774 -37.733  1.00  0.00     0.000 C 
BRANCH   5   6
ATOM      6  C   UNL     1     -28.543  31.580 -38.469  1.00  0.00     0.000 C 
BRANCH   6   7
ATOM      7  C   UNL     1     -28.837  31.592 -39.978  1.00  0.00     0.000 C 
BRANCH   7   8
ATOM      8  C   UNL     1     -27.663  32.140 -40.806  1.00  0.00     0.000 C 
BRANCH   8   9
ATOM      9  C   UNL     1     -26.477  31.162 -40.881  1.00  0.00     0.000 C 
BRANCH   9  10
ATOM     10  C   UNL     1     -26.774  29.965 -41.798  1.00  0.00     0.000 C 
BRANCH  10  11
ATOM     11  C   UNL     1     -26.541  28.617 -41.093  1.00  0.00     0.000 C 
BRANCH  11  12
ATOM     12  C   UNL     1     -26.402  28.780 -39.564  1.00  0.00     0.000 C 
BRANCH  12  13
ATOM     13  C   UNL     1     -27.492  28.043 -38.767  1.00  0.00     0.006 C 
BRANCH  13  14
ATOM     14  C   UNL     1     -28.787  27.848 -39.566  1.00  0.00     0.053 C 
BRANCH  14  15
ATOM     15  C   UNL     1     -29.982  28.099 -38.703  1.00  0.00     0.041 C 
ATOM     16  O   UNL     1     -29.836  28.376 -37.483  1.00  0.00    -0.550 OA
ATOM     17  O   UNL     1     -31.259  28.051 -39.250  1.00  0.00    -0.550 OA
ENDBRANCH  14  15
ENDBRANCH  13  14
ENDBRANCH  12  13
ENDBRANCH  11  12
ENDBRANCH  10  11
ENDBRANCH   9  10
ENDBRANCH   8   9
ENDBRANCH   7   8
ENDBRANCH   6   7
ENDBRANCH   5   6
ENDBRANCH   4   5
ENDBRANCH   3   4
ENDBRANCH   2   3
ENDBRANCH   1   2
BRANCH   1  18
ATOM     18  C   UNL     1     -23.260  33.045 -37.665  1.00  0.00     0.000 C 
BRANCH  18  19
ATOM     19  C   UNL     1     -22.399  34.087 -38.392  1.00  0.00     0.000 C 
BRANCH  19  20
ATOM     20  C   UNL     1     -20.918  33.681 -38.377  1.00  0.00     0.000 C 
BRANCH  20  21
ATOM     21  C   UNL     1     -20.388  33.334 -39.778  1.00  0.00     0.000 C 
BRANCH  21  22
ATOM     22  C   UNL     1     -18.902  32.934 -39.768  1.00  0.00     0.000 C 
BRANCH  22  23
ATOM     23  C   UNL     1     -18.481  32.223 -41.071  1.00  0.00     0.000 C 
BRANCH  23  24
ATOM     24  C   UNL     1     -19.011  30.784 -41.189  1.00  0.00    -0.000 C 
BRANCH  24  25
ATOM     25  C   UNL     1     -19.669  30.497 -42.548  1.00  0.00    -0.000 C 
BRANCH  25  26
ATOM     26  C   UNL     1     -21.179  30.824 -42.568  1.00  0.00    -0.000 C 
BRANCH  26  27
ATOM     27  C   UNL     1     -22.081  29.580 -42.665  1.00  0.00    -0.000 C 
BRANCH  27  28
ATOM     28  C   UNL     1     -23.050  29.405 -41.482  1.00  0.00    -0.000 C 
BRANCH  28  29
ATOM     29  C   UNL     1     -22.820  30.425 -40.343  1.00  0.00    -0.000 C 
BRANCH  29  30
ATOM     30  C   UNL     1     -22.295  29.763 -39.062  1.00  0.00    -0.000 C 
BRANCH  30  31
ATOM     31  C   UNL     1     -21.715  28.374 -39.356  1.00  0.00    -0.003 C 
ATOM     32  C   UNL     1     -20.257  28.282 -38.914  1.00  0.00     0.004 C 
ENDBRANCH  30  31
ENDBRANCH  29  30
ENDBRANCH  28  29
ENDBRANCH  27  28
ENDBRANCH  26  27
ENDBRANCH  25  26
ENDBRANCH  24  25
ENDBRANCH  23  24
ENDBRANCH  22  23
ENDBRANCH  21  22
ENDBRANCH  20  21
ENDBRANCH  19  20
ENDBRANCH  18  19
ENDBRANCH   1  18
TORSDOF 28
ENDMDL
MODEL 4
REMARK VINA RESULT:    -3.952      1.329      3.718
REMARK INTER + INTRA:         -15.963
REMARK INTER:                  -9.940
REMARK INTRA:                  -6.023
REMARK UNBOUND:                -5.542
REMARK SMILES CCCCCCCCCCCCCCCCCCCCCCCCCCCCCC(=O)[O-]
REMARK SMILES IDX 16 1 17 2 18 3 19 4 20 5 21 6 22 7 23 8 24 9 25 10 26 11
REMARK SMILES IDX 27 12 28 13 29 14 30 15 31 16 32 17 15 18 14 19 13 20 12 21
REMARK SMILES IDX 11 22 10 23 9 24 8 25 7 26 6 27 5 28 4 29 3 30 2 31 1 32
REMARK H PARENT
REMARK Flexibility Score: inf
ROOT
ATOM      1  C   UNL     1     -22.881  33.577 -37.074  1.00  0.00     0.000 C 
ENDROOT
BRANCH   1   2
ATOM      2  C   UNL     1     -23.492  32.364 -37.800  1.00  0.00     0.000 C 
BRANCH   2   3
ATOM      3  C   UNL     1     -24.938  32.566 -38.294  1.00  0.00     0.000 C 
BRANCH   3   4
ATOM      4  C   UNL     1     -25.456  31.410 -39.178  1.00  0.00     0.000 C 
BRANCH   4   5
ATOM      5  C   UNL     1     -25.132  30.029 -38.582  1.00  0.00     0.000 C 
BRANCH   5   6
ATOM      6  C   UNL     1     -25.989  28.903 -39.179  1.00  0.00     0.000 C 
BRANCH   6   7
ATOM      7  C   UNL     1     -25.890  28.831 -40.711  1.00  0.00     0.000 C 
BRANCH   7   8
ATOM      8  C   UNL     1     -27.245  28.551 -41.381  1.00  0.00     0.000 C 
BRANCH   8   9
ATOM      9  C   UNL     1     -27.900  29.818 -41.957  1.00  0.00     0.000 C 
BRANCH   9  10
ATOM     10  C   UNL     1     -29.158  30.224 -41.173  1.00  0.00     0.000 C 
BRANCH  10  11
ATOM     11  C   UNL     1     -28.911  31.439 -40.260  1.00  0.00     0.000 C 
BRANCH  11  12
ATOM     12  C   UNL     1     -29.659  31.314 -38.916  1.00  0.00     0.000 C 
BRANCH  12  13
ATOM     13  C   UNL     1     -29.280  30.054 -38.119  1.00  0.00     0.006 C 
BRANCH  13  14
ATOM     14  C   UNL     1     -28.445  30.367 -36.871  1.00  0.00     0.053 C 
BRANCH  14  15
ATOM     15  C   UNL     1     -28.435  29.200 -35.935  1.00  0.00     0.041 C 
ATOM     16  O   UNL     1     -29.489  28.862 -35.333  1.00  0.00    -0.550 OA
ATOM     17  O   UNL     1     -27.269  28.468 -35.746  1.00  0.00    -0.550 OA
ENDBRANCH  14  15
ENDBRANCH  13  14
ENDBRANCH  12  13
ENDBRANCH  11  12
ENDBRANCH  10  11
ENDBRANCH   9  10
ENDBRANCH   8   9
ENDBRANCH   7   8
ENDBRANCH   6   7
ENDBRANCH   5   6
ENDBRANCH   4   5
ENDBRANCH   3   4
ENDBRANCH   2   3
ENDBRANCH   1   2
BRANCH   1  18
ATOM     18  C   UNL     1     -21.789  34.324 -37.861  1.00  0.00     0.000 C 
BRANCH  18  19
ATOM     19  C   UNL     1     -21.581  33.764 -39.275  1.00  0.00     0.000 C 
BRANCH  19  20
ATOM     20  C   UNL     1     -20.103  33.419 -39.516  1.00  0.00     0.000 C 
BRANCH  20  21
ATOM     21  C   UNL     1     -19.622  32.248 -38.645  1.00  0.00     0.000 C 
BRANCH  21  22
ATOM     22  C   UNL     1     -18.265  31.686 -39.104  1.00  0.00     0.000 C 
BRANCH  22  23
ATOM     23  C   UNL     1     -18.328  30.170 -39.388  1.00  0.00     0.000 C 
BRANCH  23  24
ATOM     24  C   UNL     1     -18.309  29.821 -40.885  1.00  0.00    -0.000 C 
BRANCH  24  25
ATOM     25  C   UNL     1     -18.040  31.039 -41.781  1.00  0.00    -0.000 C 
BRANCH  25  26
ATOM     26  C   UNL     1     -19.255  31.430 -42.652  1.00  0.00    -0.000 C 
BRANCH  26  27
ATOM     27  C   UNL     1     -20.412  30.416 -42.591  1.00  0.00    -0.000 C 
BRANCH  27  28
ATOM     28  C   UNL     1     -21.730  30.989 -42.041  1.00  0.00    -0.000 C 
BRANCH  28  29
ATOM     29  C   UNL     1     -22.152  30.369 -40.689  1.00  0.00    -0.000 C 
BRANCH  29  30
ATOM     30  C   UNL     1     -22.230  28.837 -40.746  1.00  0.00    -0.000 C 
BRANCH  30  31
ATOM     31  C   UNL     1     -21.509  28.203 -39.551  1.00  0.00    -0.003 C 
ATOM     32  C   UNL     1     -21.652  29.065 -38.300  1.00  0.00     0.004 C 
ENDBRANCH  30  31
ENDBRANCH  29  30
ENDBRANCH  28  29
ENDBRANCH  27  28
ENDBRANCH  26  27
ENDBRANCH  25  26
ENDBRANCH  24  25
ENDBRANCH  23  24
ENDBRANCH  22  23
ENDBRANCH  21  22
ENDBRANCH  20  21
ENDBRANCH  19  20
ENDBRANCH  18  19
ENDBRANCH   1  18
TORSDOF 28
ENDMDL
MODEL 5
REMARK VINA RESULT:    -3.921      1.270      3.961
REMARK INTER + INTRA:         -15.882
REMARK INTER:                 -10.728
REMARK INTRA:                  -5.154
REMARK UNBOUND:                -5.542
REMARK SMILES CCCCCCCCCCCCCCCCCCCCCCCCCCCCCC(=O)[O-]
REMARK SMILES IDX 16 1 17 2 18 3 19 4 20 5 21 6 22 7 23 8 24 9 25 10 26 11
REMARK SMILES IDX 27 12 28 13 29 14 30 15 31 16 32 17 15 18 14 19 13 20 12 21
REMARK SMILES IDX 11 22 10 23 9 24 8 25 7 26 6 27 5 28 4 29 3 30 2 31 1 32
REMARK H PARENT
REMARK Flexibility Score: inf
ROOT
ATOM      1  C   UNL     1     -28.509  33.741 -37.916  1.00  0.00     0.000 C 
ENDROOT
BRANCH   1   2
ATOM      2  C   UNL     1     -28.326  33.938 -39.432  1.00  0.00     0.000 C 
BRANCH   2   3
ATOM      3  C   UNL     1     -28.849  32.780 -40.303  1.00  0.00     0.000 C 
BRANCH   3   4
ATOM      4  C   UNL     1     -27.858  32.335 -41.401  1.00  0.00     0.000 C 
BRANCH   4   5
ATOM      5  C   UNL     1     -26.814  31.335 -40.875  1.00  0.00     0.000 C 
BRANCH   5   6
ATOM      6  C   UNL     1     -26.628  30.123 -41.800  1.00  0.00     0.000 C 
BRANCH   6   7
ATOM      7  C   UNL     1     -26.592  28.791 -41.033  1.00  0.00     0.000 C 
BRANCH   7   8
ATOM      8  C   UNL     1     -27.996  28.252 -40.716  1.00  0.00     0.000 C 
BRANCH   8   9
ATOM      9  C   UNL     1     -28.206  27.976 -39.217  1.00  0.00     0.000 C 
BRANCH   9  10
ATOM     10  C   UNL     1     -27.035  28.493 -38.366  1.00  0.00     0.000 C 
BRANCH  10  11
ATOM     11  C   UNL     1     -27.426  29.715 -37.515  1.00  0.00     0.000 C 
BRANCH  11  12
ATOM     12  C   UNL     1     -28.875  30.170 -37.788  1.00  0.00     0.000 C 
BRANCH  12  13
ATOM     13  C   UNL     1     -29.690  30.420 -36.508  1.00  0.00     0.006 C 
BRANCH  13  14
ATOM     14  C   UNL     1     -28.863  30.240 -35.229  1.00  0.00     0.053 C 
BRANCH  14  15
ATOM     15  C   UNL     1     -29.648  30.664 -34.028  1.00  0.00     0.041 C 
ATOM     16  O   UNL     1     -30.694  30.042 -33.703  1.00  0.00    -0.550 OA
ATOM     17  O   UNL     1     -29.213  31.731 -33.252  1.00  0.00    -0.550 OA
ENDBRANCH  14  15
ENDBRANCH  13  14
ENDBRANCH  12  13
ENDBRANCH  11  12
ENDBRANCH  10  11
ENDBRANCH   9  10
ENDBRANCH   8   9
ENDBRANCH   7   8
ENDBRANCH   6   7
ENDBRANCH   5   6
ENDBRANCH   4   5
ENDBRANCH   3   4
ENDBRANCH   2   3
ENDBRANCH   1   2
BRANCH   1  18
ATOM     18  C   UNL     1     -27.220  33.864 -37.083  1.00  0.00     0.000 C 
BRANCH  18  19
ATOM     19  C   UNL     1     -25.977  33.352 -37.825  1.00  0.00     0.000 C 
BRANCH  19  20
ATOM     20  C   UNL     1     -24.692  33.875 -37.167  1.00  0.00     0.000 C 
BRANCH  20  21
ATOM     21  C   UNL     1     -23.590  34.188 -38.192  1.00  0.00     0.000 C 
BRANCH  21  22
ATOM     22  C   UNL     1     -22.241  33.541 -37.829  1.00  0.00     0.000 C 
BRANCH  22  23
ATOM     23  C   UNL     1     -21.174  33.769 -38.920  1.00  0.00     0.000 C 
BRANCH  23  24
ATOM     24  C   UNL     1     -20.000  32.778 -38.852  1.00  0.00    -0.000 C 
BRANCH  24  25
ATOM     25  C   UNL     1     -19.102  32.826 -40.098  1.00  0.00    -0.000 C 
BRANCH  25  26
ATOM     26  C   UNL     1     -18.899  31.440 -40.751  1.00  0.00    -0.000 C 
BRANCH  26  27
ATOM     27  C   UNL     1     -19.515  31.321 -42.157  1.00  0.00    -0.000 C 
BRANCH  27  28
ATOM     28  C   UNL     1     -20.719  30.367 -42.244  1.00  0.00    -0.000 C 
BRANCH  28  29
ATOM     29  C   UNL     1     -22.004  30.940 -41.604  1.00  0.00    -0.000 C 
BRANCH  29  30
ATOM     30  C   UNL     1     -22.556  30.039 -40.491  1.00  0.00    -0.000 C 
BRANCH  30  31
ATOM     31  C   UNL     1     -23.585  30.787 -39.635  1.00  0.00    -0.003 C 
ATOM     32  C   UNL     1     -23.738  30.135 -38.263  1.00  0.00     0.004 C 
ENDBRANCH  30  31
ENDBRANCH  29  30
ENDBRANCH  28  29
ENDBRANCH  27  28
ENDBRANCH  26  27
ENDBRANCH  25  26
ENDBRANCH  24  25
ENDBRANCH  23  24
ENDBRANCH  22  23
ENDBRANCH  21  22
ENDBRANCH  20  21
ENDBRANCH  19  20
ENDBRANCH  18  19
ENDBRANCH   1  18
TORSDOF 28
ENDMDL
MODEL 6
REMARK VINA RESULT:    -3.901      1.719      4.735
REMARK INTER + INTRA:         -15.829
REMARK INTER:                 -10.272
REMARK INTRA:                  -5.557
REMARK UNBOUND:                -5.542
REMARK SMILES CCCCCCCCCCCCCCCCCCCCCCCCCCCCCC(=O)[O-]
REMARK SMILES IDX 16 1 17 2 18 3 19 4 20 5 21 6 22 7 23 8 24 9 25 10 26 11
REMARK SMILES IDX 27 12 28 13 29 14 30 15 31 16 32 17 15 18 14 19 13 20 12 21
REMARK SMILES IDX 11 22 10 23 9 24 8 25 7 26 6 27 5 28 4 29 3 30 2 31 1 32
REMARK H PARENT
REMARK Flexibility Score: inf
ROOT
ATOM      1  C   UNL     1     -29.904  33.848 -38.394  1.00  0.00     0.000 C 
ENDROOT
BRANCH   1   2
ATOM      2  C   UNL     1     -30.098  33.716 -39.916  1.00  0.00     0.000 C 
BRANCH   2   3
ATOM      3  C   UNL     1     -28.894  34.165 -40.765  1.00  0.00     0.000 C 
BRANCH   3   4
ATOM      4  C   UNL     1     -28.361  33.068 -41.713  1.00  0.00     0.000 C 
BRANCH   4   5
ATOM      5  C   UNL     1     -28.189  31.715 -41.002  1.00  0.00     0.000 C 
BRANCH   5   6
ATOM      6  C   UNL     1     -26.853  31.032 -41.331  1.00  0.00     0.000 C 
BRANCH   6   7
ATOM      7  C   UNL     1     -27.034  29.605 -41.873  1.00  0.00     0.000 C 
BRANCH   7   8
ATOM      8  C   UNL     1     -26.526  28.532 -40.898  1.00  0.00     0.000 C 
BRANCH   8   9
ATOM      9  C   UNL     1     -26.010  29.123 -39.574  1.00  0.00     0.000 C 
BRANCH   9  10
ATOM     10  C   UNL     1     -26.920  28.762 -38.389  1.00  0.00     0.000 C 
BRANCH  10  11
ATOM     11  C   UNL     1     -28.327  28.333 -38.840  1.00  0.00     0.000 C 
BRANCH  11  12
ATOM     12  C   UNL     1     -29.403  29.361 -38.433  1.00  0.00     0.000 C 
BRANCH  12  13
ATOM     13  C   UNL     1     -28.876  30.462 -37.496  1.00  0.00     0.006 C 
BRANCH  13  14
ATOM     14  C   UNL     1     -29.766  30.673 -36.265  1.00  0.00     0.053 C 
BRANCH  14  15
ATOM     15  C   UNL     1     -29.998  29.378 -35.553  1.00  0.00     0.041 C 
ATOM     16  O   UNL     1     -29.024  28.724 -35.094  1.00  0.00    -0.550 OA
ATOM     17  O   UNL     1     -31.292  28.904 -35.372  1.00  0.00    -0.550 OA
ENDBRANCH  14  15
ENDBRANCH  13  14
ENDBRANCH  12  13
ENDBRANCH  11  12
ENDBRANCH  10  11
ENDBRANCH   9  10
ENDBRANCH   8   9
ENDBRANCH   7   8
ENDBRANCH   6   7
ENDBRANCH   5   6
ENDBRANCH   4   5
ENDBRANCH   3   4
ENDBRANCH   2   3
ENDBRANCH   1   2
BRANCH   1  18
ATOM     18  C   UNL     1     -28.756  34.778 -37.963  1.00  0.00     0.000 C 
BRANCH  18  19
ATOM     19  C   UNL     1     -27.768  34.104 -37.002  1.00  0.00     0.000 C 
BRANCH  19  20
ATOM     20  C   UNL     1     -26.375  33.988 -37.640  1.00  0.00     0.000 C 
BRANCH  20  21
ATOM     21  C   UNL     1     -26.072  32.565 -38.136  1.00  0.00     0.000 C 
BRANCH  21  22
ATOM     22  C   UNL     1     -24.581  32.355 -38.457  1.00  0.00     0.000 C 
BRANCH  22  23
ATOM     23  C   UNL     1     -23.670  33.288 -37.631  1.00  0.00     0.000 C 
BRANCH  23  24
ATOM     24  C   UNL     1     -22.769  34.190 -38.491  1.00  0.00    -0.000 C 
BRANCH  24  25
ATOM     25  C   UNL     1     -21.329  34.278 -37.961  1.00  0.00    -0.000 C 
BRANCH  25  26
ATOM     26  C   UNL     1     -20.446  33.094 -38.414  1.00  0.00    -0.000 C 
BRANCH  26  27
ATOM     27  C   UNL     1     -19.979  33.193 -39.878  1.00  0.00    -0.000 C 
BRANCH  27  28
ATOM     28  C   UNL     1     -20.207  31.916 -40.706  1.00  0.00    -0.000 C 
BRANCH  28  29
ATOM     29  C   UNL     1     -21.538  31.202 -40.378  1.00  0.00    -0.000 C 
BRANCH  29  30
ATOM     30  C   UNL     1     -22.651  31.551 -41.377  1.00  0.00    -0.000 C 
BRANCH  30  31
ATOM     31  C   UNL     1     -23.297  30.283 -41.948  1.00  0.00    -0.003 C 
ATOM     32  C   UNL     1     -22.684  29.028 -41.334  1.00  0.00     0.004 C 
ENDBRANCH  30  31
ENDBRANCH  29  30
ENDBRANCH  28  29
ENDBRANCH  27  28
ENDBRANCH  26  27
ENDBRANCH  25  26
ENDBRANCH  24  25
ENDBRANCH  23  24
ENDBRANCH  22  23
ENDBRANCH  21  22
ENDBRANCH  20  21
ENDBRANCH  19  20
ENDBRANCH  18  19
ENDBRANCH   1  18
TORSDOF 28
ENDMDL
MODEL 7
REMARK VINA RESULT:    -3.899      2.365      7.680
REMARK INTER + INTRA:         -15.824
REMARK INTER:                  -9.903
REMARK INTRA:                  -5.921
REMARK UNBOUND:                -5.542
REMARK SMILES CCCCCCCCCCCCCCCCCCCCCCCCCCCCCC(=O)[O-]
REMARK SMILES IDX 16 1 17 2 18 3 19 4 20 5 21 6 22 7 23 8 24 9 25 10 26 11
REMARK SMILES IDX 27 12 28 13 29 14 30 15 31 16 32 17 15 18 14 19 13 20 12 21
REMARK SMILES IDX 11 22 10 23 9 24 8 25 7 26 6 27 5 28 4 29 3 30 2 31 1 32
REMARK H PARENT
REMARK Flexibility Score: inf
ROOT
ATOM      1  C   UNL     1     -24.997  32.652 -38.276  1.00  0.00     0.000 C 
ENDROOT
BRANCH   1   2
ATOM      2  C   UNL     1     -23.602  32.941 -38.863  1.00  0.00     0.000 C 
BRANCH   2   3
ATOM      3  C   UNL     1     -22.839  34.094 -38.184  1.00  0.00     0.000 C 
BRANCH   3   4
ATOM      4  C   UNL     1     -21.331  34.117 -38.516  1.00  0.00     0.000 C 
BRANCH   4   5
ATOM      5  C   UNL     1     -20.962  33.119 -39.627  1.00  0.00     0.000 C 
BRANCH   5   6
ATOM      6  C   UNL     1     -19.644  32.379 -39.354  1.00  0.00     0.000 C 
BRANCH   6   7
ATOM      7  C   UNL     1     -19.438  31.172 -40.283  1.00  0.00     0.000 C 
BRANCH   7   8
ATOM      8  C   UNL     1     -19.837  31.469 -41.737  1.00  0.00     0.000 C 
BRANCH   8   9
ATOM      9  C   UNL     1     -20.700  30.357 -42.359  1.00  0.00     0.000 C 
BRANCH   9  10
ATOM     10  C   UNL     1     -22.199  30.688 -42.298  1.00  0.00     0.000 C 
BRANCH  10  11
ATOM     11  C   UNL     1     -23.039  29.503 -41.788  1.00  0.00     0.000 C 
BRANCH  11  12
ATOM     12  C   UNL     1     -22.446  28.883 -40.506  1.00  0.00     0.000 C 
BRANCH  12  13
ATOM     13  C   UNL     1     -23.094  29.409 -39.213  1.00  0.00     0.006 C 
BRANCH  13  14
ATOM     14  C   UNL     1     -22.067  29.730 -38.120  1.00  0.00     0.053 C 
BRANCH  14  15
ATOM     15  C   UNL     1     -22.405  29.012 -36.852  1.00  0.00     0.041 C 
ATOM     16  O   UNL     1     -22.056  29.491 -35.740  1.00  0.00    -0.550 OA
ATOM     17  O   UNL     1     -23.128  27.826 -36.894  1.00  0.00    -0.550 OA
ENDBRANCH  14  15
ENDBRANCH  13  14
ENDBRANCH  12  13
ENDBRANCH  11  12
ENDBRANCH  10  11
ENDBRANCH   9  10
ENDBRANCH   8   9
ENDBRANCH   7   8
ENDBRANCH   6   7
ENDBRANCH   5   6
ENDBRANCH   4   5
ENDBRANCH   3   4
ENDBRANCH   2   3
ENDBRANCH   1   2
BRANCH   1  18
ATOM     18  C   UNL     1     -25.722  33.877 -37.690  1.00  0.00     0.000 C 
BRANCH  18  19
ATOM     19  C   UNL     1     -27.184  33.588 -37.324  1.00  0.00     0.000 C 
BRANCH  19  20
ATOM     20  C   UNL     1     -28.126  34.606 -37.985  1.00  0.00     0.000 C 
BRANCH  20  21
ATOM     21  C   UNL     1     -28.509  34.208 -39.420  1.00  0.00     0.000 C 
BRANCH  21  22
ATOM     22  C   UNL     1     -29.342  32.914 -39.473  1.00  0.00     0.000 C 
BRANCH  22  23
ATOM     23  C   UNL     1     -28.631  31.796 -40.266  1.00  0.00     0.000 C 
BRANCH  23  24
ATOM     24  C   UNL     1     -27.404  32.283 -41.055  1.00  0.00    -0.000 C 
BRANCH  24  25
ATOM     25  C   UNL     1     -26.393  31.162 -41.342  1.00  0.00    -0.000 C 
BRANCH  25  26
ATOM     26  C   UNL     1     -27.060  29.780 -41.526  1.00  0.00    -0.000 C 
BRANCH  26  27
ATOM     27  C   UNL     1     -26.442  28.672 -40.654  1.00  0.00    -0.000 C 
BRANCH  27  28
ATOM     28  C   UNL     1     -27.161  28.445 -39.313  1.00  0.00    -0.000 C 
BRANCH  28  29
ATOM     29  C   UNL     1     -26.633  29.344 -38.172  1.00  0.00    -0.000 C 
BRANCH  29  30
ATOM     30  C   UNL     1     -27.762  29.884 -37.282  1.00  0.00    -0.000 C 
BRANCH  30  31
ATOM     31  C   UNL     1     -29.043  29.061 -37.458  1.00  0.00    -0.003 C 
ATOM     32  C   UNL     1     -30.280  29.955 -37.424  1.00  0.00     0.004 C 
ENDBRANCH  30  31
ENDBRANCH  29  30
ENDBRANCH  28  29
ENDBRANCH  27  28
ENDBRANCH  26  27
ENDBRANCH  25  26
ENDBRANCH  24  25
ENDBRANCH  23  24
ENDBRANCH  22  23
ENDBRANCH  21  22
ENDBRANCH  20  21
ENDBRANCH  19  20
ENDBRANCH  18  19
ENDBRANCH   1  18
TORSDOF 28
ENDMDL
MODEL 8
REMARK VINA RESULT:    -3.899      1.335      4.248
REMARK INTER + INTRA:         -15.824
REMARK INTER:                  -9.857
REMARK INTRA:                  -5.967
REMARK UNBOUND:                -5.542
REMARK SMILES CCCCCCCCCCCCCCCCCCCCCCCCCCCCCC(=O)[O-]
REMARK SMILES IDX 16 1 17 2 18 3 19 4 20 5 21 6 22 7 23 8 24 9 25 10 26 11
REMARK SMILES IDX 27 12 28 13 29 14 30 15 31 16 32 17 15 18 14 19 13 20 12 21
REMARK SMILES IDX 11 22 10 23 9 24 8 25 7 26 6 27 5 28 4 29 3 30 2 31 1 32
REMARK H PARENT
REMARK Flexibility Score: inf
ROOT
ATOM      1  C   UNL     1     -23.373  33.508 -38.495  1.00  0.00     0.000 C 
ENDROOT
BRANCH   1   2
ATOM      2  C   UNL     1     -24.204  33.682 -37.209  1.00  0.00     0.000 C 
BRANCH   2   3
ATOM      3  C   UNL     1     -25.669  34.099 -37.436  1.00  0.00     0.000 C 
BRANCH   3   4
ATOM      4  C   UNL     1     -26.506  33.038 -38.184  1.00  0.00     0.000 C 
BRANCH   4   5
ATOM      5  C   UNL     1     -27.959  33.492 -38.410  1.00  0.00     0.000 C 
BRANCH   5   6
ATOM      6  C   UNL     1     -28.634  32.775 -39.589  1.00  0.00     0.000 C 
BRANCH   6   7
ATOM      7  C   UNL     1     -27.626  32.063 -40.505  1.00  0.00     0.000 C 
BRANCH   7   8
ATOM      8  C   UNL     1     -28.265  30.924 -41.315  1.00  0.00     0.000 C 
BRANCH   8   9
ATOM      9  C   UNL     1     -27.959  29.532 -40.734  1.00  0.00     0.000 C 
BRANCH   9  10
ATOM     10  C   UNL     1     -28.988  29.111 -39.673  1.00  0.00     0.000 C 
BRANCH  10  11
ATOM     11  C   UNL     1     -28.322  28.579 -38.392  1.00  0.00     0.000 C 
BRANCH  11  12
ATOM     12  C   UNL     1     -28.032  29.708 -37.380  1.00  0.00     0.000 C 
BRANCH  12  13
ATOM     13  C   UNL     1     -29.301  30.333 -36.777  1.00  0.00     0.006 C 
BRANCH  13  14
ATOM     14  C   UNL     1     -28.998  31.338 -35.659  1.00  0.00     0.053 C 
BRANCH  14  15
ATOM     15  C   UNL     1     -29.729  30.972 -34.407  1.00  0.00     0.041 C 
ATOM     16  O   UNL     1     -30.108  31.870 -33.608  1.00  0.00    -0.550 OA
ATOM     17  O   UNL     1     -30.014  29.640 -34.131  1.00  0.00    -0.550 OA
ENDBRANCH  14  15
ENDBRANCH  13  14
ENDBRANCH  12  13
ENDBRANCH  11  12
ENDBRANCH  10  11
ENDBRANCH   9  10
ENDBRANCH   8   9
ENDBRANCH   7   8
ENDBRANCH   6   7
ENDBRANCH   5   6
ENDBRANCH   4   5
ENDBRANCH   3   4
ENDBRANCH   2   3
ENDBRANCH   1   2
BRANCH   1  18
ATOM     18  C   UNL     1     -21.895  33.920 -38.374  1.00  0.00     0.000 C 
BRANCH  18  19
ATOM     19  C   UNL     1     -21.097  33.672 -39.662  1.00  0.00     0.000 C 
BRANCH  19  20
ATOM     20  C   UNL     1     -21.052  32.174 -39.999  1.00  0.00     0.000 C 
BRANCH  20  21
ATOM     21  C   UNL     1     -19.997  31.842 -41.066  1.00  0.00     0.000 C 
BRANCH  21  22
ATOM     22  C   UNL     1     -20.540  30.917 -42.170  1.00  0.00     0.000 C 
BRANCH  22  23
ATOM     23  C   UNL     1     -22.083  30.868 -42.181  1.00  0.00     0.000 C 
BRANCH  23  24
ATOM     24  C   UNL     1     -22.655  29.446 -42.311  1.00  0.00    -0.000 C 
BRANCH  24  25
ATOM     25  C   UNL     1     -23.877  29.208 -41.410  1.00  0.00    -0.000 C 
BRANCH  25  26
ATOM     26  C   UNL     1     -24.297  30.465 -40.617  1.00  0.00    -0.000 C 
BRANCH  26  27
ATOM     27  C   UNL     1     -24.699  30.173 -39.159  1.00  0.00    -0.000 C 
BRANCH  27  28
ATOM     28  C   UNL     1     -23.739  29.231 -38.413  1.00  0.00    -0.000 C 
BRANCH  28  29
ATOM     29  C   UNL     1     -22.606  29.973 -37.667  1.00  0.00    -0.000 C 
BRANCH  29  30
ATOM     30  C   UNL     1     -21.267  29.228 -37.746  1.00  0.00    -0.000 C 
BRANCH  30  31
ATOM     31  C   UNL     1     -21.140  28.460 -39.067  1.00  0.00    -0.003 C 
ATOM     32  C   UNL     1     -19.687  28.398 -39.531  1.00  0.00     0.004 C 
ENDBRANCH  30  31
ENDBRANCH  29  30
ENDBRANCH  28  29
ENDBRANCH  27  28
ENDBRANCH  26  27
ENDBRANCH  25  26
ENDBRANCH  24  25
ENDBRANCH  23  24
ENDBRANCH  22  23
ENDBRANCH  21  22
ENDBRANCH  20  21
ENDBRANCH  19  20
ENDBRANCH  18  19
ENDBRANCH   1  18
TORSDOF 28
ENDMDL
MODEL 9
REMARK VINA RESULT:    -3.887      2.615      7.143
REMARK INTER + INTRA:         -15.793
REMARK INTER:                  -9.937
REMARK INTRA:                  -5.856
REMARK UNBOUND:                -5.542
REMARK SMILES CCCCCCCCCCCCCCCCCCCCCCCCCCCCCC(=O)[O-]
REMARK SMILES IDX 16 1 17 2 18 3 19 4 20 5 21 6 22 7 23 8 24 9 25 10 26 11
REMARK SMILES IDX 27 12 28 13 29 14 30 15 31 16 32 17 15 18 14 19 13 20 12 21
REMARK SMILES IDX 11 22 10 23 9 24 8 25 7 26 6 27 5 28 4 29 3 30 2 31 1 32
REMARK H PARENT
REMARK Flexibility Score: inf
ROOT
ATOM      1  C   UNL     1     -19.535  32.409 -39.255  1.00  0.00     0.000 C 
ENDROOT
BRANCH   1   2
ATOM      2  C   UNL     1     -19.008  31.240 -40.108  1.00  0.00     0.000 C 
BRANCH   2   3
ATOM      3  C   UNL     1     -18.802  31.567 -41.599  1.00  0.00     0.000 C 
BRANCH   3   4
ATOM      4  C   UNL     1     -19.712  30.750 -42.543  1.00  0.00     0.000 C 
BRANCH   4   5
ATOM      5  C   UNL     1     -20.877  30.079 -41.794  1.00  0.00     0.000 C 
BRANCH   5   6
ATOM      6  C   UNL     1     -22.164  30.010 -42.630  1.00  0.00     0.000 C 
BRANCH   6   7
ATOM      7  C   UNL     1     -23.174  28.990 -42.081  1.00  0.00     0.000 C 
BRANCH   7   8
ATOM      8  C   UNL     1     -24.515  29.633 -41.696  1.00  0.00     0.000 C 
BRANCH   8   9
ATOM      9  C   UNL     1     -24.412  31.154 -41.488  1.00  0.00     0.000 C 
BRANCH   9  10
ATOM     10  C   UNL     1     -24.452  31.536 -40.000  1.00  0.00     0.000 C 
BRANCH  10  11
ATOM     11  C   UNL     1     -24.990  30.395 -39.117  1.00  0.00     0.000 C 
BRANCH  11  12
ATOM     12  C   UNL     1     -23.958  29.947 -38.060  1.00  0.00     0.000 C 
BRANCH  12  13
ATOM     13  C   UNL     1     -22.501  30.228 -38.468  1.00  0.00     0.006 C 
BRANCH  13  14
ATOM     14  C   UNL     1     -21.565  29.046 -38.186  1.00  0.00     0.053 C 
BRANCH  14  15
ATOM     15  C   UNL     1     -20.867  29.226 -36.876  1.00  0.00     0.041 C 
ATOM     16  O   UNL     1     -21.371  28.762 -35.819  1.00  0.00    -0.550 OA
ATOM     17  O   UNL     1     -19.646  29.887 -36.823  1.00  0.00    -0.550 OA
ENDBRANCH  14  15
ENDBRANCH  13  14
ENDBRANCH  12  13
ENDBRANCH  11  12
ENDBRANCH  10  11
ENDBRANCH   9  10
ENDBRANCH   8   9
ENDBRANCH   7   8
ENDBRANCH   6   7
ENDBRANCH   5   6
ENDBRANCH   4   5
ENDBRANCH   3   4
ENDBRANCH   2   3
ENDBRANCH   1   2
BRANCH   1  18
ATOM     18  C   UNL     1     -20.454  33.395 -39.999  1.00  0.00     0.000 C 
BRANCH  18  19
ATOM     19  C   UNL     1     -21.715  33.756 -39.202  1.00  0.00     0.000 C 
BRANCH  19  20
ATOM     20  C   UNL     1     -21.467  33.623 -37.692  1.00  0.00     0.000 C 
BRANCH  20  21
ATOM     21  C   UNL     1     -22.767  33.684 -36.874  1.00  0.00     0.000 C 
BRANCH  21  22
ATOM     22  C   UNL     1     -23.982  34.096 -37.723  1.00  0.00     0.000 C 
BRANCH  22  23
ATOM     23  C   UNL     1     -25.319  33.710 -37.053  1.00  0.00     0.000 C 
BRANCH  23  24
ATOM     24  C   UNL     1     -26.554  34.016 -37.917  1.00  0.00    -0.000 C 
BRANCH  24  25
ATOM     25  C   UNL     1     -27.779  33.173 -37.530  1.00  0.00    -0.000 C 
BRANCH  25  26
ATOM     26  C   UNL     1     -28.291  32.284 -38.685  1.00  0.00    -0.000 C 
BRANCH  26  27
ATOM     27  C   UNL     1     -27.768  32.706 -40.071  1.00  0.00    -0.000 C 
BRANCH  27  28
ATOM     28  C   UNL     1     -28.698  32.338 -41.240  1.00  0.00    -0.000 C 
BRANCH  28  29
ATOM     29  C   UNL     1     -28.044  31.388 -42.269  1.00  0.00    -0.000 C 
BRANCH  29  30
ATOM     30  C   UNL     1     -28.779  30.044 -42.375  1.00  0.00    -0.000 C 
BRANCH  30  31
ATOM     31  C   UNL     1     -28.229  29.033 -41.362  1.00  0.00    -0.003 C 
ATOM     32  C   UNL     1     -27.682  27.793 -42.064  1.00  0.00     0.004 C 
ENDBRANCH  30  31
ENDBRANCH  29  30
ENDBRANCH  28  29
ENDBRANCH  27  28
ENDBRANCH  26  27
ENDBRANCH  25  26
ENDBRANCH  24  25
ENDBRANCH  23  24
ENDBRANCH  22  23
ENDBRANCH  21  22
ENDBRANCH  20  21
ENDBRANCH  19  20
ENDBRANCH  18  19
ENDBRANCH   1  18
TORSDOF 28
ENDMDL
