MODEL 1
REMARK VINA RESULT:    -4.840      0.000      0.000
REMARK INTER + INTRA:          -9.670
REMARK INTER:                  -8.801
REMARK INTRA:                  -0.869
REMARK UNBOUND:                -0.869
REMARK SMILES CCCCCCCCCCCCCC[C@@H](C)C(=O)[O-]
REMARK SMILES IDX 9 1 10 2 11 3 12 4 13 5 14 6 15 7 16 8 17 9 18 10 19 11 8 12
REMARK SMILES IDX 7 13 6 14 5 15 4 16 3 17 2 18 1 19
REMARK H PARENT
REMARK Flexibility Score: inf
ROOT
ATOM      1  C   UNL     1     112.274 102.461 112.352  1.00  0.00     0.000 C 
ENDROOT
BRANCH   1   2
ATOM      2  C   UNL     1     113.803 102.292 112.329  1.00  0.00     0.000 C 
BRANCH   2   3
ATOM      3  C   UNL     1     114.471 103.120 111.219  1.00  0.00     0.000 C 
BRANCH   3   4
ATOM      4  C   UNL     1     115.722 103.868 111.713  1.00  0.00     0.000 C 
BRANCH   4   5
ATOM      5  C   UNL     1     115.536 104.463 113.118  1.00  0.00     0.001 C 
BRANCH   5   6
ATOM      6  C   UNL     1     116.713 105.363 113.538  1.00  0.00     0.009 C 
BRANCH   6   7
ATOM      7  C   UNL     1     118.064 104.873 112.977  1.00  0.00     0.032 C 
ATOM      8  C   UNL     1     118.713 105.904 112.042  1.00  0.00     0.014 C 
BRANCH   7   9
ATOM      9  C   UNL     1     119.003 104.563 114.111  1.00  0.00     0.044 C 
ATOM     10  O   UNL     1     119.858 105.413 114.474  1.00  0.00    -0.550 OA
ATOM     11  O   UNL     1     118.935 103.338 114.764  1.00  0.00    -0.550 OA
ENDBRANCH   7   9
ENDBRANCH   6   7
ENDBRANCH   5   6
ENDBRANCH   4   5
ENDBRANCH   3   4
ENDBRANCH   2   3
ENDBRANCH   1   2
BRANCH   1  12
ATOM     12  C   UNL     1     111.591 101.800 111.144  1.00  0.00     0.000 C 
BRANCH  12  13
ATOM     13  C   UNL     1     110.302 102.527 110.725  1.00  0.00    -0.000 C 
BRANCH  13  14
ATOM     14  C   UNL     1     110.283 103.998 111.174  1.00  0.00    -0.000 C 
BRANCH  14  15
ATOM     15  C   UNL     1     109.001 104.729 110.737  1.00  0.00    -0.000 C 
BRANCH  15  16
ATOM     16  C   UNL     1     109.153 106.259 110.763  1.00  0.00    -0.000 C 
BRANCH  16  17
ATOM     17  C   UNL     1     107.960 106.959 111.434  1.00  0.00    -0.000 C 
BRANCH  17  18
ATOM     18  C   UNL     1     107.721 106.468 112.871  1.00  0.00    -0.003 C 
ATOM     19  C   UNL     1     106.244 106.485 113.266  1.00  0.00     0.004 C 
ENDBRANCH  17  18
ENDBRANCH  16  17
ENDBRANCH  15  16
ENDBRANCH  14  15
ENDBRANCH  13  14
ENDBRANCH  12  13
ENDBRANCH   1  12
TORSDOF 14
ENDMDL
MODEL 2
REMARK VINA RESULT:    -4.432      1.002      1.777
REMARK INTER + INTRA:          -8.929
REMARK INTER:                  -8.104
REMARK INTRA:                  -0.824
REMARK UNBOUND:                -0.869
REMARK SMILES CCCCCCCCCCCCCC[C@@H](C)C(=O)[O-]
REMARK SMILES IDX 9 1 10 2 11 3 12 4 13 5 14 6 15 7 16 8 17 9 18 10 19 11 8 12
REMARK SMILES IDX 7 13 6 14 5 15 4 16 3 17 2 18 1 19
REMARK H PARENT
REMARK Flexibility Score: inf
ROOT
ATOM      1  C   UNL     1     111.490 101.930 111.096  1.00  0.00     0.000 C 
ENDROOT
BRANCH   1   2
ATOM      2  C   UNL     1     112.909 101.860 111.686  1.00  0.00     0.000 C 
BRANCH   2   3
ATOM      3  C   UNL     1     113.363 103.198 112.288  1.00  0.00     0.000 C 
BRANCH   3   4
ATOM      4  C   UNL     1     114.044 104.110 111.252  1.00  0.00     0.000 C 
BRANCH   4   5
ATOM      5  C   UNL     1     115.479 103.664 110.927  1.00  0.00     0.001 C 
BRANCH   5   6
ATOM      6  C   UNL     1     116.387 103.641 112.171  1.00  0.00     0.009 C 
BRANCH   6   7
ATOM      7  C   UNL     1     116.785 105.057 112.641  1.00  0.00     0.032 C 
ATOM      8  C   UNL     1     115.950 105.525 113.841  1.00  0.00     0.014 C 
BRANCH   7   9
ATOM      9  C   UNL     1     118.244 105.079 113.004  1.00  0.00     0.044 C 
ATOM     10  O   UNL     1     118.962 106.062 112.677  1.00  0.00    -0.550 OA
ATOM     11  O   UNL     1     118.812 104.019 113.700  1.00  0.00    -0.550 OA
ENDBRANCH   7   9
ENDBRANCH   6   7
ENDBRANCH   5   6
ENDBRANCH   4   5
ENDBRANCH   3   4
ENDBRANCH   2   3
ENDBRANCH   1   2
BRANCH   1  12
ATOM     12  C   UNL     1     110.693 103.135 111.621  1.00  0.00     0.000 C 
BRANCH  12  13
ATOM     13  C   UNL     1     109.838 103.797 110.528  1.00  0.00    -0.000 C 
BRANCH  13  14
ATOM     14  C   UNL     1     108.721 104.680 111.108  1.00  0.00    -0.000 C 
BRANCH  14  15
ATOM     15  C   UNL     1     108.885 106.162 110.727  1.00  0.00    -0.000 C 
BRANCH  15  16
ATOM     16  C   UNL     1     108.369 107.115 111.816  1.00  0.00    -0.000 C 
BRANCH  16  17
ATOM     17  C   UNL     1     107.447 106.413 112.827  1.00  0.00    -0.000 C 
BRANCH  17  18
ATOM     18  C   UNL     1     106.096 107.128 112.988  1.00  0.00    -0.003 C 
ATOM     19  C   UNL     1     105.095 106.326 113.819  1.00  0.00     0.004 C 
ENDBRANCH  17  18
ENDBRANCH  16  17
ENDBRANCH  15  16
ENDBRANCH  14  15
ENDBRANCH  13  14
ENDBRANCH  12  13
ENDBRANCH   1  12
TORSDOF 14
ENDMDL
MODEL 3
REMARK VINA RESULT:    -4.145      4.199      8.639
REMARK INTER + INTRA:          -8.407
REMARK INTER:                  -7.418
REMARK INTRA:                  -0.990
REMARK UNBOUND:                -0.869
REMARK SMILES CCCCCCCCCCCCCC[C@@H](C)C(=O)[O-]
REMARK SMILES IDX 9 1 10 2 11 3 12 4 13 5 14 6 15 7 16 8 17 9 18 10 19 11 8 12
REMARK SMILES IDX 7 13 6 14 5 15 4 16 3 17 2 18 1 19
REMARK H PARENT
REMARK Flexibility Score: inf
ROOT
ATOM      1  C   UNL     1     113.427 102.274 112.456  1.00  0.00     0.000 C 
ENDROOT
BRANCH   1   2
ATOM      2  C   UNL     1     111.905 102.496 112.443  1.00  0.00     0.000 C 
BRANCH   2   3
ATOM      3  C   UNL     1     111.241 101.947 111.170  1.00  0.00     0.000 C 
BRANCH   3   4
ATOM      4  C   UNL     1     110.409 103.011 110.433  1.00  0.00     0.000 C 
BRANCH   4   5
ATOM      5  C   UNL     1     109.612 103.907 111.395  1.00  0.00     0.001 C 
BRANCH   5   6
ATOM      6  C   UNL     1     108.931 105.087 110.677  1.00  0.00     0.009 C 
BRANCH   6   7
ATOM      7  C   UNL     1     109.039 106.406 111.469  1.00  0.00     0.032 C 
ATOM      8  C   UNL     1     109.716 107.518 110.656  1.00  0.00     0.014 C 
BRANCH   7   9
ATOM      9  C   UNL     1     107.668 106.858 111.893  1.00  0.00     0.044 C 
ATOM     10  O   UNL     1     107.030 107.687 111.191  1.00  0.00    -0.550 OA
ATOM     11  O   UNL     1     107.096 106.367 113.061  1.00  0.00    -0.550 OA
ENDBRANCH   7   9
ENDBRANCH   6   7
ENDBRANCH   5   6
ENDBRANCH   4   5
ENDBRANCH   3   4
ENDBRANCH   2   3
ENDBRANCH   1   2
BRANCH   1  12
ATOM     12  C   UNL     1     114.106 102.771 111.170  1.00  0.00     0.000 C 
BRANCH  12  13
ATOM     13  C   UNL     1     115.150 103.867 111.440  1.00  0.00    -0.000 C 
BRANCH  13  14
ATOM     14  C   UNL     1     114.828 104.691 112.697  1.00  0.00    -0.000 C 
BRANCH  14  15
ATOM     15  C   UNL     1     116.092 105.089 113.480  1.00  0.00    -0.000 C 
BRANCH  15  16
ATOM     16  C   UNL     1     117.365 104.427 112.927  1.00  0.00    -0.000 C 
BRANCH  16  17
ATOM     17  C   UNL     1     118.604 104.717 113.791  1.00  0.00    -0.000 C 
BRANCH  17  18
ATOM     18  C   UNL     1     119.476 105.842 113.211  1.00  0.00    -0.003 C 
ATOM     19  C   UNL     1     119.117 106.184 111.764  1.00  0.00     0.004 C 
ENDBRANCH  17  18
ENDBRANCH  16  17
ENDBRANCH  15  16
ENDBRANCH  14  15
ENDBRANCH  13  14
ENDBRANCH  12  13
ENDBRANCH   1  12
TORSDOF 14
ENDMDL
MODEL 4
REMARK VINA RESULT:    -4.050      4.508      8.889
REMARK INTER + INTRA:          -8.235
REMARK INTER:                  -7.290
REMARK INTRA:                  -0.945
REMARK UNBOUND:                -0.869
REMARK SMILES CCCCCCCCCCCCCC[C@@H](C)C(=O)[O-]
REMARK SMILES IDX 9 1 10 2 11 3 12 4 13 5 14 6 15 7 16 8 17 9 18 10 19 11 8 12
REMARK SMILES IDX 7 13 6 14 5 15 4 16 3 17 2 18 1 19
REMARK H PARENT
REMARK Flexibility Score: inf
ROOT
ATOM      1  C   UNL     1     111.988 101.999 112.498  1.00  0.00     0.000 C 
ENDROOT
BRANCH   1   2
ATOM      2  C   UNL     1     111.209 102.439 111.247  1.00  0.00     0.000 C 
BRANCH   2   3
ATOM      3  C   UNL     1     110.546 103.815 111.420  1.00  0.00     0.000 C 
BRANCH   3   4
ATOM      4  C   UNL     1     109.390 104.041 110.429  1.00  0.00     0.000 C 
BRANCH   4   5
ATOM      5  C   UNL     1     108.574 105.303 110.753  1.00  0.00     0.001 C 
BRANCH   5   6
ATOM      6  C   UNL     1     108.395 105.517 112.268  1.00  0.00     0.009 C 
BRANCH   6   7
ATOM      7  C   UNL     1     107.706 106.857 112.600  1.00  0.00     0.032 C 
ATOM      8  C   UNL     1     107.674 107.808 111.395  1.00  0.00     0.014 C 
BRANCH   7   9
ATOM      9  C   UNL     1     106.302 106.602 113.076  1.00  0.00     0.044 C 
ATOM     10  O   UNL     1     105.461 107.540 113.095  1.00  0.00    -0.550 OA
ATOM     11  O   UNL     1     105.922 105.334 113.499  1.00  0.00    -0.550 OA
ENDBRANCH   7   9
ENDBRANCH   6   7
ENDBRANCH   5   6
ENDBRANCH   4   5
ENDBRANCH   3   4
ENDBRANCH   2   3
ENDBRANCH   1   2
BRANCH   1  12
ATOM     12  C   UNL     1     113.509 101.998 112.273  1.00  0.00     0.000 C 
BRANCH  12  13
ATOM     13  C   UNL     1     113.928 102.869 111.076  1.00  0.00    -0.000 C 
BRANCH  13  14
ATOM     14  C   UNL     1     115.097 103.810 111.413  1.00  0.00    -0.000 C 
BRANCH  14  15
ATOM     15  C   UNL     1     114.803 104.699 112.635  1.00  0.00    -0.000 C 
BRANCH  15  16
ATOM     16  C   UNL     1     116.067 105.030 113.445  1.00  0.00    -0.000 C 
BRANCH  16  17
ATOM     17  C   UNL     1     117.330 104.375 112.861  1.00  0.00    -0.000 C 
BRANCH  17  18
ATOM     18  C   UNL     1     118.622 105.047 113.353  1.00  0.00    -0.003 C 
ATOM     19  C   UNL     1     119.042 106.233 112.484  1.00  0.00     0.004 C 
ENDBRANCH  17  18
ENDBRANCH  16  17
ENDBRANCH  15  16
ENDBRANCH  14  15
ENDBRANCH  13  14
ENDBRANCH  12  13
ENDBRANCH   1  12
TORSDOF 14
ENDMDL
MODEL 5
REMARK VINA RESULT:    -3.596      1.869      4.149
REMARK INTER + INTRA:          -7.409
REMARK INTER:                  -6.623
REMARK INTRA:                  -0.785
REMARK UNBOUND:                -0.869
REMARK SMILES CCCCCCCCCCCCCC[C@@H](C)C(=O)[O-]
REMARK SMILES IDX 9 1 10 2 11 3 12 4 13 5 14 6 15 7 16 8 17 9 18 10 19 11 8 12
REMARK SMILES IDX 7 13 6 14 5 15 4 16 3 17 2 18 1 19
REMARK H PARENT
REMARK Flexibility Score: inf
ROOT
ATOM      1  C   UNL     1     108.863 104.624 111.188  1.00  0.00     0.000 C 
ENDROOT
BRANCH   1   2
ATOM      2  C   UNL     1     109.951 103.681 110.644  1.00  0.00     0.000 C 
BRANCH   2   3
ATOM      3  C   UNL     1     110.756 103.002 111.763  1.00  0.00     0.000 C 
BRANCH   3   4
ATOM      4  C   UNL     1     111.936 102.177 111.223  1.00  0.00     0.000 C 
BRANCH   4   5
ATOM      5  C   UNL     1     113.072 102.029 112.249  1.00  0.00     0.001 C 
BRANCH   5   6
ATOM      6  C   UNL     1     113.749 103.373 112.577  1.00  0.00     0.009 C 
BRANCH   6   7
ATOM      7  C   UNL     1     115.188 103.463 112.027  1.00  0.00     0.032 C 
ATOM      8  C   UNL     1     115.219 103.863 110.545  1.00  0.00     0.014 C 
BRANCH   7   9
ATOM      9  C   UNL     1     115.979 104.457 112.832  1.00  0.00     0.044 C 
ATOM     10  O   UNL     1     115.456 105.020 113.831  1.00  0.00    -0.550 OA
ATOM     11  O   UNL     1     117.288 104.764 112.481  1.00  0.00    -0.550 OA
ENDBRANCH   7   9
ENDBRANCH   6   7
ENDBRANCH   5   6
ENDBRANCH   4   5
ENDBRANCH   3   4
ENDBRANCH   2   3
ENDBRANCH   1   2
BRANCH   1  12
ATOM     12  C   UNL     1     108.899 106.009 110.523  1.00  0.00     0.000 C 
BRANCH  12  13
ATOM     13  C   UNL     1     108.590 107.146 111.513  1.00  0.00    -0.000 C 
BRANCH  13  14
ATOM     14  C   UNL     1     107.827 106.655 112.754  1.00  0.00    -0.000 C 
BRANCH  14  15
ATOM     15  C   UNL     1     106.409 107.246 112.844  1.00  0.00    -0.000 C 
BRANCH  15  16
ATOM     16  C   UNL     1     105.463 106.392 113.703  1.00  0.00    -0.000 C 
BRANCH  16  17
ATOM     17  C   UNL     1     104.592 107.240 114.645  1.00  0.00    -0.000 C 
BRANCH  17  18
ATOM     18  C   UNL     1     105.201 107.374 116.050  1.00  0.00    -0.003 C 
ATOM     19  C   UNL     1     105.341 108.828 116.500  1.00  0.00     0.004 C 
ENDBRANCH  17  18
ENDBRANCH  16  17
ENDBRANCH  15  16
ENDBRANCH  14  15
ENDBRANCH  13  14
ENDBRANCH  12  13
ENDBRANCH   1  12
TORSDOF 14
ENDMDL
MODEL 6
REMARK VINA RESULT:    -3.536      4.955      9.674
REMARK INTER + INTRA:          -7.300
REMARK INTER:                  -6.626
REMARK INTRA:                  -0.674
REMARK UNBOUND:                -0.869
REMARK SMILES CCCCCCCCCCCCCC[C@@H](C)C(=O)[O-]
REMARK SMILES IDX 9 1 10 2 11 3 12 4 13 5 14 6 15 7 16 8 17 9 18 10 19 11 8 12
REMARK SMILES IDX 7 13 6 14 5 15 4 16 3 17 2 18 1 19
REMARK H PARENT
REMARK Flexibility Score: inf
ROOT
ATOM      1  C   UNL     1     109.932 103.997 111.428  1.00  0.00     0.000 C 
ENDROOT
BRANCH   1   2
ATOM      2  C   UNL     1     108.977 104.715 110.459  1.00  0.00     0.000 C 
BRANCH   2   3
ATOM      3  C   UNL     1     108.593 106.122 110.944  1.00  0.00     0.000 C 
BRANCH   3   4
ATOM      4  C   UNL     1     108.241 106.153 112.442  1.00  0.00     0.000 C 
BRANCH   4   5
ATOM      5  C   UNL     1     106.946 106.932 112.726  1.00  0.00     0.001 C 
BRANCH   5   6
ATOM      6  C   UNL     1     106.018 106.195 113.711  1.00  0.00     0.009 C 
BRANCH   6   7
ATOM      7  C   UNL     1     104.750 107.006 114.051  1.00  0.00     0.032 C 
ATOM      8  C   UNL     1     103.464 106.222 113.757  1.00  0.00     0.014 C 
BRANCH   7   9
ATOM      9  C   UNL     1     104.776 107.403 115.502  1.00  0.00     0.044 C 
ATOM     10  O   UNL     1     104.104 106.753 116.347  1.00  0.00    -0.550 OA
ATOM     11  O   UNL     1     105.536 108.488 115.921  1.00  0.00    -0.550 OA
ENDBRANCH   7   9
ENDBRANCH   6   7
ENDBRANCH   5   6
ENDBRANCH   4   5
ENDBRANCH   3   4
ENDBRANCH   2   3
ENDBRANCH   1   2
BRANCH   1  12
ATOM     12  C   UNL     1     110.752 102.895 110.739  1.00  0.00     0.000 C 
BRANCH  12  13
ATOM     13  C   UNL     1     111.487 101.992 111.744  1.00  0.00    -0.000 C 
BRANCH  13  14
ATOM     14  C   UNL     1     112.765 102.644 112.297  1.00  0.00    -0.000 C 
BRANCH  14  15
ATOM     15  C   UNL     1     113.789 102.961 111.192  1.00  0.00    -0.000 C 
BRANCH  15  16
ATOM     16  C   UNL     1     115.112 103.511 111.750  1.00  0.00    -0.000 C 
BRANCH  16  17
ATOM     17  C   UNL     1     114.897 104.552 112.861  1.00  0.00    -0.000 C 
BRANCH  17  18
ATOM     18  C   UNL     1     116.215 104.995 113.516  1.00  0.00    -0.003 C 
ATOM     19  C   UNL     1     117.444 104.615 112.690  1.00  0.00     0.004 C 
ENDBRANCH  17  18
ENDBRANCH  16  17
ENDBRANCH  15  16
ENDBRANCH  14  15
ENDBRANCH  13  14
ENDBRANCH  12  13
ENDBRANCH   1  12
TORSDOF 14
ENDMDL
MODEL 7
REMARK VINA RESULT:    -3.366      4.871      9.488
REMARK INTER + INTRA:          -6.990
REMARK INTER:                  -6.264
REMARK INTRA:                  -0.726
REMARK UNBOUND:                -0.869
REMARK SMILES CCCCCCCCCCCCCC[C@@H](C)C(=O)[O-]
REMARK SMILES IDX 9 1 10 2 11 3 12 4 13 5 14 6 15 7 16 8 17 9 18 10 19 11 8 12
REMARK SMILES IDX 7 13 6 14 5 15 4 16 3 17 2 18 1 19
REMARK H PARENT
REMARK Flexibility Score: inf
ROOT
ATOM      1  C   UNL     1     110.211 102.978 110.470  1.00  0.00     0.000 C 
ENDROOT
BRANCH   1   2
ATOM      2  C   UNL     1     110.022 104.247 111.319  1.00  0.00     0.000 C 
BRANCH   2   3
ATOM      3  C   UNL     1     108.754 105.027 110.939  1.00  0.00     0.000 C 
BRANCH   3   4
ATOM      4  C   UNL     1     108.890 106.538 111.199  1.00  0.00     0.000 C 
BRANCH   4   5
ATOM      5  C   UNL     1     107.622 107.145 111.821  1.00  0.00     0.001 C 
BRANCH   5   6
ATOM      6  C   UNL     1     107.156 106.383 113.076  1.00  0.00     0.009 C 
BRANCH   6   7
ATOM      7  C   UNL     1     105.784 106.868 113.589  1.00  0.00     0.032 C 
ATOM      8  C   UNL     1     105.221 108.017 112.742  1.00  0.00     0.014 C 
BRANCH   7   9
ATOM      9  C   UNL     1     104.809 105.722 113.593  1.00  0.00     0.044 C 
ATOM     10  O   UNL     1     105.221 104.542 113.436  1.00  0.00    -0.550 OA
ATOM     11  O   UNL     1     103.450 105.956 113.767  1.00  0.00    -0.550 OA
ENDBRANCH   7   9
ENDBRANCH   6   7
ENDBRANCH   5   6
ENDBRANCH   4   5
ENDBRANCH   3   4
ENDBRANCH   2   3
ENDBRANCH   1   2
BRANCH   1  12
ATOM     12  C   UNL     1     111.160 101.965 111.130  1.00  0.00     0.000 C 
BRANCH  12  13
ATOM     13  C   UNL     1     112.021 102.598 112.236  1.00  0.00    -0.000 C 
BRANCH  13  14
ATOM     14  C   UNL     1     113.471 102.087 112.220  1.00  0.00    -0.000 C 
BRANCH  14  15
ATOM     15  C   UNL     1     114.394 102.965 111.356  1.00  0.00    -0.000 C 
BRANCH  15  16
ATOM     16  C   UNL     1     114.999 104.140 112.140  1.00  0.00    -0.000 C 
BRANCH  16  17
ATOM     17  C   UNL     1     116.536 104.162 112.076  1.00  0.00    -0.000 C 
BRANCH  17  18
ATOM     18  C   UNL     1     117.168 104.759 113.344  1.00  0.00    -0.003 C 
ATOM     19  C   UNL     1     118.523 105.417 113.078  1.00  0.00     0.004 C 
ENDBRANCH  17  18
ENDBRANCH  16  17
ENDBRANCH  15  16
ENDBRANCH  14  15
ENDBRANCH  13  14
ENDBRANCH  12  13
ENDBRANCH   1  12
TORSDOF 14
ENDMDL
MODEL 8
REMARK VINA RESULT:    -3.165      1.645      3.546
REMARK INTER + INTRA:          -6.624
REMARK INTER:                  -5.768
REMARK INTRA:                  -0.856
REMARK UNBOUND:                -0.869
REMARK SMILES CCCCCCCCCCCCCC[C@@H](C)C(=O)[O-]
REMARK SMILES IDX 9 1 10 2 11 3 12 4 13 5 14 6 15 7 16 8 17 9 18 10 19 11 8 12
REMARK SMILES IDX 7 13 6 14 5 15 4 16 3 17 2 18 1 19
REMARK H PARENT
REMARK Flexibility Score: inf
ROOT
ATOM      1  C   UNL     1     109.419 103.946 110.785  1.00  0.00     0.000 C 
ENDROOT
BRANCH   1   2
ATOM      2  C   UNL     1     110.325 103.195 111.776  1.00  0.00     0.000 C 
BRANCH   2   3
ATOM      3  C   UNL     1     111.137 102.079 111.102  1.00  0.00     0.000 C 
BRANCH   3   4
ATOM      4  C   UNL     1     112.567 101.970 111.659  1.00  0.00     0.000 C 
BRANCH   4   5
ATOM      5  C   UNL     1     113.101 103.316 112.178  1.00  0.00     0.001 C 
BRANCH   5   6
ATOM      6  C   UNL     1     114.435 103.170 112.933  1.00  0.00     0.009 C 
BRANCH   6   7
ATOM      7  C   UNL     1     115.653 103.553 112.065  1.00  0.00     0.032 C 
ATOM      8  C   UNL     1     115.245 103.964 110.643  1.00  0.00     0.014 C 
BRANCH   7   9
ATOM      9  C   UNL     1     116.407 104.679 112.717  1.00  0.00     0.044 C 
ATOM     10  O   UNL     1     117.580 104.952 112.346  1.00  0.00    -0.550 OA
ATOM     11  O   UNL     1     115.819 105.424 113.732  1.00  0.00    -0.550 OA
ENDBRANCH   7   9
ENDBRANCH   6   7
ENDBRANCH   5   6
ENDBRANCH   4   5
ENDBRANCH   3   4
ENDBRANCH   2   3
ENDBRANCH   1   2
BRANCH   1  12
ATOM     12  C   UNL     1     109.637 105.467 110.824  1.00  0.00     0.000 C 
BRANCH  12  13
ATOM     13  C   UNL     1     108.356 106.254 110.496  1.00  0.00    -0.000 C 
BRANCH  13  14
ATOM     14  C   UNL     1     107.946 107.210 111.628  1.00  0.00    -0.000 C 
BRANCH  14  15
ATOM     15  C   UNL     1     107.907 106.515 113.000  1.00  0.00    -0.000 C 
BRANCH  15  16
ATOM     16  C   UNL     1     106.499 106.028 113.379  1.00  0.00    -0.000 C 
BRANCH  16  17
ATOM     17  C   UNL     1     105.480 107.176 113.461  1.00  0.00    -0.000 C 
BRANCH  17  18
ATOM     18  C   UNL     1     104.210 106.781 114.233  1.00  0.00    -0.003 C 
ATOM     19  C   UNL     1     103.160 106.113 113.346  1.00  0.00     0.004 C 
ENDBRANCH  17  18
ENDBRANCH  16  17
ENDBRANCH  15  16
ENDBRANCH  14  15
ENDBRANCH  13  14
ENDBRANCH  12  13
ENDBRANCH   1  12
TORSDOF 14
ENDMDL
MODEL 9
REMARK VINA RESULT:    -2.133      4.903      9.527
REMARK INTER + INTRA:          -4.747
REMARK INTER:                  -3.845
REMARK INTRA:                  -0.902
REMARK UNBOUND:                -0.869
REMARK SMILES CCCCCCCCCCCCCC[C@@H](C)C(=O)[O-]
REMARK SMILES IDX 9 1 10 2 11 3 12 4 13 5 14 6 15 7 16 8 17 9 18 10 19 11 8 12
REMARK SMILES IDX 7 13 6 14 5 15 4 16 3 17 2 18 1 19
REMARK H PARENT
REMARK Flexibility Score: inf
ROOT
ATOM      1  C   UNL     1     108.599 104.930 110.290  1.00  0.00     0.000 C 
ENDROOT
BRANCH   1   2
ATOM      2  C   UNL     1     109.328 106.048 111.055  1.00  0.00     0.000 C 
BRANCH   2   3
ATOM      3  C   UNL     1     108.559 107.379 111.027  1.00  0.00     0.000 C 
BRANCH   3   4
ATOM      4  C   UNL     1     107.234 107.311 111.806  1.00  0.00     0.000 C 
BRANCH   4   5
ATOM      5  C   UNL     1     107.362 106.517 113.117  1.00  0.00     0.001 C 
BRANCH   5   6
ATOM      6  C   UNL     1     106.030 105.877 113.551  1.00  0.00     0.009 C 
BRANCH   6   7
ATOM      7  C   UNL     1     104.921 106.923 113.797  1.00  0.00     0.032 C 
ATOM      8  C   UNL     1     103.523 106.368 113.493  1.00  0.00     0.014 C 
BRANCH   7   9
ATOM      9  C   UNL     1     104.975 107.393 115.225  1.00  0.00     0.044 C 
ATOM     10  O   UNL     1     105.565 108.468 115.515  1.00  0.00    -0.550 OA
ATOM     11  O   UNL     1     104.378 106.647 116.234  1.00  0.00    -0.550 OA
ENDBRANCH   7   9
ENDBRANCH   6   7
ENDBRANCH   5   6
ENDBRANCH   4   5
ENDBRANCH   3   4
ENDBRANCH   2   3
ENDBRANCH   1   2
BRANCH   1  12
ATOM     12  C   UNL     1     109.384 103.608 110.292  1.00  0.00     0.000 C 
BRANCH  12  13
ATOM     13  C   UNL     1     110.297 103.466 111.522  1.00  0.00    -0.000 C 
BRANCH  13  14
ATOM     14  C   UNL     1     111.769 103.240 111.140  1.00  0.00    -0.000 C 
BRANCH  14  15
ATOM     15  C   UNL     1     112.287 101.862 111.587  1.00  0.00    -0.000 C 
BRANCH  15  16
ATOM     16  C   UNL     1     113.666 101.938 112.263  1.00  0.00    -0.000 C 
BRANCH  16  17
ATOM     17  C   UNL     1     113.985 103.344 112.797  1.00  0.00    -0.000 C 
BRANCH  17  18
ATOM     18  C   UNL     1     115.394 103.816 112.406  1.00  0.00    -0.003 C 
ATOM     19  C   UNL     1     115.861 105.026 113.216  1.00  0.00     0.004 C 
ENDBRANCH  17  18
ENDBRANCH  16  17
ENDBRANCH  15  16
ENDBRANCH  14  15
ENDBRANCH  13  14
ENDBRANCH  12  13
ENDBRANCH   1  12
TORSDOF 14
ENDMDL
