MODEL 1
REMARK VINA RESULT:    -3.787      0.000      0.000
REMARK INTER + INTRA:          -8.878
REMARK INTER:                  -6.666
REMARK INTRA:                  -2.213
REMARK UNBOUND:                -2.213
REMARK SMILES CCCCCCCCCCCCCCC(=O)[O-]
REMARK SMILES IDX 9 1 10 2 11 3 12 4 13 5 14 6 15 7 16 8 17 9 8 10 7 11 6 12
REMARK SMILES IDX 5 13 4 14 3 15 2 16 1 17
REMARK H PARENT
REMARK Flexibility Score: inf
ROOT
ATOM      1  C   UNL     1       9.051 -27.927 -29.651  1.00  0.00     0.000 C 
ENDROOT
BRANCH   1   2
ATOM      2  C   UNL     1      10.510 -27.746 -30.102  1.00  0.00     0.000 C 
BRANCH   2   3
ATOM      3  C   UNL     1      10.715 -26.476 -30.943  1.00  0.00     0.000 C 
BRANCH   3   4
ATOM      4  C   UNL     1       9.692 -25.395 -30.563  1.00  0.00     0.000 C 
BRANCH   4   5
ATOM      5  C   UNL     1      10.331 -24.007 -30.400  1.00  0.00     0.006 C 
BRANCH   5   6
ATOM      6  C   UNL     1      11.791 -23.969 -30.871  1.00  0.00     0.053 C 
BRANCH   6   7
ATOM      7  C   UNL     1      11.914 -23.163 -32.126  1.00  0.00     0.041 C 
ATOM      8  O   UNL     1      12.368 -23.690 -33.175  1.00  0.00    -0.550 OA
ATOM      9  O   UNL     1      11.572 -21.816 -32.124  1.00  0.00    -0.550 OA
ENDBRANCH   6   7
ENDBRANCH   5   6
ENDBRANCH   4   5
ENDBRANCH   3   4
ENDBRANCH   2   3
ENDBRANCH   1   2
BRANCH   1  10
ATOM     10  C   UNL     1       8.931 -28.253 -28.153  1.00  0.00     0.000 C 
BRANCH  10  11
ATOM     11  C   UNL     1       8.535 -27.029 -27.314  1.00  0.00    -0.000 C 
BRANCH  11  12
ATOM     12  C   UNL     1       9.488 -26.794 -26.128  1.00  0.00    -0.000 C 
BRANCH  12  13
ATOM     13  C   UNL     1      10.275 -25.480 -26.254  1.00  0.00    -0.000 C 
BRANCH  13  14
ATOM     14  C   UNL     1      11.413 -25.568 -27.281  1.00  0.00    -0.000 C 
BRANCH  14  15
ATOM     15  C   UNL     1      12.609 -26.340 -26.709  1.00  0.00    -0.000 C 
BRANCH  15  16
ATOM     16  C   UNL     1      12.971 -27.534 -27.601  1.00  0.00    -0.003 C 
ATOM     17  C   UNL     1      12.428 -28.837 -27.023  1.00  0.00     0.004 C 
ENDBRANCH  15  16
ENDBRANCH  14  15
ENDBRANCH  13  14
ENDBRANCH  12  13
ENDBRANCH  11  12
ENDBRANCH  10  11
ENDBRANCH   1  10
TORSDOF 13
ENDMDL
MODEL 2
REMARK VINA RESULT:    -3.688      1.141      2.266
REMARK INTER + INTRA:          -8.704
REMARK INTER:                  -6.839
REMARK INTRA:                  -1.866
REMARK UNBOUND:                -2.213
REMARK SMILES CCCCCCCCCCCCCCC(=O)[O-]
REMARK SMILES IDX 9 1 10 2 11 3 12 4 13 5 14 6 15 7 16 8 17 9 8 10 7 11 6 12
REMARK SMILES IDX 5 13 4 14 3 15 2 16 1 17
REMARK H PARENT
REMARK Flexibility Score: inf
ROOT
ATOM      1  C   UNL     1      10.643 -27.255 -31.001  1.00  0.00     0.000 C 
ENDROOT
BRANCH   1   2
ATOM      2  C   UNL     1      10.992 -25.909 -31.656  1.00  0.00     0.000 C 
BRANCH   2   3
ATOM      3  C   UNL     1       9.886 -24.858 -31.474  1.00  0.00     0.000 C 
BRANCH   3   4
ATOM      4  C   UNL     1      10.391 -23.668 -30.644  1.00  0.00     0.000 C 
BRANCH   4   5
ATOM      5  C   UNL     1      11.881 -23.373 -30.877  1.00  0.00     0.006 C 
BRANCH   5   6
ATOM      6  C   UNL     1      12.215 -21.881 -30.751  1.00  0.00     0.053 C 
BRANCH   6   7
ATOM      7  C   UNL     1      11.271 -21.064 -31.576  1.00  0.00     0.041 C 
ATOM      8  O   UNL     1      11.291 -21.147 -32.832  1.00  0.00    -0.550 OA
ATOM      9  O   UNL     1      10.401 -20.173 -30.959  1.00  0.00    -0.550 OA
ENDBRANCH   6   7
ENDBRANCH   5   6
ENDBRANCH   4   5
ENDBRANCH   3   4
ENDBRANCH   2   3
ENDBRANCH   1   2
BRANCH   1  10
ATOM     10  C   UNL     1       9.434 -27.156 -30.055  1.00  0.00     0.000 C 
BRANCH  10  11
ATOM     11  C   UNL     1       8.987 -28.528 -29.526  1.00  0.00    -0.000 C 
BRANCH  11  12
ATOM     12  C   UNL     1       8.828 -28.545 -27.995  1.00  0.00    -0.000 C 
BRANCH  12  13
ATOM     13  C   UNL     1       8.738 -27.134 -27.394  1.00  0.00    -0.000 C 
BRANCH  13  14
ATOM     14  C   UNL     1       9.982 -26.758 -26.577  1.00  0.00    -0.000 C 
BRANCH  14  15
ATOM     15  C   UNL     1      10.561 -25.417 -27.043  1.00  0.00    -0.000 C 
BRANCH  15  16
ATOM     16  C   UNL     1      11.853 -25.623 -27.844  1.00  0.00    -0.003 C 
ATOM     17  C   UNL     1      12.371 -27.050 -27.694  1.00  0.00     0.004 C 
ENDBRANCH  15  16
ENDBRANCH  14  15
ENDBRANCH  13  14
ENDBRANCH  12  13
ENDBRANCH  11  12
ENDBRANCH  10  11
ENDBRANCH   1  10
TORSDOF 13
ENDMDL
MODEL 3
REMARK VINA RESULT:    -3.632      1.741      2.705
REMARK INTER + INTRA:          -8.605
REMARK INTER:                  -7.264
REMARK INTRA:                  -1.341
REMARK UNBOUND:                -2.213
REMARK SMILES CCCCCCCCCCCCCCC(=O)[O-]
REMARK SMILES IDX 9 1 10 2 11 3 12 4 13 5 14 6 15 7 16 8 17 9 8 10 7 11 6 12
REMARK SMILES IDX 5 13 4 14 3 15 2 16 1 17
REMARK H PARENT
REMARK Flexibility Score: inf
ROOT
ATOM      1  C   UNL     1      10.783 -27.558 -29.719  1.00  0.00     0.000 C 
ENDROOT
BRANCH   1   2
ATOM      2  C   UNL     1      10.934 -26.233 -30.483  1.00  0.00     0.000 C 
BRANCH   2   3
ATOM      3  C   UNL     1       9.740 -25.290 -30.272  1.00  0.00     0.000 C 
BRANCH   3   4
ATOM      4  C   UNL     1       9.532 -24.385 -31.495  1.00  0.00     0.000 C 
BRANCH   4   5
ATOM      5  C   UNL     1      10.815 -23.649 -31.913  1.00  0.00     0.006 C 
BRANCH   5   6
ATOM      6  C   UNL     1      11.007 -22.324 -31.164  1.00  0.00     0.053 C 
BRANCH   6   7
ATOM      7  C   UNL     1      12.358 -22.278 -30.522  1.00  0.00     0.041 C 
ATOM      8  O   UNL     1      12.971 -23.347 -30.260  1.00  0.00    -0.550 OA
ATOM      9  O   UNL     1      12.919 -21.058 -30.169  1.00  0.00    -0.550 OA
ENDBRANCH   6   7
ENDBRANCH   5   6
ENDBRANCH   4   5
ENDBRANCH   3   4
ENDBRANCH   2   3
ENDBRANCH   1   2
BRANCH   1  10
ATOM     10  C   UNL     1       9.353 -28.122 -29.789  1.00  0.00     0.000 C 
BRANCH  10  11
ATOM     11  C   UNL     1       8.798 -28.491 -28.405  1.00  0.00    -0.000 C 
BRANCH  11  12
ATOM     12  C   UNL     1       8.244 -27.270 -27.649  1.00  0.00    -0.000 C 
BRANCH  12  13
ATOM     13  C   UNL     1       9.063 -26.932 -26.393  1.00  0.00    -0.000 C 
BRANCH  13  14
ATOM     14  C   UNL     1      10.076 -25.803 -26.635  1.00  0.00    -0.000 C 
BRANCH  14  15
ATOM     15  C   UNL     1      10.832 -25.459 -25.346  1.00  0.00    -0.000 C 
BRANCH  15  16
ATOM     16  C   UNL     1       9.911 -25.563 -24.123  1.00  0.00    -0.003 C 
ATOM     17  C   UNL     1       9.353 -24.196 -23.736  1.00  0.00     0.004 C 
ENDBRANCH  15  16
ENDBRANCH  14  15
ENDBRANCH  13  14
ENDBRANCH  12  13
ENDBRANCH  11  12
ENDBRANCH  10  11
ENDBRANCH   1  10
TORSDOF 13
ENDMDL
MODEL 4
REMARK VINA RESULT:    -3.614      1.202      2.515
REMARK INTER + INTRA:          -8.574
REMARK INTER:                  -6.266
REMARK INTRA:                  -2.308
REMARK UNBOUND:                -2.213
REMARK SMILES CCCCCCCCCCCCCCC(=O)[O-]
REMARK SMILES IDX 9 1 10 2 11 3 12 4 13 5 14 6 15 7 16 8 17 9 8 10 7 11 6 12
REMARK SMILES IDX 5 13 4 14 3 15 2 16 1 17
REMARK H PARENT
REMARK Flexibility Score: inf
ROOT
ATOM      1  C   UNL     1       9.295 -29.261 -28.314  1.00  0.00     0.000 C 
ENDROOT
BRANCH   1   2
ATOM      2  C   UNL     1       8.688 -28.178 -29.220  1.00  0.00     0.000 C 
BRANCH   2   3
ATOM      3  C   UNL     1       9.757 -27.307 -29.898  1.00  0.00     0.000 C 
BRANCH   3   4
ATOM      4  C   UNL     1       9.540 -25.821 -29.575  1.00  0.00     0.000 C 
BRANCH   4   5
ATOM      5  C   UNL     1      10.783 -24.964 -29.864  1.00  0.00     0.006 C 
BRANCH   5   6
ATOM      6  C   UNL     1      10.477 -23.766 -30.773  1.00  0.00     0.053 C 
BRANCH   6   7
ATOM      7  C   UNL     1      10.699 -24.129 -32.207  1.00  0.00     0.041 C 
ATOM      8  O   UNL     1      11.801 -23.875 -32.762  1.00  0.00    -0.550 OA
ATOM      9  O   UNL     1       9.672 -24.703 -32.947  1.00  0.00    -0.550 OA
ENDBRANCH   6   7
ENDBRANCH   5   6
ENDBRANCH   4   5
ENDBRANCH   3   4
ENDBRANCH   2   3
ENDBRANCH   1   2
BRANCH   1  10
ATOM     10  C   UNL     1      10.833 -29.232 -28.306  1.00  0.00     0.000 C 
BRANCH  10  11
ATOM     11  C   UNL     1      11.420 -29.496 -26.911  1.00  0.00    -0.000 C 
BRANCH  11  12
ATOM     12  C   UNL     1      12.591 -28.555 -26.577  1.00  0.00    -0.000 C 
BRANCH  12  13
ATOM     13  C   UNL     1      12.810 -27.481 -27.654  1.00  0.00    -0.000 C 
BRANCH  13  14
ATOM     14  C   UNL     1      12.789 -26.056 -27.081  1.00  0.00    -0.000 C 
BRANCH  14  15
ATOM     15  C   UNL     1      11.913 -25.982 -25.825  1.00  0.00    -0.000 C 
BRANCH  15  16
ATOM     16  C   UNL     1      10.535 -25.391 -26.149  1.00  0.00    -0.003 C 
ATOM     17  C   UNL     1       9.424 -26.398 -25.872  1.00  0.00     0.004 C 
ENDBRANCH  15  16
ENDBRANCH  14  15
ENDBRANCH  13  14
ENDBRANCH  12  13
ENDBRANCH  11  12
ENDBRANCH  10  11
ENDBRANCH   1  10
TORSDOF 13
ENDMDL
MODEL 5
REMARK VINA RESULT:    -3.565      1.603      3.022
REMARK INTER + INTRA:          -8.488
REMARK INTER:                  -6.961
REMARK INTRA:                  -1.527
REMARK UNBOUND:                -2.213
REMARK SMILES CCCCCCCCCCCCCCC(=O)[O-]
REMARK SMILES IDX 9 1 10 2 11 3 12 4 13 5 14 6 15 7 16 8 17 9 8 10 7 11 6 12
REMARK SMILES IDX 5 13 4 14 3 15 2 16 1 17
REMARK H PARENT
REMARK Flexibility Score: inf
ROOT
ATOM      1  C   UNL     1      10.767 -25.391 -27.785  1.00  0.00     0.000 C 
ENDROOT
BRANCH   1   2
ATOM      2  C   UNL     1      10.996 -25.253 -29.299  1.00  0.00     0.000 C 
BRANCH   2   3
ATOM      3  C   UNL     1       9.702 -24.938 -30.066  1.00  0.00     0.000 C 
BRANCH   3   4
ATOM      4  C   UNL     1      10.011 -24.247 -31.403  1.00  0.00     0.000 C 
BRANCH   4   5
ATOM      5  C   UNL     1      11.317 -24.746 -32.040  1.00  0.00     0.006 C 
BRANCH   5   6
ATOM      6  C   UNL     1      12.045 -23.651 -32.830  1.00  0.00     0.053 C 
BRANCH   6   7
ATOM      7  C   UNL     1      12.625 -22.633 -31.899  1.00  0.00     0.041 C 
ATOM      8  O   UNL     1      13.316 -22.998 -30.912  1.00  0.00    -0.550 OA
ATOM      9  O   UNL     1      12.361 -21.283 -32.093  1.00  0.00    -0.550 OA
ENDBRANCH   6   7
ENDBRANCH   5   6
ENDBRANCH   4   5
ENDBRANCH   3   4
ENDBRANCH   2   3
ENDBRANCH   1   2
BRANCH   1  10
ATOM     10  C   UNL     1      10.364 -26.818 -27.375  1.00  0.00     0.000 C 
BRANCH  10  11
ATOM     11  C   UNL     1       8.896 -26.911 -26.933  1.00  0.00    -0.000 C 
BRANCH  11  12
ATOM     12  C   UNL     1       8.013 -27.629 -27.971  1.00  0.00    -0.000 C 
BRANCH  12  13
ATOM     13  C   UNL     1       8.837 -28.335 -29.059  1.00  0.00    -0.000 C 
BRANCH  13  14
ATOM     14  C   UNL     1       8.415 -29.797 -29.264  1.00  0.00    -0.000 C 
BRANCH  14  15
ATOM     15  C   UNL     1       9.125 -30.719 -28.265  1.00  0.00    -0.000 C 
BRANCH  15  16
ATOM     16  C   UNL     1      10.626 -30.407 -28.199  1.00  0.00    -0.003 C 
ATOM     17  C   UNL     1      11.147 -30.512 -26.769  1.00  0.00     0.004 C 
ENDBRANCH  15  16
ENDBRANCH  14  15
ENDBRANCH  13  14
ENDBRANCH  12  13
ENDBRANCH  11  12
ENDBRANCH  10  11
ENDBRANCH   1  10
TORSDOF 13
ENDMDL
MODEL 6
REMARK VINA RESULT:    -3.558      4.353      6.692
REMARK INTER + INTRA:          -8.475
REMARK INTER:                  -7.158
REMARK INTRA:                  -1.316
REMARK UNBOUND:                -2.213
REMARK SMILES CCCCCCCCCCCCCCC(=O)[O-]
REMARK SMILES IDX 9 1 10 2 11 3 12 4 13 5 14 6 15 7 16 8 17 9 8 10 7 11 6 12
REMARK SMILES IDX 5 13 4 14 3 15 2 16 1 17
REMARK H PARENT
REMARK Flexibility Score: inf
ROOT
ATOM      1  C   UNL     1       8.627 -27.005 -26.913  1.00  0.00     0.000 C 
ENDROOT
BRANCH   1   2
ATOM      2  C   UNL     1       9.468 -26.572 -25.701  1.00  0.00     0.000 C 
BRANCH   2   3
ATOM      3  C   UNL     1      10.477 -25.466 -26.047  1.00  0.00     0.000 C 
BRANCH   3   4
ATOM      4  C   UNL     1      10.627 -24.477 -24.882  1.00  0.00     0.000 C 
BRANCH   4   5
ATOM      5  C   UNL     1       9.505 -24.613 -23.840  1.00  0.00     0.006 C 
BRANCH   5   6
ATOM      6  C   UNL     1      10.041 -24.835 -22.420  1.00  0.00     0.053 C 
BRANCH   6   7
ATOM      7  C   UNL     1       9.522 -23.779 -21.495  1.00  0.00     0.041 C 
ATOM      8  O   UNL     1       8.891 -24.101 -20.455  1.00  0.00    -0.550 OA
ATOM      9  O   UNL     1       9.693 -22.436 -21.809  1.00  0.00    -0.550 OA
ENDBRANCH   6   7
ENDBRANCH   5   6
ENDBRANCH   4   5
ENDBRANCH   3   4
ENDBRANCH   2   3
ENDBRANCH   1   2
BRANCH   1  10
ATOM     10  C   UNL     1       9.294 -28.128 -27.726  1.00  0.00     0.000 C 
BRANCH  10  11
ATOM     11  C   UNL     1       8.760 -28.212 -29.164  1.00  0.00    -0.000 C 
BRANCH  11  12
ATOM     12  C   UNL     1       9.683 -27.510 -30.177  1.00  0.00    -0.000 C 
BRANCH  12  13
ATOM     13  C   UNL     1      11.040 -27.123 -29.569  1.00  0.00    -0.000 C 
BRANCH  13  14
ATOM     14  C   UNL     1      11.274 -25.605 -29.565  1.00  0.00    -0.000 C 
BRANCH  14  15
ATOM     15  C   UNL     1      10.019 -24.855 -30.026  1.00  0.00    -0.000 C 
BRANCH  15  16
ATOM     16  C   UNL     1      10.319 -23.982 -31.251  1.00  0.00    -0.003 C 
ATOM     17  C   UNL     1       9.849 -24.657 -32.536  1.00  0.00     0.004 C 
ENDBRANCH  15  16
ENDBRANCH  14  15
ENDBRANCH  13  14
ENDBRANCH  12  13
ENDBRANCH  11  12
ENDBRANCH  10  11
ENDBRANCH   1  10
TORSDOF 13
ENDMDL
MODEL 7
REMARK VINA RESULT:    -3.553      2.869      6.108
REMARK INTER + INTRA:          -8.466
REMARK INTER:                  -6.926
REMARK INTRA:                  -1.540
REMARK UNBOUND:                -2.213
REMARK SMILES CCCCCCCCCCCCCCC(=O)[O-]
REMARK SMILES IDX 9 1 10 2 11 3 12 4 13 5 14 6 15 7 16 8 17 9 8 10 7 11 6 12
REMARK SMILES IDX 5 13 4 14 3 15 2 16 1 17
REMARK H PARENT
REMARK Flexibility Score: inf
ROOT
ATOM      1  C   UNL     1      10.654 -25.555 -32.067  1.00  0.00     0.000 C 
ENDROOT
BRANCH   1   2
ATOM      2  C   UNL     1      10.654 -27.032 -31.640  1.00  0.00     0.000 C 
BRANCH   2   3
ATOM      3  C   UNL     1      10.800 -27.208 -30.121  1.00  0.00     0.000 C 
BRANCH   3   4
ATOM      4  C   UNL     1       9.606 -27.982 -29.541  1.00  0.00     0.000 C 
BRANCH   4   5
ATOM      5  C   UNL     1       8.693 -27.100 -28.676  1.00  0.00     0.006 C 
BRANCH   5   6
ATOM      6  C   UNL     1       8.866 -27.364 -27.174  1.00  0.00     0.053 C 
BRANCH   6   7
ATOM      7  C   UNL     1       9.536 -26.200 -26.514  1.00  0.00     0.041 C 
ATOM      8  O   UNL     1      10.377 -25.509 -27.148  1.00  0.00    -0.550 OA
ATOM      9  O   UNL     1       9.267 -25.906 -25.182  1.00  0.00    -0.550 OA
ENDBRANCH   6   7
ENDBRANCH   5   6
ENDBRANCH   4   5
ENDBRANCH   3   4
ENDBRANCH   2   3
ENDBRANCH   1   2
BRANCH   1  10
ATOM     10  C   UNL     1       9.827 -24.666 -31.122  1.00  0.00     0.000 C 
BRANCH  10  11
ATOM     11  C   UNL     1      10.623 -23.461 -30.599  1.00  0.00    -0.000 C 
BRANCH  11  12
ATOM     12  C   UNL     1      12.102 -23.800 -30.340  1.00  0.00    -0.000 C 
BRANCH  12  13
ATOM     13  C   UNL     1      13.062 -22.793 -30.992  1.00  0.00    -0.000 C 
BRANCH  13  14
ATOM     14  C   UNL     1      12.498 -22.193 -32.288  1.00  0.00    -0.000 C 
BRANCH  14  15
ATOM     15  C   UNL     1      12.912 -23.029 -33.505  1.00  0.00    -0.000 C 
BRANCH  15  16
ATOM     16  C   UNL     1      11.942 -22.817 -34.674  1.00  0.00    -0.003 C 
ATOM     17  C   UNL     1      11.075 -21.582 -34.453  1.00  0.00     0.004 C 
ENDBRANCH  15  16
ENDBRANCH  14  15
ENDBRANCH  13  14
ENDBRANCH  12  13
ENDBRANCH  11  12
ENDBRANCH  10  11
ENDBRANCH   1  10
TORSDOF 13
ENDMDL
MODEL 8
REMARK VINA RESULT:    -3.501      2.947      5.414
REMARK INTER + INTRA:          -8.375
REMARK INTER:                  -6.588
REMARK INTRA:                  -1.787
REMARK UNBOUND:                -2.213
REMARK SMILES CCCCCCCCCCCCCCC(=O)[O-]
REMARK SMILES IDX 9 1 10 2 11 3 12 4 13 5 14 6 15 7 16 8 17 9 8 10 7 11 6 12
REMARK SMILES IDX 5 13 4 14 3 15 2 16 1 17
REMARK H PARENT
REMARK Flexibility Score: inf
ROOT
ATOM      1  C   UNL     1       9.263 -28.209 -29.708  1.00  0.00     0.000 C 
ENDROOT
BRANCH   1   2
ATOM      2  C   UNL     1       8.984 -28.430 -28.212  1.00  0.00     0.000 C 
BRANCH   2   3
ATOM      3  C   UNL     1       8.430 -27.174 -27.523  1.00  0.00     0.000 C 
BRANCH   3   4
ATOM      4  C   UNL     1       9.395 -26.673 -26.438  1.00  0.00     0.000 C 
BRANCH   4   5
ATOM      5  C   UNL     1      10.311 -25.543 -26.934  1.00  0.00     0.006 C 
BRANCH   5   6
ATOM      6  C   UNL     1      11.791 -25.945 -26.950  1.00  0.00     0.053 C 
BRANCH   6   7
ATOM      7  C   UNL     1      12.419 -25.676 -25.618  1.00  0.00     0.041 C 
ATOM      8  O   UNL     1      13.323 -26.434 -25.179  1.00  0.00    -0.550 OA
ATOM      9  O   UNL     1      11.971 -24.616 -24.840  1.00  0.00    -0.550 OA
ENDBRANCH   6   7
ENDBRANCH   5   6
ENDBRANCH   4   5
ENDBRANCH   3   4
ENDBRANCH   2   3
ENDBRANCH   1   2
BRANCH   1  10
ATOM     10  C   UNL     1      10.655 -27.607 -29.968  1.00  0.00     0.000 C 
BRANCH  10  11
ATOM     11  C   UNL     1      10.620 -26.461 -30.989  1.00  0.00    -0.000 C 
BRANCH  11  12
ATOM     12  C   UNL     1       9.615 -25.360 -30.605  1.00  0.00    -0.000 C 
BRANCH  12  13
ATOM     13  C   UNL     1      10.238 -23.956 -30.634  1.00  0.00    -0.000 C 
BRANCH  13  14
ATOM     14  C   UNL     1      11.737 -23.967 -30.300  1.00  0.00    -0.000 C 
BRANCH  14  15
ATOM     15  C   UNL     1      12.553 -23.308 -31.419  1.00  0.00    -0.000 C 
BRANCH  15  16
ATOM     16  C   UNL     1      11.723 -23.178 -32.703  1.00  0.00    -0.003 C 
ATOM     17  C   UNL     1      12.622 -23.036 -33.927  1.00  0.00     0.004 C 
ENDBRANCH  15  16
ENDBRANCH  14  15
ENDBRANCH  13  14
ENDBRANCH  12  13
ENDBRANCH  11  12
ENDBRANCH  10  11
ENDBRANCH   1  10
TORSDOF 13
ENDMDL
MODEL 9
REMARK VINA RESULT:    -3.433      1.100      2.140
REMARK INTER + INTRA:          -8.255
REMARK INTER:                  -6.243
REMARK INTRA:                  -2.012
REMARK UNBOUND:                -2.213
REMARK SMILES CCCCCCCCCCCCCCC(=O)[O-]
REMARK SMILES IDX 9 1 10 2 11 3 12 4 13 5 14 6 15 7 16 8 17 9 8 10 7 11 6 12
REMARK SMILES IDX 5 13 4 14 3 15 2 16 1 17
REMARK H PARENT
REMARK Flexibility Score: inf
ROOT
ATOM      1  C   UNL     1       9.363 -27.218 -29.834  1.00  0.00     0.000 C 
ENDROOT
BRANCH   1   2
ATOM      2  C   UNL     1      10.598 -27.348 -30.741  1.00  0.00     0.000 C 
BRANCH   2   3
ATOM      3  C   UNL     1      10.969 -26.023 -31.427  1.00  0.00     0.000 C 
BRANCH   3   4
ATOM      4  C   UNL     1      10.375 -24.827 -30.668  1.00  0.00     0.000 C 
BRANCH   4   5
ATOM      5  C   UNL     1      11.404 -23.714 -30.417  1.00  0.00     0.006 C 
BRANCH   5   6
ATOM      6  C   UNL     1      11.045 -22.405 -31.133  1.00  0.00     0.053 C 
BRANCH   6   7
ATOM      7  C   UNL     1      11.986 -22.157 -32.269  1.00  0.00     0.041 C 
ATOM      8  O   UNL     1      12.385 -23.115 -32.983  1.00  0.00    -0.550 OA
ATOM      9  O   UNL     1      12.462 -20.874 -32.511  1.00  0.00    -0.550 OA
ENDBRANCH   6   7
ENDBRANCH   5   6
ENDBRANCH   4   5
ENDBRANCH   3   4
ENDBRANCH   2   3
ENDBRANCH   1   2
BRANCH   1  10
ATOM     10  C   UNL     1       8.772 -28.583 -29.442  1.00  0.00     0.000 C 
BRANCH  10  11
ATOM     11  C   UNL     1       9.202 -29.030 -28.037  1.00  0.00    -0.000 C 
BRANCH  11  12
ATOM     12  C   UNL     1      10.310 -30.098 -28.072  1.00  0.00    -0.000 C 
BRANCH  12  13
ATOM     13  C   UNL     1      11.632 -29.598 -27.468  1.00  0.00    -0.000 C 
BRANCH  13  14
ATOM     14  C   UNL     1      11.552 -28.139 -26.998  1.00  0.00    -0.000 C 
BRANCH  14  15
ATOM     15  C   UNL     1      12.570 -27.266 -27.742  1.00  0.00    -0.000 C 
BRANCH  15  16
ATOM     16  C   UNL     1      12.304 -25.776 -27.492  1.00  0.00    -0.003 C 
ATOM     17  C   UNL     1      10.879 -25.546 -26.999  1.00  0.00     0.004 C 
ENDBRANCH  15  16
ENDBRANCH  14  15
ENDBRANCH  13  14
ENDBRANCH  12  13
ENDBRANCH  11  12
ENDBRANCH  10  11
ENDBRANCH   1  10
TORSDOF 13
ENDMDL
