MODEL 1
REMARK VINA RESULT:    -4.063      0.000      0.000
REMARK INTER + INTRA:          -5.443
REMARK INTER:                  -5.250
REMARK INTRA:                  -0.193
REMARK UNBOUND:                -0.193
REMARK SMILES CCCCCCC(C)=O
REMARK SMILES IDX 4 1 3 2 2 3 1 4 5 5 6 6 7 7 9 8 8 9
REMARK H PARENT
REMARK Flexibility Score: inf
ROOT
ATOM      1  C   UNL     1      26.231  59.101  -9.378  1.00  0.00     0.000 C 
ENDROOT
BRANCH   1   2
ATOM      2  C   UNL     1      27.105  58.607 -10.537  1.00  0.00    -0.000 C 
BRANCH   2   3
ATOM      3  C   UNL     1      28.492  59.261 -10.498  1.00  0.00    -0.003 C 
ATOM      4  C   UNL     1      28.394  60.772 -10.684  1.00  0.00     0.004 C 
ENDBRANCH   2   3
ENDBRANCH   1   2
BRANCH   1   5
ATOM      5  C   UNL     1      25.210  58.034  -8.965  1.00  0.00     0.008 C 
BRANCH   5   6
ATOM      6  C   UNL     1      25.711  56.626  -9.317  1.00  0.00     0.075 C 
BRANCH   6   7
ATOM      7  C   UNL     1      25.118  55.550  -8.439  1.00  0.00     0.129 C 
ATOM      8  O   UNL     1      25.830  54.721  -7.892  1.00  0.00    -0.300 OA
ATOM      9  C   UNL     1      23.636  55.488  -8.228  1.00  0.00     0.087 C 
ENDBRANCH   6   7
ENDBRANCH   5   6
ENDBRANCH   1   5
TORSDOF 5
ENDMDL
MODEL 2
REMARK VINA RESULT:    -4.055      1.942      5.546
REMARK INTER + INTRA:          -5.433
REMARK INTER:                  -5.316
REMARK INTRA:                  -0.117
REMARK UNBOUND:                -0.193
REMARK SMILES CCCCCCC(C)=O
REMARK SMILES IDX 4 1 3 2 2 3 1 4 5 5 6 6 7 7 9 8 8 9
REMARK H PARENT
REMARK Flexibility Score: inf
ROOT
ATOM      1  C   UNL     1      24.694  55.980  -7.826  1.00  0.00     0.000 C 
ENDROOT
BRANCH   1   2
ATOM      2  C   UNL     1      23.826  54.822  -8.334  1.00  0.00    -0.000 C 
BRANCH   2   3
ATOM      3  C   UNL     1      22.528  54.710  -7.524  1.00  0.00    -0.003 C 
ATOM      4  C   UNL     1      22.819  54.457  -6.048  1.00  0.00     0.004 C 
ENDBRANCH   2   3
ENDBRANCH   1   2
BRANCH   1   5
ATOM      5  C   UNL     1      25.540  56.572  -8.959  1.00  0.00     0.008 C 
BRANCH   5   6
ATOM      6  C   UNL     1      25.446  58.104  -8.974  1.00  0.00     0.075 C 
BRANCH   6   7
ATOM      7  C   UNL     1      26.542  58.757  -9.783  1.00  0.00     0.129 C 
ATOM      8  O   UNL     1      27.043  58.186 -10.741  1.00  0.00    -0.300 OA
ATOM      9  C   UNL     1      27.031  60.125  -9.415  1.00  0.00     0.087 C 
ENDBRANCH   6   7
ENDBRANCH   5   6
ENDBRANCH   1   5
TORSDOF 5
ENDMDL
MODEL 3
REMARK VINA RESULT:    -4.031      2.183      5.117
REMARK INTER + INTRA:          -5.402
REMARK INTER:                  -5.221
REMARK INTRA:                  -0.182
REMARK UNBOUND:                -0.193
REMARK SMILES CCCCCCC(C)=O
REMARK SMILES IDX 4 1 3 2 2 3 1 4 5 5 6 6 7 7 9 8 8 9
REMARK H PARENT
REMARK Flexibility Score: inf
ROOT
ATOM      1  C   UNL     1      25.137  58.092  -8.993  1.00  0.00     0.000 C 
ENDROOT
BRANCH   1   2
ATOM      2  C   UNL     1      25.617  56.646  -9.160  1.00  0.00    -0.000 C 
BRANCH   2   3
ATOM      3  C   UNL     1      25.158  55.775  -7.984  1.00  0.00    -0.003 C 
ATOM      4  C   UNL     1      23.842  55.070  -8.301  1.00  0.00     0.004 C 
ENDBRANCH   2   3
ENDBRANCH   1   2
BRANCH   1   5
ATOM      5  C   UNL     1      26.244  59.086  -9.367  1.00  0.00     0.008 C 
BRANCH   5   6
ATOM      6  C   UNL     1      27.150  58.514 -10.467  1.00  0.00     0.075 C 
BRANCH   6   7
ATOM      7  C   UNL     1      28.351  59.382 -10.756  1.00  0.00     0.129 C 
ATOM      8  O   UNL     1      29.311  58.944 -11.373  1.00  0.00    -0.300 OA
ATOM      9  C   UNL     1      28.378  60.805 -10.286  1.00  0.00     0.087 C 
ENDBRANCH   6   7
ENDBRANCH   5   6
ENDBRANCH   1   5
TORSDOF 5
ENDMDL
MODEL 4
REMARK VINA RESULT:    -3.747     17.226     19.508
REMARK INTER + INTRA:          -5.036
REMARK INTER:                  -4.508
REMARK INTRA:                  -0.528
REMARK UNBOUND:                -0.193
REMARK SMILES CCCCCCC(C)=O
REMARK SMILES IDX 4 1 3 2 2 3 1 4 5 5 6 6 7 7 9 8 8 9
REMARK H PARENT
REMARK Flexibility Score: inf
ROOT
ATOM      1  C   UNL     1      17.217  42.105   1.132  1.00  0.00     0.000 C 
ENDROOT
BRANCH   1   2
ATOM      2  C   UNL     1      15.922  42.849   0.787  1.00  0.00    -0.000 C 
BRANCH   2   3
ATOM      3  C   UNL     1      15.903  44.244   1.425  1.00  0.00    -0.003 C 
ATOM      4  C   UNL     1      15.319  45.280   0.469  1.00  0.00     0.004 C 
ENDBRANCH   2   3
ENDBRANCH   1   2
BRANCH   1   5
ATOM      5  C   UNL     1      18.201  42.140  -0.044  1.00  0.00     0.008 C 
BRANCH   5   6
ATOM      6  C   UNL     1      19.570  42.677   0.398  1.00  0.00     0.075 C 
BRANCH   6   7
ATOM      7  C   UNL     1      19.538  44.138   0.778  1.00  0.00     0.129 C 
ATOM      8  O   UNL     1      19.780  44.496   1.922  1.00  0.00    -0.300 OA
ATOM      9  C   UNL     1      19.208  45.173  -0.254  1.00  0.00     0.087 C 
ENDBRANCH   6   7
ENDBRANCH   5   6
ENDBRANCH   1   5
TORSDOF 5
ENDMDL
MODEL 5
REMARK VINA RESULT:    -3.708     17.526     18.985
REMARK INTER + INTRA:          -4.985
REMARK INTER:                  -4.718
REMARK INTRA:                  -0.267
REMARK UNBOUND:                -0.193
REMARK SMILES CCCCCCC(C)=O
REMARK SMILES IDX 4 1 3 2 2 3 1 4 5 5 6 6 7 7 9 8 8 9
REMARK H PARENT
REMARK Flexibility Score: inf
ROOT
ATOM      1  C   UNL     1      17.634  45.394  -0.340  1.00  0.00     0.000 C 
ENDROOT
BRANCH   1   2
ATOM      2  C   UNL     1      16.740  44.159  -0.176  1.00  0.00    -0.000 C 
BRANCH   2   3
ATOM      3  C   UNL     1      15.942  44.228   1.132  1.00  0.00    -0.003 C 
ATOM      4  C   UNL     1      14.881  45.323   1.074  1.00  0.00     0.004 C 
ENDBRANCH   2   3
ENDBRANCH   1   2
BRANCH   1   5
ATOM      5  C   UNL     1      19.118  45.009  -0.302  1.00  0.00     0.008 C 
BRANCH   5   6
ATOM      6  C   UNL     1      19.549  44.617   1.119  1.00  0.00     0.075 C 
BRANCH   6   7
ATOM      7  C   UNL     1      19.770  43.133   1.283  1.00  0.00     0.129 C 
ATOM      8  O   UNL     1      19.068  42.471   2.034  1.00  0.00    -0.300 OA
ATOM      9  C   UNL     1      20.863  42.449   0.518  1.00  0.00     0.087 C 
ENDBRANCH   6   7
ENDBRANCH   5   6
ENDBRANCH   1   5
TORSDOF 5
ENDMDL
MODEL 6
REMARK VINA RESULT:    -3.634     17.095     19.217
REMARK INTER + INTRA:          -4.889
REMARK INTER:                  -4.400
REMARK INTRA:                  -0.489
REMARK UNBOUND:                -0.193
REMARK SMILES CCCCCCC(C)=O
REMARK SMILES IDX 4 1 3 2 2 3 1 4 5 5 6 6 7 7 9 8 8 9
REMARK H PARENT
REMARK Flexibility Score: inf
ROOT
ATOM      1  C   UNL     1      15.808  43.161   1.035  1.00  0.00     0.000 C 
ENDROOT
BRANCH   1   2
ATOM      2  C   UNL     1      15.719  44.654   1.370  1.00  0.00    -0.000 C 
BRANCH   2   3
ATOM      3  C   UNL     1      14.891  45.405   0.319  1.00  0.00    -0.003 C 
ATOM      4  C   UNL     1      15.663  45.554  -0.988  1.00  0.00     0.004 C 
ENDBRANCH   2   3
ENDBRANCH   1   2
BRANCH   1   5
ATOM      5  C   UNL     1      17.259  42.668   1.096  1.00  0.00     0.008 C 
BRANCH   5   6
ATOM      6  C   UNL     1      18.203  43.792   1.548  1.00  0.00     0.075 C 
BRANCH   6   7
ATOM      7  C   UNL     1      19.326  44.050   0.571  1.00  0.00     0.129 C 
ATOM      8  O   UNL     1      20.276  43.285   0.487  1.00  0.00    -0.300 OA
ATOM      9  C   UNL     1      19.285  45.259  -0.314  1.00  0.00     0.087 C 
ENDBRANCH   6   7
ENDBRANCH   5   6
ENDBRANCH   1   5
TORSDOF 5
ENDMDL
MODEL 7
REMARK VINA RESULT:    -3.482     17.257     19.181
REMARK INTER + INTRA:          -4.693
REMARK INTER:                  -4.196
REMARK INTRA:                  -0.497
REMARK UNBOUND:                -0.193
REMARK SMILES CCCCCCC(C)=O
REMARK SMILES IDX 4 1 3 2 2 3 1 4 5 5 6 6 7 7 9 8 8 9
REMARK H PARENT
REMARK Flexibility Score: inf
ROOT
ATOM      1  C   UNL     1      17.480  42.533   1.133  1.00  0.00     0.000 C 
ENDROOT
BRANCH   1   2
ATOM      2  C   UNL     1      18.426  42.913  -0.013  1.00  0.00    -0.000 C 
BRANCH   2   3
ATOM      3  C   UNL     1      19.448  43.962   0.442  1.00  0.00    -0.003 C 
ATOM      4  C   UNL     1      19.297  45.257  -0.350  1.00  0.00     0.004 C 
ENDBRANCH   2   3
ENDBRANCH   1   2
BRANCH   1   5
ATOM      5  C   UNL     1      16.055  43.027   0.857  1.00  0.00     0.008 C 
BRANCH   5   6
ATOM      6  C   UNL     1      15.848  44.448   1.401  1.00  0.00     0.075 C 
BRANCH   6   7
ATOM      7  C   UNL     1      15.141  45.358   0.425  1.00  0.00     0.129 C 
ATOM      8  O   UNL     1      14.132  45.967   0.751  1.00  0.00    -0.300 OA
ATOM      9  C   UNL     1      15.676  45.527  -0.965  1.00  0.00     0.087 C 
ENDBRANCH   6   7
ENDBRANCH   5   6
ENDBRANCH   1   5
TORSDOF 5
ENDMDL
MODEL 8
REMARK VINA RESULT:    -3.482     17.408     19.131
REMARK INTER + INTRA:          -4.693
REMARK INTER:                  -4.136
REMARK INTRA:                  -0.557
REMARK UNBOUND:                -0.193
REMARK SMILES CCCCCCC(C)=O
REMARK SMILES IDX 4 1 3 2 2 3 1 4 5 5 6 6 7 7 9 8 8 9
REMARK H PARENT
REMARK Flexibility Score: inf
ROOT
ATOM      1  C   UNL     1      18.325  42.503  -0.027  1.00  0.00     0.000 C 
ENDROOT
BRANCH   1   2
ATOM      2  C   UNL     1      19.067  42.771   1.288  1.00  0.00    -0.000 C 
BRANCH   2   3
ATOM      3  C   UNL     1      19.468  44.247   1.402  1.00  0.00    -0.003 C 
ATOM      4  C   UNL     1      19.451  44.930   0.038  1.00  0.00     0.004 C 
ENDBRANCH   2   3
ENDBRANCH   1   2
BRANCH   1   5
ATOM      5  C   UNL     1      16.821  42.328   0.215  1.00  0.00     0.008 C 
BRANCH   5   6
ATOM      6  C   UNL     1      16.003  43.244  -0.706  1.00  0.00     0.075 C 
BRANCH   6   7
ATOM      7  C   UNL     1      15.857  44.647  -0.168  1.00  0.00     0.129 C 
ATOM      8  O   UNL     1      16.095  45.619  -0.870  1.00  0.00    -0.300 OA
ATOM      9  C   UNL     1      15.413  44.864   1.247  1.00  0.00     0.087 C 
ENDBRANCH   6   7
ENDBRANCH   5   6
ENDBRANCH   1   5
TORSDOF 5
ENDMDL
MODEL 9
REMARK VINA RESULT:    -3.416      4.320      6.412
REMARK INTER + INTRA:          -4.608
REMARK INTER:                  -4.411
REMARK INTRA:                  -0.197
REMARK UNBOUND:                -0.193
REMARK SMILES CCCCCCC(C)=O
REMARK SMILES IDX 4 1 3 2 2 3 1 4 5 5 6 6 7 7 9 8 8 9
REMARK H PARENT
REMARK Flexibility Score: inf
ROOT
ATOM      1  C   UNL     1      30.072  59.255 -10.534  1.00  0.00     0.000 C 
ENDROOT
BRANCH   1   2
ATOM      2  C   UNL     1      28.654  59.786 -10.296  1.00  0.00    -0.000 C 
BRANCH   2   3
ATOM      3  C   UNL     1      27.604  58.826 -10.870  1.00  0.00    -0.003 C 
ATOM      4  C   UNL     1      26.620  58.378  -9.793  1.00  0.00     0.004 C 
ENDBRANCH   2   3
ENDBRANCH   1   2
BRANCH   1   5
ATOM      5  C   UNL     1      30.293  58.920 -12.014  1.00  0.00     0.008 C 
BRANCH   5   6
ATOM      6  C   UNL     1      31.753  58.522 -12.278  1.00  0.00     0.075 C 
BRANCH   6   7
ATOM      7  C   UNL     1      31.903  57.537 -13.412  1.00  0.00     0.129 C 
ATOM      8  O   UNL     1      32.813  57.642 -14.221  1.00  0.00    -0.300 OA
ATOM      9  C   UNL     1      30.928  56.408 -13.557  1.00  0.00     0.087 C 
ENDBRANCH   6   7
ENDBRANCH   5   6
ENDBRANCH   1   5
TORSDOF 5
ENDMDL
