MODEL 1
REMARK VINA RESULT:    -2.828      0.000      0.000
REMARK INTER + INTRA:          -3.429
REMARK INTER:                  -3.324
REMARK INTRA:                  -0.105
REMARK UNBOUND:                -0.105
REMARK SMILES CCCCC(=O)[O-]
REMARK SMILES IDX 4 1 5 2 6 3 7 4 3 5 2 6 1 7
REMARK H PARENT
REMARK Flexibility Score: inf
ROOT
ATOM      1  C   UNL     1     113.036  66.089 218.315  1.00  0.00     0.053 C 
ENDROOT
BRANCH   1   2
ATOM      2  C   UNL     1     113.459  67.022 217.222  1.00  0.00     0.041 C 
ATOM      3  O   UNL     1     113.239  68.258 217.324  1.00  0.00    -0.550 OA
ATOM      4  O   UNL     1     114.065  66.523 216.076  1.00  0.00    -0.550 OA
ENDBRANCH   1   2
BRANCH   1   5
ATOM      5  C   UNL     1     111.708  65.393 217.989  1.00  0.00     0.006 C 
BRANCH   5   6
ATOM      6  C   UNL     1     111.916  63.988 217.404  1.00  0.00    -0.003 C 
ATOM      7  C   UNL     1     111.343  63.889 215.994  1.00  0.00     0.004 C 
ENDBRANCH   5   6
ENDBRANCH   1   5
TORSDOF 3
ENDMDL
MODEL 2
REMARK VINA RESULT:    -2.805      0.144      1.233
REMARK INTER + INTRA:          -3.403
REMARK INTER:                  -3.291
REMARK INTRA:                  -0.112
REMARK UNBOUND:                -0.105
REMARK SMILES CCCCC(=O)[O-]
REMARK SMILES IDX 4 1 5 2 6 3 7 4 3 5 2 6 1 7
REMARK H PARENT
REMARK Flexibility Score: inf
ROOT
ATOM      1  C   UNL     1     113.086  65.930 218.197  1.00  0.00     0.053 C 
ENDROOT
BRANCH   1   2
ATOM      2  C   UNL     1     113.483  66.908 217.135  1.00  0.00     0.041 C 
ATOM      3  O   UNL     1     114.071  66.511 216.094  1.00  0.00    -0.550 OA
ATOM      4  O   UNL     1     113.233  68.264 217.308  1.00  0.00    -0.550 OA
ENDBRANCH   1   2
BRANCH   1   5
ATOM      5  C   UNL     1     111.712  65.308 217.915  1.00  0.00     0.006 C 
BRANCH   5   6
ATOM      6  C   UNL     1     111.825  63.912 217.285  1.00  0.00    -0.003 C 
ATOM      7  C   UNL     1     111.425  63.938 215.814  1.00  0.00     0.004 C 
ENDBRANCH   5   6
ENDBRANCH   1   5
TORSDOF 3
ENDMDL
MODEL 3
REMARK VINA RESULT:    -2.648      1.225      1.946
REMARK INTER + INTRA:          -3.217
REMARK INTER:                  -3.148
REMARK INTRA:                  -0.070
REMARK UNBOUND:                -0.105
REMARK SMILES CCCCC(=O)[O-]
REMARK SMILES IDX 4 1 5 2 6 3 7 4 3 5 2 6 1 7
REMARK H PARENT
REMARK Flexibility Score: inf
ROOT
ATOM      1  C   UNL     1     112.313  65.616 217.027  1.00  0.00     0.053 C 
ENDROOT
BRANCH   1   2
ATOM      2  C   UNL     1     113.469  66.546 216.824  1.00  0.00     0.041 C 
ATOM      3  O   UNL     1     114.571  66.105 216.406  1.00  0.00    -0.550 OA
ATOM      4  O   UNL     1     113.338  67.896 217.129  1.00  0.00    -0.550 OA
ENDBRANCH   1   2
BRANCH   1   5
ATOM      5  C   UNL     1     111.794  65.657 218.471  1.00  0.00     0.006 C 
BRANCH   5   6
ATOM      6  C   UNL     1     112.389  64.534 219.333  1.00  0.00    -0.003 C 
ATOM      7  C   UNL     1     112.205  63.174 218.668  1.00  0.00     0.004 C 
ENDBRANCH   5   6
ENDBRANCH   1   5
TORSDOF 3
ENDMDL
MODEL 4
REMARK VINA RESULT:    -2.581     21.228     22.054
REMARK INTER + INTRA:          -3.139
REMARK INTER:                  -3.106
REMARK INTRA:                  -0.033
REMARK UNBOUND:                -0.105
REMARK SMILES CCCCC(=O)[O-]
REMARK SMILES IDX 4 1 5 2 6 3 7 4 3 5 2 6 1 7
REMARK H PARENT
REMARK Flexibility Score: inf
ROOT
ATOM      1  C   UNL     1     107.325  50.492 231.399  1.00  0.00     0.053 C 
ENDROOT
BRANCH   1   2
ATOM      2  C   UNL     1     106.510  50.190 230.180  1.00  0.00     0.041 C 
ATOM      3  O   UNL     1     106.137  49.011 229.942  1.00  0.00    -0.550 OA
ATOM      4  O   UNL     1     106.189  51.206 229.287  1.00  0.00    -0.550 OA
ENDBRANCH   1   2
BRANCH   1   5
ATOM      5  C   UNL     1     108.160  49.282 231.841  1.00  0.00     0.006 C 
BRANCH   5   6
ATOM      6  C   UNL     1     109.177  49.645 232.933  1.00  0.00    -0.003 C 
ATOM      7  C   UNL     1     108.749  50.900 233.686  1.00  0.00     0.004 C 
ENDBRANCH   5   6
ENDBRANCH   1   5
TORSDOF 3
ENDMDL
MODEL 5
REMARK VINA RESULT:    -2.546     22.063     22.827
REMARK INTER + INTRA:          -3.098
REMARK INTER:                  -3.002
REMARK INTRA:                  -0.097
REMARK UNBOUND:                -0.105
REMARK SMILES CCCCC(=O)[O-]
REMARK SMILES IDX 4 1 5 2 6 3 7 4 3 5 2 6 1 7
REMARK H PARENT
REMARK Flexibility Score: inf
ROOT
ATOM      1  C   UNL     1     108.130  49.427 231.830  1.00  0.00     0.053 C 
ENDROOT
BRANCH   1   2
ATOM      2  C   UNL     1     107.709  49.092 233.228  1.00  0.00     0.041 C 
ATOM      3  O   UNL     1     108.575  48.875 234.116  1.00  0.00    -0.550 OA
ATOM      4  O   UNL     1     106.360  48.988 233.543  1.00  0.00    -0.550 OA
ENDBRANCH   1   2
BRANCH   1   5
ATOM      5  C   UNL     1     106.932  49.483 230.872  1.00  0.00     0.006 C 
BRANCH   5   6
ATOM      6  C   UNL     1     106.825  50.837 230.155  1.00  0.00    -0.003 C 
ATOM      7  C   UNL     1     106.153  51.878 231.043  1.00  0.00     0.004 C 
ENDBRANCH   5   6
ENDBRANCH   1   5
TORSDOF 3
ENDMDL
MODEL 6
REMARK VINA RESULT:    -2.536     11.975     12.809
REMARK INTER + INTRA:          -3.086
REMARK INTER:                  -3.037
REMARK INTRA:                  -0.049
REMARK UNBOUND:                -0.105
REMARK SMILES CCCCC(=O)[O-]
REMARK SMILES IDX 4 1 5 2 6 3 7 4 3 5 2 6 1 7
REMARK H PARENT
REMARK Flexibility Score: inf
ROOT
ATOM      1  C   UNL     1     101.760  59.071 219.082  1.00  0.00     0.053 C 
ENDROOT
BRANCH   1   2
ATOM      2  C   UNL     1     100.755  60.108 219.480  1.00  0.00     0.041 C 
ATOM      3  O   UNL     1     101.113  61.303 219.654  1.00  0.00    -0.550 OA
ATOM      4  O   UNL     1      99.430  59.749 219.692  1.00  0.00    -0.550 OA
ENDBRANCH   1   2
BRANCH   1   5
ATOM      5  C   UNL     1     102.888  58.944 220.114  1.00  0.00     0.006 C 
BRANCH   5   6
ATOM      6  C   UNL     1     104.198  59.578 219.623  1.00  0.00    -0.003 C 
ATOM      7  C   UNL     1     104.860  58.715 218.554  1.00  0.00     0.004 C 
ENDBRANCH   5   6
ENDBRANCH   1   5
TORSDOF 3
ENDMDL
MODEL 7
REMARK VINA RESULT:    -2.530     13.093     13.998
REMARK INTER + INTRA:          -3.079
REMARK INTER:                  -2.998
REMARK INTRA:                  -0.081
REMARK UNBOUND:                -0.105
REMARK SMILES CCCCC(=O)[O-]
REMARK SMILES IDX 4 1 5 2 6 3 7 4 3 5 2 6 1 7
REMARK H PARENT
REMARK Flexibility Score: inf
ROOT
ATOM      1  C   UNL     1      99.852  60.164 217.613  1.00  0.00     0.053 C 
ENDROOT
BRANCH   1   2
ATOM      2  C   UNL     1     100.106  60.239 219.087  1.00  0.00     0.041 C 
ATOM      3  O   UNL     1     101.065  60.925 219.531  1.00  0.00    -0.550 OA
ATOM      4  O   UNL     1      99.304  59.526 219.970  1.00  0.00    -0.550 OA
ENDBRANCH   1   2
BRANCH   1   5
ATOM      5  C   UNL     1      99.973  58.728 217.086  1.00  0.00     0.006 C 
BRANCH   5   6
ATOM      6  C   UNL     1     101.293  58.494 216.337  1.00  0.00    -0.003 C 
ATOM      7  C   UNL     1     102.349  57.892 217.258  1.00  0.00     0.004 C 
ENDBRANCH   5   6
ENDBRANCH   1   5
TORSDOF 3
ENDMDL
MODEL 8
REMARK VINA RESULT:    -2.493     13.722     14.652
REMARK INTER + INTRA:          -3.036
REMARK INTER:                  -2.929
REMARK INTRA:                  -0.107
REMARK UNBOUND:                -0.105
REMARK SMILES CCCCC(=O)[O-]
REMARK SMILES IDX 4 1 5 2 6 3 7 4 3 5 2 6 1 7
REMARK H PARENT
REMARK Flexibility Score: inf
ROOT
ATOM      1  C   UNL     1     100.882  59.143 218.128  1.00  0.00     0.053 C 
ENDROOT
BRANCH   1   2
ATOM      2  C   UNL     1     100.390  59.956 219.286  1.00  0.00     0.041 C 
ATOM      3  O   UNL     1      99.334  59.628 219.888  1.00  0.00    -0.550 OA
ATOM      4  O   UNL     1     101.080  61.096 219.680  1.00  0.00    -0.550 OA
ENDBRANCH   1   2
BRANCH   1   5
ATOM      5  C   UNL     1      99.781  58.912 217.085  1.00  0.00     0.006 C 
BRANCH   5   6
ATOM      6  C   UNL     1      99.561  57.420 216.793  1.00  0.00    -0.003 C 
ATOM      7  C   UNL     1      98.639  56.787 217.831  1.00  0.00     0.004 C 
ENDBRANCH   5   6
ENDBRANCH   1   5
TORSDOF 3
ENDMDL
MODEL 9
REMARK VINA RESULT:    -2.432     13.300     14.104
REMARK INTER + INTRA:          -2.963
REMARK INTER:                  -2.884
REMARK INTRA:                  -0.079
REMARK UNBOUND:                -0.105
REMARK SMILES CCCCC(=O)[O-]
REMARK SMILES IDX 4 1 5 2 6 3 7 4 3 5 2 6 1 7
REMARK H PARENT
REMARK Flexibility Score: inf
ROOT
ATOM      1  C   UNL     1     101.209  58.555 219.807  1.00  0.00     0.053 C 
ENDROOT
BRANCH   1   2
ATOM      2  C   UNL     1     101.927  59.869 219.776  1.00  0.00     0.041 C 
ATOM      3  O   UNL     1     103.185  59.904 219.800  1.00  0.00    -0.550 OA
ATOM      4  O   UNL     1     101.206  61.057 219.753  1.00  0.00    -0.550 OA
ENDBRANCH   1   2
BRANCH   1   5
ATOM      5  C   UNL     1      99.752  58.690 219.345  1.00  0.00     0.006 C 
BRANCH   5   6
ATOM      6  C   UNL     1      98.755  58.280 220.438  1.00  0.00    -0.003 C 
ATOM      7  C   UNL     1      99.461  57.567 221.587  1.00  0.00     0.004 C 
ENDBRANCH   5   6
ENDBRANCH   1   5
TORSDOF 3
ENDMDL
