MODEL 1
REMARK VINA RESULT:    -5.080      0.000      0.000
REMARK INTER + INTRA:          -6.132
REMARK INTER:                  -5.822
REMARK INTRA:                  -0.310
REMARK UNBOUND:                -0.310
REMARK SMILES O=C1C[C@@H](c2ccc(O)cc2)Oc2cc(O)cc(O)c21
REMARK SMILES IDX 3 1 4 2 12 3 13 4 14 5 15 6 17 7 18 8 20 9 2 10 1 11 5 12
REMARK SMILES IDX 6 13 11 14 7 15 10 16 8 17 9 18 19 20 16 22
REMARK H PARENT 9 19 19 21 16 23
REMARK Flexibility Score: inf
ROOT
ATOM      1  C   UNL     1       3.128  50.114 283.089  1.00  0.00     0.131 C 
ATOM      2  C   UNL     1       4.120  48.971 282.845  1.00  0.00     0.211 C 
ATOM      3  O   UNL     1       4.035  48.528 281.492  1.00  0.00    -0.484 OA
ATOM      4  C   UNL     1       3.986  49.431 280.423  1.00  0.00     0.138 A 
ATOM      5  C   UNL     1       4.226  48.959 279.131  1.00  0.00     0.093 A 
ATOM      6  C   UNL     1       4.212  49.834 278.047  1.00  0.00     0.123 A 
ATOM      7  C   UNL     1       3.973  51.194 278.259  1.00  0.00     0.093 A 
ATOM      8  C   UNL     1       3.737  51.693 279.546  1.00  0.00     0.133 A 
ATOM      9  C   UNL     1       3.692  50.794 280.649  1.00  0.00     0.102 A 
ATOM     10  C   UNL     1       3.271  51.174 282.030  1.00  0.00     0.174 C 
ATOM     11  O   UNL     1       2.920  52.346 282.317  1.00  0.00    -0.294 OA
ENDROOT
BRANCH   2  12
ATOM     12  C   UNL     1       3.855  47.821 283.786  1.00  0.00    -0.007 A 
ATOM     13  C   UNL     1       3.654  48.051 285.160  1.00  0.00     0.011 A 
ATOM     14  C   UNL     1       3.861  46.501 283.308  1.00  0.00     0.011 A 
ATOM     15  C   UNL     1       3.438  46.980 286.031  1.00  0.00     0.046 A 
ATOM     16  C   UNL     1       3.646  45.430 284.183  1.00  0.00     0.046 A 
ATOM     17  C   UNL     1       3.433  45.666 285.544  1.00  0.00     0.115 A 
BRANCH  17  18
ATOM     18  O   UNL     1       3.219  44.591 286.403  1.00  0.00    -0.508 OA
ATOM     19  H   UNL     1       3.163  44.718 287.407  1.00  0.00     0.293 HD
ENDBRANCH  17  18
ENDBRANCH   2  12
BRANCH   8  20
ATOM     20  O   UNL     1       3.573  53.075 279.667  1.00  0.00    -0.507 OA
ATOM     21  H   UNL     1       2.704  53.563 279.516  1.00  0.00     0.293 HD
ENDBRANCH   8  20
BRANCH   6  22
ATOM     22  O   UNL     1       4.449  49.344 276.765  1.00  0.00    -0.508 OA
ATOM     23  H   UNL     1       4.065  49.799 275.945  1.00  0.00     0.293 HD
ENDBRANCH   6  22
TORSDOF 4
ENDMDL
MODEL 2
REMARK VINA RESULT:    -5.021      1.824      7.257
REMARK INTER + INTRA:          -6.065
REMARK INTER:                  -5.756
REMARK INTRA:                  -0.309
REMARK UNBOUND:                -0.310
REMARK SMILES O=C1C[C@@H](c2ccc(O)cc2)Oc2cc(O)cc(O)c21
REMARK SMILES IDX 3 1 4 2 12 3 13 4 14 5 15 6 17 7 18 8 20 9 2 10 1 11 5 12
REMARK SMILES IDX 6 13 11 14 7 15 10 16 8 17 9 18 19 20 16 22
REMARK H PARENT 9 19 19 21 16 23
REMARK Flexibility Score: inf
ROOT
ATOM      1  C   UNL     1       3.734  48.415 281.409  1.00  0.00     0.131 C 
ATOM      2  C   UNL     1       4.390  49.716 281.884  1.00  0.00     0.211 C 
ATOM      3  O   UNL     1       3.815  50.131 283.122  1.00  0.00    -0.484 OA
ATOM      4  C   UNL     1       3.593  49.231 284.170  1.00  0.00     0.138 A 
ATOM      5  C   UNL     1       3.336  49.734 285.447  1.00  0.00     0.093 A 
ATOM      6  C   UNL     1       3.137  48.866 286.519  1.00  0.00     0.123 A 
ATOM      7  C   UNL     1       3.212  47.485 286.316  1.00  0.00     0.093 A 
ATOM      8  C   UNL     1       3.476  46.957 285.046  1.00  0.00     0.133 A 
ATOM      9  C   UNL     1       3.621  47.837 283.936  1.00  0.00     0.102 A 
ATOM     10  C   UNL     1       3.721  47.394 282.514  1.00  0.00     0.174 C 
ATOM     11  O   UNL     1       3.683  46.178 282.196  1.00  0.00    -0.294 OA
ENDROOT
BRANCH   2  12
ATOM     12  C   UNL     1       4.236  50.803 280.849  1.00  0.00    -0.007 A 
ATOM     13  C   UNL     1       4.384  50.514 279.479  1.00  0.00     0.011 A 
ATOM     14  C   UNL     1       3.998  52.129 281.246  1.00  0.00     0.011 A 
ATOM     15  C   UNL     1       4.271  51.531 278.527  1.00  0.00     0.046 A 
ATOM     16  C   UNL     1       3.886  53.144 280.290  1.00  0.00     0.046 A 
ATOM     17  C   UNL     1       4.020  52.849 278.930  1.00  0.00     0.115 A 
BRANCH  17  18
ATOM     18  O   UNL     1       3.904  53.870 277.990  1.00  0.00    -0.508 OA
ATOM     19  H   UNL     1       4.429  53.854 277.124  1.00  0.00     0.293 HD
ENDBRANCH  17  18
ENDBRANCH   2  12
BRANCH   8  20
ATOM     20  O   UNL     1       3.597  45.569 284.952  1.00  0.00    -0.507 OA
ATOM     21  H   UNL     1       3.735  44.952 285.739  1.00  0.00     0.293 HD
ENDBRANCH   8  20
BRANCH   6  22
ATOM     22  O   UNL     1       2.877  49.386 287.785  1.00  0.00    -0.508 OA
ATOM     23  H   UNL     1       2.398  50.270 287.906  1.00  0.00     0.293 HD
ENDBRANCH   6  22
TORSDOF 4
ENDMDL
MODEL 3
REMARK VINA RESULT:    -4.966      2.103      6.672
REMARK INTER + INTRA:          -6.002
REMARK INTER:                  -5.705
REMARK INTRA:                  -0.297
REMARK UNBOUND:                -0.310
REMARK SMILES O=C1C[C@@H](c2ccc(O)cc2)Oc2cc(O)cc(O)c21
REMARK SMILES IDX 3 1 4 2 12 3 13 4 14 5 15 6 17 7 18 8 20 9 2 10 1 11 5 12
REMARK SMILES IDX 6 13 11 14 7 15 10 16 8 17 9 18 19 20 16 22
REMARK H PARENT 9 19 19 21 16 23
REMARK Flexibility Score: inf
ROOT
ATOM      1  C   UNL     1       3.909  49.737 284.470  1.00  0.00     0.131 C 
ATOM      2  C   UNL     1       3.121  49.694 283.155  1.00  0.00     0.211 C 
ATOM      3  O   UNL     1       3.308  48.434 282.513  1.00  0.00    -0.484 OA
ATOM      4  C   UNL     1       3.234  47.229 283.221  1.00  0.00     0.138 A 
ATOM      5  C   UNL     1       3.103  46.036 282.507  1.00  0.00     0.093 A 
ATOM      6  C   UNL     1       3.000  44.820 283.180  1.00  0.00     0.123 A 
ATOM      7  C   UNL     1       3.011  44.798 284.578  1.00  0.00     0.093 A 
ATOM      8  C   UNL     1       3.133  45.982 285.316  1.00  0.00     0.133 A 
ATOM      9  C   UNL     1       3.299  47.221 284.633  1.00  0.00     0.102 A 
ATOM     10  C   UNL     1       3.621  48.517 285.300  1.00  0.00     0.174 C 
ATOM     11  O   UNL     1       3.770  48.600 286.546  1.00  0.00    -0.294 OA
ENDROOT
BRANCH   2  12
ATOM     12  C   UNL     1       3.547  50.813 282.237  1.00  0.00    -0.007 A 
ATOM     13  C   UNL     1       4.654  50.656 281.382  1.00  0.00     0.011 A 
ATOM     14  C   UNL     1       2.876  52.047 282.267  1.00  0.00     0.011 A 
ATOM     15  C   UNL     1       5.062  51.707 280.556  1.00  0.00     0.046 A 
ATOM     16  C   UNL     1       3.287  53.096 281.440  1.00  0.00     0.046 A 
ATOM     17  C   UNL     1       4.379  52.930 280.582  1.00  0.00     0.115 A 
BRANCH  17  18
ATOM     18  O   UNL     1       4.776  53.984 279.763  1.00  0.00    -0.508 OA
ATOM     19  H   UNL     1       5.621  54.510 279.951  1.00  0.00     0.293 HD
ENDBRANCH  17  18
ENDBRANCH   2  12
BRANCH   8  20
ATOM     20  O   UNL     1       3.069  45.869 286.706  1.00  0.00    -0.507 OA
ATOM     21  H   UNL     1       2.878  46.634 287.335  1.00  0.00     0.293 HD
ENDBRANCH   8  20
BRANCH   6  22
ATOM     22  O   UNL     1       2.876  43.639 282.451  1.00  0.00    -0.508 OA
ATOM     23  H   UNL     1       3.302  42.775 282.765  1.00  0.00     0.293 HD
ENDBRANCH   6  22
TORSDOF 4
ENDMDL
MODEL 4
REMARK VINA RESULT:    -4.950      1.855      7.038
REMARK INTER + INTRA:          -5.983
REMARK INTER:                  -5.672
REMARK INTRA:                  -0.311
REMARK UNBOUND:                -0.310
REMARK SMILES O=C1C[C@@H](c2ccc(O)cc2)Oc2cc(O)cc(O)c21
REMARK SMILES IDX 3 1 4 2 12 3 13 4 14 5 15 6 17 7 18 8 20 9 2 10 1 11 5 12
REMARK SMILES IDX 6 13 11 14 7 15 10 16 8 17 9 18 19 20 16 22
REMARK H PARENT 9 19 19 21 16 23
REMARK Flexibility Score: inf
ROOT
ATOM      1  C   UNL     1       3.827  48.827 284.520  1.00  0.00     0.131 C 
ATOM      2  C   UNL     1       3.105  48.203 283.321  1.00  0.00     0.211 C 
ATOM      3  O   UNL     1       3.322  46.793 283.298  1.00  0.00    -0.484 OA
ATOM      4  C   UNL     1       3.212  46.012 284.453  1.00  0.00     0.138 A 
ATOM      5  C   UNL     1       3.115  44.625 284.322  1.00  0.00     0.093 A 
ATOM      6  C   UNL     1       2.978  43.819 285.451  1.00  0.00     0.123 A 
ATOM      7  C   UNL     1       2.921  44.404 286.718  1.00  0.00     0.093 A 
ATOM      8  C   UNL     1       3.008  45.793 286.875  1.00  0.00     0.133 A 
ATOM      9  C   UNL     1       3.208  46.617 285.731  1.00  0.00     0.102 A 
ATOM     10  C   UNL     1       3.498  48.081 285.784  1.00  0.00     0.174 C 
ATOM     11  O   UNL     1       3.586  48.698 286.876  1.00  0.00    -0.294 OA
ENDROOT
BRANCH   2  12
ATOM     12  C   UNL     1       3.577  48.823 282.029  1.00  0.00    -0.007 A 
ATOM     13  C   UNL     1       3.958  50.177 281.981  1.00  0.00     0.011 A 
ATOM     14  C   UNL     1       3.587  48.068 280.845  1.00  0.00     0.011 A 
ATOM     15  C   UNL     1       4.366  50.754 280.775  1.00  0.00     0.046 A 
ATOM     16  C   UNL     1       3.995  48.648 279.639  1.00  0.00     0.046 A 
ATOM     17  C   UNL     1       4.386  49.990 279.601  1.00  0.00     0.115 A 
BRANCH  17  18
ATOM     18  O   UNL     1       4.791  50.554 278.393  1.00  0.00    -0.508 OA
ATOM     19  H   UNL     1       4.718  51.550 278.224  1.00  0.00     0.293 HD
ENDBRANCH  17  18
ENDBRANCH   2  12
BRANCH   8  20
ATOM     20  O   UNL     1       2.875  46.291 288.173  1.00  0.00    -0.507 OA
ATOM     21  H   UNL     1       1.995  46.504 288.617  1.00  0.00     0.293 HD
ENDBRANCH   8  20
BRANCH   6  22
ATOM     22  O   UNL     1       2.889  42.436 285.301  1.00  0.00    -0.508 OA
ATOM     23  H   UNL     1       2.986  41.810 286.091  1.00  0.00     0.293 HD
ENDBRANCH   6  22
TORSDOF 4
ENDMDL
MODEL 5
REMARK VINA RESULT:    -4.846      1.321      2.882
REMARK INTER + INTRA:          -5.864
REMARK INTER:                  -5.554
REMARK INTRA:                  -0.309
REMARK UNBOUND:                -0.310
REMARK SMILES O=C1C[C@@H](c2ccc(O)cc2)Oc2cc(O)cc(O)c21
REMARK SMILES IDX 3 1 4 2 12 3 13 4 14 5 15 6 17 7 18 8 20 9 2 10 1 11 5 12
REMARK SMILES IDX 6 13 11 14 7 15 10 16 8 17 9 18 19 20 16 22
REMARK H PARENT 9 19 19 21 16 23
REMARK Flexibility Score: inf
ROOT
ATOM      1  C   UNL     1       4.009  47.864 281.222  1.00  0.00     0.131 C 
ATOM      2  C   UNL     1       2.982  48.169 282.318  1.00  0.00     0.211 C 
ATOM      3  O   UNL     1       3.135  49.512 282.773  1.00  0.00    -0.484 OA
ATOM      4  C   UNL     1       3.298  50.578 281.882  1.00  0.00     0.138 A 
ATOM      5  C   UNL     1       3.122  51.881 282.350  1.00  0.00     0.093 A 
ATOM      6  C   UNL     1       3.250  52.965 281.484  1.00  0.00     0.123 A 
ATOM      7  C   UNL     1       3.540  52.743 280.135  1.00  0.00     0.093 A 
ATOM      8  C   UNL     1       3.713  51.445 279.639  1.00  0.00     0.133 A 
ATOM      9  C   UNL     1       3.642  50.338 280.532  1.00  0.00     0.102 A 
ATOM     10  C   UNL     1       3.988  48.933 280.164  1.00  0.00     0.174 C 
ATOM     11  O   UNL     1       4.375  48.628 279.007  1.00  0.00    -0.294 OA
ENDROOT
BRANCH   2  12
ATOM     12  C   UNL     1       3.128  47.208 283.472  1.00  0.00    -0.007 A 
ATOM     13  C   UNL     1       3.572  47.661 284.729  1.00  0.00     0.011 A 
ATOM     14  C   UNL     1       2.875  45.839 283.290  1.00  0.00     0.011 A 
ATOM     15  C   UNL     1       3.735  46.762 285.787  1.00  0.00     0.046 A 
ATOM     16  C   UNL     1       3.039  44.941 284.349  1.00  0.00     0.046 A 
ATOM     17  C   UNL     1       3.467  45.399 285.599  1.00  0.00     0.115 A 
BRANCH  17  18
ATOM     18  O   UNL     1       3.625  44.493 286.646  1.00  0.00    -0.508 OA
ATOM     19  H   UNL     1       3.894  43.531 286.477  1.00  0.00     0.293 HD
ENDBRANCH  17  18
ENDBRANCH   2  12
BRANCH   8  20
ATOM     20  O   UNL     1       3.935  51.318 278.266  1.00  0.00    -0.507 OA
ATOM     21  H   UNL     1       3.870  52.076 277.604  1.00  0.00     0.293 HD
ENDBRANCH   8  20
BRANCH   6  22
ATOM     22  O   UNL     1       3.076  54.259 281.971  1.00  0.00    -0.508 OA
ATOM     23  H   UNL     1       2.728  55.005 281.381  1.00  0.00     0.293 HD
ENDBRANCH   6  22
TORSDOF 4
ENDMDL
MODEL 6
REMARK VINA RESULT:    -4.512      1.859      3.398
REMARK INTER + INTRA:          -5.481
REMARK INTER:                  -5.170
REMARK INTRA:                  -0.311
REMARK UNBOUND:                -0.310
REMARK SMILES O=C1C[C@@H](c2ccc(O)cc2)Oc2cc(O)cc(O)c21
REMARK SMILES IDX 3 1 4 2 12 3 13 4 14 5 15 6 17 7 18 8 20 9 2 10 1 11 5 12
REMARK SMILES IDX 6 13 11 14 7 15 10 16 8 17 9 18 19 20 16 22
REMARK H PARENT 9 19 19 21 16 23
REMARK Flexibility Score: inf
ROOT
ATOM      1  C   UNL     1       3.774  48.501 282.337  1.00  0.00     0.131 C 
ATOM      2  C   UNL     1       2.946  49.618 282.981  1.00  0.00     0.211 C 
ATOM      3  O   UNL     1       3.454  50.893 282.591  1.00  0.00    -0.484 OA
ATOM      4  C   UNL     1       3.792  51.175 281.263  1.00  0.00     0.138 A 
ATOM      5  C   UNL     1       3.973  52.507 280.883  1.00  0.00     0.093 A 
ATOM      6  C   UNL     1       4.284  52.826 279.563  1.00  0.00     0.123 A 
ATOM      7  C   UNL     1       4.398  51.809 278.612  1.00  0.00     0.093 A 
ATOM      8  C   UNL     1       4.213  50.467 278.967  1.00  0.00     0.133 A 
ATOM      9  C   UNL     1       3.955  50.130 280.326  1.00  0.00     0.102 A 
ATOM     10  C   UNL     1       3.922  48.736 280.859  1.00  0.00     0.174 C 
ATOM     11  O   UNL     1       4.126  47.740 280.119  1.00  0.00    -0.294 OA
ENDROOT
BRANCH   2  12
ATOM     12  C   UNL     1       2.954  49.493 284.485  1.00  0.00    -0.007 A 
ATOM     13  C   UNL     1       2.956  48.227 285.099  1.00  0.00     0.011 A 
ATOM     14  C   UNL     1       2.903  50.643 285.291  1.00  0.00     0.011 A 
ATOM     15  C   UNL     1       2.934  48.117 286.492  1.00  0.00     0.046 A 
ATOM     16  C   UNL     1       2.880  50.530 286.684  1.00  0.00     0.046 A 
ATOM     17  C   UNL     1       2.897  49.269 287.289  1.00  0.00     0.115 A 
BRANCH  17  18
ATOM     18  O   UNL     1       2.875  49.172 288.678  1.00  0.00    -0.508 OA
ATOM     19  H   UNL     1       2.012  49.268 289.201  1.00  0.00     0.293 HD
ENDBRANCH  17  18
ENDBRANCH   2  12
BRANCH   8  20
ATOM     20  O   UNL     1       4.283  49.526 277.937  1.00  0.00    -0.507 OA
ATOM     21  H   UNL     1       3.482  49.093 277.503  1.00  0.00     0.293 HD
ENDBRANCH   8  20
BRANCH   6  22
ATOM     22  O   UNL     1       4.467  54.160 279.203  1.00  0.00    -0.508 OA
ATOM     23  H   UNL     1       4.250  54.916 279.842  1.00  0.00     0.293 HD
ENDBRANCH   6  22
TORSDOF 4
ENDMDL
MODEL 7
REMARK VINA RESULT:    -4.007      3.706      8.782
REMARK INTER + INTRA:          -4.902
REMARK INTER:                  -4.621
REMARK INTRA:                  -0.281
REMARK UNBOUND:                -0.310
REMARK SMILES O=C1C[C@@H](c2ccc(O)cc2)Oc2cc(O)cc(O)c21
REMARK SMILES IDX 3 1 4 2 12 3 13 4 14 5 15 6 17 7 18 8 20 9 2 10 1 11 5 12
REMARK SMILES IDX 6 13 11 14 7 15 10 16 8 17 9 18 19 20 16 22
REMARK H PARENT 9 19 19 21 16 23
REMARK Flexibility Score: inf
ROOT
ATOM      1  C   UNL     1       4.011  55.330 279.165  1.00  0.00     0.131 C 
ATOM      2  C   UNL     1       3.595  54.404 278.016  1.00  0.00     0.211 C 
ATOM      3  O   UNL     1       4.024  53.070 278.281  1.00  0.00    -0.484 OA
ATOM      4  C   UNL     1       3.848  52.476 279.536  1.00  0.00     0.138 A 
ATOM      5  C   UNL     1       3.985  51.091 279.651  1.00  0.00     0.093 A 
ATOM      6  C   UNL     1       3.791  50.463 280.880  1.00  0.00     0.123 A 
ATOM      7  C   UNL     1       3.441  51.224 281.999  1.00  0.00     0.093 A 
ATOM      8  C   UNL     1       3.290  52.614 281.907  1.00  0.00     0.133 A 
ATOM      9  C   UNL     1       3.545  53.266 280.668  1.00  0.00     0.102 A 
ATOM     10  C   UNL     1       3.598  54.748 280.489  1.00  0.00     0.174 C 
ATOM     11  O   UNL     1       3.414  55.537 281.450  1.00  0.00    -0.294 OA
ENDROOT
BRANCH   2  12
ATOM     12  C   UNL     1       4.170  54.884 276.706  1.00  0.00    -0.007 A 
ATOM     13  C   UNL     1       3.344  55.051 275.579  1.00  0.00     0.011 A 
ATOM     14  C   UNL     1       5.550  55.116 276.582  1.00  0.00     0.011 A 
ATOM     15  C   UNL     1       3.887  55.467 274.360  1.00  0.00     0.046 A 
ATOM     16  C   UNL     1       6.091  55.531 275.361  1.00  0.00     0.046 A 
ATOM     17  C   UNL     1       5.263  55.709 274.249  1.00  0.00     0.115 A 
BRANCH  17  18
ATOM     18  O   UNL     1       5.815  56.125 273.039  1.00  0.00    -0.508 OA
ATOM     19  H   UNL     1       5.548  55.696 272.161  1.00  0.00     0.293 HD
ENDBRANCH  17  18
ENDBRANCH   2  12
BRANCH   8  20
ATOM     20  O   UNL     1       2.875  53.281 283.062  1.00  0.00    -0.507 OA
ATOM     21  H   UNL     1       1.913  53.400 283.339  1.00  0.00     0.293 HD
ENDBRANCH   8  20
BRANCH   6  22
ATOM     22  O   UNL     1       3.937  49.081 280.977  1.00  0.00    -0.508 OA
ATOM     23  H   UNL     1       4.396  48.651 281.771  1.00  0.00     0.293 HD
ENDBRANCH   6  22
TORSDOF 4
ENDMDL
MODEL 8
REMARK VINA RESULT:    -2.187      1.696      6.661
REMARK INTER + INTRA:          -2.816
REMARK INTER:                  -2.512
REMARK INTRA:                  -0.304
REMARK UNBOUND:                -0.310
REMARK SMILES O=C1C[C@@H](c2ccc(O)cc2)Oc2cc(O)cc(O)c21
REMARK SMILES IDX 3 1 4 2 12 3 13 4 14 5 15 6 17 7 18 8 20 9 2 10 1 11 5 12
REMARK SMILES IDX 6 13 11 14 7 15 10 16 8 17 9 18 19 20 16 22
REMARK H PARENT 9 19 19 21 16 23
REMARK Flexibility Score: inf
ROOT
ATOM      1  C   UNL     1       4.188  49.819 282.368  1.00  0.00     0.131 C 
ATOM      2  C   UNL     1       3.104  49.169 281.500  1.00  0.00     0.211 C 
ATOM      3  O   UNL     1       3.165  47.749 281.620  1.00  0.00    -0.484 OA
ATOM      4  C   UNL     1       3.304  47.120 282.863  1.00  0.00     0.138 A 
ATOM      5  C   UNL     1       3.038  45.753 282.960  1.00  0.00     0.093 A 
ATOM      6  C   UNL     1       3.139  45.100 284.187  1.00  0.00     0.123 A 
ATOM      7  C   UNL     1       3.493  45.824 285.329  1.00  0.00     0.093 A 
ATOM      8  C   UNL     1       3.756  47.198 285.259  1.00  0.00     0.133 A 
ATOM      9  C   UNL     1       3.712  47.857 283.998  1.00  0.00     0.102 A 
ATOM     10  C   UNL     1       4.149  49.266 283.766  1.00  0.00     0.174 C 
ATOM     11  O   UNL     1       4.596  49.982 284.698  1.00  0.00    -0.294 OA
ENDROOT
BRANCH   2  12
ATOM     12  C   UNL     1       3.258  49.575 280.055  1.00  0.00    -0.007 A 
ATOM     13  C   UNL     1       2.875  50.860 279.628  1.00  0.00     0.011 A 
ATOM     14  C   UNL     1       3.735  48.654 279.108  1.00  0.00     0.011 A 
ATOM     15  C   UNL     1       2.993  51.221 278.282  1.00  0.00     0.046 A 
ATOM     16  C   UNL     1       3.850  49.017 277.763  1.00  0.00     0.046 A 
ATOM     17  C   UNL     1       3.482  50.300 277.346  1.00  0.00     0.115 A 
BRANCH  17  18
ATOM     18  O   UNL     1       3.604  50.649 276.003  1.00  0.00    -0.508 OA
ATOM     19  H   UNL     1       2.962  50.293 275.304  1.00  0.00     0.293 HD
ENDBRANCH  17  18
ENDBRANCH   2  12
BRANCH   8  20
ATOM     20  O   UNL     1       4.038  47.848 286.462  1.00  0.00    -0.507 OA
ATOM     21  H   UNL     1       3.395  48.455 286.949  1.00  0.00     0.293 HD
ENDBRANCH   8  20
BRANCH   6  22
ATOM     22  O   UNL     1       2.876  43.734 284.263  1.00  0.00    -0.508 OA
ATOM     23  H   UNL     1       2.026  43.381 284.685  1.00  0.00     0.293 HD
ENDBRANCH   6  22
TORSDOF 4
ENDMDL
