MODEL 1
REMARK VINA RESULT:    -3.355      0.000      0.000
REMARK INTER + INTRA:          -8.888
REMARK INTER:                  -6.101
REMARK INTRA:                  -2.787
REMARK UNBOUND:                -2.787
REMARK SMILES CCCCCCCCCCCCCC[C@H](C)C(=O)[O-]
REMARK SMILES IDX 9 1 10 2 11 3 12 4 13 5 14 6 15 7 16 8 17 9 18 10 19 11 8 12
REMARK SMILES IDX 7 13 6 14 5 15 4 16 3 17 2 18 1 19
REMARK H PARENT
REMARK Flexibility Score: inf
ROOT
ATOM      1  C   UNL     1       2.271  -2.085  -6.148  1.00  0.00     0.000 C 
ENDROOT
BRANCH   1   2
ATOM      2  C   UNL     1       0.939  -1.684  -5.495  1.00  0.00     0.000 C 
BRANCH   2   3
ATOM      3  C   UNL     1       1.096  -0.553  -4.467  1.00  0.00     0.000 C 
BRANCH   3   4
ATOM      4  C   UNL     1       1.105  -1.112  -3.036  1.00  0.00     0.000 C 
BRANCH   4   5
ATOM      5  C   UNL     1       0.475  -2.511  -2.941  1.00  0.00     0.001 C 
BRANCH   5   6
ATOM      6  C   UNL     1       0.846  -3.241  -1.636  1.00  0.00     0.009 C 
BRANCH   6   7
ATOM      7  C   UNL     1       0.710  -4.772  -1.768  1.00  0.00     0.032 C 
ATOM      8  C   UNL     1       0.398  -5.164  -3.217  1.00  0.00     0.014 C 
BRANCH   7   9
ATOM      9  C   UNL     1      -0.354  -5.313  -0.851  1.00  0.00     0.044 C 
ATOM     10  O   UNL     1      -0.343  -5.036   0.378  1.00  0.00    -0.550 OA
ATOM     11  O   UNL     1      -1.360  -6.124  -1.359  1.00  0.00    -0.550 OA
ENDBRANCH   7   9
ENDBRANCH   6   7
ENDBRANCH   5   6
ENDBRANCH   4   5
ENDBRANCH   3   4
ENDBRANCH   2   3
ENDBRANCH   1   2
BRANCH   1  12
ATOM     12  C   UNL     1       2.750  -3.478  -5.704  1.00  0.00     0.000 C 
BRANCH  12  13
ATOM     13  C   UNL     1       4.147  -3.447  -5.060  1.00  0.00    -0.000 C 
BRANCH  13  14
ATOM     14  C   UNL     1       4.103  -3.686  -3.540  1.00  0.00    -0.000 C 
BRANCH  14  15
ATOM     15  C   UNL     1       4.974  -2.686  -2.762  1.00  0.00    -0.000 C 
BRANCH  15  16
ATOM     16  C   UNL     1       4.466  -1.240  -2.888  1.00  0.00    -0.000 C 
BRANCH  16  17
ATOM     17  C   UNL     1       5.466  -0.314  -3.605  1.00  0.00    -0.000 C 
BRANCH  17  18
ATOM     18  C   UNL     1       4.946   0.317  -4.909  1.00  0.00    -0.003 C 
ATOM     19  C   UNL     1       5.606  -0.265  -6.158  1.00  0.00     0.004 C 
ENDBRANCH  17  18
ENDBRANCH  16  17
ENDBRANCH  15  16
ENDBRANCH  14  15
ENDBRANCH  13  14
ENDBRANCH  12  13
ENDBRANCH   1  12
TORSDOF 14
ENDMDL
MODEL 2
REMARK VINA RESULT:    -3.257     12.447     14.380
REMARK INTER + INTRA:          -8.710
REMARK INTER:                  -7.108
REMARK INTRA:                  -1.602
REMARK UNBOUND:                -2.787
REMARK SMILES CCCCCCCCCCCCCC[C@H](C)C(=O)[O-]
REMARK SMILES IDX 9 1 10 2 11 3 12 4 13 5 14 6 15 7 16 8 17 9 18 10 19 11 8 12
REMARK SMILES IDX 7 13 6 14 5 15 4 16 3 17 2 18 1 19
REMARK H PARENT
REMARK Flexibility Score: inf
ROOT
ATOM      1  C   UNL     1       1.775  -1.751  10.552  1.00  0.00     0.000 C 
ENDROOT
BRANCH   1   2
ATOM      2  C   UNL     1       2.408  -0.371  10.792  1.00  0.00     0.000 C 
BRANCH   2   3
ATOM      3  C   UNL     1       3.114   0.184   9.544  1.00  0.00     0.000 C 
BRANCH   3   4
ATOM      4  C   UNL     1       2.759   1.664   9.329  1.00  0.00     0.000 C 
BRANCH   4   5
ATOM      5  C   UNL     1       3.463   2.272   8.106  1.00  0.00     0.001 C 
BRANCH   5   6
ATOM      6  C   UNL     1       4.789   2.967   8.469  1.00  0.00     0.009 C 
BRANCH   6   7
ATOM      7  C   UNL     1       5.986   2.369   7.702  1.00  0.00     0.032 C 
ATOM      8  C   UNL     1       6.476   1.084   8.378  1.00  0.00     0.014 C 
BRANCH   7   9
ATOM      9  C   UNL     1       7.120   3.355   7.592  1.00  0.00     0.044 C 
ATOM     10  O   UNL     1       7.050   4.478   8.158  1.00  0.00    -0.550 OA
ATOM     11  O   UNL     1       8.257   3.025   6.866  1.00  0.00    -0.550 OA
ENDBRANCH   7   9
ENDBRANCH   6   7
ENDBRANCH   5   6
ENDBRANCH   4   5
ENDBRANCH   3   4
ENDBRANCH   2   3
ENDBRANCH   1   2
BRANCH   1  12
ATOM     12  C   UNL     1       2.006  -2.267   9.121  1.00  0.00     0.000 C 
BRANCH  12  13
ATOM     13  C   UNL     1       0.695  -2.619   8.399  1.00  0.00    -0.000 C 
BRANCH  13  14
ATOM     14  C   UNL     1      -0.385  -1.535   8.572  1.00  0.00    -0.000 C 
BRANCH  14  15
ATOM     15  C   UNL     1      -0.089  -0.273   7.745  1.00  0.00    -0.000 C 
BRANCH  15  16
ATOM     16  C   UNL     1      -1.156   0.819   7.933  1.00  0.00    -0.000 C 
BRANCH  16  17
ATOM     17  C   UNL     1      -2.066   0.563   9.148  1.00  0.00    -0.000 C 
BRANCH  17  18
ATOM     18  C   UNL     1      -3.575   0.639   8.855  1.00  0.00    -0.003 C 
ATOM     19  C   UNL     1      -4.185  -0.719   8.506  1.00  0.00     0.004 C 
ENDBRANCH  17  18
ENDBRANCH  16  17
ENDBRANCH  15  16
ENDBRANCH  14  15
ENDBRANCH  13  14
ENDBRANCH  12  13
ENDBRANCH   1  12
TORSDOF 14
ENDMDL
MODEL 3
REMARK VINA RESULT:    -3.212     12.250     13.538
REMARK INTER + INTRA:          -8.629
REMARK INTER:                  -6.657
REMARK INTRA:                  -1.972
REMARK UNBOUND:                -2.787
REMARK SMILES CCCCCCCCCCCCCC[C@H](C)C(=O)[O-]
REMARK SMILES IDX 9 1 10 2 11 3 12 4 13 5 14 6 15 7 16 8 17 9 18 10 19 11 8 12
REMARK SMILES IDX 7 13 6 14 5 15 4 16 3 17 2 18 1 19
REMARK H PARENT
REMARK Flexibility Score: inf
ROOT
ATOM      1  C   UNL     1       3.308  -0.311   9.853  1.00  0.00     0.000 C 
ENDROOT
BRANCH   1   2
ATOM      2  C   UNL     1       1.967  -0.129   9.123  1.00  0.00     0.000 C 
BRANCH   2   3
ATOM      3  C   UNL     1       1.274  -1.464   8.809  1.00  0.00     0.000 C 
BRANCH   3   4
ATOM      4  C   UNL     1      -0.003  -1.237   7.985  1.00  0.00     0.000 C 
BRANCH   4   5
ATOM      5  C   UNL     1      -0.227   0.243   7.633  1.00  0.00     0.001 C 
BRANCH   5   6
ATOM      6  C   UNL     1      -1.558   0.788   8.182  1.00  0.00     0.009 C 
BRANCH   6   7
ATOM      7  C   UNL     1      -2.319  -0.266   9.012  1.00  0.00     0.032 C 
ATOM      8  C   UNL     1      -3.788  -0.338   8.580  1.00  0.00     0.014 C 
BRANCH   7   9
ATOM      9  C   UNL     1      -2.232   0.022  10.487  1.00  0.00     0.044 C 
ATOM     10  O   UNL     1      -3.000   0.867  11.021  1.00  0.00    -0.550 OA
ATOM     11  O   UNL     1      -1.303  -0.649  11.271  1.00  0.00    -0.550 OA
ENDBRANCH   7   9
ENDBRANCH   6   7
ENDBRANCH   5   6
ENDBRANCH   4   5
ENDBRANCH   3   4
ENDBRANCH   2   3
ENDBRANCH   1   2
BRANCH   1  12
ATOM     12  C   UNL     1       4.338   0.767   9.473  1.00  0.00     0.000 C 
BRANCH  12  13
ATOM     13  C   UNL     1       3.682   2.107   9.099  1.00  0.00    -0.000 C 
BRANCH  13  14
ATOM     14  C   UNL     1       4.164   2.642   7.739  1.00  0.00    -0.000 C 
BRANCH  14  15
ATOM     15  C   UNL     1       3.287   3.792   7.215  1.00  0.00    -0.000 C 
BRANCH  15  16
ATOM     16  C   UNL     1       1.796   3.417   7.158  1.00  0.00    -0.000 C 
BRANCH  16  17
ATOM     17  C   UNL     1       0.885   4.488   7.785  1.00  0.00    -0.000 C 
BRANCH  17  18
ATOM     18  C   UNL     1      -0.071   3.970   8.874  1.00  0.00    -0.003 C 
ATOM     19  C   UNL     1       0.613   3.779  10.227  1.00  0.00     0.004 C 
ENDBRANCH  17  18
ENDBRANCH  16  17
ENDBRANCH  15  16
ENDBRANCH  14  15
ENDBRANCH  13  14
ENDBRANCH  12  13
ENDBRANCH   1  12
TORSDOF 14
ENDMDL
MODEL 4
REMARK VINA RESULT:    -3.165     12.368     14.723
REMARK INTER + INTRA:          -8.542
REMARK INTER:                  -6.060
REMARK INTRA:                  -2.482
REMARK UNBOUND:                -2.787
REMARK SMILES CCCCCCCCCCCCCC[C@H](C)C(=O)[O-]
REMARK SMILES IDX 9 1 10 2 11 3 12 4 13 5 14 6 15 7 16 8 17 9 18 10 19 11 8 12
REMARK SMILES IDX 7 13 6 14 5 15 4 16 3 17 2 18 1 19
REMARK H PARENT
REMARK Flexibility Score: inf
ROOT
ATOM      1  C   UNL     1      -0.184  -2.321  10.256  1.00  0.00     0.000 C 
ENDROOT
BRANCH   1   2
ATOM      2  C   UNL     1      -0.538  -2.152   8.770  1.00  0.00     0.000 C 
BRANCH   2   3
ATOM      3  C   UNL     1       0.320  -1.087   8.071  1.00  0.00     0.000 C 
BRANCH   3   4
ATOM      4  C   UNL     1      -0.538   0.115   7.646  1.00  0.00     0.000 C 
BRANCH   4   5
ATOM      5  C   UNL     1       0.101   1.463   8.018  1.00  0.00     0.001 C 
BRANCH   5   6
ATOM      6  C   UNL     1       1.425   1.299   8.788  1.00  0.00     0.009 C 
BRANCH   6   7
ATOM      7  C   UNL     1       2.345   2.526   8.628  1.00  0.00     0.032 C 
ATOM      8  C   UNL     1       1.823   3.454   7.525  1.00  0.00     0.014 C 
BRANCH   7   9
ATOM      9  C   UNL     1       3.763   2.119   8.326  1.00  0.00     0.044 C 
ATOM     10  O   UNL     1       4.389   2.641   7.366  1.00  0.00    -0.550 OA
ATOM     11  O   UNL     1       4.392   1.162   9.112  1.00  0.00    -0.550 OA
ENDBRANCH   7   9
ENDBRANCH   6   7
ENDBRANCH   5   6
ENDBRANCH   4   5
ENDBRANCH   3   4
ENDBRANCH   2   3
ENDBRANCH   1   2
BRANCH   1  12
ATOM     12  C   UNL     1      -1.190  -1.619  11.186  1.00  0.00     0.000 C 
BRANCH  12  13
ATOM     13  C   UNL     1      -0.792  -0.168  11.501  1.00  0.00    -0.000 C 
BRANCH  13  14
ATOM     14  C   UNL     1      -1.856   0.849  11.048  1.00  0.00    -0.000 C 
BRANCH  14  15
ATOM     15  C   UNL     1      -3.192   0.179  10.687  1.00  0.00    -0.000 C 
BRANCH  15  16
ATOM     16  C   UNL     1      -3.730   0.637   9.320  1.00  0.00    -0.000 C 
BRANCH  16  17
ATOM     17  C   UNL     1      -4.324  -0.518   8.493  1.00  0.00    -0.000 C 
BRANCH  17  18
ATOM     18  C   UNL     1      -4.130  -1.918   9.101  1.00  0.00    -0.003 C 
ATOM     19  C   UNL     1      -5.444  -2.572   9.528  1.00  0.00     0.004 C 
ENDBRANCH  17  18
ENDBRANCH  16  17
ENDBRANCH  15  16
ENDBRANCH  14  15
ENDBRANCH  13  14
ENDBRANCH  12  13
ENDBRANCH   1  12
TORSDOF 14
ENDMDL
MODEL 5
REMARK VINA RESULT:    -3.152      1.221      3.176
REMARK INTER + INTRA:          -8.519
REMARK INTER:                  -6.042
REMARK INTRA:                  -2.477
REMARK UNBOUND:                -2.787
REMARK SMILES CCCCCCCCCCCCCC[C@H](C)C(=O)[O-]
REMARK SMILES IDX 9 1 10 2 11 3 12 4 13 5 14 6 15 7 16 8 17 9 18 10 19 11 8 12
REMARK SMILES IDX 7 13 6 14 5 15 4 16 3 17 2 18 1 19
REMARK H PARENT
REMARK Flexibility Score: inf
ROOT
ATOM      1  C   UNL     1       5.129  -0.576  -3.245  1.00  0.00     0.000 C 
ENDROOT
BRANCH   1   2
ATOM      2  C   UNL     1       3.727  -0.958  -2.745  1.00  0.00     0.000 C 
BRANCH   2   3
ATOM      3  C   UNL     1       2.675  -0.959  -3.865  1.00  0.00     0.000 C 
BRANCH   3   4
ATOM      4  C   UNL     1       1.257  -1.065  -3.283  1.00  0.00     0.000 C 
BRANCH   4   5
ATOM      5  C   UNL     1       0.753  -2.515  -3.206  1.00  0.00     0.001 C 
BRANCH   5   6
ATOM      6  C   UNL     1       0.916  -3.125  -1.801  1.00  0.00     0.009 C 
BRANCH   6   7
ATOM      7  C   UNL     1       0.685  -4.651  -1.801  1.00  0.00     0.032 C 
ATOM      8  C   UNL     1       0.420  -5.159  -3.223  1.00  0.00     0.014 C 
BRANCH   7   9
ATOM      9  C   UNL     1      -0.456  -5.037  -0.898  1.00  0.00     0.044 C 
ATOM     10  O   UNL     1      -1.612  -5.215  -1.367  1.00  0.00    -0.550 OA
ATOM     11  O   UNL     1      -0.237  -5.205   0.463  1.00  0.00    -0.550 OA
ENDBRANCH   7   9
ENDBRANCH   6   7
ENDBRANCH   5   6
ENDBRANCH   4   5
ENDBRANCH   3   4
ENDBRANCH   2   3
ENDBRANCH   1   2
BRANCH   1  12
ATOM     12  C   UNL     1       5.216  -0.530  -4.781  1.00  0.00     0.000 C 
BRANCH  12  13
ATOM     13  C   UNL     1       6.070  -1.670  -5.361  1.00  0.00    -0.000 C 
BRANCH  13  14
ATOM     14  C   UNL     1       5.217  -2.797  -5.970  1.00  0.00    -0.000 C 
BRANCH  14  15
ATOM     15  C   UNL     1       5.304  -4.102  -5.161  1.00  0.00    -0.000 C 
BRANCH  15  16
ATOM     16  C   UNL     1       4.004  -4.410  -4.397  1.00  0.00    -0.000 C 
BRANCH  16  17
ATOM     17  C   UNL     1       4.229  -4.612  -2.888  1.00  0.00    -0.000 C 
BRANCH  17  18
ATOM     18  C   UNL     1       5.592  -4.124  -2.365  1.00  0.00    -0.003 C 
ATOM     19  C   UNL     1       6.394  -5.224  -1.671  1.00  0.00     0.004 C 
ENDBRANCH  17  18
ENDBRANCH  16  17
ENDBRANCH  15  16
ENDBRANCH  14  15
ENDBRANCH  13  14
ENDBRANCH  12  13
ENDBRANCH   1  12
TORSDOF 14
ENDMDL
MODEL 6
REMARK VINA RESULT:    -3.138     12.477     14.514
REMARK INTER + INTRA:          -8.494
REMARK INTER:                  -6.042
REMARK INTRA:                  -2.452
REMARK UNBOUND:                -2.787
REMARK SMILES CCCCCCCCCCCCCC[C@H](C)C(=O)[O-]
REMARK SMILES IDX 9 1 10 2 11 3 12 4 13 5 14 6 15 7 16 8 17 9 18 10 19 11 8 12
REMARK SMILES IDX 7 13 6 14 5 15 4 16 3 17 2 18 1 19
REMARK H PARENT
REMARK Flexibility Score: inf
ROOT
ATOM      1  C   UNL     1       2.437   0.507  10.391  1.00  0.00     0.000 C 
ENDROOT
BRANCH   1   2
ATOM      2  C   UNL     1       1.384   1.587  10.691  1.00  0.00     0.000 C 
BRANCH   2   3
ATOM      3  C   UNL     1       1.762   2.961  10.118  1.00  0.00     0.000 C 
BRANCH   3   4
ATOM      4  C   UNL     1       1.048   3.210   8.780  1.00  0.00     0.000 C 
BRANCH   4   5
ATOM      5  C   UNL     1       2.027   3.466   7.623  1.00  0.00     0.001 C 
BRANCH   5   6
ATOM      6  C   UNL     1       3.310   4.185   8.080  1.00  0.00     0.009 C 
BRANCH   6   7
ATOM      7  C   UNL     1       4.572   3.598   7.414  1.00  0.00     0.032 C 
ATOM      8  C   UNL     1       4.896   2.216   7.990  1.00  0.00     0.014 C 
BRANCH   7   9
ATOM      9  C   UNL     1       5.759   4.511   7.576  1.00  0.00     0.044 C 
ATOM     10  O   UNL     1       5.614   5.675   8.037  1.00  0.00    -0.550 OA
ATOM     11  O   UNL     1       7.026   4.071   7.219  1.00  0.00    -0.550 OA
ENDBRANCH   7   9
ENDBRANCH   6   7
ENDBRANCH   5   6
ENDBRANCH   4   5
ENDBRANCH   3   4
ENDBRANCH   2   3
ENDBRANCH   1   2
BRANCH   1  12
ATOM     12  C   UNL     1       2.254  -0.125   9.000  1.00  0.00     0.000 C 
BRANCH  12  13
ATOM     13  C   UNL     1       1.464  -1.443   9.047  1.00  0.00    -0.000 C 
BRANCH  13  14
ATOM     14  C   UNL     1       0.191  -1.401   8.183  1.00  0.00    -0.000 C 
BRANCH  14  15
ATOM     15  C   UNL     1      -0.106   0.007   7.642  1.00  0.00    -0.000 C 
BRANCH  15  16
ATOM     16  C   UNL     1      -1.511   0.503   8.029  1.00  0.00    -0.000 C 
BRANCH  16  17
ATOM     17  C   UNL     1      -1.895   0.145   9.476  1.00  0.00    -0.000 C 
BRANCH  17  18
ATOM     18  C   UNL     1      -2.217   1.349  10.378  1.00  0.00    -0.003 C 
ATOM     19  C   UNL     1      -2.520   2.623   9.590  1.00  0.00     0.004 C 
ENDBRANCH  17  18
ENDBRANCH  16  17
ENDBRANCH  15  16
ENDBRANCH  14  15
ENDBRANCH  13  14
ENDBRANCH  12  13
ENDBRANCH   1  12
TORSDOF 14
ENDMDL
MODEL 7
REMARK VINA RESULT:    -3.126     12.374     14.397
REMARK INTER + INTRA:          -8.471
REMARK INTER:                  -6.415
REMARK INTRA:                  -2.056
REMARK UNBOUND:                -2.787
REMARK SMILES CCCCCCCCCCCCCC[C@H](C)C(=O)[O-]
REMARK SMILES IDX 9 1 10 2 11 3 12 4 13 5 14 6 15 7 16 8 17 9 18 10 19 11 8 12
REMARK SMILES IDX 7 13 6 14 5 15 4 16 3 17 2 18 1 19
REMARK H PARENT
REMARK Flexibility Score: inf
ROOT
ATOM      1  C   UNL     1       0.742  -2.167   9.752  1.00  0.00     0.000 C 
ENDROOT
BRANCH   1   2
ATOM      2  C   UNL     1       2.149  -2.255   9.139  1.00  0.00     0.000 C 
BRANCH   2   3
ATOM      3  C   UNL     1       3.118  -1.214   9.722  1.00  0.00     0.000 C 
BRANCH   3   4
ATOM      4  C   UNL     1       2.380  -0.244  10.658  1.00  0.00     0.000 C 
BRANCH   4   5
ATOM      5  C   UNL     1       2.342   1.193  10.115  1.00  0.00     0.001 C 
BRANCH   5   6
ATOM      6  C   UNL     1       2.986   1.318   8.721  1.00  0.00     0.009 C 
BRANCH   6   7
ATOM      7  C   UNL     1       3.813   2.612   8.578  1.00  0.00     0.032 C 
ATOM      8  C   UNL     1       3.183   3.545   7.537  1.00  0.00     0.014 C 
BRANCH   7   9
ATOM      9  C   UNL     1       5.241   2.318   8.204  1.00  0.00     0.044 C 
ATOM     10  O   UNL     1       5.928   3.168   7.577  1.00  0.00    -0.550 OA
ATOM     11  O   UNL     1       5.813   1.101   8.553  1.00  0.00    -0.550 OA
ENDBRANCH   7   9
ENDBRANCH   6   7
ENDBRANCH   5   6
ENDBRANCH   4   5
ENDBRANCH   3   4
ENDBRANCH   2   3
ENDBRANCH   1   2
BRANCH   1  12
ATOM     12  C   UNL     1      -0.333  -1.810   8.710  1.00  0.00     0.000 C 
BRANCH  12  13
ATOM     13  C   UNL     1       0.059  -0.601   7.844  1.00  0.00    -0.000 C 
BRANCH  13  14
ATOM     14  C   UNL     1      -1.055   0.459   7.770  1.00  0.00    -0.000 C 
BRANCH  14  15
ATOM     15  C   UNL     1      -1.357   1.092   9.139  1.00  0.00    -0.000 C 
BRANCH  15  16
ATOM     16  C   UNL     1      -2.797   0.822   9.608  1.00  0.00    -0.000 C 
BRANCH  16  17
ATOM     17  C   UNL     1      -3.712   0.325   8.475  1.00  0.00    -0.000 C 
BRANCH  17  18
ATOM     18  C   UNL     1      -4.296  -1.084   8.683  1.00  0.00    -0.003 C 
ATOM     19  C   UNL     1      -3.895  -1.705  10.020  1.00  0.00     0.004 C 
ENDBRANCH  17  18
ENDBRANCH  16  17
ENDBRANCH  15  16
ENDBRANCH  14  15
ENDBRANCH  13  14
ENDBRANCH  12  13
ENDBRANCH   1  12
TORSDOF 14
ENDMDL
MODEL 8
REMARK VINA RESULT:    -3.077     12.493     14.312
REMARK INTER + INTRA:          -8.382
REMARK INTER:                  -6.220
REMARK INTRA:                  -2.163
REMARK UNBOUND:                -2.787
REMARK SMILES CCCCCCCCCCCCCC[C@H](C)C(=O)[O-]
REMARK SMILES IDX 9 1 10 2 11 3 12 4 13 5 14 6 15 7 16 8 17 9 18 10 19 11 8 12
REMARK SMILES IDX 7 13 6 14 5 15 4 16 3 17 2 18 1 19
REMARK H PARENT
REMARK Flexibility Score: inf
ROOT
ATOM      1  C   UNL     1       1.715   2.014   9.808  1.00  0.00     0.000 C 
ENDROOT
BRANCH   1   2
ATOM      2  C   UNL     1       1.179   3.265   9.093  1.00  0.00     0.000 C 
BRANCH   2   3
ATOM      3  C   UNL     1       1.153   3.112   7.565  1.00  0.00     0.000 C 
BRANCH   3   4
ATOM      4  C   UNL     1       1.856   4.298   6.885  1.00  0.00     0.000 C 
BRANCH   4   5
ATOM      5  C   UNL     1       3.353   4.042   6.643  1.00  0.00     0.001 C 
BRANCH   5   6
ATOM      6  C   UNL     1       4.248   4.727   7.693  1.00  0.00     0.009 C 
BRANCH   6   7
ATOM      7  C   UNL     1       5.389   3.806   8.173  1.00  0.00     0.032 C 
ATOM      8  C   UNL     1       5.276   3.543   9.678  1.00  0.00     0.014 C 
BRANCH   7   9
ATOM      9  C   UNL     1       6.741   4.388   7.855  1.00  0.00     0.044 C 
ATOM     10  O   UNL     1       7.750   4.078   8.541  1.00  0.00    -0.550 OA
ATOM     11  O   UNL     1       6.882   5.273   6.793  1.00  0.00    -0.550 OA
ENDBRANCH   7   9
ENDBRANCH   6   7
ENDBRANCH   5   6
ENDBRANCH   4   5
ENDBRANCH   3   4
ENDBRANCH   2   3
ENDBRANCH   1   2
BRANCH   1  12
ATOM     12  C   UNL     1       2.589   1.140   8.891  1.00  0.00     0.000 C 
BRANCH  12  13
ATOM     13  C   UNL     1       3.056  -0.155   9.578  1.00  0.00    -0.000 C 
BRANCH  13  14
ATOM     14  C   UNL     1       1.891  -1.112   9.891  1.00  0.00    -0.000 C 
BRANCH  14  15
ATOM     15  C   UNL     1       1.532  -2.011   8.697  1.00  0.00    -0.000 C 
BRANCH  15  16
ATOM     16  C   UNL     1       0.128  -1.719   8.140  1.00  0.00    -0.000 C 
BRANCH  16  17
ATOM     17  C   UNL     1      -0.668  -0.731   9.013  1.00  0.00    -0.000 C 
BRANCH  17  18
ATOM     18  C   UNL     1      -1.361   0.405   8.239  1.00  0.00    -0.003 C 
ATOM     19  C   UNL     1      -2.880   0.402   8.407  1.00  0.00     0.004 C 
ENDBRANCH  17  18
ENDBRANCH  16  17
ENDBRANCH  15  16
ENDBRANCH  14  15
ENDBRANCH  13  14
ENDBRANCH  12  13
ENDBRANCH   1  12
TORSDOF 14
ENDMDL
MODEL 9
REMARK VINA RESULT:    -3.021      1.126      2.525
REMARK INTER + INTRA:          -8.281
REMARK INTER:                  -5.814
REMARK INTRA:                  -2.467
REMARK UNBOUND:                -2.787
REMARK SMILES CCCCCCCCCCCCCC[C@H](C)C(=O)[O-]
REMARK SMILES IDX 9 1 10 2 11 3 12 4 13 5 14 6 15 7 16 8 17 9 18 10 19 11 8 12
REMARK SMILES IDX 7 13 6 14 5 15 4 16 3 17 2 18 1 19
REMARK H PARENT
REMARK Flexibility Score: inf
ROOT
ATOM      1  C   UNL     1       2.403  -2.089  -5.486  1.00  0.00     0.000 C 
ENDROOT
BRANCH   1   2
ATOM      2  C   UNL     1       1.821  -0.854  -4.779  1.00  0.00     0.000 C 
BRANCH   2   3
ATOM      3  C   UNL     1       0.756  -1.215  -3.731  1.00  0.00     0.000 C 
BRANCH   3   4
ATOM      4  C   UNL     1       1.408  -1.804  -2.470  1.00  0.00     0.000 C 
BRANCH   4   5
ATOM      5  C   UNL     1       0.639  -3.013  -1.913  1.00  0.00     0.001 C 
BRANCH   5   6
ATOM      6  C   UNL     1       0.766  -4.260  -2.807  1.00  0.00     0.009 C 
BRANCH   6   7
ATOM      7  C   UNL     1      -0.598  -4.937  -3.056  1.00  0.00     0.032 C 
ATOM      8  C   UNL     1      -1.527  -4.010  -3.846  1.00  0.00     0.014 C 
BRANCH   7   9
ATOM      9  C   UNL     1      -1.257  -5.343  -1.764  1.00  0.00     0.044 C 
ATOM     10  O   UNL     1      -2.428  -4.963  -1.495  1.00  0.00    -0.550 OA
ATOM     11  O   UNL     1      -0.575  -6.147  -0.860  1.00  0.00    -0.550 OA
ENDBRANCH   7   9
ENDBRANCH   6   7
ENDBRANCH   5   6
ENDBRANCH   4   5
ENDBRANCH   3   4
ENDBRANCH   2   3
ENDBRANCH   1   2
BRANCH   1  12
ATOM     12  C   UNL     1       3.530  -1.729  -6.470  1.00  0.00     0.000 C 
BRANCH  12  13
ATOM     13  C   UNL     1       3.754  -0.211  -6.584  1.00  0.00    -0.000 C 
BRANCH  13  14
ATOM     14  C   UNL     1       5.196   0.201  -6.237  1.00  0.00    -0.000 C 
BRANCH  14  15
ATOM     15  C   UNL     1       5.809  -0.676  -5.132  1.00  0.00    -0.000 C 
BRANCH  15  16
ATOM     16  C   UNL     1       5.397  -0.222  -3.722  1.00  0.00    -0.000 C 
BRANCH  16  17
ATOM     17  C   UNL     1       4.979  -1.393  -2.813  1.00  0.00    -0.000 C 
BRANCH  17  18
ATOM     18  C   UNL     1       5.346  -2.789  -3.345  1.00  0.00    -0.003 C 
ATOM     19  C   UNL     1       4.434  -3.892  -2.810  1.00  0.00     0.004 C 
ENDBRANCH  17  18
ENDBRANCH  16  17
ENDBRANCH  15  16
ENDBRANCH  14  15
ENDBRANCH  13  14
ENDBRANCH  12  13
ENDBRANCH   1  12
TORSDOF 14
ENDMDL
