MODEL 1
REMARK VINA RESULT:    -2.602      0.000      0.000
REMARK INTER + INTRA:          -2.926
REMARK INTER:                  -2.906
REMARK INTRA:                  -0.020
REMARK UNBOUND:                -0.020
REMARK SMILES CCCC(=O)[O-]
REMARK SMILES IDX 3 1 4 2 5 3 6 4 2 5 1 6
REMARK H PARENT
REMARK Flexibility Score: inf
ROOT
ATOM      1  C   UNL     1      10.425  -2.138   8.474  1.00  0.00     0.052 C 
ENDROOT
BRANCH   1   2
ATOM      2  C   UNL     1       9.658  -3.331   8.952  1.00  0.00     0.041 C 
ATOM      3  O   UNL     1       9.366  -4.258   8.152  1.00  0.00    -0.550 OA
ATOM      4  O   UNL     1       9.309  -3.441  10.291  1.00  0.00    -0.550 OA
ENDBRANCH   1   2
BRANCH   1   5
ATOM      5  C   UNL     1       9.507  -1.186   7.702  1.00  0.00     0.003 C 
ATOM      6  C   UNL     1       9.378   0.155   8.418  1.00  0.00     0.004 C 
ENDBRANCH   1   5
TORSDOF 2
ENDMDL
MODEL 2
REMARK VINA RESULT:    -2.381      2.486      3.463
REMARK INTER + INTRA:          -2.680
REMARK INTER:                  -2.645
REMARK INTRA:                  -0.035
REMARK UNBOUND:                -0.020
REMARK SMILES CCCC(=O)[O-]
REMARK SMILES IDX 3 1 4 2 5 3 6 4 2 5 1 6
REMARK H PARENT
REMARK Flexibility Score: inf
ROOT
ATOM      1  C   UNL     1       9.592  -0.855   7.953  1.00  0.00     0.052 C 
ENDROOT
BRANCH   1   2
ATOM      2  C   UNL     1       9.544   0.160   9.051  1.00  0.00     0.041 C 
ATOM      3  O   UNL     1       9.850   1.360   8.819  1.00  0.00    -0.550 OA
ATOM      4  O   UNL     1       9.116  -0.208  10.319  1.00  0.00    -0.550 OA
ENDBRANCH   1   2
BRANCH   1   5
ATOM      5  C   UNL     1      10.363  -2.098   8.406  1.00  0.00     0.003 C 
ATOM      6  C   UNL     1       9.501  -3.351   8.293  1.00  0.00     0.004 C 
ENDBRANCH   1   5
TORSDOF 2
ENDMDL
MODEL 3
REMARK VINA RESULT:    -2.257     12.094     12.336
REMARK INTER + INTRA:          -2.541
REMARK INTER:                  -2.504
REMARK INTRA:                  -0.037
REMARK UNBOUND:                -0.020
REMARK SMILES CCCC(=O)[O-]
REMARK SMILES IDX 3 1 4 2 5 3 6 4 2 5 1 6
REMARK H PARENT
REMARK Flexibility Score: inf
ROOT
ATOM      1  C   UNL     1      -1.861  -3.446   7.096  1.00  0.00     0.052 C 
ENDROOT
BRANCH   1   2
ATOM      2  C   UNL     1      -3.027  -4.159   6.486  1.00  0.00     0.041 C 
ATOM      3  O   UNL     1      -3.610  -3.673   5.481  1.00  0.00    -0.550 OA
ATOM      4  O   UNL     1      -3.438  -5.382   6.997  1.00  0.00    -0.550 OA
ENDBRANCH   1   2
BRANCH   1   5
ATOM      5  C   UNL     1      -1.714  -2.046   6.493  1.00  0.00     0.003 C 
ATOM      6  C   UNL     1      -0.487  -1.961   5.591  1.00  0.00     0.004 C 
ENDBRANCH   1   5
TORSDOF 2
ENDMDL
MODEL 4
REMARK VINA RESULT:    -2.238     11.196     11.642
REMARK INTER + INTRA:          -2.520
REMARK INTER:                  -2.510
REMARK INTRA:                  -0.009
REMARK UNBOUND:                -0.020
REMARK SMILES CCCC(=O)[O-]
REMARK SMILES IDX 3 1 4 2 5 3 6 4 2 5 1 6
REMARK H PARENT
REMARK Flexibility Score: inf
ROOT
ATOM      1  C   UNL     1      -0.456  -1.984   5.642  1.00  0.00     0.052 C 
ENDROOT
BRANCH   1   2
ATOM      2  C   UNL     1      -0.647  -1.558   4.221  1.00  0.00     0.041 C 
ATOM      3  O   UNL     1       0.062  -2.059   3.308  1.00  0.00    -0.550 OA
ATOM      4  O   UNL     1      -1.640  -0.643   3.897  1.00  0.00    -0.550 OA
ENDBRANCH   1   2
BRANCH   1   5
ATOM      5  C   UNL     1      -1.810  -2.143   6.340  1.00  0.00     0.003 C 
ATOM      6  C   UNL     1      -1.861  -3.432   7.155  1.00  0.00     0.004 C 
ENDBRANCH   1   5
TORSDOF 2
ENDMDL
MODEL 5
REMARK VINA RESULT:    -2.237     15.132     15.338
REMARK INTER + INTRA:          -2.519
REMARK INTER:                  -2.486
REMARK INTRA:                  -0.033
REMARK UNBOUND:                -0.020
REMARK SMILES CCCC(=O)[O-]
REMARK SMILES IDX 3 1 4 2 5 3 6 4 2 5 1 6
REMARK H PARENT
REMARK Flexibility Score: inf
ROOT
ATOM      1  C   UNL     1      -5.553  -2.112  11.343  1.00  0.00     0.052 C 
ENDROOT
BRANCH   1   2
ATOM      2  C   UNL     1      -6.294  -3.376  11.041  1.00  0.00     0.041 C 
ATOM      3  O   UNL     1      -5.831  -4.199  10.208  1.00  0.00    -0.550 OA
ATOM      4  O   UNL     1      -7.472  -3.667  11.715  1.00  0.00    -0.550 OA
ENDBRANCH   1   2
BRANCH   1   5
ATOM      5  C   UNL     1      -4.137  -2.426  11.835  1.00  0.00     0.003 C 
ATOM      6  C   UNL     1      -3.091  -1.675  11.018  1.00  0.00     0.004 C 
ENDBRANCH   1   5
TORSDOF 2
ENDMDL
MODEL 6
REMARK VINA RESULT:    -2.223     11.217     11.478
REMARK INTER + INTRA:          -2.503
REMARK INTER:                  -2.489
REMARK INTRA:                  -0.014
REMARK UNBOUND:                -0.020
REMARK SMILES CCCC(=O)[O-]
REMARK SMILES IDX 3 1 4 2 5 3 6 4 2 5 1 6
REMARK H PARENT
REMARK Flexibility Score: inf
ROOT
ATOM      1  C   UNL     1      -1.789  -1.726   6.093  1.00  0.00     0.052 C 
ENDROOT
BRANCH   1   2
ATOM      2  C   UNL     1      -2.143  -2.625   7.235  1.00  0.00     0.041 C 
ATOM      3  O   UNL     1      -2.153  -3.874   7.078  1.00  0.00    -0.550 OA
ATOM      4  O   UNL     1      -2.413  -2.085   8.485  1.00  0.00    -0.550 OA
ENDBRANCH   1   2
BRANCH   1   5
ATOM      5  C   UNL     1      -0.361  -2.004   5.614  1.00  0.00     0.003 C 
ATOM      6  C   UNL     1      -0.211  -1.706   4.125  1.00  0.00     0.004 C 
ENDBRANCH   1   5
TORSDOF 2
ENDMDL
MODEL 7
REMARK VINA RESULT:    -2.180     11.895     12.256
REMARK INTER + INTRA:          -2.455
REMARK INTER:                  -2.447
REMARK INTRA:                  -0.008
REMARK UNBOUND:                -0.020
REMARK SMILES CCCC(=O)[O-]
REMARK SMILES IDX 3 1 4 2 5 3 6 4 2 5 1 6
REMARK H PARENT
REMARK Flexibility Score: inf
ROOT
ATOM      1  C   UNL     1      -1.718  -3.243   6.941  1.00  0.00     0.052 C 
ENDROOT
BRANCH   1   2
ATOM      2  C   UNL     1      -1.288  -2.047   6.152  1.00  0.00     0.041 C 
ATOM      3  O   UNL     1      -0.170  -2.039   5.572  1.00  0.00    -0.550 OA
ATOM      4  O   UNL     1      -2.142  -0.961   6.017  1.00  0.00    -0.550 OA
ENDBRANCH   1   2
BRANCH   1   5
ATOM      5  C   UNL     1      -3.197  -3.549   6.687  1.00  0.00     0.003 C 
ATOM      6  C   UNL     1      -3.464  -5.050   6.724  1.00  0.00     0.004 C 
ENDBRANCH   1   5
TORSDOF 2
ENDMDL
MODEL 8
REMARK VINA RESULT:    -2.124     13.117     13.490
REMARK INTER + INTRA:          -2.393
REMARK INTER:                  -2.387
REMARK INTRA:                  -0.006
REMARK UNBOUND:                -0.020
REMARK SMILES CCCC(=O)[O-]
REMARK SMILES IDX 3 1 4 2 5 3 6 4 2 5 1 6
REMARK H PARENT
REMARK Flexibility Score: inf
ROOT
ATOM      1  C   UNL     1      -3.296  -4.598   6.190  1.00  0.00     0.052 C 
ENDROOT
BRANCH   1   2
ATOM      2  C   UNL     1      -2.702  -3.582   7.114  1.00  0.00     0.041 C 
ATOM      3  O   UNL     1      -1.473  -3.317   7.058  1.00  0.00    -0.550 OA
ATOM      4  O   UNL     1      -3.516  -2.893   8.003  1.00  0.00    -0.550 OA
ENDBRANCH   1   2
BRANCH   1   5
ATOM      5  C   UNL     1      -4.152  -5.598   6.973  1.00  0.00     0.003 C 
ATOM      6  C   UNL     1      -4.222  -6.943   6.255  1.00  0.00     0.004 C 
ENDBRANCH   1   5
TORSDOF 2
ENDMDL
MODEL 9
REMARK VINA RESULT:    -2.115     12.231     12.819
REMARK INTER + INTRA:          -2.383
REMARK INTER:                  -2.334
REMARK INTRA:                  -0.048
REMARK UNBOUND:                -0.020
REMARK SMILES CCCC(=O)[O-]
REMARK SMILES IDX 3 1 4 2 5 3 6 4 2 5 1 6
REMARK H PARENT
REMARK Flexibility Score: inf
ROOT
ATOM      1  C   UNL     1       4.378   0.785  -1.111  1.00  0.00     0.052 C 
ENDROOT
BRANCH   1   2
ATOM      2  C   UNL     1       4.582   1.765  -2.223  1.00  0.00     0.041 C 
ATOM      3  O   UNL     1       4.547   1.380  -3.422  1.00  0.00    -0.550 OA
ATOM      4  O   UNL     1       4.761   3.112  -1.937  1.00  0.00    -0.550 OA
ENDBRANCH   1   2
BRANCH   1   5
ATOM      5  C   UNL     1       3.300  -0.236  -1.488  1.00  0.00     0.003 C 
ATOM      6  C   UNL     1       1.911   0.262  -1.101  1.00  0.00     0.004 C 
ENDBRANCH   1   5
TORSDOF 2
ENDMDL
