MODEL 1
REMARK VINA RESULT:    -3.811      0.000      0.000
REMARK INTER + INTRA:          -4.819
REMARK INTER:                  -4.702
REMARK INTRA:                  -0.116
REMARK UNBOUND:                -0.116
REMARK SMILES CCCCCC(=O)[O-]
REMARK SMILES IDX 4 1 5 2 6 3 7 4 8 5 3 6 2 7 1 8
REMARK H PARENT
REMARK Flexibility Score: inf
ROOT
ATOM      1  C   UNL     1      48.860  41.270  19.829  1.00  0.00     0.006 C 
ENDROOT
BRANCH   1   2
ATOM      2  C   UNL     1      49.483  41.219  21.228  1.00  0.00     0.053 C 
BRANCH   2   3
ATOM      3  C   UNL     1      50.279  42.457  21.492  1.00  0.00     0.041 C 
ATOM      4  O   UNL     1      49.837  43.583  21.142  1.00  0.00    -0.550 OA
ATOM      5  O   UNL     1      51.534  42.363  22.082  1.00  0.00    -0.550 OA
ENDBRANCH   2   3
ENDBRANCH   1   2
BRANCH   1   6
ATOM      6  C   UNL     1      47.406  40.786  19.857  1.00  0.00     0.000 C 
BRANCH   6   7
ATOM      7  C   UNL     1      47.070  39.984  18.594  1.00  0.00    -0.003 C 
ATOM      8  C   UNL     1      48.324  39.701  17.771  1.00  0.00     0.004 C 
ENDBRANCH   6   7
ENDBRANCH   1   6
TORSDOF 4
ENDMDL
MODEL 2
REMARK VINA RESULT:    -3.741     12.477     13.422
REMARK INTER + INTRA:          -4.732
REMARK INTER:                  -4.561
REMARK INTRA:                  -0.171
REMARK UNBOUND:                -0.116
REMARK SMILES CCCCCC(=O)[O-]
REMARK SMILES IDX 4 1 5 2 6 3 7 4 8 5 3 6 2 7 1 8
REMARK H PARENT
REMARK Flexibility Score: inf
ROOT
ATOM      1  C   UNL     1      42.147  49.862  13.252  1.00  0.00     0.006 C 
ENDROOT
BRANCH   1   2
ATOM      2  C   UNL     1      42.754  48.457  13.221  1.00  0.00     0.053 C 
BRANCH   2   3
ATOM      3  C   UNL     1      41.826  47.500  12.543  1.00  0.00     0.041 C 
ATOM      4  O   UNL     1      42.236  46.363  12.186  1.00  0.00    -0.550 OA
ATOM      5  O   UNL     1      40.520  47.881  12.259  1.00  0.00    -0.550 OA
ENDBRANCH   2   3
ENDBRANCH   1   2
BRANCH   1   6
ATOM      6  C   UNL     1      42.039  50.383  14.691  1.00  0.00     0.000 C 
BRANCH   6   7
ATOM      7  C   UNL     1      40.829  51.310  14.850  1.00  0.00    -0.003 C 
ATOM      8  C   UNL     1      39.782  51.040  13.772  1.00  0.00     0.004 C 
ENDBRANCH   6   7
ENDBRANCH   1   6
TORSDOF 4
ENDMDL
MODEL 3
REMARK VINA RESULT:    -3.618     13.076     13.885
REMARK INTER + INTRA:          -4.580
REMARK INTER:                  -4.476
REMARK INTRA:                  -0.105
REMARK UNBOUND:                -0.116
REMARK SMILES CCCCCC(=O)[O-]
REMARK SMILES IDX 4 1 5 2 6 3 7 4 8 5 3 6 2 7 1 8
REMARK H PARENT
REMARK Flexibility Score: inf
ROOT
ATOM      1  C   UNL     1      42.072  50.009  13.915  1.00  0.00     0.006 C 
ENDROOT
BRANCH   1   2
ATOM      2  C   UNL     1      40.714  50.297  13.268  1.00  0.00     0.053 C 
BRANCH   2   3
ATOM      3  C   UNL     1      39.869  51.136  14.173  1.00  0.00     0.041 C 
ATOM      4  O   UNL     1      38.826  51.689  13.734  1.00  0.00    -0.550 OA
ATOM      5  O   UNL     1      40.260  51.350  15.489  1.00  0.00    -0.550 OA
ENDBRANCH   2   3
ENDBRANCH   1   2
BRANCH   1   6
ATOM      6  C   UNL     1      42.744  48.793  13.266  1.00  0.00     0.000 C 
BRANCH   6   7
ATOM      7  C   UNL     1      43.133  49.092  11.814  1.00  0.00    -0.003 C 
ATOM      8  C   UNL     1      44.356  50.004  11.747  1.00  0.00     0.004 C 
ENDBRANCH   6   7
ENDBRANCH   1   6
TORSDOF 4
ENDMDL
MODEL 4
REMARK VINA RESULT:    -3.608      5.108      6.203
REMARK INTER + INTRA:          -4.568
REMARK INTER:                  -4.436
REMARK INTRA:                  -0.131
REMARK UNBOUND:                -0.116
REMARK SMILES CCCCCC(=O)[O-]
REMARK SMILES IDX 4 1 5 2 6 3 7 4 8 5 3 6 2 7 1 8
REMARK H PARENT
REMARK Flexibility Score: inf
ROOT
ATOM      1  C   UNL     1      45.734  38.145  19.361  1.00  0.00     0.006 C 
ENDROOT
BRANCH   1   2
ATOM      2  C   UNL     1      45.301  36.981  18.465  1.00  0.00     0.053 C 
BRANCH   2   3
ATOM      3  C   UNL     1      46.306  35.876  18.519  1.00  0.00     0.041 C 
ATOM      4  O   UNL     1      46.483  35.230  19.587  1.00  0.00    -0.550 OA
ATOM      5  O   UNL     1      47.085  35.589  17.405  1.00  0.00    -0.550 OA
ENDBRANCH   2   3
ENDBRANCH   1   2
BRANCH   1   6
ATOM      6  C   UNL     1      45.839  39.447  18.559  1.00  0.00     0.000 C 
BRANCH   6   7
ATOM      7  C   UNL     1      47.229  40.075  18.711  1.00  0.00    -0.003 C 
ATOM      8  C   UNL     1      48.177  39.587  17.619  1.00  0.00     0.004 C 
ENDBRANCH   6   7
ENDBRANCH   1   6
TORSDOF 4
ENDMDL
MODEL 5
REMARK VINA RESULT:    -3.590     12.682     13.503
REMARK INTER + INTRA:          -4.546
REMARK INTER:                  -4.430
REMARK INTRA:                  -0.116
REMARK UNBOUND:                -0.116
REMARK SMILES CCCCCC(=O)[O-]
REMARK SMILES IDX 4 1 5 2 6 3 7 4 8 5 3 6 2 7 1 8
REMARK H PARENT
REMARK Flexibility Score: inf
ROOT
ATOM      1  C   UNL     1      41.716  49.944  13.351  1.00  0.00     0.006 C 
ENDROOT
BRANCH   1   2
ATOM      2  C   UNL     1      42.796  48.870  13.184  1.00  0.00     0.053 C 
BRANCH   2   3
ATOM      3  C   UNL     1      43.669  49.182  12.012  1.00  0.00     0.041 C 
ATOM      4  O   UNL     1      44.173  50.330  11.883  1.00  0.00    -0.550 OA
ATOM      5  O   UNL     1      43.888  48.221  11.032  1.00  0.00    -0.550 OA
ENDBRANCH   2   3
ENDBRANCH   1   2
BRANCH   1   6
ATOM      6  C   UNL     1      41.815  50.613  14.727  1.00  0.00     0.000 C 
BRANCH   6   7
ATOM      7  C   UNL     1      40.520  51.362  15.067  1.00  0.00    -0.003 C 
ATOM      8  C   UNL     1      39.520  51.283  13.916  1.00  0.00     0.004 C 
ENDBRANCH   6   7
ENDBRANCH   1   6
TORSDOF 4
ENDMDL
MODEL 6
REMARK VINA RESULT:    -3.546      3.088      4.523
REMARK INTER + INTRA:          -4.491
REMARK INTER:                  -4.373
REMARK INTRA:                  -0.118
REMARK UNBOUND:                -0.116
REMARK SMILES CCCCCC(=O)[O-]
REMARK SMILES IDX 4 1 5 2 6 3 7 4 8 5 3 6 2 7 1 8
REMARK H PARENT
REMARK Flexibility Score: inf
ROOT
ATOM      1  C   UNL     1      47.726  40.952  20.540  1.00  0.00     0.006 C 
ENDROOT
BRANCH   1   2
ATOM      2  C   UNL     1      48.574  40.873  19.267  1.00  0.00     0.053 C 
BRANCH   2   3
ATOM      3  C   UNL     1      47.827  40.166  18.182  1.00  0.00     0.041 C 
ATOM      4  O   UNL     1      48.439  39.418  17.374  1.00  0.00    -0.550 OA
ATOM      5  O   UNL     1      46.461  40.372  18.030  1.00  0.00    -0.550 OA
ENDBRANCH   2   3
ENDBRANCH   1   2
BRANCH   1   6
ATOM      6  C   UNL     1      48.486  41.666  21.664  1.00  0.00     0.000 C 
BRANCH   6   7
ATOM      7  C   UNL     1      49.609  42.542  21.096  1.00  0.00    -0.003 C 
ATOM      8  C   UNL     1      50.902  42.361  21.887  1.00  0.00     0.004 C 
ENDBRANCH   6   7
ENDBRANCH   1   6
TORSDOF 4
ENDMDL
MODEL 7
REMARK VINA RESULT:    -3.537      3.559      4.695
REMARK INTER + INTRA:          -4.481
REMARK INTER:                  -4.364
REMARK INTRA:                  -0.116
REMARK UNBOUND:                -0.116
REMARK SMILES CCCCCC(=O)[O-]
REMARK SMILES IDX 4 1 5 2 6 3 7 4 8 5 3 6 2 7 1 8
REMARK H PARENT
REMARK Flexibility Score: inf
ROOT
ATOM      1  C   UNL     1      45.757  38.446  19.367  1.00  0.00     0.006 C 
ENDROOT
BRANCH   1   2
ATOM      2  C   UNL     1      46.021  39.531  18.319  1.00  0.00     0.053 C 
BRANCH   2   3
ATOM      3  C   UNL     1      47.452  39.962  18.360  1.00  0.00     0.041 C 
ATOM      4  O   UNL     1      48.267  39.541  17.496  1.00  0.00    -0.550 OA
ATOM      5  O   UNL     1      47.899  40.791  19.382  1.00  0.00    -0.550 OA
ENDBRANCH   2   3
ENDBRANCH   1   2
BRANCH   1   6
ATOM      6  C   UNL     1      45.240  37.161  18.710  1.00  0.00     0.000 C 
BRANCH   6   7
ATOM      7  C   UNL     1      46.150  35.971  19.037  1.00  0.00    -0.003 C 
ATOM      8  C   UNL     1      46.892  35.486  17.794  1.00  0.00     0.004 C 
ENDBRANCH   6   7
ENDBRANCH   1   6
TORSDOF 4
ENDMDL
MODEL 8
REMARK VINA RESULT:    -3.476      3.472      4.682
REMARK INTER + INTRA:          -4.405
REMARK INTER:                  -4.281
REMARK INTRA:                  -0.124
REMARK UNBOUND:                -0.116
REMARK SMILES CCCCCC(=O)[O-]
REMARK SMILES IDX 4 1 5 2 6 3 7 4 8 5 3 6 2 7 1 8
REMARK H PARENT
REMARK Flexibility Score: inf
ROOT
ATOM      1  C   UNL     1      45.764  38.988  19.398  1.00  0.00     0.006 C 
ENDROOT
BRANCH   1   2
ATOM      2  C   UNL     1      46.201  40.001  18.337  1.00  0.00     0.053 C 
BRANCH   2   3
ATOM      3  C   UNL     1      47.692  40.084  18.274  1.00  0.00     0.041 C 
ATOM      4  O   UNL     1      48.324  39.482  17.365  1.00  0.00    -0.550 OA
ATOM      5  O   UNL     1      48.391  40.785  19.249  1.00  0.00    -0.550 OA
ENDBRANCH   2   3
ENDBRANCH   1   2
BRANCH   1   6
ATOM      6  C   UNL     1      45.713  37.570  18.817  1.00  0.00     0.000 C 
BRANCH   6   7
ATOM      7  C   UNL     1      44.887  36.638  19.712  1.00  0.00    -0.003 C 
ATOM      8  C   UNL     1      44.120  37.428  20.769  1.00  0.00     0.004 C 
ENDBRANCH   6   7
ENDBRANCH   1   6
TORSDOF 4
ENDMDL
MODEL 9
REMARK VINA RESULT:    -3.468     12.379     12.993
REMARK INTER + INTRA:          -4.395
REMARK INTER:                  -4.285
REMARK INTRA:                  -0.110
REMARK UNBOUND:                -0.116
REMARK SMILES CCCCCC(=O)[O-]
REMARK SMILES IDX 4 1 5 2 6 3 7 4 8 5 3 6 2 7 1 8
REMARK H PARENT
REMARK Flexibility Score: inf
ROOT
ATOM      1  C   UNL     1      44.635  49.537  11.428  1.00  0.00     0.006 C 
ENDROOT
BRANCH   1   2
ATOM      2  C   UNL     1      43.189  49.928  11.744  1.00  0.00     0.053 C 
BRANCH   2   3
ATOM      3  C   UNL     1      42.794  49.426  13.096  1.00  0.00     0.041 C 
ATOM      4  O   UNL     1      42.705  48.188  13.312  1.00  0.00    -0.550 OA
ATOM      5  O   UNL     1      42.474  50.325  14.106  1.00  0.00    -0.550 OA
ENDBRANCH   2   3
ENDBRANCH   1   2
BRANCH   1   6
ATOM      6  C   UNL     1      45.597  50.688  11.742  1.00  0.00     0.000 C 
BRANCH   6   7
ATOM      7  C   UNL     1      46.952  50.474  11.056  1.00  0.00    -0.003 C 
ATOM      8  C   UNL     1      47.192  48.996  10.759  1.00  0.00     0.004 C 
ENDBRANCH   6   7
ENDBRANCH   1   6
TORSDOF 4
ENDMDL
