MODEL 1
REMARK VINA RESULT:    -4.503      0.000      0.000
REMARK INTER + INTRA:          -6.344
REMARK INTER:                  -5.819
REMARK INTRA:                  -0.525
REMARK UNBOUND:                -0.525
REMARK SMILES CO[C@@]1(CO)O[C@@H](CO)[C@H](O)[C@H]1O
REMARK SMILES IDX 3 1 12 2 10 3 7 4 6 5 2 6 1 7 4 8 5 9 13 11 11 13 8 15 9 16
REMARK H PARENT 5 10 13 12 11 14 9 17
REMARK Flexibility Score: inf
ROOT
ATOM      1  C   UNL     1      27.632   6.365  42.749  1.00  0.00     0.221 C 
ATOM      2  C   UNL     1      28.932   7.034  42.240  1.00  0.00     0.207 C 
ATOM      3  C   UNL     1      29.809   7.102  43.465  1.00  0.00     0.180 C 
ATOM      4  C   UNL     1      29.245   5.998  44.361  1.00  0.00     0.179 C 
ATOM      5  O   UNL     1      27.938   5.668  43.941  1.00  0.00    -0.337 OA
ENDROOT
BRANCH   1   6
ATOM      6  O   UNL     1      27.148   5.395  41.819  1.00  0.00    -0.349 OA
ATOM      7  C   UNL     1      25.737   5.283  41.797  1.00  0.00     0.198 C 
ENDBRANCH   1   6
BRANCH   1   8
ATOM      8  C   UNL     1      26.535   7.410  43.101  1.00  0.00     0.224 C 
BRANCH   8   9
ATOM      9  O   UNL     1      27.018   8.717  42.939  1.00  0.00    -0.391 OA
ATOM     10  H   UNL     1      27.451   8.743  42.047  1.00  0.00     0.210 HD
ENDBRANCH   8   9
ENDBRANCH   1   8
BRANCH   2  11
ATOM     11  O   UNL     1      29.552   6.227  41.268  1.00  0.00    -0.385 OA
ATOM     12  H   UNL     1      29.737   6.812  40.487  1.00  0.00     0.211 HD
ENDBRANCH   2  11
BRANCH   3  13
ATOM     13  O   UNL     1      29.671   8.358  44.080  1.00  0.00    -0.387 OA
ATOM     14  H   UNL     1      28.948   8.265  44.754  1.00  0.00     0.211 HD
ENDBRANCH   3  13
BRANCH   4  15
ATOM     15  C   UNL     1      30.112   4.729  44.329  1.00  0.00     0.191 C 
BRANCH  15  16
ATOM     16  O   UNL     1      29.717   3.878  43.286  1.00  0.00    -0.394 OA
ATOM     17  H   UNL     1      30.408   3.168  43.222  1.00  0.00     0.210 HD
ENDBRANCH  15  16
ENDBRANCH   4  15
TORSDOF 7
ENDMDL
MODEL 2
REMARK VINA RESULT:    -4.419      1.442      3.220
REMARK INTER + INTRA:          -6.236
REMARK INTER:                  -5.942
REMARK INTRA:                  -0.295
REMARK UNBOUND:                -0.525
REMARK SMILES CO[C@@]1(CO)O[C@@H](CO)[C@H](O)[C@H]1O
REMARK SMILES IDX 3 1 12 2 10 3 7 4 6 5 2 6 1 7 4 8 5 9 13 11 11 13 8 15 9 16
REMARK H PARENT 5 10 13 12 11 14 9 17
REMARK Flexibility Score: inf
ROOT
ATOM      1  C   UNL     1      28.641   5.549  43.046  1.00  0.00     0.221 C 
ATOM      2  C   UNL     1      29.168   6.100  44.392  1.00  0.00     0.207 C 
ATOM      3  C   UNL     1      28.835   7.570  44.338  1.00  0.00     0.180 C 
ATOM      4  C   UNL     1      27.684   7.631  43.332  1.00  0.00     0.179 C 
ATOM      5  O   UNL     1      27.674   6.454  42.552  1.00  0.00    -0.337 OA
ENDROOT
BRANCH   1   6
ATOM      6  O   UNL     1      27.978   4.296  43.222  1.00  0.00    -0.349 OA
ATOM      7  C   UNL     1      26.901   4.092  42.324  1.00  0.00     0.198 C 
ENDBRANCH   1   6
BRANCH   1   8
ATOM      8  C   UNL     1      29.764   5.450  41.974  1.00  0.00     0.224 C 
BRANCH   8   9
ATOM      9  O   UNL     1      29.847   6.634  41.226  1.00  0.00    -0.391 OA
ATOM     10  H   UNL     1      29.325   7.314  41.725  1.00  0.00     0.210 HD
ENDBRANCH   8   9
ENDBRANCH   1   8
BRANCH   2  11
ATOM     11  O   UNL     1      28.481   5.507  45.469  1.00  0.00    -0.385 OA
ATOM     12  H   UNL     1      27.964   4.747  45.094  1.00  0.00     0.211 HD
ENDBRANCH   2  11
BRANCH   3  13
ATOM     13  O   UNL     1      29.943   8.293  43.867  1.00  0.00    -0.387 OA
ATOM     14  H   UNL     1      29.652   9.239  43.787  1.00  0.00     0.211 HD
ENDBRANCH   3  13
BRANCH   4  15
ATOM     15  C   UNL     1      26.319   7.780  44.023  1.00  0.00     0.191 C 
BRANCH  15  16
ATOM     16  O   UNL     1      26.441   8.498  45.222  1.00  0.00    -0.394 OA
ATOM     17  H   UNL     1      26.052   7.928  45.936  1.00  0.00     0.210 HD
ENDBRANCH  15  16
ENDBRANCH   4  15
TORSDOF 7
ENDMDL
MODEL 3
REMARK VINA RESULT:    -4.390     16.237     18.616
REMARK INTER + INTRA:          -6.198
REMARK INTER:                  -5.820
REMARK INTRA:                  -0.378
REMARK UNBOUND:                -0.525
REMARK SMILES CO[C@@]1(CO)O[C@@H](CO)[C@H](O)[C@H]1O
REMARK SMILES IDX 3 1 12 2 10 3 7 4 6 5 2 6 1 7 4 8 5 9 13 11 11 13 8 15 9 16
REMARK H PARENT 5 10 13 12 11 14 9 17
REMARK Flexibility Score: inf
ROOT
ATOM      1  C   UNL     1      19.794  -4.666  31.975  1.00  0.00     0.221 C 
ATOM      2  C   UNL     1      19.723  -6.156  32.388  1.00  0.00     0.207 C 
ATOM      3  C   UNL     1      19.796  -6.900  31.079  1.00  0.00     0.180 C 
ATOM      4  C   UNL     1      20.477  -5.898  30.145  1.00  0.00     0.179 C 
ATOM      5  O   UNL     1      20.370  -4.598  30.686  1.00  0.00    -0.337 OA
ENDROOT
BRANCH   1   6
ATOM      6  O   UNL     1      20.649  -3.926  32.847  1.00  0.00    -0.349 OA
ATOM      7  C   UNL     1      20.060  -2.738  33.347  1.00  0.00     0.198 C 
ENDBRANCH   1   6
BRANCH   1   8
ATOM      8  C   UNL     1      18.383  -4.018  31.879  1.00  0.00     0.224 C 
BRANCH   8   9
ATOM      9  O   UNL     1      17.828  -4.212  30.606  1.00  0.00    -0.391 OA
ATOM     10  H   UNL     1      17.123  -4.902  30.713  1.00  0.00     0.210 HD
ENDBRANCH   8   9
ENDBRANCH   1   8
BRANCH   2  11
ATOM     11  O   UNL     1      20.834  -6.499  33.181  1.00  0.00    -0.385 OA
ATOM     12  H   UNL     1      20.867  -5.844  33.927  1.00  0.00     0.211 HD
ENDBRANCH   2  11
BRANCH   3  13
ATOM     13  O   UNL     1      18.500  -7.197  30.626  1.00  0.00    -0.387 OA
ATOM     14  H   UNL     1      18.281  -6.523  29.931  1.00  0.00     0.211 HD
ENDBRANCH   3  13
BRANCH   4  15
ATOM     15  C   UNL     1      21.963  -6.226  29.929  1.00  0.00     0.191 C 
BRANCH  15  16
ATOM     16  O   UNL     1      22.742  -5.735  30.987  1.00  0.00    -0.394 OA
ATOM     17  H   UNL     1      23.649  -5.567  30.618  1.00  0.00     0.210 HD
ENDBRANCH  15  16
ENDBRANCH   4  15
TORSDOF 7
ENDMDL
MODEL 4
REMARK VINA RESULT:    -4.326      1.584      2.654
REMARK INTER + INTRA:          -6.116
REMARK INTER:                  -5.572
REMARK INTRA:                  -0.544
REMARK UNBOUND:                -0.525
REMARK SMILES CO[C@@]1(CO)O[C@@H](CO)[C@H](O)[C@H]1O
REMARK SMILES IDX 3 1 12 2 10 3 7 4 6 5 2 6 1 7 4 8 5 9 13 11 11 13 8 15 9 16
REMARK H PARENT 5 10 13 12 11 14 9 17
REMARK Flexibility Score: inf
ROOT
ATOM      1  C   UNL     1      27.533   7.320  43.617  1.00  0.00     0.221 C 
ATOM      2  C   UNL     1      28.831   7.348  44.460  1.00  0.00     0.207 C 
ATOM      3  C   UNL     1      29.330   5.926  44.407  1.00  0.00     0.180 C 
ATOM      4  C   UNL     1      28.683   5.376  43.134  1.00  0.00     0.179 C 
ATOM      5  O   UNL     1      27.588   6.190  42.770  1.00  0.00    -0.337 OA
ENDROOT
BRANCH   1   6
ATOM      6  O   UNL     1      27.440   8.465  42.769  1.00  0.00    -0.349 OA
ATOM      7  C   UNL     1      26.136   9.013  42.695  1.00  0.00     0.198 C 
ENDBRANCH   1   6
BRANCH   1   8
ATOM      8  C   UNL     1      26.264   7.165  44.503  1.00  0.00     0.224 C 
BRANCH   8   9
ATOM      9  O   UNL     1      26.567   7.381  45.855  1.00  0.00    -0.391 OA
ATOM     10  H   UNL     1      26.549   8.364  45.989  1.00  0.00     0.210 HD
ENDBRANCH   8   9
ENDBRANCH   1   8
BRANCH   2  11
ATOM     11  O   UNL     1      29.784   8.198  43.867  1.00  0.00    -0.385 OA
ATOM     12  H   UNL     1      30.066   7.764  43.020  1.00  0.00     0.211 HD
ENDBRANCH   2  11
BRANCH   3  13
ATOM     13  O   UNL     1      28.880   5.221  45.536  1.00  0.00    -0.387 OA
ATOM     14  H   UNL     1      28.837   5.876  46.281  1.00  0.00     0.211 HD
ENDBRANCH   3  13
BRANCH   4  15
ATOM     15  C   UNL     1      29.673   5.320  41.960  1.00  0.00     0.191 C 
BRANCH  15  16
ATOM     16  O   UNL     1      29.764   6.567  41.322  1.00  0.00    -0.394 OA
ATOM     17  H   UNL     1      30.556   6.522  40.725  1.00  0.00     0.210 HD
ENDBRANCH  15  16
ENDBRANCH   4  15
TORSDOF 7
ENDMDL
MODEL 5
REMARK VINA RESULT:    -4.320     15.899     18.412
REMARK INTER + INTRA:          -6.109
REMARK INTER:                  -5.530
REMARK INTRA:                  -0.579
REMARK UNBOUND:                -0.525
REMARK SMILES CO[C@@]1(CO)O[C@@H](CO)[C@H](O)[C@H]1O
REMARK SMILES IDX 3 1 12 2 10 3 7 4 6 5 2 6 1 7 4 8 5 9 13 11 11 13 8 15 9 16
REMARK H PARENT 5 10 13 12 11 14 9 17
REMARK Flexibility Score: inf
ROOT
ATOM      1  C   UNL     1      20.718  -4.766  32.355  1.00  0.00     0.221 C 
ATOM      2  C   UNL     1      20.328  -4.470  30.887  1.00  0.00     0.207 C 
ATOM      3  C   UNL     1      19.354  -5.568  30.541  1.00  0.00     0.180 C 
ATOM      4  C   UNL     1      18.823  -6.007  31.907  1.00  0.00     0.179 C 
ATOM      5  O   UNL     1      19.708  -5.577  32.920  1.00  0.00    -0.337 OA
ENDROOT
BRANCH   1   6
ATOM      6  O   UNL     1      20.766  -3.568  33.132  1.00  0.00    -0.349 OA
ATOM      7  C   UNL     1      20.305  -3.735  34.461  1.00  0.00     0.198 C 
ENDBRANCH   1   6
BRANCH   1   8
ATOM      8  C   UNL     1      22.052  -5.561  32.457  1.00  0.00     0.224 C 
BRANCH   8   9
ATOM      9  O   UNL     1      22.661  -5.681  31.199  1.00  0.00    -0.391 OA
ATOM     10  H   UNL     1      22.133  -5.111  30.581  1.00  0.00     0.210 HD
ENDBRANCH   8   9
ENDBRANCH   1   8
BRANCH   2  11
ATOM     11  O   UNL     1      19.678  -3.225  30.793  1.00  0.00    -0.385 OA
ATOM     12  H   UNL     1      19.197  -3.218  29.924  1.00  0.00     0.211 HD
ENDBRANCH   2  11
BRANCH   3  13
ATOM     13  O   UNL     1      20.032  -6.624  29.910  1.00  0.00    -0.387 OA
ATOM     14  H   UNL     1      20.898  -6.729  30.384  1.00  0.00     0.211 HD
ENDBRANCH   3  13
BRANCH   4  15
ATOM     15  C   UNL     1      17.425  -5.436  32.193  1.00  0.00     0.191 C 
BRANCH  15  16
ATOM     16  O   UNL     1      17.031  -4.546  31.183  1.00  0.00    -0.394 OA
ATOM     17  H   UNL     1      16.040  -4.594  31.133  1.00  0.00     0.210 HD
ENDBRANCH  15  16
ENDBRANCH   4  15
TORSDOF 7
ENDMDL
MODEL 6
REMARK VINA RESULT:    -4.303      1.474      3.201
REMARK INTER + INTRA:          -6.086
REMARK INTER:                  -5.487
REMARK INTRA:                  -0.599
REMARK UNBOUND:                -0.525
REMARK SMILES CO[C@@]1(CO)O[C@@H](CO)[C@H](O)[C@H]1O
REMARK SMILES IDX 3 1 12 2 10 3 7 4 6 5 2 6 1 7 4 8 5 9 13 11 11 13 8 15 9 16
REMARK H PARENT 5 10 13 12 11 14 9 17
REMARK Flexibility Score: inf
ROOT
ATOM      1  C   UNL     1      27.202   5.462  43.023  1.00  0.00     0.221 C 
ATOM      2  C   UNL     1      28.426   4.547  43.264  1.00  0.00     0.207 C 
ATOM      3  C   UNL     1      29.536   5.213  42.489  1.00  0.00     0.180 C 
ATOM      4  C   UNL     1      29.067   6.665  42.386  1.00  0.00     0.179 C 
ATOM      5  O   UNL     1      27.677   6.733  42.629  1.00  0.00    -0.337 OA
ENDROOT
BRANCH   1   6
ATOM      6  O   UNL     1      26.455   5.657  44.224  1.00  0.00    -0.349 OA
ATOM      7  C   UNL     1      25.642   6.817  44.206  1.00  0.00     0.198 C 
ENDBRANCH   1   6
BRANCH   1   8
ATOM      8  C   UNL     1      26.297   4.936  41.872  1.00  0.00     0.224 C 
BRANCH   8   9
ATOM      9  O   UNL     1      26.649   3.626  41.516  1.00  0.00    -0.391 OA
ATOM     10  H   UNL     1      27.533   3.689  41.069  1.00  0.00     0.210 HD
ENDBRANCH   8   9
ENDBRANCH   1   8
BRANCH   2  11
ATOM     11  O   UNL     1      28.763   4.526  44.631  1.00  0.00    -0.385 OA
ATOM     12  H   UNL     1      29.055   3.600  44.839  1.00  0.00     0.211 HD
ENDBRANCH   2  11
BRANCH   3  13
ATOM     13  O   UNL     1      29.639   4.634  41.213  1.00  0.00    -0.387 OA
ATOM     14  H   UNL     1      29.300   5.308  40.567  1.00  0.00     0.211 HD
ENDBRANCH   3  13
BRANCH   4  15
ATOM     15  C   UNL     1      29.791   7.579  43.387  1.00  0.00     0.191 C 
BRANCH  15  16
ATOM     16  O   UNL     1      29.080   7.664  44.593  1.00  0.00    -0.394 OA
ATOM     17  H   UNL     1      28.340   8.308  44.441  1.00  0.00     0.210 HD
ENDBRANCH  15  16
ENDBRANCH   4  15
TORSDOF 7
ENDMDL
MODEL 7
REMARK VINA RESULT:    -4.294      1.737      2.290
REMARK INTER + INTRA:          -6.075
REMARK INTER:                  -5.529
REMARK INTRA:                  -0.546
REMARK UNBOUND:                -0.525
REMARK SMILES CO[C@@]1(CO)O[C@@H](CO)[C@H](O)[C@H]1O
REMARK SMILES IDX 3 1 12 2 10 3 7 4 6 5 2 6 1 7 4 8 5 9 13 11 11 13 8 15 9 16
REMARK H PARENT 5 10 13 12 11 14 9 17
REMARK Flexibility Score: inf
ROOT
ATOM      1  C   UNL     1      27.064   6.170  44.523  1.00  0.00     0.221 C 
ATOM      2  C   UNL     1      26.971   6.905  43.165  1.00  0.00     0.207 C 
ATOM      3  C   UNL     1      28.389   7.340  42.889  1.00  0.00     0.180 C 
ATOM      4  C   UNL     1      29.221   6.365  43.723  1.00  0.00     0.179 C 
ATOM      5  O   UNL     1      28.407   5.773  44.714  1.00  0.00    -0.337 OA
ENDROOT
BRANCH   1   6
ATOM      6  O   UNL     1      26.279   4.976  44.522  1.00  0.00    -0.349 OA
ATOM      7  C   UNL     1      26.863   3.912  45.252  1.00  0.00     0.198 C 
ENDBRANCH   1   6
BRANCH   1   8
ATOM      8  C   UNL     1      26.687   7.095  45.716  1.00  0.00     0.224 C 
BRANCH   8   9
ATOM      9  O   UNL     1      26.410   8.396  45.273  1.00  0.00    -0.391 OA
ATOM     10  H   UNL     1      25.582   8.678  45.742  1.00  0.00     0.210 HD
ENDBRANCH   8   9
ENDBRANCH   1   8
BRANCH   2  11
ATOM     11  O   UNL     1      26.551   6.020  42.154  1.00  0.00    -0.385 OA
ATOM     12  H   UNL     1      26.075   6.567  41.475  1.00  0.00     0.211 HD
ENDBRANCH   2  11
BRANCH   3  13
ATOM     13  O   UNL     1      28.578   8.659  43.335  1.00  0.00    -0.387 OA
ATOM     14  H   UNL     1      28.019   8.766  44.148  1.00  0.00     0.211 HD
ENDBRANCH   3  13
BRANCH   4  15
ATOM     15  C   UNL     1      29.843   5.253  42.863  1.00  0.00     0.191 C 
BRANCH  15  16
ATOM     16  O   UNL     1      29.610   5.486  41.499  1.00  0.00    -0.394 OA
ATOM     17  H   UNL     1      28.752   5.036  41.278  1.00  0.00     0.210 HD
ENDBRANCH  15  16
ENDBRANCH   4  15
TORSDOF 7
ENDMDL
MODEL 8
REMARK VINA RESULT:    -4.293     17.542     18.786
REMARK INTER + INTRA:          -6.074
REMARK INTER:                  -5.527
REMARK INTRA:                  -0.547
REMARK UNBOUND:                -0.525
REMARK SMILES CO[C@@]1(CO)O[C@@H](CO)[C@H](O)[C@H]1O
REMARK SMILES IDX 3 1 12 2 10 3 7 4 6 5 2 6 1 7 4 8 5 9 13 11 11 13 8 15 9 16
REMARK H PARENT 5 10 13 12 11 14 9 17
REMARK Flexibility Score: inf
ROOT
ATOM      1  C   UNL     1      20.813  -5.839  31.673  1.00  0.00     0.221 C 
ATOM      2  C   UNL     1      19.720  -6.865  32.057  1.00  0.00     0.207 C 
ATOM      3  C   UNL     1      18.885  -6.140  33.083  1.00  0.00     0.180 C 
ATOM      4  C   UNL     1      19.157  -4.666  32.776  1.00  0.00     0.179 C 
ATOM      5  O   UNL     1      20.343  -4.550  32.017  1.00  0.00    -0.337 OA
ENDROOT
BRANCH   1   6
ATOM      6  O   UNL     1      21.043  -5.828  30.263  1.00  0.00    -0.349 OA
ATOM      7  C   UNL     1      22.245  -6.471  29.879  1.00  0.00     0.198 C 
ENDBRANCH   1   6
BRANCH   1   8
ATOM      8  C   UNL     1      22.134  -6.068  32.461  1.00  0.00     0.224 C 
BRANCH   8   9
ATOM      9  O   UNL     1      22.047  -7.216  33.261  1.00  0.00    -0.391 OA
ATOM     10  H   UNL     1      21.809  -6.902  34.172  1.00  0.00     0.210 HD
ENDBRANCH   8   9
ENDBRANCH   1   8
BRANCH   2  11
ATOM     11  O   UNL     1      18.920  -7.173  30.940  1.00  0.00    -0.385 OA
ATOM     12  H   UNL     1      18.282  -7.876  31.231  1.00  0.00     0.211 HD
ENDBRANCH   2  11
BRANCH   3  13
ATOM     13  O   UNL     1      19.329  -6.467  34.375  1.00  0.00    -0.387 OA
ATOM     14  H   UNL     1      18.795  -5.916  35.006  1.00  0.00     0.211 HD
ENDBRANCH   3  13
BRANCH   4  15
ATOM     15  C   UNL     1      18.004  -4.015  31.997  1.00  0.00     0.191 C 
BRANCH  15  16
ATOM     16  O   UNL     1      18.137  -4.246  30.619  1.00  0.00    -0.394 OA
ATOM     17  H   UNL     1      19.072  -4.543  30.471  1.00  0.00     0.210 HD
ENDBRANCH  15  16
ENDBRANCH   4  15
TORSDOF 7
ENDMDL
