MODEL 1
REMARK VINA RESULT:    -9.651      0.000      0.000
REMARK INTER + INTRA:         -18.519
REMARK INTER:                 -15.857
REMARK INTRA:                  -2.663
REMARK UNBOUND:                -2.663
REMARK SMILES C[C@@H]1O[C@@H](OC[C@@H]2O[C@H](Oc3c(-c4ccc(O)c(O)c4)oc4cc(O)cc(O)c4c3=O)[C@@H](O)[C@@H](O)[C@H]2O)[C@H](O)[C@@H](O)[C@@H]1O
REMARK SMILES IDX 7 1 36 2 34 3 32 4 9 5 8 6 6 7 5 8 4 9 1 10 2 11 42 12 3 13
REMARK SMILES IDX 40 14 38 15 43 16 41 18 39 20 37 22 35 24 10 26 11 27 12 28
REMARK SMILES IDX 30 29 21 30 29 31 31 32 22 33 27 34 23 35 26 36 24 37 13 38
REMARK SMILES IDX 20 39 14 40 18 41 15 42 16 43 19 44 17 46 28 48 25 50 33 52
REMARK H PARENT 43 17 41 19 39 21 37 23 35 25 19 45 17 47 28 49 25 51 33 53
REMARK Flexibility Score: inf
ROOT
ATOM      1  C   UNL     1      73.218  65.787 105.701  1.00  0.00     0.180 C 
ATOM      2  C   UNL     1      71.957  65.299 104.972  1.00  0.00     0.177 C 
ATOM      3  C   UNL     1      71.493  63.912 105.534  1.00  0.00     0.180 C 
ATOM      4  C   UNL     1      71.842  63.771 107.031  1.00  0.00     0.214 C 
ATOM      5  C   UNL     1      73.365  64.072 107.277  1.00  0.00     0.339 C 
ATOM      6  O   UNL     1      73.972  64.661 106.141  1.00  0.00    -0.332 OA
ENDROOT
BRANCH   1   7
ATOM      7  C   UNL     1      74.089  66.716 104.821  1.00  0.00     0.198 C 
BRANCH   7   8
ATOM      8  O   UNL     1      74.216  66.174 103.519  1.00  0.00    -0.347 OA
BRANCH   8   9
ATOM      9  C   UNL     1      75.192  65.126 103.426  1.00  0.00     0.281 C 
ATOM     10  C   UNL     1      78.371  64.627 101.887  1.00  0.00     0.041 C 
ATOM     11  C   UNL     1      76.958  65.231 101.718  1.00  0.00     0.150 C 
ATOM     12  C   UNL     1      76.040  64.409 100.712  1.00  0.00     0.174 C 
ATOM     13  O   UNL     1      76.480  65.562 103.018  1.00  0.00    -0.344 OA
ATOM     14  C   UNL     1      74.687  63.889 101.268  1.00  0.00     0.179 C 
ATOM     15  C   UNL     1      74.652  63.839 102.795  1.00  0.00     0.202 C 
BRANCH  12  16
ATOM     16  O   UNL     1      76.750  63.318 100.154  1.00  0.00    -0.388 OA
ATOM     17  H   UNL     1      76.906  62.683 100.899  1.00  0.00     0.211 HD
ENDBRANCH  12  16
BRANCH  14  18
ATOM     18  O   UNL     1      73.613  64.642 100.749  1.00  0.00    -0.387 OA
ATOM     19  H   UNL     1      73.854  65.607 100.808  1.00  0.00     0.211 HD
ENDBRANCH  14  18
BRANCH  15  20
ATOM     20  O   UNL     1      75.341  62.712 103.283  1.00  0.00    -0.385 OA
ATOM     21  H   UNL     1      75.132  62.633 104.242  1.00  0.00     0.211 HD
ENDBRANCH  15  20
ENDBRANCH   8   9
ENDBRANCH   7   8
ENDBRANCH   1   7
BRANCH   2  22
ATOM     22  O   UNL     1      70.945  66.272 105.041  1.00  0.00    -0.387 OA
ATOM     23  H   UNL     1      70.294  65.981 105.724  1.00  0.00     0.211 HD
ENDBRANCH   2  22
BRANCH   3  24
ATOM     24  O   UNL     1      70.153  63.567 105.278  1.00  0.00    -0.387 OA
ATOM     25  H   UNL     1      69.610  63.743 106.086  1.00  0.00     0.211 HD
ENDBRANCH   3  24
BRANCH   5  26
ATOM     26  O   UNL     1      73.981  62.826 107.594  1.00  0.00    -0.454 OA
BRANCH  26  27
ATOM     27  C   UNL     1      75.192  62.270 107.169  1.00  0.00     0.214 A 
ATOM     28  C   UNL     1      75.154  61.178 106.254  1.00  0.00     0.180 A 
ATOM     29  C   UNL     1      76.455  62.814 107.496  1.00  0.00     0.239 A 
ATOM     30  O   UNL     1      76.234  60.925 105.518  1.00  0.00    -0.452 OA
ATOM     31  C   UNL     1      77.572  62.496 106.686  1.00  0.00     0.111 A 
ATOM     32  O   UNL     1      76.599  63.575 108.498  1.00  0.00    -0.285 OA
ATOM     33  C   UNL     1      77.381  61.555 105.655  1.00  0.00     0.146 A 
ATOM     34  C   UNL     1      78.837  63.105 106.837  1.00  0.00     0.134 A 
ATOM     35  C   UNL     1      78.414  61.245 104.771  1.00  0.00     0.094 A 
ATOM     36  C   UNL     1      79.859  62.801 105.916  1.00  0.00     0.093 A 
ATOM     37  C   UNL     1      79.659  61.871 104.902  1.00  0.00     0.123 A 
BRANCH  28  38
ATOM     38  C   UNL     1      73.960  60.289 106.020  1.00  0.00     0.025 A 
ATOM     39  C   UNL     1      73.721  59.100 106.742  1.00  0.00     0.062 A 
ATOM     40  C   UNL     1      73.075  60.610 104.954  1.00  0.00     0.016 A 
ATOM     41  C   UNL     1      72.622  58.283 106.440  1.00  0.00     0.158 A 
ATOM     42  C   UNL     1      72.044  59.740 104.600  1.00  0.00     0.051 A 
ATOM     43  C   UNL     1      71.807  58.583 105.331  1.00  0.00     0.157 A 
BRANCH  41  44
ATOM     44  O   UNL     1      72.354  57.163 107.230  1.00  0.00    -0.504 OA
ATOM     45  H   UNL     1      72.524  57.139 108.232  1.00  0.00     0.293 HD
ENDBRANCH  41  44
BRANCH  43  46
ATOM     46  O   UNL     1      70.743  57.761 104.959  1.00  0.00    -0.504 OA
ATOM     47  H   UNL     1      69.809  57.890 105.312  1.00  0.00     0.293 HD
ENDBRANCH  43  46
ENDBRANCH  28  38
BRANCH  34  48
ATOM     48  O   UNL     1      79.089  63.989 107.890  1.00  0.00    -0.507 OA
ATOM     49  H   UNL     1      78.346  64.382 108.423  1.00  0.00     0.293 HD
ENDBRANCH  34  48
BRANCH  37  50
ATOM     50  O   UNL     1      80.683  61.568 104.013  1.00  0.00    -0.508 OA
ATOM     51  H   UNL     1      80.694  61.957 103.076  1.00  0.00     0.293 HD
ENDBRANCH  37  50
ENDBRANCH  26  27
ENDBRANCH   5  26
BRANCH   4  52
ATOM     52  O   UNL     1      71.023  64.602 107.812  1.00  0.00    -0.384 OA
ATOM     53  H   UNL     1      70.777  65.396 107.241  1.00  0.00     0.211 HD
ENDBRANCH   4  52
TORSDOF 16
ENDMDL
MODEL 2
REMARK VINA RESULT:    -9.492      0.852      1.611
REMARK INTER + INTRA:         -18.259
REMARK INTER:                 -15.373
REMARK INTRA:                  -2.887
REMARK UNBOUND:                -2.663
REMARK SMILES C[C@@H]1O[C@@H](OC[C@@H]2O[C@H](Oc3c(-c4ccc(O)c(O)c4)oc4cc(O)cc(O)c4c3=O)[C@@H](O)[C@@H](O)[C@H]2O)[C@H](O)[C@@H](O)[C@@H]1O
REMARK SMILES IDX 7 1 36 2 34 3 32 4 9 5 8 6 6 7 5 8 4 9 1 10 2 11 42 12 3 13
REMARK SMILES IDX 40 14 38 15 43 16 41 18 39 20 37 22 35 24 10 26 11 27 12 28
REMARK SMILES IDX 30 29 21 30 29 31 31 32 22 33 27 34 23 35 26 36 24 37 13 38
REMARK SMILES IDX 20 39 14 40 18 41 15 42 16 43 19 44 17 46 28 48 25 50 33 52
REMARK H PARENT 43 17 41 19 39 21 37 23 35 25 19 45 17 47 28 49 25 51 33 53
REMARK Flexibility Score: inf
ROOT
ATOM      1  C   UNL     1      73.129  65.837 105.324  1.00  0.00     0.180 C 
ATOM      2  C   UNL     1      71.779  65.402 104.732  1.00  0.00     0.177 C 
ATOM      3  C   UNL     1      71.259  64.102 105.438  1.00  0.00     0.180 C 
ATOM      4  C   UNL     1      71.717  64.044 106.911  1.00  0.00     0.214 C 
ATOM      5  C   UNL     1      73.273  64.236 107.016  1.00  0.00     0.339 C 
ATOM      6  O   UNL     1      73.828  64.689 105.794  1.00  0.00    -0.332 OA
ENDROOT
BRANCH   1   7
ATOM      7  C   UNL     1      73.993  66.624 104.309  1.00  0.00     0.198 C 
BRANCH   7   8
ATOM      8  O   UNL     1      75.144  65.873 103.964  1.00  0.00    -0.347 OA
BRANCH   8   9
ATOM      9  C   UNL     1      75.039  65.213 102.695  1.00  0.00     0.281 C 
ATOM     10  C   UNL     1      74.119  61.989 101.479  1.00  0.00     0.041 C 
ATOM     11  C   UNL     1      74.869  62.762 102.587  1.00  0.00     0.150 C 
ATOM     12  C   UNL     1      76.451  62.653 102.467  1.00  0.00     0.174 C 
ATOM     13  O   UNL     1      74.245  64.036 102.712  1.00  0.00    -0.344 OA
ATOM     14  C   UNL     1      77.237  63.988 102.360  1.00  0.00     0.179 C 
ATOM     15  C   UNL     1      76.361  65.160 101.920  1.00  0.00     0.202 C 
BRANCH  12  16
ATOM     16  O   UNL     1      76.822  61.821 101.382  1.00  0.00    -0.388 OA
ATOM     17  H   UNL     1      77.673  61.388 101.647  1.00  0.00     0.211 HD
ENDBRANCH  12  16
BRANCH  14  18
ATOM     18  O   UNL     1      77.910  64.268 103.568  1.00  0.00    -0.387 OA
ATOM     19  H   UNL     1      77.327  64.862 104.117  1.00  0.00     0.211 HD
ENDBRANCH  14  18
BRANCH  15  20
ATOM     20  O   UNL     1      76.129  65.129 100.532  1.00  0.00    -0.385 OA
ATOM     21  H   UNL     1      76.976  64.876 100.098  1.00  0.00     0.211 HD
ENDBRANCH  15  20
ENDBRANCH   8   9
ENDBRANCH   7   8
ENDBRANCH   1   7
BRANCH   2  22
ATOM     22  O   UNL     1      70.853  66.457 104.799  1.00  0.00    -0.387 OA
ATOM     23  H   UNL     1      70.902  66.954 103.947  1.00  0.00     0.211 HD
ENDBRANCH   2  22
BRANCH   3  24
ATOM     24  O   UNL     1      69.879  63.851 105.312  1.00  0.00    -0.387 OA
ATOM     25  H   UNL     1      69.412  64.693 105.088  1.00  0.00     0.211 HD
ENDBRANCH   3  24
BRANCH   5  26
ATOM     26  O   UNL     1      73.816  62.971 107.384  1.00  0.00    -0.454 OA
BRANCH  26  27
ATOM     27  C   UNL     1      75.054  62.387 107.094  1.00  0.00     0.214 A 
ATOM     28  C   UNL     1      75.080  61.224 106.271  1.00  0.00     0.180 A 
ATOM     29  C   UNL     1      76.291  62.961 107.466  1.00  0.00     0.239 A 
ATOM     30  O   UNL     1      76.209  60.917 105.638  1.00  0.00    -0.452 OA
ATOM     31  C   UNL     1      77.463  62.583 106.768  1.00  0.00     0.111 A 
ATOM     32  O   UNL     1      76.363  63.802 108.411  1.00  0.00    -0.285 OA
ATOM     33  C   UNL     1      77.344  61.561 105.805  1.00  0.00     0.146 A 
ATOM     34  C   UNL     1      78.714  63.208 106.960  1.00  0.00     0.134 A 
ATOM     35  C   UNL     1      78.438  61.184 105.027  1.00  0.00     0.094 A 
ATOM     36  C   UNL     1      79.800  62.834 106.143  1.00  0.00     0.093 A 
ATOM     37  C   UNL     1      79.672  61.824 105.196  1.00  0.00     0.123 A 
BRANCH  28  38
ATOM     38  C   UNL     1      73.905  60.314 106.024  1.00  0.00     0.025 A 
ATOM     39  C   UNL     1      73.679  59.122 106.744  1.00  0.00     0.062 A 
ATOM     40  C   UNL     1      73.025  60.619 104.948  1.00  0.00     0.016 A 
ATOM     41  C   UNL     1      72.598  58.285 106.430  1.00  0.00     0.158 A 
ATOM     42  C   UNL     1      72.014  59.732 104.584  1.00  0.00     0.051 A 
ATOM     43  C   UNL     1      71.789  58.571 105.313  1.00  0.00     0.157 A 
BRANCH  41  44
ATOM     44  O   UNL     1      72.341  57.162 107.218  1.00  0.00    -0.504 OA
ATOM     45  H   UNL     1      73.077  56.584 107.616  1.00  0.00     0.293 HD
ENDBRANCH  41  44
BRANCH  43  46
ATOM     46  O   UNL     1      70.744  57.730 104.929  1.00  0.00    -0.504 OA
ATOM     47  H   UNL     1      70.621  57.418 103.980  1.00  0.00     0.293 HD
ENDBRANCH  43  46
ENDBRANCH  28  38
BRANCH  34  48
ATOM     48  O   UNL     1      78.891  64.175 107.953  1.00  0.00    -0.507 OA
ATOM     49  H   UNL     1      78.166  64.388 108.601  1.00  0.00     0.293 HD
ENDBRANCH  34  48
BRANCH  37  50
ATOM     50  O   UNL     1      80.757  61.454 104.410  1.00  0.00    -0.508 OA
ATOM     51  H   UNL     1      81.708  61.609 104.727  1.00  0.00     0.293 HD
ENDBRANCH  37  50
ENDBRANCH  26  27
ENDBRANCH   5  26
BRANCH   4  52
ATOM     52  O   UNL     1      71.029  64.995 107.682  1.00  0.00    -0.384 OA
ATOM     53  H   UNL     1      70.242  64.524 108.101  1.00  0.00     0.211 HD
ENDBRANCH   4  52
TORSDOF 16
ENDMDL
MODEL 3
REMARK VINA RESULT:    -9.318      1.622      2.687
REMARK INTER + INTRA:         -17.973
REMARK INTER:                 -15.136
REMARK INTRA:                  -2.838
REMARK UNBOUND:                -2.663
REMARK SMILES C[C@@H]1O[C@@H](OC[C@@H]2O[C@H](Oc3c(-c4ccc(O)c(O)c4)oc4cc(O)cc(O)c4c3=O)[C@@H](O)[C@@H](O)[C@H]2O)[C@H](O)[C@@H](O)[C@@H]1O
REMARK SMILES IDX 7 1 36 2 34 3 32 4 9 5 8 6 6 7 5 8 4 9 1 10 2 11 42 12 3 13
REMARK SMILES IDX 40 14 38 15 43 16 41 18 39 20 37 22 35 24 10 26 11 27 12 28
REMARK SMILES IDX 30 29 21 30 29 31 31 32 22 33 27 34 23 35 26 36 24 37 13 38
REMARK SMILES IDX 20 39 14 40 18 41 15 42 16 43 19 44 17 46 28 48 25 50 33 52
REMARK H PARENT 43 17 41 19 39 21 37 23 35 25 19 45 17 47 28 49 25 51 33 53
REMARK Flexibility Score: inf
ROOT
ATOM      1  C   UNL     1      72.313  64.462 107.463  1.00  0.00     0.180 C 
ATOM      2  C   UNL     1      71.312  63.838 108.448  1.00  0.00     0.177 C 
ATOM      3  C   UNL     1      71.995  62.704 109.287  1.00  0.00     0.180 C 
ATOM      4  C   UNL     1      73.494  62.999 109.510  1.00  0.00     0.214 C 
ATOM      5  C   UNL     1      74.212  63.288 108.142  1.00  0.00     0.339 C 
ATOM      6  O   UNL     1      73.281  63.485 107.094  1.00  0.00    -0.332 OA
ENDROOT
BRANCH   1   7
ATOM      7  C   UNL     1      71.621  65.046 106.208  1.00  0.00     0.198 C 
BRANCH   7   8
ATOM      8  O   UNL     1      72.561  65.754 105.419  1.00  0.00    -0.347 OA
BRANCH   8   9
ATOM      9  C   UNL     1      72.471  65.458 104.018  1.00  0.00     0.281 C 
ATOM     10  C   UNL     1      73.581  62.896 101.798  1.00  0.00     0.041 C 
ATOM     11  C   UNL     1      73.956  63.775 103.013  1.00  0.00     0.150 C 
ATOM     12  C   UNL     1      75.015  64.910 102.665  1.00  0.00     0.174 C 
ATOM     13  O   UNL     1      72.746  64.105 103.687  1.00  0.00    -0.344 OA
ATOM     14  C   UNL     1      74.597  66.373 102.973  1.00  0.00     0.179 C 
ATOM     15  C   UNL     1      73.085  66.540 103.122  1.00  0.00     0.202 C 
BRANCH  12  16
ATOM     16  O   UNL     1      75.416  64.830 101.309  1.00  0.00    -0.388 OA
ATOM     17  H   UNL     1      76.086  65.549 101.178  1.00  0.00     0.211 HD
ENDBRANCH  12  16
BRANCH  14  18
ATOM     18  O   UNL     1      75.286  66.860 104.103  1.00  0.00    -0.387 OA
ATOM     19  H   UNL     1      75.890  67.595 103.807  1.00  0.00     0.211 HD
ENDBRANCH  14  18
BRANCH  15  20
ATOM     20  O   UNL     1      72.451  66.572 101.866  1.00  0.00    -0.385 OA
ATOM     21  H   UNL     1      71.481  66.508 102.025  1.00  0.00     0.211 HD
ENDBRANCH  15  20
ENDBRANCH   8   9
ENDBRANCH   7   8
ENDBRANCH   1   7
BRANCH   2  22
ATOM     22  O   UNL     1      70.737  64.833 109.257  1.00  0.00    -0.387 OA
ATOM     23  H   UNL     1      70.082  64.395 109.853  1.00  0.00     0.211 HD
ENDBRANCH   2  22
BRANCH   3  24
ATOM     24  O   UNL     1      71.348  62.360 110.489  1.00  0.00    -0.387 OA
ATOM     25  H   UNL     1      71.989  62.435 111.238  1.00  0.00     0.211 HD
ENDBRANCH   3  24
BRANCH   5  26
ATOM     26  O   UNL     1      75.049  62.166 107.876  1.00  0.00    -0.454 OA
BRANCH  26  27
ATOM     27  C   UNL     1      75.895  61.892 106.796  1.00  0.00     0.214 A 
ATOM     28  C   UNL     1      75.354  61.213 105.666  1.00  0.00     0.180 A 
ATOM     29  C   UNL     1      77.224  62.364 106.709  1.00  0.00     0.239 A 
ATOM     30  O   UNL     1      75.979  61.325 104.496  1.00  0.00    -0.452 OA
ATOM     31  C   UNL     1      77.845  62.446 105.439  1.00  0.00     0.111 A 
ATOM     32  O   UNL     1      77.863  62.711 107.747  1.00  0.00    -0.285 OA
ATOM     33  C   UNL     1      77.132  61.939 104.334  1.00  0.00     0.146 A 
ATOM     34  C   UNL     1      79.107  63.043 105.231  1.00  0.00     0.134 A 
ATOM     35  C   UNL     1      77.646  62.049 103.043  1.00  0.00     0.094 A 
ATOM     36  C   UNL     1      79.595  63.172 103.915  1.00  0.00     0.093 A 
ATOM     37  C   UNL     1      78.884  62.669 102.832  1.00  0.00     0.123 A 
BRANCH  28  38
ATOM     38  C   UNL     1      74.091  60.392 105.674  1.00  0.00     0.025 A 
ATOM     39  C   UNL     1      73.888  59.285 106.525  1.00  0.00     0.062 A 
ATOM     40  C   UNL     1      73.085  60.685 104.711  1.00  0.00     0.016 A 
ATOM     41  C   UNL     1      72.713  58.523 106.447  1.00  0.00     0.158 A 
ATOM     42  C   UNL     1      71.968  59.863 104.578  1.00  0.00     0.051 A 
ATOM     43  C   UNL     1      71.770  58.788 105.436  1.00  0.00     0.157 A 
BRANCH  41  44
ATOM     44  O   UNL     1      72.495  57.492 107.363  1.00  0.00    -0.504 OA
ATOM     45  H   UNL     1      71.592  57.319 107.798  1.00  0.00     0.293 HD
ENDBRANCH  41  44
BRANCH  43  46
ATOM     46  O   UNL     1      70.619  58.012 105.284  1.00  0.00    -0.504 OA
ATOM     47  H   UNL     1      69.735  58.270 105.690  1.00  0.00     0.293 HD
ENDBRANCH  43  46
ENDBRANCH  28  38
BRANCH  34  48
ATOM     48  O   UNL     1      79.877  63.492 106.306  1.00  0.00    -0.507 OA
ATOM     49  H   UNL     1      80.732  63.980 106.162  1.00  0.00     0.293 HD
ENDBRANCH  34  48
BRANCH  37  50
ATOM     50  O   UNL     1      79.388  62.786 101.542  1.00  0.00    -0.508 OA
ATOM     51  H   UNL     1      80.387  62.809 101.372  1.00  0.00     0.293 HD
ENDBRANCH  37  50
ENDBRANCH  26  27
ENDBRANCH   5  26
BRANCH   4  52
ATOM     52  O   UNL     1      73.661  64.061 110.412  1.00  0.00    -0.384 OA
ATOM     53  H   UNL     1      74.648  64.128 110.611  1.00  0.00     0.211 HD
ENDBRANCH   4  52
TORSDOF 16
ENDMDL
MODEL 4
REMARK VINA RESULT:    -9.195      1.933      5.602
REMARK INTER + INTRA:         -17.771
REMARK INTER:                 -14.637
REMARK INTRA:                  -3.134
REMARK UNBOUND:                -2.663
REMARK SMILES C[C@@H]1O[C@@H](OC[C@@H]2O[C@H](Oc3c(-c4ccc(O)c(O)c4)oc4cc(O)cc(O)c4c3=O)[C@@H](O)[C@@H](O)[C@H]2O)[C@H](O)[C@@H](O)[C@@H]1O
REMARK SMILES IDX 7 1 36 2 34 3 32 4 9 5 8 6 6 7 5 8 4 9 1 10 2 11 42 12 3 13
REMARK SMILES IDX 40 14 38 15 43 16 41 18 39 20 37 22 35 24 10 26 11 27 12 28
REMARK SMILES IDX 30 29 21 30 29 31 31 32 22 33 27 34 23 35 26 36 24 37 13 38
REMARK SMILES IDX 20 39 14 40 18 41 15 42 16 43 19 44 17 46 28 48 25 50 33 52
REMARK H PARENT 43 17 41 19 39 21 37 23 35 25 19 45 17 47 28 49 25 51 33 53
REMARK Flexibility Score: inf
ROOT
ATOM      1  C   UNL     1      75.502  65.908 104.393  1.00  0.00     0.180 C 
ATOM      2  C   UNL     1      75.228  65.798 102.886  1.00  0.00     0.177 C 
ATOM      3  C   UNL     1      73.786  65.241 102.624  1.00  0.00     0.180 C 
ATOM      4  C   UNL     1      72.810  65.670 103.741  1.00  0.00     0.214 C 
ATOM      5  C   UNL     1      73.384  65.292 105.155  1.00  0.00     0.339 C 
ATOM      6  O   UNL     1      74.747  64.917 105.082  1.00  0.00    -0.332 OA
ENDROOT
BRANCH   1   7
ATOM      7  C   UNL     1      77.006  65.782 104.732  1.00  0.00     0.198 C 
BRANCH   7   8
ATOM      8  O   UNL     1      77.286  64.487 105.234  1.00  0.00    -0.347 OA
BRANCH   8   9
ATOM      9  C   UNL     1      78.233  63.757 104.443  1.00  0.00     0.281 C 
ATOM     10  C   UNL     1      79.507  63.860 101.113  1.00  0.00     0.041 C 
ATOM     11  C   UNL     1      78.246  63.999 101.996  1.00  0.00     0.150 C 
ATOM     12  C   UNL     1      77.248  62.767 101.864  1.00  0.00     0.174 C 
ATOM     13  O   UNL     1      78.674  64.441 103.280  1.00  0.00    -0.344 OA
ATOM     14  C   UNL     1      76.890  62.015 103.174  1.00  0.00     0.179 C 
ATOM     15  C   UNL     1      77.894  62.269 104.298  1.00  0.00     0.202 C 
BRANCH  12  16
ATOM     16  O   UNL     1      77.725  61.827 100.918  1.00  0.00    -0.388 OA
ATOM     17  H   UNL     1      77.356  60.949 101.195  1.00  0.00     0.211 HD
ENDBRANCH  12  16
BRANCH  14  18
ATOM     18  O   UNL     1      75.573  62.318 103.579  1.00  0.00    -0.387 OA
ATOM     19  H   UNL     1      75.312  63.185 103.163  1.00  0.00     0.211 HD
ENDBRANCH  14  18
BRANCH  15  20
ATOM     20  O   UNL     1      79.062  61.503 104.120  1.00  0.00    -0.385 OA
ATOM     21  H   UNL     1      79.390  61.676 103.207  1.00  0.00     0.211 HD
ENDBRANCH  15  20
ENDBRANCH   8   9
ENDBRANCH   7   8
ENDBRANCH   1   7
BRANCH   2  22
ATOM     22  O   UNL     1      75.448  67.035 102.256  1.00  0.00    -0.387 OA
ATOM     23  H   UNL     1      76.233  67.454 102.685  1.00  0.00     0.211 HD
ENDBRANCH   2  22
BRANCH   3  24
ATOM     24  O   UNL     1      73.256  65.496 101.345  1.00  0.00    -0.387 OA
ATOM     25  H   UNL     1      73.658  64.870 100.694  1.00  0.00     0.211 HD
ENDBRANCH   3  24
BRANCH   5  26
ATOM     26  O   UNL     1      72.585  64.217 105.644  1.00  0.00    -0.454 OA
BRANCH  26  27
ATOM     27  C   UNL     1      72.887  62.864 105.830  1.00  0.00     0.214 A 
ATOM     28  C   UNL     1      73.331  62.437 107.115  1.00  0.00     0.180 A 
ATOM     29  C   UNL     1      72.654  61.874 104.849  1.00  0.00     0.239 A 
ATOM     30  O   UNL     1      73.206  61.152 107.438  1.00  0.00    -0.452 OA
ATOM     31  C   UNL     1      72.547  60.520 105.249  1.00  0.00     0.111 A 
ATOM     32  O   UNL     1      72.542  62.180 103.624  1.00  0.00    -0.285 OA
ATOM     33  C   UNL     1      72.794  60.222 106.604  1.00  0.00     0.146 A 
ATOM     34  C   UNL     1      72.166  59.481 104.373  1.00  0.00     0.134 A 
ATOM     35  C   UNL     1      72.638  58.923 107.088  1.00  0.00     0.094 A 
ATOM     36  C   UNL     1      71.984  58.182 104.888  1.00  0.00     0.093 A 
ATOM     37  C   UNL     1      72.230  57.898 106.227  1.00  0.00     0.123 A 
BRANCH  28  38
ATOM     38  C   UNL     1      73.909  63.341 108.173  1.00  0.00     0.025 A 
ATOM     39  C   UNL     1      73.132  63.964 109.173  1.00  0.00     0.062 A 
ATOM     40  C   UNL     1      75.294  63.659 108.111  1.00  0.00     0.016 A 
ATOM     41  C   UNL     1      73.718  64.841 110.098  1.00  0.00     0.158 A 
ATOM     42  C   UNL     1      75.845  64.605 108.973  1.00  0.00     0.051 A 
ATOM     43  C   UNL     1      75.075  65.197 109.966  1.00  0.00     0.157 A 
BRANCH  41  44
ATOM     44  O   UNL     1      72.948  65.371 111.134  1.00  0.00    -0.504 OA
ATOM     45  H   UNL     1      73.263  66.138 111.722  1.00  0.00     0.293 HD
ENDBRANCH  41  44
BRANCH  43  46
ATOM     46  O   UNL     1      75.679  66.115 110.825  1.00  0.00    -0.504 OA
ATOM     47  H   UNL     1      76.221  66.895 110.491  1.00  0.00     0.293 HD
ENDBRANCH  43  46
ENDBRANCH  28  38
BRANCH  34  48
ATOM     48  O   UNL     1      71.982  59.721 103.009  1.00  0.00    -0.507 OA
ATOM     49  H   UNL     1      71.265  59.260 102.495  1.00  0.00     0.293 HD
ENDBRANCH  34  48
BRANCH  37  50
ATOM     50  O   UNL     1      72.065  56.608 106.715  1.00  0.00    -0.508 OA
ATOM     51  H   UNL     1      71.383  55.978 106.307  1.00  0.00     0.293 HD
ENDBRANCH  37  50
ENDBRANCH  26  27
ENDBRANCH   5  26
BRANCH   4  52
ATOM     52  O   UNL     1      72.528  67.043 103.653  1.00  0.00    -0.384 OA
ATOM     53  H   UNL     1      72.588  67.295 102.679  1.00  0.00     0.211 HD
ENDBRANCH   4  52
TORSDOF 16
ENDMDL
MODEL 5
REMARK VINA RESULT:    -9.129      1.254      1.987
REMARK INTER + INTRA:         -17.662
REMARK INTER:                 -14.470
REMARK INTRA:                  -3.192
REMARK UNBOUND:                -2.663
REMARK SMILES C[C@@H]1O[C@@H](OC[C@@H]2O[C@H](Oc3c(-c4ccc(O)c(O)c4)oc4cc(O)cc(O)c4c3=O)[C@@H](O)[C@@H](O)[C@H]2O)[C@H](O)[C@@H](O)[C@@H]1O
REMARK SMILES IDX 7 1 36 2 34 3 32 4 9 5 8 6 6 7 5 8 4 9 1 10 2 11 42 12 3 13
REMARK SMILES IDX 40 14 38 15 43 16 41 18 39 20 37 22 35 24 10 26 11 27 12 28
REMARK SMILES IDX 30 29 21 30 29 31 31 32 22 33 27 34 23 35 26 36 24 37 13 38
REMARK SMILES IDX 20 39 14 40 18 41 15 42 16 43 19 44 17 46 28 48 25 50 33 52
REMARK H PARENT 43 17 41 19 39 21 37 23 35 25 19 45 17 47 28 49 25 51 33 53
REMARK Flexibility Score: inf
ROOT
ATOM      1  C   UNL     1      73.282  65.787 106.885  1.00  0.00     0.180 C 
ATOM      2  C   UNL     1      72.145  65.397 105.927  1.00  0.00     0.177 C 
ATOM      3  C   UNL     1      71.858  63.858 106.008  1.00  0.00     0.180 C 
ATOM      4  C   UNL     1      72.143  63.309 107.422  1.00  0.00     0.214 C 
ATOM      5  C   UNL     1      73.592  63.703 107.889  1.00  0.00     0.339 C 
ATOM      6  O   UNL     1      74.166  64.682 107.041  1.00  0.00    -0.332 OA
ENDROOT
BRANCH   1   7
ATOM      7  C   UNL     1      74.055  67.040 106.406  1.00  0.00     0.198 C 
BRANCH   7   8
ATOM      8  O   UNL     1      75.223  66.652 105.703  1.00  0.00    -0.347 OA
BRANCH   8   9
ATOM      9  C   UNL     1      75.210  67.027 104.318  1.00  0.00     0.281 C 
ATOM     10  C   UNL     1      72.775  67.809 101.832  1.00  0.00     0.041 C 
ATOM     11  C   UNL     1      73.126  66.885 103.020  1.00  0.00     0.150 C 
ATOM     12  C   UNL     1      73.500  65.404 102.574  1.00  0.00     0.174 C 
ATOM     13  O   UNL     1      73.993  67.614 103.884  1.00  0.00    -0.344 OA
ATOM     14  C   UNL     1      74.891  64.872 103.014  1.00  0.00     0.179 C 
ATOM     15  C   UNL     1      75.860  65.990 103.397  1.00  0.00     0.202 C 
BRANCH  12  16
ATOM     16  O   UNL     1      73.380  65.252 101.171  1.00  0.00    -0.388 OA
ATOM     17  H   UNL     1      73.350  66.170 100.797  1.00  0.00     0.211 HD
ENDBRANCH  12  16
BRANCH  14  18
ATOM     18  O   UNL     1      74.756  63.926 104.051  1.00  0.00    -0.387 OA
ATOM     19  H   UNL     1      75.630  63.857 104.524  1.00  0.00     0.211 HD
ENDBRANCH  14  18
BRANCH  15  20
ATOM     20  O   UNL     1      76.404  66.605 102.253  1.00  0.00    -0.385 OA
ATOM     21  H   UNL     1      76.680  67.515 102.511  1.00  0.00     0.211 HD
ENDBRANCH  15  20
ENDBRANCH   8   9
ENDBRANCH   7   8
ENDBRANCH   1   7
BRANCH   2  22
ATOM     22  O   UNL     1      71.001  66.172 106.185  1.00  0.00    -0.387 OA
ATOM     23  H   UNL     1      70.961  66.333 107.159  1.00  0.00     0.211 HD
ENDBRANCH   2  22
BRANCH   3  24
ATOM     24  O   UNL     1      70.597  63.447 105.535  1.00  0.00    -0.387 OA
ATOM     25  H   UNL     1      70.635  62.490 105.289  1.00  0.00     0.211 HD
ENDBRANCH   3  24
BRANCH   5  26
ATOM     26  O   UNL     1      74.363  62.505 107.879  1.00  0.00    -0.454 OA
BRANCH  26  27
ATOM     27  C   UNL     1      75.449  62.123 107.085  1.00  0.00     0.214 A 
ATOM     28  C   UNL     1      75.211  61.251 105.983  1.00  0.00     0.180 A 
ATOM     29  C   UNL     1      76.750  62.655 107.237  1.00  0.00     0.239 A 
ATOM     30  O   UNL     1      76.096  61.224 104.989  1.00  0.00    -0.452 OA
ATOM     31  C   UNL     1      77.655  62.582 106.151  1.00  0.00     0.111 A 
ATOM     32  O   UNL     1      77.113  63.191 108.326  1.00  0.00    -0.285 OA
ATOM     33  C   UNL     1      77.240  61.874 105.005  1.00  0.00     0.146 A 
ATOM     34  C   UNL     1      78.917  63.215 106.150  1.00  0.00     0.134 A 
ATOM     35  C   UNL     1      78.046  61.820 103.869  1.00  0.00     0.094 A 
ATOM     36  C   UNL     1      79.704  63.174 104.982  1.00  0.00     0.093 A 
ATOM     37  C   UNL     1      79.284  62.474 103.857  1.00  0.00     0.123 A 
BRANCH  28  38
ATOM     38  C   UNL     1      74.001  60.367 105.826  1.00  0.00     0.025 A 
ATOM     39  C   UNL     1      73.779  59.209 106.602  1.00  0.00     0.062 A 
ATOM     40  C   UNL     1      73.079  60.657 104.783  1.00  0.00     0.016 A 
ATOM     41  C   UNL     1      72.662  58.392 106.372  1.00  0.00     0.158 A 
ATOM     42  C   UNL     1      72.028  59.786 104.501  1.00  0.00     0.051 A 
ATOM     43  C   UNL     1      71.808  58.660 105.284  1.00  0.00     0.157 A 
BRANCH  41  44
ATOM     44  O   UNL     1      72.413  57.306 107.213  1.00  0.00    -0.504 OA
ATOM     45  H   UNL     1      71.589  57.240 107.804  1.00  0.00     0.293 HD
ENDBRANCH  41  44
BRANCH  43  46
ATOM     46  O   UNL     1      70.723  57.835 104.982  1.00  0.00    -0.504 OA
ATOM     47  H   UNL     1      70.816  56.840 104.864  1.00  0.00     0.293 HD
ENDBRANCH  43  46
ENDBRANCH  28  38
BRANCH  34  48
ATOM     48  O   UNL     1      79.396  63.865 107.290  1.00  0.00    -0.507 OA
ATOM     49  H   UNL     1      80.359  63.832 107.537  1.00  0.00     0.293 HD
ENDBRANCH  34  48
BRANCH  37  50
ATOM     50  O   UNL     1      80.080  62.426 102.719  1.00  0.00    -0.508 OA
ATOM     51  H   UNL     1      79.921  61.730 101.999  1.00  0.00     0.293 HD
ENDBRANCH  37  50
ENDBRANCH  26  27
ENDBRANCH   5  26
BRANCH   4  52
ATOM     52  O   UNL     1      71.172  63.755 108.333  1.00  0.00    -0.384 OA
ATOM     53  H   UNL     1      71.349  63.286 109.208  1.00  0.00     0.211 HD
ENDBRANCH   4  52
TORSDOF 16
ENDMDL
MODEL 6
REMARK VINA RESULT:    -9.070      2.867      4.434
REMARK INTER + INTRA:         -17.565
REMARK INTER:                 -15.363
REMARK INTRA:                  -2.202
REMARK UNBOUND:                -2.663
REMARK SMILES C[C@@H]1O[C@@H](OC[C@@H]2O[C@H](Oc3c(-c4ccc(O)c(O)c4)oc4cc(O)cc(O)c4c3=O)[C@@H](O)[C@@H](O)[C@H]2O)[C@H](O)[C@@H](O)[C@@H]1O
REMARK SMILES IDX 7 1 36 2 34 3 32 4 9 5 8 6 6 7 5 8 4 9 1 10 2 11 42 12 3 13
REMARK SMILES IDX 40 14 38 15 43 16 41 18 39 20 37 22 35 24 10 26 11 27 12 28
REMARK SMILES IDX 30 29 21 30 29 31 31 32 22 33 27 34 23 35 26 36 24 37 13 38
REMARK SMILES IDX 20 39 14 40 18 41 15 42 16 43 19 44 17 46 28 48 25 50 33 52
REMARK H PARENT 43 17 41 19 39 21 37 23 35 25 19 45 17 47 28 49 25 51 33 53
REMARK Flexibility Score: inf
ROOT
ATOM      1  C   UNL     1      72.786  65.165 109.988  1.00  0.00     0.180 C 
ATOM      2  C   UNL     1      71.449  64.461 110.269  1.00  0.00     0.177 C 
ATOM      3  C   UNL     1      71.419  63.043 109.601  1.00  0.00     0.180 C 
ATOM      4  C   UNL     1      72.831  62.421 109.546  1.00  0.00     0.214 C 
ATOM      5  C   UNL     1      73.848  63.412 108.873  1.00  0.00     0.339 C 
ATOM      6  O   UNL     1      73.302  64.712 108.741  1.00  0.00    -0.332 OA
ENDROOT
BRANCH   1   7
ATOM      7  C   UNL     1      72.655  66.707 109.997  1.00  0.00     0.198 C 
BRANCH   7   8
ATOM      8  O   UNL     1      73.885  67.298 110.376  1.00  0.00    -0.347 OA
BRANCH   8   9
ATOM      9  C   UNL     1      74.431  68.175 109.381  1.00  0.00     0.281 C 
ATOM     10  C   UNL     1      74.694  68.269 105.825  1.00  0.00     0.041 C 
ATOM     11  C   UNL     1      74.770  67.372 107.081  1.00  0.00     0.150 C 
ATOM     12  C   UNL     1      76.254  66.931 107.449  1.00  0.00     0.174 C 
ATOM     13  O   UNL     1      73.929  67.955 108.071  1.00  0.00    -0.344 OA
ATOM     14  C   UNL     1      76.757  67.292 108.872  1.00  0.00     0.179 C 
ATOM     15  C   UNL     1      75.939  68.405 109.527  1.00  0.00     0.202 C 
BRANCH  12  16
ATOM     16  O   UNL     1      77.180  67.430 106.501  1.00  0.00    -0.388 OA
ATOM     17  H   UNL     1      76.696  67.465 105.636  1.00  0.00     0.211 HD
ENDBRANCH  12  16
BRANCH  14  18
ATOM     18  O   UNL     1      76.812  66.142 109.687  1.00  0.00    -0.387 OA
ATOM     19  H   UNL     1      77.588  65.590 109.394  1.00  0.00     0.211 HD
ENDBRANCH  14  18
BRANCH  15  20
ATOM     20  O   UNL     1      76.306  69.668 109.025  1.00  0.00    -0.385 OA
ATOM     21  H   UNL     1      76.159  70.324 109.744  1.00  0.00     0.211 HD
ENDBRANCH  15  20
ENDBRANCH   8   9
ENDBRANCH   7   8
ENDBRANCH   1   7
BRANCH   2  22
ATOM     22  O   UNL     1      71.205  64.408 111.652  1.00  0.00    -0.387 OA
ATOM     23  H   UNL     1      71.827  63.746 112.042  1.00  0.00     0.211 HD
ENDBRANCH   2  22
BRANCH   3  24
ATOM     24  O   UNL     1      70.474  62.141 110.125  1.00  0.00    -0.387 OA
ATOM     25  H   UNL     1      69.919  62.604 110.800  1.00  0.00     0.211 HD
ENDBRANCH   3  24
BRANCH   5  26
ATOM     26  O   UNL     1      74.169  62.863 107.597  1.00  0.00    -0.454 OA
BRANCH  26  27
ATOM     27  C   UNL     1      75.361  62.318 107.110  1.00  0.00     0.214 A 
ATOM     28  C   UNL     1      75.284  61.253 106.166  1.00  0.00     0.180 A 
ATOM     29  C   UNL     1      76.637  62.850 107.403  1.00  0.00     0.239 A 
ATOM     30  O   UNL     1      76.334  61.019 105.381  1.00  0.00    -0.452 OA
ATOM     31  C   UNL     1      77.721  62.553 106.542  1.00  0.00     0.111 A 
ATOM     32  O   UNL     1      76.822  63.581 108.421  1.00  0.00    -0.285 OA
ATOM     33  C   UNL     1      77.487  61.643 105.492  1.00  0.00     0.146 A 
ATOM     34  C   UNL     1      78.993  63.155 106.661  1.00  0.00     0.134 A 
ATOM     35  C   UNL     1      78.484  61.357 104.561  1.00  0.00     0.094 A 
ATOM     36  C   UNL     1      79.977  62.876 105.693  1.00  0.00     0.093 A 
ATOM     37  C   UNL     1      79.736  61.977 104.661  1.00  0.00     0.123 A 
BRANCH  28  38
ATOM     38  C   UNL     1      74.080  60.373 105.952  1.00  0.00     0.025 A 
ATOM     39  C   UNL     1      73.841  59.189 106.683  1.00  0.00     0.062 A 
ATOM     40  C   UNL     1      73.182  60.698 104.897  1.00  0.00     0.016 A 
ATOM     41  C   UNL     1      72.731  58.380 106.399  1.00  0.00     0.158 A 
ATOM     42  C   UNL     1      72.139  59.836 104.562  1.00  0.00     0.051 A 
ATOM     43  C   UNL     1      71.902  58.684 105.302  1.00  0.00     0.157 A 
BRANCH  41  44
ATOM     44  O   UNL     1      72.464  57.267 107.198  1.00  0.00    -0.504 OA
ATOM     45  H   UNL     1      72.401  57.314 108.211  1.00  0.00     0.293 HD
ENDBRANCH  41  44
BRANCH  43  46
ATOM     46  O   UNL     1      70.826  57.869 104.948  1.00  0.00    -0.504 OA
ATOM     47  H   UNL     1      70.823  57.309 104.111  1.00  0.00     0.293 HD
ENDBRANCH  43  46
ENDBRANCH  28  38
BRANCH  34  48
ATOM     48  O   UNL     1      79.288  64.007 107.729  1.00  0.00    -0.507 OA
ATOM     49  H   UNL     1      79.330  64.994 107.606  1.00  0.00     0.293 HD
ENDBRANCH  34  48
BRANCH  37  50
ATOM     50  O   UNL     1      80.723  61.697 103.724  1.00  0.00    -0.508 OA
ATOM     51  H   UNL     1      80.622  61.985 102.757  1.00  0.00     0.293 HD
ENDBRANCH  37  50
ENDBRANCH  26  27
ENDBRANCH   5  26
BRANCH   4  52
ATOM     52  O   UNL     1      73.257  62.043 110.829  1.00  0.00    -0.384 OA
ATOM     53  H   UNL     1      72.517  61.490 111.235  1.00  0.00     0.211 HD
ENDBRANCH   4  52
TORSDOF 16
ENDMDL
MODEL 7
REMARK VINA RESULT:    -8.973      1.911      5.977
REMARK INTER + INTRA:         -17.406
REMARK INTER:                 -14.827
REMARK INTRA:                  -2.579
REMARK UNBOUND:                -2.663
REMARK SMILES C[C@@H]1O[C@@H](OC[C@@H]2O[C@H](Oc3c(-c4ccc(O)c(O)c4)oc4cc(O)cc(O)c4c3=O)[C@@H](O)[C@@H](O)[C@H]2O)[C@H](O)[C@@H](O)[C@@H]1O
REMARK SMILES IDX 7 1 36 2 34 3 32 4 9 5 8 6 6 7 5 8 4 9 1 10 2 11 42 12 3 13
REMARK SMILES IDX 40 14 38 15 43 16 41 18 39 20 37 22 35 24 10 26 11 27 12 28
REMARK SMILES IDX 30 29 21 30 29 31 31 32 22 33 27 34 23 35 26 36 24 37 13 38
REMARK SMILES IDX 20 39 14 40 18 41 15 42 16 43 19 44 17 46 28 48 25 50 33 52
REMARK H PARENT 43 17 41 19 39 21 37 23 35 25 19 45 17 47 28 49 25 51 33 53
REMARK Flexibility Score: inf
ROOT
ATOM      1  C   UNL     1      77.507  62.398 107.133  1.00  0.00     0.180 C 
ATOM      2  C   UNL     1      77.596  63.826 107.692  1.00  0.00     0.177 C 
ATOM      3  C   UNL     1      76.164  64.431 107.896  1.00  0.00     0.180 C 
ATOM      4  C   UNL     1      75.138  63.332 108.247  1.00  0.00     0.214 C 
ATOM      5  C   UNL     1      75.185  62.170 107.191  1.00  0.00     0.339 C 
ATOM      6  O   UNL     1      76.322  62.271 106.353  1.00  0.00    -0.332 OA
ENDROOT
BRANCH   1   7
ATOM      7  C   UNL     1      78.752  62.010 106.301  1.00  0.00     0.198 C 
BRANCH   7   8
ATOM      8  O   UNL     1      79.060  63.038 105.377  1.00  0.00    -0.347 OA
BRANCH   8   9
ATOM      9  C   UNL     1      79.033  62.607 104.009  1.00  0.00     0.281 C 
ATOM     10  C   UNL     1      79.905  63.940 100.817  1.00  0.00     0.041 C 
ATOM     11  C   UNL     1      79.268  64.247 102.192  1.00  0.00     0.150 C 
ATOM     12  C   UNL     1      77.688  64.412 102.129  1.00  0.00     0.174 C 
ATOM     13  O   UNL     1      79.861  63.366 103.141  1.00  0.00    -0.344 OA
ATOM     14  C   UNL     1      76.851  63.477 103.045  1.00  0.00     0.179 C 
ATOM     15  C   UNL     1      77.631  62.247 103.507  1.00  0.00     0.202 C 
BRANCH  12  16
ATOM     16  O   UNL     1      77.217  64.283 100.799  1.00  0.00    -0.388 OA
ATOM     17  H   UNL     1      77.814  63.624 100.361  1.00  0.00     0.211 HD
ENDBRANCH  12  16
BRANCH  14  18
ATOM     18  O   UNL     1      76.321  64.195 104.137  1.00  0.00    -0.387 OA
ATOM     19  H   UNL     1      76.134  65.126 103.836  1.00  0.00     0.211 HD
ENDBRANCH  14  18
BRANCH  15  20
ATOM     20  O   UNL     1      77.695  61.274 102.491  1.00  0.00    -0.385 OA
ATOM     21  H   UNL     1      77.368  61.693 101.662  1.00  0.00     0.211 HD
ENDBRANCH  15  20
ENDBRANCH   8   9
ENDBRANCH   7   8
ENDBRANCH   1   7
BRANCH   2  22
ATOM     22  O   UNL     1      78.359  63.844 108.872  1.00  0.00    -0.387 OA
ATOM     23  H   UNL     1      78.790  62.960 108.964  1.00  0.00     0.211 HD
ENDBRANCH   2  22
BRANCH   3  24
ATOM     24  O   UNL     1      76.082  65.521 108.782  1.00  0.00    -0.387 OA
ATOM     25  H   UNL     1      76.936  66.021 108.766  1.00  0.00     0.211 HD
ENDBRANCH   3  24
BRANCH   5  26
ATOM     26  O   UNL     1      73.983  62.262 106.430  1.00  0.00    -0.454 OA
BRANCH  26  27
ATOM     27  C   UNL     1      73.165  61.265 105.889  1.00  0.00     0.214 A 
ATOM     28  C   UNL     1      72.796  61.360 104.516  1.00  0.00     0.180 A 
ATOM     29  C   UNL     1      72.788  60.100 106.595  1.00  0.00     0.239 A 
ATOM     30  O   UNL     1      72.409  60.256 103.881  1.00  0.00    -0.452 OA
ATOM     31  C   UNL     1      72.367  58.960 105.868  1.00  0.00     0.111 A 
ATOM     32  O   UNL     1      72.819  60.064 107.861  1.00  0.00    -0.285 OA
ATOM     33  C   UNL     1      72.240  59.091 104.470  1.00  0.00     0.146 A 
ATOM     34  C   UNL     1      72.117  57.707 106.468  1.00  0.00     0.134 A 
ATOM     35  C   UNL     1      71.901  57.994 103.679  1.00  0.00     0.094 A 
ATOM     36  C   UNL     1      71.805  56.604 105.649  1.00  0.00     0.093 A 
ATOM     37  C   UNL     1      71.683  56.744 104.271  1.00  0.00     0.123 A 
BRANCH  28  38
ATOM     38  C   UNL     1      72.843  62.622 103.694  1.00  0.00     0.025 A 
ATOM     39  C   UNL     1      73.546  62.732 102.476  1.00  0.00     0.062 A 
ATOM     40  C   UNL     1      72.224  63.793 104.215  1.00  0.00     0.016 A 
ATOM     41  C   UNL     1      73.600  63.951 101.784  1.00  0.00     0.158 A 
ATOM     42  C   UNL     1      72.367  65.019 103.568  1.00  0.00     0.051 A 
ATOM     43  C   UNL     1      73.045  65.111 102.359  1.00  0.00     0.157 A 
BRANCH  41  44
ATOM     44  O   UNL     1      74.221  64.011 100.535  1.00  0.00    -0.504 OA
ATOM     45  H   UNL     1      74.412  64.885 100.053  1.00  0.00     0.293 HD
ENDBRANCH  41  44
BRANCH  43  46
ATOM     46  O   UNL     1      73.134  66.355 101.733  1.00  0.00    -0.504 OA
ATOM     47  H   UNL     1      72.412  67.053 101.808  1.00  0.00     0.293 HD
ENDBRANCH  43  46
ENDBRANCH  28  38
BRANCH  34  48
ATOM     48  O   UNL     1      72.162  57.553 107.856  1.00  0.00    -0.507 OA
ATOM     49  H   UNL     1      72.808  58.065 108.412  1.00  0.00     0.293 HD
ENDBRANCH  34  48
BRANCH  37  50
ATOM     50  O   UNL     1      71.356  55.651 103.478  1.00  0.00    -0.508 OA
ATOM     51  H   UNL     1      70.419  55.537 103.107  1.00  0.00     0.293 HD
ENDBRANCH  37  50
ENDBRANCH  26  27
ENDBRANCH   5  26
BRANCH   4  52
ATOM     52  O   UNL     1      75.353  62.851 109.549  1.00  0.00    -0.384 OA
ATOM     53  H   UNL     1      75.949  62.041 109.470  1.00  0.00     0.211 HD
ENDBRANCH   4  52
TORSDOF 16
ENDMDL
MODEL 8
REMARK VINA RESULT:    -8.910      2.166      6.713
REMARK INTER + INTRA:         -17.302
REMARK INTER:                 -14.571
REMARK INTRA:                  -2.731
REMARK UNBOUND:                -2.663
REMARK SMILES C[C@@H]1O[C@@H](OC[C@@H]2O[C@H](Oc3c(-c4ccc(O)c(O)c4)oc4cc(O)cc(O)c4c3=O)[C@@H](O)[C@@H](O)[C@H]2O)[C@H](O)[C@@H](O)[C@@H]1O
REMARK SMILES IDX 7 1 36 2 34 3 32 4 9 5 8 6 6 7 5 8 4 9 1 10 2 11 42 12 3 13
REMARK SMILES IDX 40 14 38 15 43 16 41 18 39 20 37 22 35 24 10 26 11 27 12 28
REMARK SMILES IDX 30 29 21 30 29 31 31 32 22 33 27 34 23 35 26 36 24 37 13 38
REMARK SMILES IDX 20 39 14 40 18 41 15 42 16 43 19 44 17 46 28 48 25 50 33 52
REMARK H PARENT 43 17 41 19 39 21 37 23 35 25 19 45 17 47 28 49 25 51 33 53
REMARK Flexibility Score: inf
ROOT
ATOM      1  C   UNL     1      75.555  67.786 105.589  1.00  0.00     0.180 C 
ATOM      2  C   UNL     1      76.622  68.625 104.869  1.00  0.00     0.177 C 
ATOM      3  C   UNL     1      76.760  68.179 103.372  1.00  0.00     0.180 C 
ATOM      4  C   UNL     1      75.414  67.667 102.815  1.00  0.00     0.214 C 
ATOM      5  C   UNL     1      74.814  66.555 103.750  1.00  0.00     0.339 C 
ATOM      6  O   UNL     1      75.491  66.495 104.992  1.00  0.00    -0.332 OA
ENDROOT
BRANCH   1   7
ATOM      7  C   UNL     1      75.820  67.672 107.109  1.00  0.00     0.198 C 
BRANCH   7   8
ATOM      8  O   UNL     1      75.478  66.376 107.567  1.00  0.00    -0.347 OA
BRANCH   8   9
ATOM      9  C   UNL     1      76.579  65.664 108.148  1.00  0.00     0.281 C 
ATOM     10  C   UNL     1      79.094  63.379 107.062  1.00  0.00     0.041 C 
ATOM     11  C   UNL     1      77.607  63.783 106.942  1.00  0.00     0.150 C 
ATOM     12  C   UNL     1      76.620  62.770 107.672  1.00  0.00     0.174 C 
ATOM     13  O   UNL     1      77.524  65.180 107.205  1.00  0.00    -0.344 OA
ATOM     14  C   UNL     1      75.684  63.367 108.757  1.00  0.00     0.179 C 
ATOM     15  C   UNL     1      76.169  64.718 109.282  1.00  0.00     0.202 C 
BRANCH  12  16
ATOM     16  O   UNL     1      77.334  61.685 108.237  1.00  0.00    -0.388 OA
ATOM     17  H   UNL     1      76.816  60.870 108.013  1.00  0.00     0.211 HD
ENDBRANCH  12  16
BRANCH  14  18
ATOM     18  O   UNL     1      74.357  63.442 108.284  1.00  0.00    -0.387 OA
ATOM     19  H   UNL     1      73.880  62.613 108.564  1.00  0.00     0.211 HD
ENDBRANCH  14  18
BRANCH  15  20
ATOM     20  O   UNL     1      77.218  64.557 110.207  1.00  0.00    -0.385 OA
ATOM     21  H   UNL     1      76.959  65.031 111.030  1.00  0.00     0.211 HD
ENDBRANCH  15  20
ENDBRANCH   8   9
ENDBRANCH   7   8
ENDBRANCH   1   7
BRANCH   2  22
ATOM     22  O   UNL     1      76.336  69.995 104.996  1.00  0.00    -0.387 OA
ATOM     23  H   UNL     1      76.114  70.341 104.098  1.00  0.00     0.211 HD
ENDBRANCH   2  22
BRANCH   3  24
ATOM     24  O   UNL     1      77.357  69.116 102.508  1.00  0.00    -0.387 OA
ATOM     25  H   UNL     1      78.158  69.499 102.944  1.00  0.00     0.211 HD
ENDBRANCH   3  24
BRANCH   5  26
ATOM     26  O   UNL     1      74.932  65.322 103.045  1.00  0.00    -0.454 OA
BRANCH  26  27
ATOM     27  C   UNL     1      74.711  64.006 103.462  1.00  0.00     0.214 A 
ATOM     28  C   UNL     1      75.810  63.099 103.461  1.00  0.00     0.180 A 
ATOM     29  C   UNL     1      73.485  63.558 104.006  1.00  0.00     0.239 A 
ATOM     30  O   UNL     1      75.745  62.017 104.233  1.00  0.00    -0.452 OA
ATOM     31  C   UNL     1      73.474  62.390 104.807  1.00  0.00     0.111 A 
ATOM     32  O   UNL     1      72.405  64.182 103.787  1.00  0.00    -0.285 OA
ATOM     33  C   UNL     1      74.680  61.670 104.923  1.00  0.00     0.146 A 
ATOM     34  C   UNL     1      72.336  61.949 105.517  1.00  0.00     0.134 A 
ATOM     35  C   UNL     1      74.765  60.551 105.751  1.00  0.00     0.094 A 
ATOM     36  C   UNL     1      72.451  60.834 106.371  1.00  0.00     0.093 A 
ATOM     37  C   UNL     1      73.646  60.131 106.479  1.00  0.00     0.123 A 
BRANCH  28  38
ATOM     38  C   UNL     1      77.080  63.283 102.671  1.00  0.00     0.025 A 
ATOM     39  C   UNL     1      78.360  63.359 103.262  1.00  0.00     0.062 A 
ATOM     40  C   UNL     1      76.982  63.483 101.266  1.00  0.00     0.016 A 
ATOM     41  C   UNL     1      79.501  63.588 102.480  1.00  0.00     0.158 A 
ATOM     42  C   UNL     1      78.110  63.806 100.514  1.00  0.00     0.051 A 
ATOM     43  C   UNL     1      79.367  63.858 101.104  1.00  0.00     0.157 A 
BRANCH  41  44
ATOM     44  O   UNL     1      80.764  63.565 103.074  1.00  0.00    -0.504 OA
ATOM     45  H   UNL     1      81.226  62.705 103.360  1.00  0.00     0.293 HD
ENDBRANCH  41  44
BRANCH  43  46
ATOM     46  O   UNL     1      80.471  64.154 100.303  1.00  0.00    -0.504 OA
ATOM     47  H   UNL     1      81.000  65.005 100.404  1.00  0.00     0.293 HD
ENDBRANCH  43  46
ENDBRANCH  28  38
BRANCH  34  48
ATOM     48  O   UNL     1      71.104  62.591 105.372  1.00  0.00    -0.507 OA
ATOM     49  H   UNL     1      70.248  62.095 105.472  1.00  0.00     0.293 HD
ENDBRANCH  34  48
BRANCH  37  50
ATOM     50  O   UNL     1      73.738  59.022 107.311  1.00  0.00    -0.508 OA
ATOM     51  H   UNL     1      74.525  58.905 107.940  1.00  0.00     0.293 HD
ENDBRANCH  37  50
ENDBRANCH  26  27
ENDBRANCH   5  26
BRANCH   4  52
ATOM     52  O   UNL     1      74.514  68.730 102.639  1.00  0.00    -0.384 OA
ATOM     53  H   UNL     1      74.445  68.897 101.646  1.00  0.00     0.211 HD
ENDBRANCH   4  52
TORSDOF 16
ENDMDL
MODEL 9
REMARK VINA RESULT:    -8.782      2.321      7.252
REMARK INTER + INTRA:         -17.091
REMARK INTER:                 -14.611
REMARK INTRA:                  -2.480
REMARK UNBOUND:                -2.663
REMARK SMILES C[C@@H]1O[C@@H](OC[C@@H]2O[C@H](Oc3c(-c4ccc(O)c(O)c4)oc4cc(O)cc(O)c4c3=O)[C@@H](O)[C@@H](O)[C@H]2O)[C@H](O)[C@@H](O)[C@@H]1O
REMARK SMILES IDX 7 1 36 2 34 3 32 4 9 5 8 6 6 7 5 8 4 9 1 10 2 11 42 12 3 13
REMARK SMILES IDX 40 14 38 15 43 16 41 18 39 20 37 22 35 24 10 26 11 27 12 28
REMARK SMILES IDX 30 29 21 30 29 31 31 32 22 33 27 34 23 35 26 36 24 37 13 38
REMARK SMILES IDX 20 39 14 40 18 41 15 42 16 43 19 44 17 46 28 48 25 50 33 52
REMARK H PARENT 43 17 41 19 39 21 37 23 35 25 19 45 17 47 28 49 25 51 33 53
REMARK Flexibility Score: inf
ROOT
ATOM      1  C   UNL     1      75.087  61.466 105.277  1.00  0.00     0.180 C 
ATOM      2  C   UNL     1      73.670  61.798 105.770  1.00  0.00     0.177 C 
ATOM      3  C   UNL     1      72.897  62.648 104.703  1.00  0.00     0.180 C 
ATOM      4  C   UNL     1      73.349  62.291 103.271  1.00  0.00     0.214 C 
ATOM      5  C   UNL     1      74.912  62.389 103.141  1.00  0.00     0.339 C 
ATOM      6  O   UNL     1      75.536  62.500 104.407  1.00  0.00    -0.332 OA
ENDROOT
BRANCH   1   7
ATOM      7  C   UNL     1      76.085  61.261 106.442  1.00  0.00     0.198 C 
BRANCH   7   8
ATOM      8  O   UNL     1      76.732  62.483 106.750  1.00  0.00    -0.347 OA
BRANCH   8   9
ATOM      9  C   UNL     1      76.311  63.056 107.996  1.00  0.00     0.281 C 
ATOM     10  C   UNL     1      74.736  66.057 109.107  1.00  0.00     0.041 C 
ATOM     11  C   UNL     1      75.773  65.452 108.134  1.00  0.00     0.150 C 
ATOM     12  C   UNL     1      77.277  65.771 108.541  1.00  0.00     0.174 C 
ATOM     13  O   UNL     1      75.371  64.112 107.866  1.00  0.00    -0.344 OA
ATOM     14  C   UNL     1      78.216  64.553 108.755  1.00  0.00     0.179 C 
ATOM     15  C   UNL     1      77.454  63.251 108.998  1.00  0.00     0.202 C 
BRANCH  12  16
ATOM     16  O   UNL     1      77.327  66.589 109.696  1.00  0.00    -0.388 OA
ATOM     17  H   UNL     1      76.594  67.249 109.596  1.00  0.00     0.211 HD
ENDBRANCH  12  16
BRANCH  14  18
ATOM     18  O   UNL     1      79.123  64.430 107.682  1.00  0.00    -0.387 OA
ATOM     19  H   UNL     1      79.909  63.905 107.997  1.00  0.00     0.211 HD
ENDBRANCH  14  18
BRANCH  15  20
ATOM     20  O   UNL     1      76.980  63.179 110.322  1.00  0.00    -0.385 OA
ATOM     21  H   UNL     1      76.016  62.982 110.278  1.00  0.00     0.211 HD
ENDBRANCH  15  20
ENDBRANCH   8   9
ENDBRANCH   7   8
ENDBRANCH   1   7
BRANCH   2  22
ATOM     22  O   UNL     1      72.984  60.621 106.118  1.00  0.00    -0.387 OA
ATOM     23  H   UNL     1      73.061  60.507 107.096  1.00  0.00     0.211 HD
ENDBRANCH   2  22
BRANCH   3  24
ATOM     24  O   UNL     1      71.495  62.648 104.821  1.00  0.00    -0.387 OA
ATOM     25  H   UNL     1      71.235  63.135 105.642  1.00  0.00     0.211 HD
ENDBRANCH   3  24
BRANCH   5  26
ATOM     26  O   UNL     1      75.184  63.534 102.337  1.00  0.00    -0.454 OA
BRANCH  26  27
ATOM     27  C   UNL     1      75.390  64.871 102.691  1.00  0.00     0.214 A 
ATOM     28  C   UNL     1      76.728  65.327 102.872  1.00  0.00     0.180 A 
ATOM     29  C   UNL     1      74.352  65.829 102.753  1.00  0.00     0.239 A 
ATOM     30  O   UNL     1      76.976  66.631 102.775  1.00  0.00    -0.452 OA
ATOM     31  C   UNL     1      74.677  67.204 102.662  1.00  0.00     0.111 A 
ATOM     32  O   UNL     1      73.144  65.474 102.891  1.00  0.00    -0.285 OA
ATOM     33  C   UNL     1      76.044  67.547 102.627  1.00  0.00     0.146 A 
ATOM     34  C   UNL     1      73.707  68.224 102.561  1.00  0.00     0.134 A 
ATOM     35  C   UNL     1      76.441  68.874 102.465  1.00  0.00     0.094 A 
ATOM     36  C   UNL     1      74.128  69.554 102.368  1.00  0.00     0.093 A 
ATOM     37  C   UNL     1      75.479  69.883 102.334  1.00  0.00     0.123 A 
BRANCH  28  38
ATOM     38  C   UNL     1      77.916  64.438 103.134  1.00  0.00     0.025 A 
ATOM     39  C   UNL     1      78.213  63.889 104.400  1.00  0.00     0.062 A 
ATOM     40  C   UNL     1      78.840  64.211 102.076  1.00  0.00     0.016 A 
ATOM     41  C   UNL     1      79.365  63.114 104.596  1.00  0.00     0.158 A 
ATOM     42  C   UNL     1      80.029  63.522 102.308  1.00  0.00     0.051 A 
ATOM     43  C   UNL     1      80.301  62.970 103.553  1.00  0.00     0.157 A 
BRANCH  41  44
ATOM     44  O   UNL     1      79.587  62.505 105.832  1.00  0.00    -0.504 OA
ATOM     45  H   UNL     1      78.949  61.825 106.237  1.00  0.00     0.293 HD
ENDBRANCH  41  44
BRANCH  43  46
ATOM     46  O   UNL     1      81.490  62.261 103.727  1.00  0.00    -0.504 OA
ATOM     47  H   UNL     1      82.351  62.528 103.278  1.00  0.00     0.293 HD
ENDBRANCH  43  46
ENDBRANCH  28  38
BRANCH  34  48
ATOM     48  O   UNL     1      72.344  67.933 102.664  1.00  0.00    -0.507 OA
ATOM     49  H   UNL     1      71.718  68.120 101.914  1.00  0.00     0.293 HD
ENDBRANCH  34  48
BRANCH  37  50
ATOM     50  O   UNL     1      75.879  71.202 102.162  1.00  0.00    -0.508 OA
ATOM     51  H   UNL     1      75.466  71.783 101.441  1.00  0.00     0.293 HD
ENDBRANCH  37  50
ENDBRANCH  26  27
ENDBRANCH   5  26
BRANCH   4  52
ATOM     52  O   UNL     1      72.882  61.017 102.906  1.00  0.00    -0.384 OA
ATOM     53  H   UNL     1      72.295  61.138 102.096  1.00  0.00     0.211 HD
ENDBRANCH   4  52
TORSDOF 16
ENDMDL
