MODEL 1
REMARK VINA RESULT:    -3.667      0.000      0.000
REMARK INTER + INTRA:          -8.315
REMARK INTER:                  -6.453
REMARK INTRA:                  -1.862
REMARK UNBOUND:                -1.862
REMARK SMILES CCCCCCCCCCCCCCC(=O)[O-]
REMARK SMILES IDX 9 1 10 2 11 3 12 4 13 5 14 6 15 7 16 8 17 9 8 10 7 11 6 12
REMARK SMILES IDX 5 13 4 14 3 15 2 16 1 17
REMARK H PARENT
REMARK Flexibility Score: inf
ROOT
ATOM      1  C   UNL     1      -0.527   8.168  -8.526  1.00  0.00     0.000 C 
ENDROOT
BRANCH   1   2
ATOM      2  C   UNL     1      -1.285   6.972  -9.124  1.00  0.00     0.000 C 
BRANCH   2   3
ATOM      3  C   UNL     1      -1.312   7.002 -10.663  1.00  0.00     0.000 C 
BRANCH   3   4
ATOM      4  C   UNL     1      -2.741   7.056 -11.227  1.00  0.00     0.000 C 
BRANCH   4   5
ATOM      5  C   UNL     1      -3.553   8.236 -10.666  1.00  0.00     0.006 C 
BRANCH   5   6
ATOM      6  C   UNL     1      -3.952   9.236 -11.760  1.00  0.00     0.053 C 
BRANCH   6   7
ATOM      7  C   UNL     1      -4.765  10.368 -11.209  1.00  0.00     0.041 C 
ATOM      8  O   UNL     1      -4.321  11.545 -11.251  1.00  0.00    -0.550 OA
ATOM      9  O   UNL     1      -6.001  10.119 -10.625  1.00  0.00    -0.550 OA
ENDBRANCH   6   7
ENDBRANCH   5   6
ENDBRANCH   4   5
ENDBRANCH   3   4
ENDBRANCH   2   3
ENDBRANCH   1   2
BRANCH   1  10
ATOM     10  C   UNL     1       0.752   7.744  -7.782  1.00  0.00     0.000 C 
BRANCH  10  11
ATOM     11  C   UNL     1       1.895   7.376  -8.739  1.00  0.00    -0.000 C 
BRANCH  11  12
ATOM     12  C   UNL     1       2.303   8.548  -9.649  1.00  0.00    -0.000 C 
BRANCH  12  13
ATOM     13  C   UNL     1       2.486   8.122 -11.114  1.00  0.00    -0.000 C 
BRANCH  13  14
ATOM     14  C   UNL     1       1.496   8.818 -12.060  1.00  0.00    -0.000 C 
BRANCH  14  15
ATOM     15  C   UNL     1       1.111  10.206 -11.527  1.00  0.00    -0.000 C 
BRANCH  15  16
ATOM     16  C   UNL     1      -0.410  10.401 -11.429  1.00  0.00    -0.003 C 
ATOM     17  C   UNL     1      -0.845  11.831 -11.749  1.00  0.00     0.004 C 
ENDBRANCH  15  16
ENDBRANCH  14  15
ENDBRANCH  13  14
ENDBRANCH  12  13
ENDBRANCH  11  12
ENDBRANCH  10  11
ENDBRANCH   1  10
TORSDOF 13
ENDMDL
MODEL 2
REMARK VINA RESULT:    -3.641      1.495      2.658
REMARK INTER + INTRA:          -8.271
REMARK INTER:                  -6.230
REMARK INTRA:                  -2.041
REMARK UNBOUND:                -1.862
REMARK SMILES CCCCCCCCCCCCCCC(=O)[O-]
REMARK SMILES IDX 9 1 10 2 11 3 12 4 13 5 14 6 15 7 16 8 17 9 8 10 7 11 6 12
REMARK SMILES IDX 5 13 4 14 3 15 2 16 1 17
REMARK H PARENT
REMARK Flexibility Score: inf
ROOT
ATOM      1  C   UNL     1       1.323   7.293  -8.671  1.00  0.00     0.000 C 
ENDROOT
BRANCH   1   2
ATOM      2  C   UNL     1       0.399   8.274  -7.932  1.00  0.00     0.000 C 
BRANCH   2   3
ATOM      3  C   UNL     1      -1.086   8.062  -8.280  1.00  0.00     0.000 C 
BRANCH   3   4
ATOM      4  C   UNL     1      -1.295   6.957  -9.327  1.00  0.00     0.000 C 
BRANCH   4   5
ATOM      5  C   UNL     1      -2.397   7.307 -10.342  1.00  0.00     0.006 C 
BRANCH   5   6
ATOM      6  C   UNL     1      -2.859   8.765 -10.214  1.00  0.00     0.053 C 
BRANCH   6   7
ATOM      7  C   UNL     1      -3.963   9.085 -11.176  1.00  0.00     0.041 C 
ATOM      8  O   UNL     1      -4.780   8.192 -11.523  1.00  0.00    -0.550 OA
ATOM      9  O   UNL     1      -4.073  10.363 -11.711  1.00  0.00    -0.550 OA
ENDBRANCH   6   7
ENDBRANCH   5   6
ENDBRANCH   4   5
ENDBRANCH   3   4
ENDBRANCH   2   3
ENDBRANCH   1   2
BRANCH   1  10
ATOM     10  C   UNL     1       2.239   7.995  -9.687  1.00  0.00     0.000 C 
BRANCH  10  11
ATOM     11  C   UNL     1       1.824   7.724 -11.141  1.00  0.00    -0.000 C 
BRANCH  11  12
ATOM     12  C   UNL     1       1.594   9.019 -11.940  1.00  0.00    -0.000 C 
BRANCH  12  13
ATOM     13  C   UNL     1       0.373   9.809 -11.444  1.00  0.00    -0.000 C 
BRANCH  13  14
ATOM     14  C   UNL     1       0.689  11.293 -11.201  1.00  0.00    -0.000 C 
BRANCH  14  15
ATOM     15  C   UNL     1       2.188  11.498 -10.935  1.00  0.00    -0.000 C 
BRANCH  15  16
ATOM     16  C   UNL     1       2.455  12.359  -9.691  1.00  0.00    -0.003 C 
ATOM     17  C   UNL     1       2.350  11.565  -8.389  1.00  0.00     0.004 C 
ENDBRANCH  15  16
ENDBRANCH  14  15
ENDBRANCH  13  14
ENDBRANCH  12  13
ENDBRANCH  11  12
ENDBRANCH  10  11
ENDBRANCH   1  10
TORSDOF 13
ENDMDL
MODEL 3
REMARK VINA RESULT:    -3.637      3.174      5.279
REMARK INTER + INTRA:          -8.263
REMARK INTER:                  -6.401
REMARK INTRA:                  -1.862
REMARK UNBOUND:                -1.862
REMARK SMILES CCCCCCCCCCCCCCC(=O)[O-]
REMARK SMILES IDX 9 1 10 2 11 3 12 4 13 5 14 6 15 7 16 8 17 9 8 10 7 11 6 12
REMARK SMILES IDX 5 13 4 14 3 15 2 16 1 17
REMARK H PARENT
REMARK Flexibility Score: inf
ROOT
ATOM      1  C   UNL     1       1.499   7.314  -8.497  1.00  0.00     0.000 C 
ENDROOT
BRANCH   1   2
ATOM      2  C   UNL     1       2.317   8.120  -9.518  1.00  0.00     0.000 C 
BRANCH   2   3
ATOM      3  C   UNL     1       1.959   7.767 -10.972  1.00  0.00     0.000 C 
BRANCH   3   4
ATOM      4  C   UNL     1       1.364   8.958 -11.741  1.00  0.00     0.000 C 
BRANCH   4   5
ATOM      5  C   UNL     1       1.086  10.167 -10.832  1.00  0.00     0.006 C 
BRANCH   5   6
ATOM      6  C   UNL     1       1.945  11.383 -11.205  1.00  0.00     0.053 C 
BRANCH   6   7
ATOM      7  C   UNL     1       3.267  11.369 -10.499  1.00  0.00     0.041 C 
ATOM      8  O   UNL     1       3.375  11.870  -9.349  1.00  0.00    -0.550 OA
ATOM      9  O   UNL     1       4.385  10.828 -11.122  1.00  0.00    -0.550 OA
ENDBRANCH   6   7
ENDBRANCH   5   6
ENDBRANCH   4   5
ENDBRANCH   3   4
ENDBRANCH   2   3
ENDBRANCH   1   2
BRANCH   1  10
ATOM     10  C   UNL     1       0.453   8.174  -7.767  1.00  0.00     0.000 C 
BRANCH  10  11
ATOM     11  C   UNL     1      -0.934   8.099  -8.424  1.00  0.00    -0.000 C 
BRANCH  11  12
ATOM     12  C   UNL     1      -1.159   6.775  -9.175  1.00  0.00    -0.000 C 
BRANCH  12  13
ATOM     13  C   UNL     1      -1.609   6.990 -10.628  1.00  0.00    -0.000 C 
BRANCH  13  14
ATOM     14  C   UNL     1      -2.306   8.342 -10.838  1.00  0.00    -0.000 C 
BRANCH  14  15
ATOM     15  C   UNL     1      -3.756   8.146 -11.307  1.00  0.00    -0.000 C 
BRANCH  15  16
ATOM     16  C   UNL     1      -4.563   9.452 -11.293  1.00  0.00    -0.003 C 
ATOM     17  C   UNL     1      -4.101  10.422 -10.206  1.00  0.00     0.004 C 
ENDBRANCH  15  16
ENDBRANCH  14  15
ENDBRANCH  13  14
ENDBRANCH  12  13
ENDBRANCH  11  12
ENDBRANCH  10  11
ENDBRANCH   1  10
TORSDOF 13
ENDMDL
MODEL 4
REMARK VINA RESULT:    -3.525      3.636      5.864
REMARK INTER + INTRA:          -8.066
REMARK INTER:                  -6.630
REMARK INTRA:                  -1.436
REMARK UNBOUND:                -1.862
REMARK SMILES CCCCCCCCCCCCCCC(=O)[O-]
REMARK SMILES IDX 9 1 10 2 11 3 12 4 13 5 14 6 15 7 16 8 17 9 8 10 7 11 6 12
REMARK SMILES IDX 5 13 4 14 3 15 2 16 1 17
REMARK H PARENT
REMARK Flexibility Score: inf
ROOT
ATOM      1  C   UNL     1       0.371   8.336  -7.834  1.00  0.00     0.000 C 
ENDROOT
BRANCH   1   2
ATOM      2  C   UNL     1       1.529   7.372  -8.140  1.00  0.00     0.000 C 
BRANCH   2   3
ATOM      3  C   UNL     1       2.443   7.888  -9.266  1.00  0.00     0.000 C 
BRANCH   3   4
ATOM      4  C   UNL     1       1.907   9.171  -9.921  1.00  0.00     0.000 C 
BRANCH   4   5
ATOM      5  C   UNL     1       2.099   9.178 -11.447  1.00  0.00     0.006 C 
BRANCH   5   6
ATOM      6  C   UNL     1       3.358   8.413 -11.876  1.00  0.00     0.053 C 
BRANCH   6   7
ATOM      7  C   UNL     1       4.581   9.276 -11.818  1.00  0.00     0.041 C 
ATOM      8  O   UNL     1       5.687   8.785 -11.470  1.00  0.00    -0.550 OA
ATOM      9  O   UNL     1       4.495  10.629 -12.122  1.00  0.00    -0.550 OA
ENDBRANCH   6   7
ENDBRANCH   5   6
ENDBRANCH   4   5
ENDBRANCH   3   4
ENDBRANCH   2   3
ENDBRANCH   1   2
BRANCH   1  10
ATOM     10  C   UNL     1      -0.978   7.827  -8.370  1.00  0.00     0.000 C 
BRANCH  10  11
ATOM     11  C   UNL     1      -0.830   6.566  -9.235  1.00  0.00    -0.000 C 
BRANCH  11  12
ATOM     12  C   UNL     1      -1.000   6.858 -10.736  1.00  0.00    -0.000 C 
BRANCH  12  13
ATOM     13  C   UNL     1      -1.934   8.048 -11.005  1.00  0.00    -0.000 C 
BRANCH  13  14
ATOM     14  C   UNL     1      -3.391   7.617 -11.232  1.00  0.00    -0.000 C 
BRANCH  14  15
ATOM     15  C   UNL     1      -4.349   8.802 -11.041  1.00  0.00    -0.000 C 
BRANCH  15  16
ATOM     16  C   UNL     1      -3.730   9.933 -10.206  1.00  0.00    -0.003 C 
ATOM     17  C   UNL     1      -4.490  11.252 -10.341  1.00  0.00     0.004 C 
ENDBRANCH  15  16
ENDBRANCH  14  15
ENDBRANCH  13  14
ENDBRANCH  12  13
ENDBRANCH  11  12
ENDBRANCH  10  11
ENDBRANCH   1  10
TORSDOF 13
ENDMDL
MODEL 5
REMARK VINA RESULT:    -3.451     16.159     17.791
REMARK INTER + INTRA:          -7.936
REMARK INTER:                  -6.850
REMARK INTRA:                  -1.085
REMARK UNBOUND:                -1.862
REMARK SMILES CCCCCCCCCCCCCCC(=O)[O-]
REMARK SMILES IDX 9 1 10 2 11 3 12 4 13 5 14 6 15 7 16 8 17 9 8 10 7 11 6 12
REMARK SMILES IDX 5 13 4 14 3 15 2 16 1 17
REMARK H PARENT
REMARK Flexibility Score: inf
ROOT
ATOM      1  C   UNL     1       0.451  13.886   5.097  1.00  0.00     0.000 C 
ENDROOT
BRANCH   1   2
ATOM      2  C   UNL     1       1.790  13.440   4.489  1.00  0.00     0.000 C 
BRANCH   2   3
ATOM      3  C   UNL     1       2.897  13.289   5.547  1.00  0.00     0.000 C 
BRANCH   3   4
ATOM      4  C   UNL     1       2.531  12.280   6.647  1.00  0.00     0.000 C 
BRANCH   4   5
ATOM      5  C   UNL     1       3.761  11.547   7.209  1.00  0.00     0.006 C 
BRANCH   5   6
ATOM      6  C   UNL     1       5.032  11.847   6.402  1.00  0.00     0.053 C 
BRANCH   6   7
ATOM      7  C   UNL     1       5.754  10.592   6.014  1.00  0.00     0.041 C 
ATOM      8  O   UNL     1       5.159   9.483   6.047  1.00  0.00    -0.550 OA
ATOM      9  O   UNL     1       7.092  10.644   5.642  1.00  0.00    -0.550 OA
ENDBRANCH   6   7
ENDBRANCH   5   6
ENDBRANCH   4   5
ENDBRANCH   3   4
ENDBRANCH   2   3
ENDBRANCH   1   2
BRANCH   1  10
ATOM     10  C   UNL     1      -0.756  13.465   4.241  1.00  0.00     0.000 C 
BRANCH  10  11
ATOM     11  C   UNL     1      -1.648  12.434   4.949  1.00  0.00    -0.000 C 
BRANCH  11  12
ATOM     12  C   UNL     1      -0.951  11.074   5.128  1.00  0.00    -0.000 C 
BRANCH  12  13
ATOM     13  C   UNL     1      -1.938   9.898   5.115  1.00  0.00    -0.000 C 
BRANCH  13  14
ATOM     14  C   UNL     1      -2.724   9.770   6.429  1.00  0.00    -0.000 C 
BRANCH  14  15
ATOM     15  C   UNL     1      -4.236   9.728   6.161  1.00  0.00    -0.000 C 
BRANCH  15  16
ATOM     16  C   UNL     1      -4.587  10.064   4.704  1.00  0.00    -0.003 C 
ATOM     17  C   UNL     1      -5.277  11.420   4.559  1.00  0.00     0.004 C 
ENDBRANCH  15  16
ENDBRANCH  14  15
ENDBRANCH  13  14
ENDBRANCH  12  13
ENDBRANCH  11  12
ENDBRANCH  10  11
ENDBRANCH   1  10
TORSDOF 13
ENDMDL
MODEL 6
REMARK VINA RESULT:    -3.409      1.889      4.543
REMARK INTER + INTRA:          -7.862
REMARK INTER:                  -6.215
REMARK INTRA:                  -1.647
REMARK UNBOUND:                -1.862
REMARK SMILES CCCCCCCCCCCCCCC(=O)[O-]
REMARK SMILES IDX 9 1 10 2 11 3 12 4 13 5 14 6 15 7 16 8 17 9 8 10 7 11 6 12
REMARK SMILES IDX 5 13 4 14 3 15 2 16 1 17
REMARK H PARENT
REMARK Flexibility Score: inf
ROOT
ATOM      1  C   UNL     1       0.767   8.238  -7.824  1.00  0.00     0.000 C 
ENDROOT
BRANCH   1   2
ATOM      2  C   UNL     1       1.850   7.455  -8.584  1.00  0.00     0.000 C 
BRANCH   2   3
ATOM      3  C   UNL     1       2.513   8.291  -9.693  1.00  0.00     0.000 C 
BRANCH   3   4
ATOM      4  C   UNL     1       2.151   7.797 -11.102  1.00  0.00     0.000 C 
BRANCH   4   5
ATOM      5  C   UNL     1       1.513   8.898 -11.967  1.00  0.00     0.006 C 
BRANCH   5   6
ATOM      6  C   UNL     1       1.917  10.304 -11.505  1.00  0.00     0.053 C 
BRANCH   6   7
ATOM      7  C   UNL     1       0.724  11.185 -11.293  1.00  0.00     0.041 C 
ATOM      8  O   UNL     1      -0.407  10.833 -11.720  1.00  0.00    -0.550 OA
ATOM      9  O   UNL     1       0.865  12.408 -10.647  1.00  0.00    -0.550 OA
ENDBRANCH   6   7
ENDBRANCH   5   6
ENDBRANCH   4   5
ENDBRANCH   3   4
ENDBRANCH   2   3
ENDBRANCH   1   2
BRANCH   1  10
ATOM     10  C   UNL     1      -0.647   7.967  -8.366  1.00  0.00     0.000 C 
BRANCH  10  11
ATOM     11  C   UNL     1      -0.740   6.638  -9.132  1.00  0.00    -0.000 C 
BRANCH  11  12
ATOM     12  C   UNL     1      -1.315   6.812 -10.548  1.00  0.00    -0.000 C 
BRANCH  12  13
ATOM     13  C   UNL     1      -2.179   8.075 -10.684  1.00  0.00    -0.000 C 
BRANCH  13  14
ATOM     14  C   UNL     1      -3.576   7.777 -11.248  1.00  0.00    -0.000 C 
BRANCH  14  15
ATOM     15  C   UNL     1      -4.535   8.948 -10.985  1.00  0.00    -0.000 C 
BRANCH  15  16
ATOM     16  C   UNL     1      -3.895  10.055 -10.134  1.00  0.00    -0.003 C 
ATOM     17  C   UNL     1      -3.830  11.398 -10.861  1.00  0.00     0.004 C 
ENDBRANCH  15  16
ENDBRANCH  14  15
ENDBRANCH  13  14
ENDBRANCH  12  13
ENDBRANCH  11  12
ENDBRANCH  10  11
ENDBRANCH   1  10
TORSDOF 13
ENDMDL
MODEL 7
REMARK VINA RESULT:    -3.394     15.994     17.900
REMARK INTER + INTRA:          -7.835
REMARK INTER:                  -6.735
REMARK INTRA:                  -1.100
REMARK UNBOUND:                -1.862
REMARK SMILES CCCCCCCCCCCCCCC(=O)[O-]
REMARK SMILES IDX 9 1 10 2 11 3 12 4 13 5 14 6 15 7 16 8 17 9 8 10 7 11 6 12
REMARK SMILES IDX 5 13 4 14 3 15 2 16 1 17
REMARK H PARENT
REMARK Flexibility Score: inf
ROOT
ATOM      1  C   UNL     1       0.736  12.730   5.105  1.00  0.00     0.000 C 
ENDROOT
BRANCH   1   2
ATOM      2  C   UNL     1       2.075  13.396   4.748  1.00  0.00     0.000 C 
BRANCH   2   3
ATOM      3  C   UNL     1       3.139  13.205   5.844  1.00  0.00     0.000 C 
BRANCH   3   4
ATOM      4  C   UNL     1       2.728  12.158   6.892  1.00  0.00     0.000 C 
BRANCH   4   5
ATOM      5  C   UNL     1       3.905  11.273   7.335  1.00  0.00     0.006 C 
BRANCH   5   6
ATOM      6  C   UNL     1       5.221  11.676   6.655  1.00  0.00     0.053 C 
BRANCH   6   7
ATOM      7  C   UNL     1       5.877  10.511   5.978  1.00  0.00     0.041 C 
ATOM      8  O   UNL     1       7.064  10.603   5.569  1.00  0.00    -0.550 OA
ATOM      9  O   UNL     1       5.168   9.334   5.773  1.00  0.00    -0.550 OA
ENDBRANCH   6   7
ENDBRANCH   5   6
ENDBRANCH   4   5
ENDBRANCH   3   4
ENDBRANCH   2   3
ENDBRANCH   1   2
BRANCH   1  10
ATOM     10  C   UNL     1      -0.342  12.961   4.033  1.00  0.00     0.000 C 
BRANCH  10  11
ATOM     11  C   UNL     1      -1.331  14.071   4.423  1.00  0.00    -0.000 C 
BRANCH  11  12
ATOM     12  C   UNL     1      -2.452  13.565   5.347  1.00  0.00    -0.000 C 
BRANCH  12  13
ATOM     13  C   UNL     1      -3.829  13.578   4.668  1.00  0.00    -0.000 C 
BRANCH  13  14
ATOM     14  C   UNL     1      -4.679  12.350   5.028  1.00  0.00    -0.000 C 
BRANCH  14  15
ATOM     15  C   UNL     1      -3.896  11.389   5.935  1.00  0.00    -0.000 C 
BRANCH  15  16
ATOM     16  C   UNL     1      -3.468  10.106   5.206  1.00  0.00    -0.003 C 
ATOM     17  C   UNL     1      -1.968   9.834   5.318  1.00  0.00     0.004 C 
ENDBRANCH  15  16
ENDBRANCH  14  15
ENDBRANCH  13  14
ENDBRANCH  12  13
ENDBRANCH  11  12
ENDBRANCH  10  11
ENDBRANCH   1  10
TORSDOF 13
ENDMDL
MODEL 8
REMARK VINA RESULT:    -3.330     15.489     17.058
REMARK INTER + INTRA:          -7.722
REMARK INTER:                  -6.690
REMARK INTRA:                  -1.032
REMARK UNBOUND:                -1.862
REMARK SMILES CCCCCCCCCCCCCCC(=O)[O-]
REMARK SMILES IDX 9 1 10 2 11 3 12 4 13 5 14 6 15 7 16 8 17 9 8 10 7 11 6 12
REMARK SMILES IDX 5 13 4 14 3 15 2 16 1 17
REMARK H PARENT
REMARK Flexibility Score: inf
ROOT
ATOM      1  C   UNL     1      -0.492  13.110   3.994  1.00  0.00     0.000 C 
ENDROOT
BRANCH   1   2
ATOM      2  C   UNL     1      -1.387  14.114   4.738  1.00  0.00     0.000 C 
BRANCH   2   3
ATOM      3  C   UNL     1      -2.383  13.425   5.689  1.00  0.00     0.000 C 
BRANCH   3   4
ATOM      4  C   UNL     1      -3.599  12.844   4.950  1.00  0.00     0.000 C 
BRANCH   4   5
ATOM      5  C   UNL     1      -3.803  11.346   5.236  1.00  0.00     0.006 C 
BRANCH   5   6
ATOM      6  C   UNL     1      -2.749  10.793   6.205  1.00  0.00     0.053 C 
BRANCH   6   7
ATOM      7  C   UNL     1      -1.972   9.665   5.597  1.00  0.00     0.041 C 
ATOM      8  O   UNL     1      -1.426   9.806   4.471  1.00  0.00    -0.550 OA
ATOM      9  O   UNL     1      -1.874   8.448   6.261  1.00  0.00    -0.550 OA
ENDBRANCH   6   7
ENDBRANCH   5   6
ENDBRANCH   4   5
ENDBRANCH   3   4
ENDBRANCH   2   3
ENDBRANCH   1   2
BRANCH   1  10
ATOM     10  C   UNL     1       0.803  12.792   4.760  1.00  0.00     0.000 C 
BRANCH  10  11
ATOM     11  C   UNL     1       1.952  13.743   4.395  1.00  0.00    -0.000 C 
BRANCH  11  12
ATOM     12  C   UNL     1       3.147  13.622   5.356  1.00  0.00    -0.000 C 
BRANCH  12  13
ATOM     13  C   UNL     1       3.001  12.447   6.335  1.00  0.00    -0.000 C 
BRANCH  13  14
ATOM     14  C   UNL     1       4.275  12.201   7.157  1.00  0.00    -0.000 C 
BRANCH  14  15
ATOM     15  C   UNL     1       5.096  11.045   6.564  1.00  0.00    -0.000 C 
BRANCH  15  16
ATOM     16  C   UNL     1       6.416  11.520   5.939  1.00  0.00    -0.003 C 
ATOM     17  C   UNL     1       7.532  11.691   6.970  1.00  0.00     0.004 C 
ENDBRANCH  15  16
ENDBRANCH  14  15
ENDBRANCH  13  14
ENDBRANCH  12  13
ENDBRANCH  11  12
ENDBRANCH  10  11
ENDBRANCH   1  10
TORSDOF 13
ENDMDL
MODEL 9
REMARK VINA RESULT:    -3.239      3.151      5.994
REMARK INTER + INTRA:          -7.563
REMARK INTER:                  -5.939
REMARK INTRA:                  -1.624
REMARK UNBOUND:                -1.862
REMARK SMILES CCCCCCCCCCCCCCC(=O)[O-]
REMARK SMILES IDX 9 1 10 2 11 3 12 4 13 5 14 6 15 7 16 8 17 9 8 10 7 11 6 12
REMARK SMILES IDX 5 13 4 14 3 15 2 16 1 17
REMARK H PARENT
REMARK Flexibility Score: inf
ROOT
ATOM      1  C   UNL     1      -3.237  10.478 -11.116  1.00  0.00     0.000 C 
ENDROOT
BRANCH   1   2
ATOM      2  C   UNL     1      -2.641  11.671 -11.881  1.00  0.00     0.000 C 
BRANCH   2   3
ATOM      3  C   UNL     1      -1.108  11.739 -11.764  1.00  0.00     0.000 C 
BRANCH   3   4
ATOM      4  C   UNL     1      -0.483  10.386 -11.388  1.00  0.00     0.000 C 
BRANCH   4   5
ATOM      5  C   UNL     1       1.055  10.425 -11.392  1.00  0.00     0.006 C 
BRANCH   5   6
ATOM      6  C   UNL     1       1.606  11.632 -10.620  1.00  0.00     0.053 C 
BRANCH   6   7
ATOM      7  C   UNL     1       2.914  11.321  -9.960  1.00  0.00     0.041 C 
ATOM      8  O   UNL     1       3.143  11.719  -8.787  1.00  0.00    -0.550 OA
ATOM      9  O   UNL     1       3.893  10.615 -10.649  1.00  0.00    -0.550 OA
ENDBRANCH   6   7
ENDBRANCH   5   6
ENDBRANCH   4   5
ENDBRANCH   3   4
ENDBRANCH   2   3
ENDBRANCH   1   2
BRANCH   1  10
ATOM     10  C   UNL     1      -4.144   9.604 -12.000  1.00  0.00     0.000 C 
BRANCH  10  11
ATOM     11  C   UNL     1      -4.108   8.123 -11.597  1.00  0.00    -0.000 C 
BRANCH  11  12
ATOM     12  C   UNL     1      -2.679   7.619 -11.328  1.00  0.00    -0.000 C 
BRANCH  12  13
ATOM     13  C   UNL     1      -2.527   6.990  -9.935  1.00  0.00    -0.000 C 
BRANCH  13  14
ATOM     14  C   UNL     1      -1.642   7.830  -9.001  1.00  0.00    -0.000 C 
BRANCH  14  15
ATOM     15  C   UNL     1      -0.274   7.161  -8.794  1.00  0.00    -0.000 C 
BRANCH  15  16
ATOM     16  C   UNL     1       0.813   8.160  -8.370  1.00  0.00    -0.003 C 
ATOM     17  C   UNL     1       2.185   7.826  -8.956  1.00  0.00     0.004 C 
ENDBRANCH  15  16
ENDBRANCH  14  15
ENDBRANCH  13  14
ENDBRANCH  12  13
ENDBRANCH  11  12
ENDBRANCH  10  11
ENDBRANCH   1  10
TORSDOF 13
ENDMDL
