MODEL 1
REMARK VINA RESULT:     1.549      0.000      0.000
REMARK INTER + INTRA:           1.736
REMARK INTER:                   1.912
REMARK INTRA:                  -0.176
REMARK UNBOUND:                -0.176
REMARK SMILES CCCCCC(=O)[O-]
REMARK SMILES IDX 4 1 5 2 6 3 7 4 8 5 3 6 2 7 1 8
REMARK H PARENT
REMARK Flexibility Score: inf
ROOT
ATOM      1  C   UNL     1      56.045  56.248  23.594  1.00  0.00     0.006 C 
ENDROOT
BRANCH   1   2
ATOM      2  C   UNL     1      54.645  56.868  23.699  1.00  0.00     0.053 C 
BRANCH   2   3
ATOM      3  C   UNL     1      53.647  55.897  24.254  1.00  0.00     0.041 C 
ATOM      4  O   UNL     1      53.045  56.154  25.330  1.00  0.00    -0.550 OA
ATOM      5  O   UNL     1      53.407  54.694  23.601  1.00  0.00    -0.550 OA
ENDBRANCH   2   3
ENDBRANCH   1   2
BRANCH   1   6
ATOM      6  C   UNL     1      56.617  55.866  24.966  1.00  0.00     0.000 C 
BRANCH   6   7
ATOM      7  C   UNL     1      56.823  57.109  25.840  1.00  0.00    -0.003 C 
ATOM      8  C   UNL     1      58.218  57.125  26.457  1.00  0.00     0.004 C 
ENDBRANCH   6   7
ENDBRANCH   1   6
TORSDOF 4
ENDMDL
MODEL 2
REMARK VINA RESULT:     2.317      2.619      3.894
REMARK INTER + INTRA:           2.684
REMARK INTER:                   2.773
REMARK INTRA:                  -0.089
REMARK UNBOUND:                -0.176
REMARK SMILES CCCCCC(=O)[O-]
REMARK SMILES IDX 4 1 5 2 6 3 7 4 8 5 3 6 2 7 1 8
REMARK H PARENT
REMARK Flexibility Score: inf
ROOT
ATOM      1  C   UNL     1      55.691  56.380  23.843  1.00  0.00     0.006 C 
ENDROOT
BRANCH   1   2
ATOM      2  C   UNL     1      56.042  57.031  25.188  1.00  0.00     0.053 C 
BRANCH   2   3
ATOM      3  C   UNL     1      57.256  56.410  25.808  1.00  0.00     0.041 C 
ATOM      4  O   UNL     1      58.079  57.123  26.439  1.00  0.00    -0.550 OA
ATOM      5  O   UNL     1      57.496  55.049  25.658  1.00  0.00    -0.550 OA
ENDBRANCH   2   3
ENDBRANCH   1   2
BRANCH   1   6
ATOM      6  C   UNL     1      54.471  55.454  23.945  1.00  0.00     0.000 C 
BRANCH   6   7
ATOM      7  C   UNL     1      53.686  55.721  25.235  1.00  0.00    -0.003 C 
ATOM      8  C   UNL     1      52.533  56.689  24.989  1.00  0.00     0.004 C 
ENDBRANCH   6   7
ENDBRANCH   1   6
TORSDOF 4
ENDMDL
MODEL 3
REMARK VINA RESULT:     3.078      2.713      4.258
REMARK INTER + INTRA:           3.622
REMARK INTER:                   3.686
REMARK INTRA:                  -0.064
REMARK UNBOUND:                -0.176
REMARK SMILES CCCCCC(=O)[O-]
REMARK SMILES IDX 4 1 5 2 6 3 7 4 8 5 3 6 2 7 1 8
REMARK H PARENT
REMARK Flexibility Score: inf
ROOT
ATOM      1  C   UNL     1      55.634  56.375  24.119  1.00  0.00     0.006 C 
ENDROOT
BRANCH   1   2
ATOM      2  C   UNL     1      56.183  57.115  25.347  1.00  0.00     0.053 C 
BRANCH   2   3
ATOM      3  C   UNL     1      57.407  56.449  25.896  1.00  0.00     0.041 C 
ATOM      4  O   UNL     1      58.275  57.125  26.507  1.00  0.00    -0.550 OA
ATOM      5  O   UNL     1      57.605  55.087  25.704  1.00  0.00    -0.550 OA
ENDBRANCH   2   3
ENDBRANCH   1   2
BRANCH   1   6
ATOM      6  C   UNL     1      54.120  56.567  23.953  1.00  0.00     0.000 C 
BRANCH   6   7
ATOM      7  C   UNL     1      53.377  55.236  24.107  1.00  0.00    -0.003 C 
ATOM      8  C   UNL     1      53.344  54.467  22.790  1.00  0.00     0.004 C 
ENDBRANCH   6   7
ENDBRANCH   1   6
TORSDOF 4
ENDMDL
MODEL 4
REMARK VINA RESULT:     4.027      1.449      1.801
REMARK INTER + INTRA:           4.793
REMARK INTER:                   4.577
REMARK INTRA:                   0.216
REMARK UNBOUND:                -0.176
REMARK SMILES CCCCCC(=O)[O-]
REMARK SMILES IDX 4 1 5 2 6 3 7 4 8 5 3 6 2 7 1 8
REMARK H PARENT
REMARK Flexibility Score: inf
ROOT
ATOM      1  C   UNL     1      54.629  56.304  25.717  1.00  0.00     0.006 C 
ENDROOT
BRANCH   1   2
ATOM      2  C   UNL     1      53.666  56.232  24.525  1.00  0.00     0.053 C 
BRANCH   2   3
ATOM      3  C   UNL     1      54.118  55.233  23.504  1.00  0.00     0.041 C 
ATOM      4  O   UNL     1      53.326  54.345  23.094  1.00  0.00    -0.550 OA
ATOM      5  O   UNL     1      55.424  55.263  23.031  1.00  0.00    -0.550 OA
ENDBRANCH   2   3
ENDBRANCH   1   2
BRANCH   1   6
ATOM      6  C   UNL     1      55.888  57.123  25.400  1.00  0.00     0.000 C 
BRANCH   6   7
ATOM      7  C   UNL     1      57.157  56.306  25.671  1.00  0.00    -0.003 C 
ATOM      8  C   UNL     1      58.186  57.125  26.445  1.00  0.00     0.004 C 
ENDBRANCH   6   7
ENDBRANCH   1   6
TORSDOF 4
ENDMDL
