MODEL 1
REMARK VINA RESULT:    -4.182      0.000      0.000
REMARK INTER + INTRA:          -6.972
REMARK INTER:                  -6.137
REMARK INTRA:                  -0.835
REMARK UNBOUND:                -0.835
REMARK SMILES O=C([O-])CCCCCCCC(=O)[O-]
REMARK SMILES IDX 7 1 6 2 5 3 4 4 2 5 1 6 3 7 8 8 9 9 10 10 11 11 12 12 13 13
REMARK H PARENT
REMARK Flexibility Score: inf
ROOT
ATOM      1  C   UNL     1      12.784 -17.879 -12.162  1.00  0.00     0.000 C 
ENDROOT
BRANCH   1   2
ATOM      2  C   UNL     1      11.466 -17.782 -12.946  1.00  0.00     0.000 C 
BRANCH   2   3
ATOM      3  C   UNL     1      11.161 -19.044 -13.774  1.00  0.00     0.006 C 
BRANCH   3   4
ATOM      4  C   UNL     1      11.966 -20.282 -13.344  1.00  0.00     0.053 C 
BRANCH   4   5
ATOM      5  C   UNL     1      11.919 -21.381 -14.363  1.00  0.00     0.041 C 
ATOM      6  O   UNL     1      11.610 -21.126 -15.557  1.00  0.00    -0.550 OA
ATOM      7  O   UNL     1      12.183 -22.693 -13.989  1.00  0.00    -0.550 OA
ENDBRANCH   4   5
ENDBRANCH   3   4
ENDBRANCH   2   3
ENDBRANCH   1   2
BRANCH   1   8
ATOM      8  C   UNL     1      13.772 -16.792 -12.610  1.00  0.00     0.000 C 
BRANCH   8   9
ATOM      9  C   UNL     1      13.478 -16.271 -14.025  1.00  0.00     0.006 C 
BRANCH   9  10
ATOM     10  C   UNL     1      14.533 -16.712 -15.049  1.00  0.00     0.053 C 
BRANCH  10  11
ATOM     11  C   UNL     1      14.301 -18.132 -15.458  1.00  0.00     0.041 C 
ATOM     12  O   UNL     1      13.455 -18.406 -16.348  1.00  0.00    -0.550 OA
ATOM     13  O   UNL     1      14.985 -19.159 -14.818  1.00  0.00    -0.550 OA
ENDBRANCH  10  11
ENDBRANCH   9  10
ENDBRANCH   8   9
ENDBRANCH   1   8
TORSDOF 8
ENDMDL
MODEL 2
REMARK VINA RESULT:    -4.167      2.194      3.768
REMARK INTER + INTRA:          -6.950
REMARK INTER:                  -6.460
REMARK INTRA:                  -0.490
REMARK UNBOUND:                -0.835
REMARK SMILES O=C([O-])CCCCCCCC(=O)[O-]
REMARK SMILES IDX 7 1 6 2 5 3 4 4 2 5 1 6 3 7 8 8 9 9 10 10 11 11 12 12 13 13
REMARK H PARENT
REMARK Flexibility Score: inf
ROOT
ATOM      1  C   UNL     1      11.729 -21.011 -15.397  1.00  0.00     0.000 C 
ENDROOT
BRANCH   1   2
ATOM      2  C   UNL     1      12.997 -21.394 -14.619  1.00  0.00     0.000 C 
BRANCH   2   3
ATOM      3  C   UNL     1      12.848 -22.705 -13.827  1.00  0.00     0.006 C 
BRANCH   3   4
ATOM      4  C   UNL     1      11.525 -23.445 -14.089  1.00  0.00     0.053 C 
BRANCH   4   5
ATOM      5  C   UNL     1      11.712 -24.925 -14.241  1.00  0.00     0.041 C 
ATOM      6  O   UNL     1      10.768 -25.643 -14.663  1.00  0.00    -0.550 OA
ATOM      7  O   UNL     1      12.917 -25.517 -13.885  1.00  0.00    -0.550 OA
ENDBRANCH   4   5
ENDBRANCH   3   4
ENDBRANCH   2   3
ENDBRANCH   1   2
BRANCH   1   8
ATOM      8  C   UNL     1      11.288 -19.579 -15.061  1.00  0.00     0.000 C 
BRANCH   8   9
ATOM      9  C   UNL     1      11.449 -19.245 -13.569  1.00  0.00     0.006 C 
BRANCH   9  10
ATOM     10  C   UNL     1      11.611 -17.741 -13.314  1.00  0.00     0.053 C 
BRANCH  10  11
ATOM     11  C   UNL     1      13.039 -17.332 -13.492  1.00  0.00     0.041 C 
ATOM     12  O   UNL     1      13.964 -18.169 -13.321  1.00  0.00    -0.550 OA
ATOM     13  O   UNL     1      13.351 -16.013 -13.797  1.00  0.00    -0.550 OA
ENDBRANCH  10  11
ENDBRANCH   9  10
ENDBRANCH   8   9
ENDBRANCH   1   8
TORSDOF 8
ENDMDL
MODEL 3
REMARK VINA RESULT:    -4.154      2.594      6.091
REMARK INTER + INTRA:          -6.932
REMARK INTER:                  -6.734
REMARK INTRA:                  -0.198
REMARK UNBOUND:                -0.835
REMARK SMILES O=C([O-])CCCCCCCC(=O)[O-]
REMARK SMILES IDX 7 1 6 2 5 3 4 4 2 5 1 6 3 7 8 8 9 9 10 10 11 11 12 12 13 13
REMARK H PARENT
REMARK Flexibility Score: inf
ROOT
ATOM      1  C   UNL     1      12.229 -20.892 -15.099  1.00  0.00     0.000 C 
ENDROOT
BRANCH   1   2
ATOM      2  C   UNL     1      11.405 -19.600 -15.003  1.00  0.00     0.000 C 
BRANCH   2   3
ATOM      3  C   UNL     1      12.034 -18.550 -14.069  1.00  0.00     0.006 C 
BRANCH   3   4
ATOM      4  C   UNL     1      13.524 -18.283 -14.344  1.00  0.00     0.053 C 
BRANCH   4   5
ATOM      5  C   UNL     1      13.819 -16.830 -14.559  1.00  0.00     0.041 C 
ATOM      6  O   UNL     1      14.725 -16.479 -15.361  1.00  0.00    -0.550 OA
ATOM      7  O   UNL     1      13.120 -15.861 -13.850  1.00  0.00    -0.550 OA
ENDBRANCH   4   5
ENDBRANCH   3   4
ENDBRANCH   2   3
ENDBRANCH   1   2
BRANCH   1   8
ATOM      8  C   UNL     1      11.353 -22.125 -14.833  1.00  0.00     0.000 C 
BRANCH   8   9
ATOM      9  C   UNL     1      12.103 -23.231 -14.074  1.00  0.00     0.006 C 
BRANCH   9  10
ATOM     10  C   UNL     1      11.400 -24.592 -14.166  1.00  0.00     0.053 C 
BRANCH  10  11
ATOM     11  C   UNL     1      12.401 -25.702 -14.100  1.00  0.00     0.041 C 
ATOM     12  O   UNL     1      12.115 -26.842 -14.549  1.00  0.00    -0.550 OA
ATOM     13  O   UNL     1      13.635 -25.490 -13.496  1.00  0.00    -0.550 OA
ENDBRANCH  10  11
ENDBRANCH   9  10
ENDBRANCH   8   9
ENDBRANCH   1   8
TORSDOF 8
ENDMDL
MODEL 4
REMARK VINA RESULT:    -4.057      1.727      2.476
REMARK INTER + INTRA:          -6.790
REMARK INTER:                  -5.874
REMARK INTRA:                  -0.916
REMARK UNBOUND:                -0.835
REMARK SMILES O=C([O-])CCCCCCCC(=O)[O-]
REMARK SMILES IDX 7 1 6 2 5 3 4 4 2 5 1 6 3 7 8 8 9 9 10 10 11 11 12 12 13 13
REMARK H PARENT
REMARK Flexibility Score: inf
ROOT
ATOM      1  C   UNL     1      11.816 -18.227 -10.922  1.00  0.00     0.000 C 
ENDROOT
BRANCH   1   2
ATOM      2  C   UNL     1      10.967 -18.389 -12.191  1.00  0.00     0.000 C 
BRANCH   2   3
ATOM      3  C   UNL     1      11.543 -19.423 -13.176  1.00  0.00     0.006 C 
BRANCH   3   4
ATOM      4  C   UNL     1      11.291 -19.084 -14.656  1.00  0.00     0.053 C 
BRANCH   4   5
ATOM      5  C   UNL     1      12.408 -19.534 -15.548  1.00  0.00     0.041 C 
ATOM      6  O   UNL     1      13.517 -19.870 -15.054  1.00  0.00    -0.550 OA
ATOM      7  O   UNL     1      12.239 -19.551 -16.926  1.00  0.00    -0.550 OA
ENDBRANCH   4   5
ENDBRANCH   3   4
ENDBRANCH   2   3
ENDBRANCH   1   2
BRANCH   1   8
ATOM      8  C   UNL     1      13.314 -18.341 -11.243  1.00  0.00     0.000 C 
BRANCH   8   9
ATOM      9  C   UNL     1      13.939 -16.993 -11.637  1.00  0.00     0.006 C 
BRANCH   9  10
ATOM     10  C   UNL     1      14.773 -17.082 -12.922  1.00  0.00     0.053 C 
BRANCH  10  11
ATOM     11  C   UNL     1      14.018 -16.501 -14.075  1.00  0.00     0.041 C 
ATOM     12  O   UNL     1      14.493 -16.561 -15.239  1.00  0.00    -0.550 OA
ATOM     13  O   UNL     1      12.811 -15.847 -13.857  1.00  0.00    -0.550 OA
ENDBRANCH  10  11
ENDBRANCH   9  10
ENDBRANCH   8   9
ENDBRANCH   1   8
TORSDOF 8
ENDMDL
MODEL 5
REMARK VINA RESULT:    -4.049      2.801      5.914
REMARK INTER + INTRA:          -6.778
REMARK INTER:                  -6.405
REMARK INTRA:                  -0.373
REMARK UNBOUND:                -0.835
REMARK SMILES O=C([O-])CCCCCCCC(=O)[O-]
REMARK SMILES IDX 7 1 6 2 5 3 4 4 2 5 1 6 3 7 8 8 9 9 10 10 11 11 12 12 13 13
REMARK H PARENT
REMARK Flexibility Score: inf
ROOT
ATOM      1  C   UNL     1      12.354 -21.032 -14.860  1.00  0.00     0.000 C 
ENDROOT
BRANCH   1   2
ATOM      2  C   UNL     1      11.681 -19.817 -15.515  1.00  0.00     0.000 C 
BRANCH   2   3
ATOM      3  C   UNL     1      11.157 -18.793 -14.492  1.00  0.00     0.006 C 
BRANCH   3   4
ATOM      4  C   UNL     1      11.425 -19.179 -13.027  1.00  0.00     0.053 C 
BRANCH   4   5
ATOM      5  C   UNL     1      12.170 -18.115 -12.278  1.00  0.00     0.041 C 
ATOM      6  O   UNL     1      12.049 -18.018 -11.028  1.00  0.00    -0.550 OA
ATOM      7  O   UNL     1      12.969 -17.208 -12.961  1.00  0.00    -0.550 OA
ENDBRANCH   4   5
ENDBRANCH   3   4
ENDBRANCH   2   3
ENDBRANCH   1   2
BRANCH   1   8
ATOM      8  C   UNL     1      11.463 -22.279 -14.966  1.00  0.00     0.000 C 
BRANCH   8   9
ATOM      9  C   UNL     1      11.641 -23.237 -13.778  1.00  0.00     0.006 C 
BRANCH   9  10
ATOM     10  C   UNL     1      11.255 -24.682 -14.120  1.00  0.00     0.053 C 
BRANCH  10  11
ATOM     11  C   UNL     1      12.460 -25.568 -14.081  1.00  0.00     0.041 C 
ATOM     12  O   UNL     1      13.585 -25.095 -13.773  1.00  0.00    -0.550 OA
ATOM     13  O   UNL     1      12.350 -26.907 -14.435  1.00  0.00    -0.550 OA
ENDBRANCH  10  11
ENDBRANCH   9  10
ENDBRANCH   8   9
ENDBRANCH   1   8
TORSDOF 8
ENDMDL
MODEL 6
REMARK VINA RESULT:    -4.006      2.096      2.896
REMARK INTER + INTRA:          -6.714
REMARK INTER:                  -6.098
REMARK INTRA:                  -0.615
REMARK UNBOUND:                -0.835
REMARK SMILES O=C([O-])CCCCCCCC(=O)[O-]
REMARK SMILES IDX 7 1 6 2 5 3 4 4 2 5 1 6 3 7 8 8 9 9 10 10 11 11 12 12 13 13
REMARK H PARENT
REMARK Flexibility Score: inf
ROOT
ATOM      1  C   UNL     1      11.647 -19.190 -12.652  1.00  0.00     0.000 C 
ENDROOT
BRANCH   1   2
ATOM      2  C   UNL     1      11.878 -20.097 -13.870  1.00  0.00     0.000 C 
BRANCH   2   3
ATOM      3  C   UNL     1      11.459 -19.443 -15.199  1.00  0.00     0.006 C 
BRANCH   3   4
ATOM      4  C   UNL     1      12.026 -20.143 -16.446  1.00  0.00     0.053 C 
BRANCH   4   5
ATOM      5  C   UNL     1      12.923 -19.251 -17.250  1.00  0.00     0.041 C 
ATOM      6  O   UNL     1      12.780 -19.168 -18.498  1.00  0.00    -0.550 OA
ATOM      7  O   UNL     1      13.939 -18.536 -16.628  1.00  0.00    -0.550 OA
ENDBRANCH   4   5
ENDBRANCH   3   4
ENDBRANCH   2   3
ENDBRANCH   1   2
BRANCH   1   8
ATOM      8  C   UNL     1      11.732 -17.708 -13.045  1.00  0.00     0.000 C 
BRANCH   8   9
ATOM      9  C   UNL     1      13.024 -17.038 -12.550  1.00  0.00     0.006 C 
BRANCH   9  10
ATOM     10  C   UNL     1      13.908 -16.537 -13.701  1.00  0.00     0.053 C 
BRANCH  10  11
ATOM     11  C   UNL     1      15.207 -17.278 -13.720  1.00  0.00     0.041 C 
ATOM     12  O   UNL     1      16.183 -16.831 -14.378  1.00  0.00    -0.550 OA
ATOM     13  O   UNL     1      15.326 -18.490 -13.052  1.00  0.00    -0.550 OA
ENDBRANCH  10  11
ENDBRANCH   9  10
ENDBRANCH   8   9
ENDBRANCH   1   8
TORSDOF 8
ENDMDL
MODEL 7
REMARK VINA RESULT:    -4.000      2.946      6.155
REMARK INTER + INTRA:          -6.706
REMARK INTER:                  -6.352
REMARK INTRA:                  -0.353
REMARK UNBOUND:                -0.835
REMARK SMILES O=C([O-])CCCCCCCC(=O)[O-]
REMARK SMILES IDX 7 1 6 2 5 3 4 4 2 5 1 6 3 7 8 8 9 9 10 10 11 11 12 12 13 13
REMARK H PARENT
REMARK Flexibility Score: inf
ROOT
ATOM      1  C   UNL     1      12.676 -22.130 -14.364  1.00  0.00     0.000 C 
ENDROOT
BRANCH   1   2
ATOM      2  C   UNL     1      12.466 -20.687 -13.883  1.00  0.00     0.000 C 
BRANCH   2   3
ATOM      3  C   UNL     1      11.671 -19.827 -14.882  1.00  0.00     0.006 C 
BRANCH   3   4
ATOM      4  C   UNL     1      12.029 -20.088 -16.355  1.00  0.00     0.053 C 
BRANCH   4   5
ATOM      5  C   UNL     1      12.999 -19.083 -16.899  1.00  0.00     0.041 C 
ATOM      6  O   UNL     1      13.530 -18.235 -16.133  1.00  0.00    -0.550 OA
ATOM      7  O   UNL     1      13.291 -19.056 -18.257  1.00  0.00    -0.550 OA
ENDBRANCH   4   5
ENDBRANCH   3   4
ENDBRANCH   2   3
ENDBRANCH   1   2
BRANCH   1   8
ATOM      8  C   UNL     1      11.421 -22.980 -14.121  1.00  0.00     0.000 C 
BRANCH   8   9
ATOM      9  C   UNL     1      11.715 -24.489 -14.139  1.00  0.00     0.006 C 
BRANCH   9  10
ATOM     10  C   UNL     1      13.171 -24.811 -13.778  1.00  0.00     0.053 C 
BRANCH  10  11
ATOM     11  C   UNL     1      13.491 -26.233 -14.118  1.00  0.00     0.041 C 
ATOM     12  O   UNL     1      12.570 -27.033 -14.428  1.00  0.00    -0.550 OA
ATOM     13  O   UNL     1      14.802 -26.687 -14.044  1.00  0.00    -0.550 OA
ENDBRANCH  10  11
ENDBRANCH   9  10
ENDBRANCH   8   9
ENDBRANCH   1   8
TORSDOF 8
ENDMDL
MODEL 8
REMARK VINA RESULT:    -3.993      2.781      3.800
REMARK INTER + INTRA:          -6.695
REMARK INTER:                  -5.877
REMARK INTRA:                  -0.818
REMARK UNBOUND:                -0.835
REMARK SMILES O=C([O-])CCCCCCCC(=O)[O-]
REMARK SMILES IDX 7 1 6 2 5 3 4 4 2 5 1 6 3 7 8 8 9 9 10 10 11 11 12 12 13 13
REMARK H PARENT
REMARK Flexibility Score: inf
ROOT
ATOM      1  C   UNL     1      11.377 -19.999 -14.965  1.00  0.00     0.000 C 
ENDROOT
BRANCH   1   2
ATOM      2  C   UNL     1      11.192 -18.772 -14.059  1.00  0.00     0.000 C 
BRANCH   2   3
ATOM      3  C   UNL     1      11.437 -19.079 -12.571  1.00  0.00     0.006 C 
BRANCH   3   4
ATOM      4  C   UNL     1      12.856 -18.735 -12.087  1.00  0.00     0.053 C 
BRANCH   4   5
ATOM      5  C   UNL     1      12.873 -17.592 -11.117  1.00  0.00     0.041 C 
ATOM      6  O   UNL     1      11.950 -17.466 -10.270  1.00  0.00    -0.550 OA
ATOM      7  O   UNL     1      13.889 -16.646 -11.169  1.00  0.00    -0.550 OA
ENDBRANCH   4   5
ENDBRANCH   3   4
ENDBRANCH   2   3
ENDBRANCH   1   2
BRANCH   1   8
ATOM      8  C   UNL     1      12.678 -19.893 -15.776  1.00  0.00     0.000 C 
BRANCH   8   9
ATOM      9  C   UNL     1      13.139 -18.440 -15.968  1.00  0.00     0.006 C 
BRANCH   9  10
ATOM     10  C   UNL     1      14.574 -18.205 -15.476  1.00  0.00     0.053 C 
BRANCH  10  11
ATOM     11  C   UNL     1      14.651 -16.944 -14.676  1.00  0.00     0.041 C 
ATOM     12  O   UNL     1      13.641 -16.202 -14.562  1.00  0.00    -0.550 OA
ATOM     13  O   UNL     1      15.855 -16.561 -14.096  1.00  0.00    -0.550 OA
ENDBRANCH  10  11
ENDBRANCH   9  10
ENDBRANCH   8   9
ENDBRANCH   1   8
TORSDOF 8
ENDMDL
MODEL 9
REMARK VINA RESULT:    -3.893      2.051      4.023
REMARK INTER + INTRA:          -6.548
REMARK INTER:                  -5.936
REMARK INTRA:                  -0.612
REMARK UNBOUND:                -0.835
REMARK SMILES O=C([O-])CCCCCCCC(=O)[O-]
REMARK SMILES IDX 7 1 6 2 5 3 4 4 2 5 1 6 3 7 8 8 9 9 10 10 11 11 12 12 13 13
REMARK H PARENT
REMARK Flexibility Score: inf
ROOT
ATOM      1  C   UNL     1      11.074 -19.100 -11.853  1.00  0.00     0.000 C 
ENDROOT
BRANCH   1   2
ATOM      2  C   UNL     1      11.915 -17.999 -11.190  1.00  0.00     0.000 C 
BRANCH   2   3
ATOM      3  C   UNL     1      13.428 -18.179 -11.412  1.00  0.00     0.006 C 
BRANCH   3   4
ATOM      4  C   UNL     1      14.160 -16.884 -11.806  1.00  0.00     0.053 C 
BRANCH   4   5
ATOM      5  C   UNL     1      14.293 -16.727 -13.290  1.00  0.00     0.041 C 
ATOM      6  O   UNL     1      15.338 -17.114 -13.878  1.00  0.00    -0.550 OA
ATOM      7  O   UNL     1      13.280 -16.122 -14.024  1.00  0.00    -0.550 OA
ENDBRANCH   4   5
ENDBRANCH   3   4
ENDBRANCH   2   3
ENDBRANCH   1   2
BRANCH   1   8
ATOM      8  C   UNL     1      11.776 -19.652 -13.102  1.00  0.00     0.000 C 
BRANCH   8   9
ATOM      9  C   UNL     1      11.331 -18.945 -14.392  1.00  0.00     0.006 C 
BRANCH   9  10
ATOM     10  C   UNL     1      11.380 -19.866 -15.619  1.00  0.00     0.053 C 
BRANCH  10  11
ATOM     11  C   UNL     1      12.499 -19.466 -16.527  1.00  0.00     0.041 C 
ATOM     12  O   UNL     1      13.413 -18.707 -16.112  1.00  0.00    -0.550 OA
ATOM     13  O   UNL     1      12.506 -19.891 -17.850  1.00  0.00    -0.550 OA
ENDBRANCH  10  11
ENDBRANCH   9  10
ENDBRANCH   8   9
ENDBRANCH   1   8
TORSDOF 8
ENDMDL
