MODEL 1
REMARK VINA RESULT:    -1.799      0.000      0.000
REMARK INTER + INTRA:          -1.799
REMARK INTER:                  -1.799
REMARK INTRA:                   0.000
REMARK UNBOUND:                 0.000
REMARK SMILES CC(=O)[O-]
REMARK SMILES IDX 1 1 2 2 3 3 4 4
REMARK H PARENT
REMARK Flexibility Score: inf
ROOT
ATOM      1  C   UNL     1      89.706  28.832  27.480  1.00  0.00     0.063 C 
ATOM      2  C   UNL     1      88.940  29.468  28.591  1.00  0.00     0.038 C 
ATOM      3  O   UNL     1      89.122  30.682  28.869  1.00  0.00    -0.550 OA
ATOM      4  O   UNL     1      88.065  28.708  29.356  1.00  0.00    -0.550 OA
ENDROOT
TORSDOF 0
ENDMDL
MODEL 2
REMARK VINA RESULT:    -1.798      1.483      1.721
REMARK INTER + INTRA:          -1.798
REMARK INTER:                  -1.798
REMARK INTRA:                   0.000
REMARK UNBOUND:                 0.000
REMARK SMILES CC(=O)[O-]
REMARK SMILES IDX 1 1 2 2 3 3 4 4
REMARK H PARENT
REMARK Flexibility Score: inf
ROOT
ATOM      1  C   UNL     1      88.545  30.428  28.745  1.00  0.00     0.063 C 
ATOM      2  C   UNL     1      88.827  28.964  28.769  1.00  0.00     0.038 C 
ATOM      3  O   UNL     1      89.904  28.521  28.291  1.00  0.00    -0.550 OA
ATOM      4  O   UNL     1      87.879  28.081  29.270  1.00  0.00    -0.550 OA
ENDROOT
TORSDOF 0
ENDMDL
MODEL 3
REMARK VINA RESULT:    -1.795      0.202      1.626
REMARK INTER + INTRA:          -1.795
REMARK INTER:                  -1.795
REMARK INTRA:                   0.000
REMARK UNBOUND:                 0.000
REMARK SMILES CC(=O)[O-]
REMARK SMILES IDX 1 1 2 2 3 3 4 4
REMARK H PARENT
REMARK Flexibility Score: inf
ROOT
ATOM      1  C   UNL     1      89.681  28.772  27.329  1.00  0.00     0.063 C 
ATOM      2  C   UNL     1      88.969  29.280  28.538  1.00  0.00     0.038 C 
ATOM      3  O   UNL     1      88.229  28.509  29.205  1.00  0.00    -0.550 OA
ATOM      4  O   UNL     1      89.077  30.616  28.899  1.00  0.00    -0.550 OA
ENDROOT
TORSDOF 0
ENDMDL
MODEL 4
REMARK VINA RESULT:    -1.791      1.439      2.031
REMARK INTER + INTRA:          -1.791
REMARK INTER:                  -1.791
REMARK INTRA:                   0.000
REMARK UNBOUND:                 0.000
REMARK SMILES CC(=O)[O-]
REMARK SMILES IDX 1 1 2 2 3 3 4 4
REMARK H PARENT
REMARK Flexibility Score: inf
ROOT
ATOM      1  C   UNL     1      87.801  28.277  29.056  1.00  0.00     0.063 C 
ATOM      2  C   UNL     1      88.959  29.116  28.631  1.00  0.00     0.038 C 
ATOM      3  O   UNL     1      90.009  28.570  28.201  1.00  0.00    -0.550 OA
ATOM      4  O   UNL     1      88.901  30.497  28.761  1.00  0.00    -0.550 OA
ENDROOT
TORSDOF 0
ENDMDL
MODEL 5
REMARK VINA RESULT:    -1.700     11.782     12.322
REMARK INTER + INTRA:          -1.700
REMARK INTER:                  -1.700
REMARK INTRA:                   0.000
REMARK UNBOUND:                 0.000
REMARK SMILES CC(=O)[O-]
REMARK SMILES IDX 1 1 2 2 3 3 4 4
REMARK H PARENT
REMARK Flexibility Score: inf
ROOT
ATOM      1  C   UNL     1      89.553  40.257  26.361  1.00  0.00     0.063 C 
ATOM      2  C   UNL     1      90.037  41.157  25.274  1.00  0.00     0.038 C 
ATOM      3  O   UNL     1      89.542  42.307  25.140  1.00  0.00    -0.550 OA
ATOM      4  O   UNL     1      90.996  40.709  24.375  1.00  0.00    -0.550 OA
ENDROOT
TORSDOF 0
ENDMDL
MODEL 6
REMARK VINA RESULT:    -1.654     10.774     11.191
REMARK INTER + INTRA:          -1.654
REMARK INTER:                  -1.654
REMARK INTRA:                   0.000
REMARK UNBOUND:                 0.000
REMARK SMILES CC(=O)[O-]
REMARK SMILES IDX 1 1 2 2 3 3 4 4
REMARK H PARENT
REMARK Flexibility Score: inf
ROOT
ATOM      1  C   UNL     1      89.253  38.818  25.034  1.00  0.00     0.063 C 
ATOM      2  C   UNL     1      89.939  40.081  25.435  1.00  0.00     0.038 C 
ATOM      3  O   UNL     1      90.825  40.580  24.693  1.00  0.00    -0.550 OA
ATOM      4  O   UNL     1      89.640  40.679  26.652  1.00  0.00    -0.550 OA
ENDROOT
TORSDOF 0
ENDMDL
MODEL 7
REMARK VINA RESULT:    -1.631      7.476      8.030
REMARK INTER + INTRA:          -1.631
REMARK INTER:                  -1.631
REMARK INTRA:                   0.000
REMARK UNBOUND:                 0.000
REMARK SMILES CC(=O)[O-]
REMARK SMILES IDX 1 1 2 2 3 3 4 4
REMARK H PARENT
REMARK Flexibility Score: inf
ROOT
ATOM      1  C   UNL     1      85.931  35.890  32.509  1.00  0.00     0.063 C 
ATOM      2  C   UNL     1      86.194  34.802  33.495  1.00  0.00     0.038 C 
ATOM      3  O   UNL     1      86.346  33.616  33.101  1.00  0.00    -0.550 OA
ATOM      4  O   UNL     1      86.217  35.086  34.854  1.00  0.00    -0.550 OA
ENDROOT
TORSDOF 0
ENDMDL
MODEL 8
REMARK VINA RESULT:    -1.570      7.599      8.157
REMARK INTER + INTRA:          -1.570
REMARK INTER:                  -1.570
REMARK INTRA:                   0.000
REMARK UNBOUND:                 0.000
REMARK SMILES CC(=O)[O-]
REMARK SMILES IDX 1 1 2 2 3 3 4 4
REMARK H PARENT
REMARK Flexibility Score: inf
ROOT
ATOM      1  C   UNL     1      85.922  35.105  35.094  1.00  0.00     0.063 C 
ATOM      2  C   UNL     1      86.171  34.866  33.643  1.00  0.00     0.038 C 
ATOM      3  O   UNL     1      86.151  35.830  32.832  1.00  0.00    -0.550 OA
ATOM      4  O   UNL     1      86.374  33.575  33.175  1.00  0.00    -0.550 OA
ENDROOT
TORSDOF 0
ENDMDL
MODEL 9
REMARK VINA RESULT:    -1.556     12.164     12.802
REMARK INTER + INTRA:          -1.556
REMARK INTER:                  -1.556
REMARK INTRA:                   0.000
REMARK UNBOUND:                 0.000
REMARK SMILES CC(=O)[O-]
REMARK SMILES IDX 1 1 2 2 3 3 4 4
REMARK H PARENT
REMARK Flexibility Score: inf
ROOT
ATOM      1  C   UNL     1      78.105  29.229  36.950  1.00  0.00     0.063 C 
ATOM      2  C   UNL     1      79.595  29.234  36.998  1.00  0.00     0.038 C 
ATOM      3  O   UNL     1      80.203  28.467  37.791  1.00  0.00    -0.550 OA
ATOM      4  O   UNL     1      80.314  30.123  36.209  1.00  0.00    -0.550 OA
ENDROOT
TORSDOF 0
ENDMDL
