MODEL 1
REMARK VINA RESULT:    -3.930      0.000      0.000
REMARK INTER + INTRA:          -4.999
REMARK INTER:                  -4.849
REMARK INTRA:                  -0.150
REMARK UNBOUND:                -0.150
REMARK SMILES CCCCCC(=O)[O-]
REMARK SMILES IDX 4 1 5 2 6 3 7 4 8 5 3 6 2 7 1 8
REMARK H PARENT
REMARK Flexibility Score: inf
ROOT
ATOM      1  C   UNL     1       6.413   7.159  12.110  1.00  0.00     0.006 C 
ENDROOT
BRANCH   1   2
ATOM      2  C   UNL     1       7.429   7.185  13.260  1.00  0.00     0.053 C 
BRANCH   2   3
ATOM      3  C   UNL     1       7.286   5.992  14.155  1.00  0.00     0.041 C 
ATOM      4  O   UNL     1       8.304   5.347  14.518  1.00  0.00    -0.550 OA
ATOM      5  O   UNL     1       6.026   5.577  14.568  1.00  0.00    -0.550 OA
ENDBRANCH   2   3
ENDBRANCH   1   2
BRANCH   1   6
ATOM      6  C   UNL     1       7.094   7.060  10.734  1.00  0.00     0.000 C 
BRANCH   6   7
ATOM      7  C   UNL     1       8.623   6.947  10.839  1.00  0.00    -0.003 C 
ATOM      8  C   UNL     1       9.167   5.665  10.209  1.00  0.00     0.004 C 
ENDBRANCH   6   7
ENDBRANCH   1   6
TORSDOF 4
ENDMDL
MODEL 2
REMARK VINA RESULT:    -3.925      3.375      4.053
REMARK INTER + INTRA:          -4.993
REMARK INTER:                  -4.894
REMARK INTRA:                  -0.100
REMARK UNBOUND:                -0.150
REMARK SMILES CCCCCC(=O)[O-]
REMARK SMILES IDX 4 1 5 2 6 3 7 4 8 5 3 6 2 7 1 8
REMARK H PARENT
REMARK Flexibility Score: inf
ROOT
ATOM      1  C   UNL     1       6.719   8.059  10.875  1.00  0.00     0.006 C 
ENDROOT
BRANCH   1   2
ATOM      2  C   UNL     1       5.936   7.100   9.968  1.00  0.00     0.053 C 
BRANCH   2   3
ATOM      3  C   UNL     1       4.546   7.593   9.705  1.00  0.00     0.041 C 
ATOM      4  O   UNL     1       4.352   8.544   8.904  1.00  0.00    -0.550 OA
ATOM      5  O   UNL     1       3.466   7.019  10.365  1.00  0.00    -0.550 OA
ENDBRANCH   2   3
ENDBRANCH   1   2
BRANCH   1   6
ATOM      6  C   UNL     1       8.238   7.833  10.787  1.00  0.00     0.000 C 
BRANCH   6   7
ATOM      7  C   UNL     1       8.646   6.405  11.178  1.00  0.00    -0.003 C 
ATOM      8  C   UNL     1       9.395   5.676  10.062  1.00  0.00     0.004 C 
ENDBRANCH   6   7
ENDBRANCH   1   6
TORSDOF 4
ENDMDL
MODEL 3
REMARK VINA RESULT:    -3.758      1.218      1.509
REMARK INTER + INTRA:          -4.787
REMARK INTER:                  -4.642
REMARK INTRA:                  -0.145
REMARK UNBOUND:                -0.150
REMARK SMILES CCCCCC(=O)[O-]
REMARK SMILES IDX 4 1 5 2 6 3 7 4 8 5 3 6 2 7 1 8
REMARK H PARENT
REMARK Flexibility Score: inf
ROOT
ATOM      1  C   UNL     1       7.548   7.871  12.356  1.00  0.00     0.006 C 
ENDROOT
BRANCH   1   2
ATOM      2  C   UNL     1       7.487   6.715  13.364  1.00  0.00     0.053 C 
BRANCH   2   3
ATOM      3  C   UNL     1       6.076   6.306  13.658  1.00  0.00     0.041 C 
ATOM      4  O   UNL     1       5.821   5.581  14.655  1.00  0.00    -0.550 OA
ATOM      5  O   UNL     1       5.045   6.703  12.814  1.00  0.00    -0.550 OA
ENDBRANCH   2   3
ENDBRANCH   1   2
BRANCH   1   6
ATOM      6  C   UNL     1       8.250   7.465  11.048  1.00  0.00     0.000 C 
BRANCH   6   7
ATOM      7  C   UNL     1       9.024   6.145  11.179  1.00  0.00    -0.003 C 
ATOM      8  C   UNL     1       9.491   5.595   9.831  1.00  0.00     0.004 C 
ENDBRANCH   6   7
ENDBRANCH   1   6
TORSDOF 4
ENDMDL
MODEL 4
REMARK VINA RESULT:    -3.741      3.228      4.306
REMARK INTER + INTRA:          -4.765
REMARK INTER:                  -4.631
REMARK INTRA:                  -0.134
REMARK UNBOUND:                -0.150
REMARK SMILES CCCCCC(=O)[O-]
REMARK SMILES IDX 4 1 5 2 6 3 7 4 8 5 3 6 2 7 1 8
REMARK H PARENT
REMARK Flexibility Score: inf
ROOT
ATOM      1  C   UNL     1       4.918   7.401  12.592  1.00  0.00     0.006 C 
ENDROOT
BRANCH   1   2
ATOM      2  C   UNL     1       4.452   6.702  11.307  1.00  0.00     0.053 C 
BRANCH   2   3
ATOM      3  C   UNL     1       5.215   7.176  10.108  1.00  0.00     0.041 C 
ATOM      4  O   UNL     1       4.636   7.842   9.210  1.00  0.00    -0.550 OA
ATOM      5  O   UNL     1       6.561   6.859   9.968  1.00  0.00    -0.550 OA
ENDBRANCH   2   3
ENDBRANCH   1   2
BRANCH   1   6
ATOM      6  C   UNL     1       5.663   6.442  13.537  1.00  0.00     0.000 C 
BRANCH   6   7
ATOM      7  C   UNL     1       7.165   6.754  13.629  1.00  0.00    -0.003 C 
ATOM      8  C   UNL     1       7.932   5.733  14.469  1.00  0.00     0.004 C 
ENDBRANCH   6   7
ENDBRANCH   1   6
TORSDOF 4
ENDMDL
MODEL 5
REMARK VINA RESULT:    -3.710      2.961      4.207
REMARK INTER + INTRA:          -4.727
REMARK INTER:                  -4.580
REMARK INTRA:                  -0.147
REMARK UNBOUND:                -0.150
REMARK SMILES CCCCCC(=O)[O-]
REMARK SMILES IDX 4 1 5 2 6 3 7 4 8 5 3 6 2 7 1 8
REMARK H PARENT
REMARK Flexibility Score: inf
ROOT
ATOM      1  C   UNL     1       7.796   7.499  12.155  1.00  0.00     0.006 C 
ENDROOT
BRANCH   1   2
ATOM      2  C   UNL     1       7.661   7.040  10.697  1.00  0.00     0.053 C 
BRANCH   2   3
ATOM      3  C   UNL     1       6.559   7.763   9.986  1.00  0.00     0.041 C 
ATOM      4  O   UNL     1       5.531   7.140   9.611  1.00  0.00    -0.550 OA
ATOM      5  O   UNL     1       6.678   9.120   9.712  1.00  0.00    -0.550 OA
ENDBRANCH   2   3
ENDBRANCH   1   2
BRANCH   1   6
ATOM      6  C   UNL     1       6.588   7.079  13.011  1.00  0.00     0.000 C 
BRANCH   6   7
ATOM      7  C   UNL     1       6.990   6.659  14.433  1.00  0.00    -0.003 C 
ATOM      8  C   UNL     1       8.047   5.554  14.448  1.00  0.00     0.004 C 
ENDBRANCH   6   7
ENDBRANCH   1   6
TORSDOF 4
ENDMDL
MODEL 6
REMARK VINA RESULT:    -3.684      3.034      3.591
REMARK INTER + INTRA:          -4.696
REMARK INTER:                  -4.508
REMARK INTRA:                  -0.188
REMARK UNBOUND:                -0.150
REMARK SMILES CCCCCC(=O)[O-]
REMARK SMILES IDX 4 1 5 2 6 3 7 4 8 5 3 6 2 7 1 8
REMARK H PARENT
REMARK Flexibility Score: inf
ROOT
ATOM      1  C   UNL     1       6.129   7.629  12.327  1.00  0.00     0.006 C 
ENDROOT
BRANCH   1   2
ATOM      2  C   UNL     1       4.963   6.779  11.804  1.00  0.00     0.053 C 
BRANCH   2   3
ATOM      3  C   UNL     1       4.558   7.181  10.419  1.00  0.00     0.041 C 
ATOM      4  O   UNL     1       5.415   7.237   9.499  1.00  0.00    -0.550 OA
ATOM      5  O   UNL     1       3.238   7.522  10.151  1.00  0.00    -0.550 OA
ENDBRANCH   2   3
ENDBRANCH   1   2
BRANCH   1   6
ATOM      6  C   UNL     1       7.445   6.835  12.391  1.00  0.00     0.000 C 
BRANCH   6   7
ATOM      7  C   UNL     1       8.426   7.228  11.276  1.00  0.00    -0.003 C 
ATOM      8  C   UNL     1       8.940   6.024  10.488  1.00  0.00     0.004 C 
ENDBRANCH   6   7
ENDBRANCH   1   6
TORSDOF 4
ENDMDL
MODEL 7
REMARK VINA RESULT:    -3.626      3.125      4.407
REMARK INTER + INTRA:          -4.624
REMARK INTER:                  -4.375
REMARK INTRA:                  -0.249
REMARK UNBOUND:                -0.150
REMARK SMILES CCCCCC(=O)[O-]
REMARK SMILES IDX 4 1 5 2 6 3 7 4 8 5 3 6 2 7 1 8
REMARK H PARENT
REMARK Flexibility Score: inf
ROOT
ATOM      1  C   UNL     1       7.899   6.889  11.750  1.00  0.00     0.006 C 
ENDROOT
BRANCH   1   2
ATOM      2  C   UNL     1       7.851   8.182  10.926  1.00  0.00     0.053 C 
BRANCH   2   3
ATOM      3  C   UNL     1       6.662   8.218  10.015  1.00  0.00     0.041 C 
ATOM      4  O   UNL     1       5.955   7.189   9.855  1.00  0.00    -0.550 OA
ATOM      5  O   UNL     1       6.351   9.381   9.321  1.00  0.00    -0.550 OA
ENDBRANCH   2   3
ENDBRANCH   1   2
BRANCH   1   6
ATOM      6  C   UNL     1       7.450   7.110  13.206  1.00  0.00     0.000 C 
BRANCH   6   7
ATOM      7  C   UNL     1       6.106   6.435  13.517  1.00  0.00    -0.003 C 
ATOM      8  C   UNL     1       4.919   7.389  13.384  1.00  0.00     0.004 C 
ENDBRANCH   6   7
ENDBRANCH   1   6
TORSDOF 4
ENDMDL
MODEL 8
REMARK VINA RESULT:    -3.579      1.194      2.015
REMARK INTER + INTRA:          -4.566
REMARK INTER:                  -4.354
REMARK INTRA:                  -0.212
REMARK UNBOUND:                -0.150
REMARK SMILES CCCCCC(=O)[O-]
REMARK SMILES IDX 4 1 5 2 6 3 7 4 8 5 3 6 2 7 1 8
REMARK H PARENT
REMARK Flexibility Score: inf
ROOT
ATOM      1  C   UNL     1       8.394   6.565  11.662  1.00  0.00     0.006 C 
ENDROOT
BRANCH   1   2
ATOM      2  C   UNL     1       7.700   7.466  12.693  1.00  0.00     0.053 C 
BRANCH   2   3
ATOM      3  C   UNL     1       6.970   6.666  13.728  1.00  0.00     0.041 C 
ATOM      4  O   UNL     1       7.541   6.353  14.805  1.00  0.00    -0.550 OA
ATOM      5  O   UNL     1       5.667   6.243  13.493  1.00  0.00    -0.550 OA
ENDBRANCH   2   3
ENDBRANCH   1   2
BRANCH   1   6
ATOM      6  C   UNL     1       7.714   6.627  10.284  1.00  0.00     0.000 C 
BRANCH   6   7
ATOM      7  C   UNL     1       6.706   7.781  10.174  1.00  0.00    -0.003 C 
ATOM      8  C   UNL     1       5.306   7.310   9.783  1.00  0.00     0.004 C 
ENDBRANCH   6   7
ENDBRANCH   1   6
TORSDOF 4
ENDMDL
MODEL 9
REMARK VINA RESULT:    -3.449      2.688      3.924
REMARK INTER + INTRA:          -4.406
REMARK INTER:                  -4.328
REMARK INTRA:                  -0.077
REMARK UNBOUND:                -0.150
REMARK SMILES CCCCCC(=O)[O-]
REMARK SMILES IDX 4 1 5 2 6 3 7 4 8 5 3 6 2 7 1 8
REMARK H PARENT
REMARK Flexibility Score: inf
ROOT
ATOM      1  C   UNL     1       6.043   7.115  10.016  1.00  0.00     0.006 C 
ENDROOT
BRANCH   1   2
ATOM      2  C   UNL     1       7.216   7.782  10.747  1.00  0.00     0.053 C 
BRANCH   2   3
ATOM      3  C   UNL     1       8.091   6.777  11.431  1.00  0.00     0.041 C 
ATOM      4  O   UNL     1       9.027   6.218  10.801  1.00  0.00    -0.550 OA
ATOM      5  O   UNL     1       7.856   6.436  12.757  1.00  0.00    -0.550 OA
ENDBRANCH   2   3
ENDBRANCH   1   2
BRANCH   1   6
ATOM      6  C   UNL     1       4.804   6.970  10.917  1.00  0.00     0.000 C 
BRANCH   6   7
ATOM      7  C   UNL     1       3.510   7.406  10.213  1.00  0.00    -0.003 C 
ATOM      8  C   UNL     1       2.275   6.672  10.735  1.00  0.00     0.004 C 
ENDBRANCH   6   7
ENDBRANCH   1   6
TORSDOF 4
ENDMDL
