MODEL 1
REMARK VINA RESULT:    -4.400      0.000      0.000
REMARK INTER + INTRA:          -5.096
REMARK INTER:                  -5.043
REMARK INTRA:                  -0.052
REMARK UNBOUND:                -0.052
REMARK SMILES O=C([O-])c1cc(O)c(O)c(O)c1
REMARK SMILES IDX 4 1 5 2 12 3 6 4 10 5 8 6 2 7 1 8 3 9 7 10 11 12 9 14
REMARK H PARENT 7 11 11 13 9 15
REMARK Flexibility Score: inf
ROOT
ATOM      1  C   UNL     1      -6.563  10.481  17.336  1.00  0.00     0.005 A 
ATOM      2  C   UNL     1      -5.459   9.986  18.049  1.00  0.00     0.060 A 
ATOM      3  C   UNL     1      -7.743   9.719  17.290  1.00  0.00     0.060 A 
ATOM      4  C   UNL     1      -5.529   8.754  18.709  1.00  0.00     0.162 A 
ATOM      5  C   UNL     1      -7.821   8.484  17.948  1.00  0.00     0.162 A 
ATOM      6  C   UNL     1      -6.712   7.997  18.660  1.00  0.00     0.200 A 
ENDROOT
BRANCH   1   7
ATOM      7  C   UNL     1      -6.480  11.786  16.642  1.00  0.00     0.072 C 
ATOM      8  O   UNL     1      -5.365  12.346  16.463  1.00  0.00    -0.545 OA
ATOM      9  O   UNL     1      -7.630  12.412  16.179  1.00  0.00    -0.545 OA
ENDBRANCH   1   7
BRANCH   4  10
ATOM     10  O   UNL     1      -4.411   8.298  19.406  1.00  0.00    -0.504 OA
ATOM     11  H   UNL     1      -3.472   8.387  19.037  1.00  0.00     0.293 HD
ENDBRANCH   4  10
BRANCH   5  12
ATOM     12  O   UNL     1      -8.998   7.738  17.896  1.00  0.00    -0.504 OA
ATOM     13  H   UNL     1      -9.048   6.857  17.397  1.00  0.00     0.293 HD
ENDBRANCH   5  12
BRANCH   6  14
ATOM     14  O   UNL     1      -6.772   6.770  19.320  1.00  0.00    -0.502 OA
ATOM     15  H   UNL     1      -7.344   6.004  18.985  1.00  0.00     0.293 HD
ENDBRANCH   6  14
TORSDOF 4
ENDMDL
MODEL 2
REMARK VINA RESULT:    -4.375      0.095      2.430
REMARK INTER + INTRA:          -5.066
REMARK INTER:                  -5.014
REMARK INTRA:                  -0.052
REMARK UNBOUND:                -0.052
REMARK SMILES O=C([O-])c1cc(O)c(O)c(O)c1
REMARK SMILES IDX 4 1 5 2 12 3 6 4 10 5 8 6 2 7 1 8 3 9 7 10 11 12 9 14
REMARK H PARENT 7 11 11 13 9 15
REMARK Flexibility Score: inf
ROOT
ATOM      1  C   UNL     1      -6.582  10.501  17.354  1.00  0.00     0.005 A 
ATOM      2  C   UNL     1      -7.740   9.709  17.309  1.00  0.00     0.060 A 
ATOM      3  C   UNL     1      -5.479  10.055  18.101  1.00  0.00     0.060 A 
ATOM      4  C   UNL     1      -7.800   8.491  17.995  1.00  0.00     0.162 A 
ATOM      5  C   UNL     1      -5.531   8.836  18.792  1.00  0.00     0.162 A 
ATOM      6  C   UNL     1      -6.693   8.050  18.741  1.00  0.00     0.200 A 
ENDROOT
BRANCH   1   7
ATOM      7  C   UNL     1      -6.529  11.788  16.624  1.00  0.00     0.072 C 
ATOM      8  O   UNL     1      -5.437  12.401  16.485  1.00  0.00    -0.545 OA
ATOM      9  O   UNL     1      -7.684  12.338  16.081  1.00  0.00    -0.545 OA
ENDBRANCH   1   7
BRANCH   4  10
ATOM     10  O   UNL     1      -8.969   7.733  17.925  1.00  0.00    -0.504 OA
ATOM     11  H   UNL     1      -9.366   7.435  17.042  1.00  0.00     0.293 HD
ENDBRANCH   4  10
BRANCH   5  12
ATOM     12  O   UNL     1      -4.429   8.405  19.530  1.00  0.00    -0.504 OA
ATOM     13  H   UNL     1      -4.360   7.455  19.877  1.00  0.00     0.293 HD
ENDBRANCH   5  12
BRANCH   6  14
ATOM     14  O   UNL     1      -6.763   6.834  19.422  1.00  0.00    -0.502 OA
ATOM     15  H   UNL     1      -6.352   5.984  19.052  1.00  0.00     0.293 HD
ENDBRANCH   6  14
TORSDOF 4
ENDMDL
MODEL 3
REMARK VINA RESULT:    -4.100     14.059     14.684
REMARK INTER + INTRA:          -4.752
REMARK INTER:                  -4.700
REMARK INTRA:                  -0.051
REMARK UNBOUND:                -0.052
REMARK SMILES O=C([O-])c1cc(O)c(O)c(O)c1
REMARK SMILES IDX 4 1 5 2 12 3 6 4 10 5 8 6 2 7 1 8 3 9 7 10 11 12 9 14
REMARK H PARENT 7 11 11 13 9 15
REMARK Flexibility Score: inf
ROOT
ATOM      1  C   UNL     1     -17.626  15.267  11.074  1.00  0.00     0.005 A 
ATOM      2  C   UNL     1     -16.779  16.356  10.809  1.00  0.00     0.060 A 
ATOM      3  C   UNL     1     -18.487  15.326  12.182  1.00  0.00     0.060 A 
ATOM      4  C   UNL     1     -16.790  17.486  11.633  1.00  0.00     0.162 A 
ATOM      5  C   UNL     1     -18.504  16.456  13.013  1.00  0.00     0.162 A 
ATOM      6  C   UNL     1     -17.654  17.540  12.740  1.00  0.00     0.200 A 
ENDROOT
BRANCH   1   7
ATOM      7  C   UNL     1     -17.607  14.076  10.195  1.00  0.00     0.072 C 
ATOM      8  O   UNL     1     -18.611  13.318  10.122  1.00  0.00    -0.545 OA
ATOM      9  O   UNL     1     -16.480  13.776   9.439  1.00  0.00    -0.545 OA
ENDBRANCH   1   7
BRANCH   4  10
ATOM     10  O   UNL     1     -15.934  18.547  11.336  1.00  0.00    -0.504 OA
ATOM     11  H   UNL     1     -16.232  19.513  11.395  1.00  0.00     0.293 HD
ENDBRANCH   4  10
BRANCH   5  12
ATOM     12  O   UNL     1     -19.365  16.502  14.109  1.00  0.00    -0.504 OA
ATOM     13  H   UNL     1     -19.671  15.659  14.582  1.00  0.00     0.293 HD
ENDBRANCH   5  12
BRANCH   6  14
ATOM     14  O   UNL     1     -17.658  18.672  13.556  1.00  0.00    -0.502 OA
ATOM     15  H   UNL     1     -16.829  18.984  14.049  1.00  0.00     0.293 HD
ENDBRANCH   6  14
TORSDOF 4
ENDMDL
MODEL 4
REMARK VINA RESULT:    -4.088     14.098     14.787
REMARK INTER + INTRA:          -4.738
REMARK INTER:                  -4.686
REMARK INTRA:                  -0.051
REMARK UNBOUND:                -0.052
REMARK SMILES O=C([O-])c1cc(O)c(O)c(O)c1
REMARK SMILES IDX 4 1 5 2 12 3 6 4 10 5 8 6 2 7 1 8 3 9 7 10 11 12 9 14
REMARK H PARENT 7 11 11 13 9 15
REMARK Flexibility Score: inf
ROOT
ATOM      1  C   UNL     1     -17.625  15.281  11.063  1.00  0.00     0.005 A 
ATOM      2  C   UNL     1     -18.467  15.343  12.185  1.00  0.00     0.060 A 
ATOM      3  C   UNL     1     -16.777  16.367  10.785  1.00  0.00     0.060 A 
ATOM      4  C   UNL     1     -18.464  16.466  13.020  1.00  0.00     0.162 A 
ATOM      5  C   UNL     1     -16.769  17.496  11.616  1.00  0.00     0.162 A 
ATOM      6  C   UNL     1     -17.613  17.549  12.737  1.00  0.00     0.200 A 
ENDROOT
BRANCH   1   7
ATOM      7  C   UNL     1     -17.635  14.088  10.187  1.00  0.00     0.072 C 
ATOM      8  O   UNL     1     -18.642  13.331  10.146  1.00  0.00    -0.545 OA
ATOM      9  O   UNL     1     -16.533  13.785   9.397  1.00  0.00    -0.545 OA
ENDBRANCH   1   7
BRANCH   4  10
ATOM     10  O   UNL     1     -19.315  16.488  14.125  1.00  0.00    -0.504 OA
ATOM     11  H   UNL     1     -19.087  16.997  14.970  1.00  0.00     0.293 HD
ENDBRANCH   4  10
BRANCH   5  12
ATOM     12  O   UNL     1     -15.922  18.566  11.330  1.00  0.00    -0.504 OA
ATOM     13  H   UNL     1     -16.097  19.496  11.696  1.00  0.00     0.293 HD
ENDBRANCH   5  12
BRANCH   6  14
ATOM     14  O   UNL     1     -17.618  18.664  13.575  1.00  0.00    -0.502 OA
ATOM     15  H   UNL     1     -18.230  19.457  13.415  1.00  0.00     0.293 HD
ENDBRANCH   6  14
TORSDOF 4
ENDMDL
MODEL 5
REMARK VINA RESULT:    -4.070     12.063     13.025
REMARK INTER + INTRA:          -4.717
REMARK INTER:                  -4.665
REMARK INTRA:                  -0.052
REMARK UNBOUND:                -0.052
REMARK SMILES O=C([O-])c1cc(O)c(O)c(O)c1
REMARK SMILES IDX 4 1 5 2 12 3 6 4 10 5 8 6 2 7 1 8 3 9 7 10 11 12 9 14
REMARK H PARENT 7 11 11 13 9 15
REMARK Flexibility Score: inf
ROOT
ATOM      1  C   UNL     1     -13.491  10.981   6.752  1.00  0.00     0.005 A 
ATOM      2  C   UNL     1     -13.677   9.880   7.603  1.00  0.00     0.060 A 
ATOM      3  C   UNL     1     -12.420  10.968   5.842  1.00  0.00     0.060 A 
ATOM      4  C   UNL     1     -12.812   8.782   7.549  1.00  0.00     0.162 A 
ATOM      5  C   UNL     1     -11.549   9.871   5.783  1.00  0.00     0.162 A 
ATOM      6  C   UNL     1     -11.743   8.774   6.638  1.00  0.00     0.200 A 
ENDROOT
BRANCH   1   7
ATOM      7  C   UNL     1     -14.412  12.138   6.816  1.00  0.00     0.072 C 
ATOM      8  O   UNL     1     -14.463  12.970   5.870  1.00  0.00    -0.545 OA
ATOM      9  O   UNL     1     -15.234  12.324   7.921  1.00  0.00    -0.545 OA
ENDBRANCH   1   7
BRANCH   4  10
ATOM     10  O   UNL     1     -13.031   7.708   8.412  1.00  0.00    -0.504 OA
ATOM     11  H   UNL     1     -13.508   7.817   9.299  1.00  0.00     0.293 HD
ENDBRANCH   4  10
BRANCH   5  12
ATOM     12  O   UNL     1     -10.490   9.870   4.875  1.00  0.00    -0.504 OA
ATOM     13  H   UNL     1      -9.525   9.877   5.184  1.00  0.00     0.293 HD
ENDBRANCH   5  12
BRANCH   6  14
ATOM     14  O   UNL     1     -10.886   7.674   6.592  1.00  0.00    -0.502 OA
ATOM     15  H   UNL     1     -10.702   7.168   5.733  1.00  0.00     0.293 HD
ENDBRANCH   6  14
TORSDOF 4
ENDMDL
MODEL 6
REMARK VINA RESULT:    -4.041     12.039     12.993
REMARK INTER + INTRA:          -4.684
REMARK INTER:                  -4.632
REMARK INTRA:                  -0.052
REMARK UNBOUND:                -0.052
REMARK SMILES O=C([O-])c1cc(O)c(O)c(O)c1
REMARK SMILES IDX 4 1 5 2 12 3 6 4 10 5 8 6 2 7 1 8 3 9 7 10 11 12 9 14
REMARK H PARENT 7 11 11 13 9 15
REMARK Flexibility Score: inf
ROOT
ATOM      1  C   UNL     1     -13.551  11.105   6.734  1.00  0.00     0.005 A 
ATOM      2  C   UNL     1     -12.475  11.112   5.832  1.00  0.00     0.060 A 
ATOM      3  C   UNL     1     -13.715  10.006   7.593  1.00  0.00     0.060 A 
ATOM      4  C   UNL     1     -11.575  10.042   5.786  1.00  0.00     0.162 A 
ATOM      5  C   UNL     1     -12.817   8.930   7.554  1.00  0.00     0.162 A 
ATOM      6  C   UNL     1     -11.743   8.945   6.648  1.00  0.00     0.200 A 
ENDROOT
BRANCH   1   7
ATOM      7  C   UNL     1     -14.498  12.242   6.775  1.00  0.00     0.072 C 
ATOM      8  O   UNL     1     -14.568  13.053   5.812  1.00  0.00    -0.545 OA
ATOM      9  O   UNL     1     -15.324  12.433   7.876  1.00  0.00    -0.545 OA
ENDBRANCH   1   7
BRANCH   4  10
ATOM     10  O   UNL     1     -10.519  10.087   4.875  1.00  0.00    -0.504 OA
ATOM     11  H   UNL     1      -9.785   9.388   4.866  1.00  0.00     0.293 HD
ENDBRANCH   4  10
BRANCH   5  12
ATOM     12  O   UNL     1     -12.989   7.845   8.413  1.00  0.00    -0.504 OA
ATOM     13  H   UNL     1     -12.295   7.603   9.111  1.00  0.00     0.293 HD
ENDBRANCH   5  12
BRANCH   6  14
ATOM     14  O   UNL     1     -10.840   7.883   6.595  1.00  0.00    -0.502 OA
ATOM     15  H   UNL     1     -10.958   7.046   7.154  1.00  0.00     0.293 HD
ENDBRANCH   6  14
TORSDOF 4
ENDMDL
MODEL 7
REMARK VINA RESULT:    -4.018      5.755      8.732
REMARK INTER + INTRA:          -4.657
REMARK INTER:                  -4.605
REMARK INTRA:                  -0.053
REMARK UNBOUND:                -0.052
REMARK SMILES O=C([O-])c1cc(O)c(O)c(O)c1
REMARK SMILES IDX 4 1 5 2 12 3 6 4 10 5 8 6 2 7 1 8 3 9 7 10 11 12 9 14
REMARK H PARENT 7 11 11 13 9 15
REMARK Flexibility Score: inf
ROOT
ATOM      1  C   UNL     1      -6.507  16.103  17.676  1.00  0.00     0.005 A 
ATOM      2  C   UNL     1      -6.026  16.721  16.511  1.00  0.00     0.060 A 
ATOM      3  C   UNL     1      -7.044  16.902  18.700  1.00  0.00     0.060 A 
ATOM      4  C   UNL     1      -6.080  18.111  16.365  1.00  0.00     0.162 A 
ATOM      5  C   UNL     1      -7.102  18.296  18.562  1.00  0.00     0.162 A 
ATOM      6  C   UNL     1      -6.619  18.905  17.392  1.00  0.00     0.200 A 
ENDROOT
BRANCH   1   7
ATOM      7  C   UNL     1      -6.446  14.631  17.821  1.00  0.00     0.072 C 
ATOM      8  O   UNL     1      -5.787  13.934  17.003  1.00  0.00    -0.545 OA
ATOM      9  O   UNL     1      -7.116  13.997  18.860  1.00  0.00    -0.545 OA
ENDBRANCH   1   7
BRANCH   4  10
ATOM     10  O   UNL     1      -5.591  18.687  15.191  1.00  0.00    -0.504 OA
ATOM     11  H   UNL     1      -5.346  18.131  14.381  1.00  0.00     0.293 HD
ENDBRANCH   4  10
BRANCH   5  12
ATOM     12  O   UNL     1      -7.638  19.077  19.585  1.00  0.00    -0.504 OA
ATOM     13  H   UNL     1      -8.638  19.138  19.739  1.00  0.00     0.293 HD
ENDBRANCH   5  12
BRANCH   6  14
ATOM     14  O   UNL     1      -6.668  20.291  17.237  1.00  0.00    -0.502 OA
ATOM     15  H   UNL     1      -7.401  20.855  17.652  1.00  0.00     0.293 HD
ENDBRANCH   6  14
TORSDOF 4
ENDMDL
MODEL 8
REMARK VINA RESULT:    -3.983      5.655      8.655
REMARK INTER + INTRA:          -4.617
REMARK INTER:                  -4.565
REMARK INTRA:                  -0.052
REMARK UNBOUND:                -0.052
REMARK SMILES O=C([O-])c1cc(O)c(O)c(O)c1
REMARK SMILES IDX 4 1 5 2 12 3 6 4 10 5 8 6 2 7 1 8 3 9 7 10 11 12 9 14
REMARK H PARENT 7 11 11 13 9 15
REMARK Flexibility Score: inf
ROOT
ATOM      1  C   UNL     1      -6.817  16.021  17.380  1.00  0.00     0.005 A 
ATOM      2  C   UNL     1      -6.995  16.763  18.559  1.00  0.00     0.060 A 
ATOM      3  C   UNL     1      -6.378  16.679  16.219  1.00  0.00     0.060 A 
ATOM      4  C   UNL     1      -6.739  18.138  18.583  1.00  0.00     0.162 A 
ATOM      5  C   UNL     1      -6.119  18.057  16.235  1.00  0.00     0.162 A 
ATOM      6  C   UNL     1      -6.299  18.791  17.419  1.00  0.00     0.200 A 
ENDROOT
BRANCH   1   7
ATOM      7  C   UNL     1      -7.091  14.566  17.365  1.00  0.00     0.072 C 
ATOM      8  O   UNL     1      -7.274  13.959  16.276  1.00  0.00    -0.545 OA
ATOM      9  O   UNL     1      -7.151  13.848  18.554  1.00  0.00    -0.545 OA
ENDBRANCH   1   7
BRANCH   4  10
ATOM     10  O   UNL     1      -6.928  18.839  19.774  1.00  0.00    -0.504 OA
ATOM     11  H   UNL     1      -6.309  19.587  20.063  1.00  0.00     0.293 HD
ENDBRANCH   4  10
BRANCH   5  12
ATOM     12  O   UNL     1      -5.683  18.698  15.076  1.00  0.00    -0.504 OA
ATOM     13  H   UNL     1      -4.730  19.028  14.977  1.00  0.00     0.293 HD
ENDBRANCH   5  12
BRANCH   6  14
ATOM     14  O   UNL     1      -6.046  20.163  17.453  1.00  0.00    -0.502 OA
ATOM     15  H   UNL     1      -5.951  20.715  16.608  1.00  0.00     0.293 HD
ENDBRANCH   6  14
TORSDOF 4
ENDMDL
MODEL 9
REMARK VINA RESULT:    -3.846      3.455      4.777
REMARK INTER + INTRA:          -4.461
REMARK INTER:                  -4.410
REMARK INTRA:                  -0.051
REMARK UNBOUND:                -0.052
REMARK SMILES O=C([O-])c1cc(O)c(O)c(O)c1
REMARK SMILES IDX 4 1 5 2 12 3 6 4 10 5 8 6 2 7 1 8 3 9 7 10 11 12 9 14
REMARK H PARENT 7 11 11 13 9 15
REMARK Flexibility Score: inf
ROOT
ATOM      1  C   UNL     1      -7.052  14.960  17.551  1.00  0.00     0.005 A 
ATOM      2  C   UNL     1      -6.975  14.210  18.736  1.00  0.00     0.060 A 
ATOM      3  C   UNL     1      -7.477  14.329  16.370  1.00  0.00     0.060 A 
ATOM      4  C   UNL     1      -7.318  12.853  18.745  1.00  0.00     0.162 A 
ATOM      5  C   UNL     1      -7.822  12.970  16.371  1.00  0.00     0.162 A 
ATOM      6  C   UNL     1      -7.743  12.228  17.561  1.00  0.00     0.200 A 
ENDROOT
BRANCH   1   7
ATOM      7  C   UNL     1      -6.687  16.395  17.552  1.00  0.00     0.072 C 
ATOM      8  O   UNL     1      -6.750  17.072  18.613  1.00  0.00    -0.545 OA
ATOM      9  O   UNL     1      -6.270  17.016  16.380  1.00  0.00    -0.545 OA
ENDBRANCH   1   7
BRANCH   4  10
ATOM     10  O   UNL     1      -7.229  12.143  19.943  1.00  0.00    -0.504 OA
ATOM     11  H   UNL     1      -6.497  12.319  20.620  1.00  0.00     0.293 HD
ENDBRANCH   4  10
BRANCH   5  12
ATOM     12  O   UNL     1      -8.244  12.356  15.192  1.00  0.00    -0.504 OA
ATOM     13  H   UNL     1      -8.587  12.895  14.405  1.00  0.00     0.293 HD
ENDBRANCH   5  12
BRANCH   6  14
ATOM     14  O   UNL     1      -8.083  10.875  17.581  1.00  0.00    -0.502 OA
ATOM     15  H   UNL     1      -7.433  10.151  17.295  1.00  0.00     0.293 HD
ENDBRANCH   6  14
TORSDOF 4
ENDMDL
