MODEL 1
REMARK VINA RESULT:    -5.799      0.000      0.000
REMARK INTER + INTRA:          -7.393
REMARK INTER:                  -7.155
REMARK INTRA:                  -0.238
REMARK UNBOUND:                -0.238
REMARK SMILES O=c1c(O)c(-c2cc(O)c(O)c(O)c2)oc2cc(O)cc(O)c12
REMARK SMILES IDX 5 1 3 2 2 3 1 4 23 5 21 6 20 7 18 8 17 9 16 10 15 11 6 12
REMARK SMILES IDX 7 13 8 14 14 15 10 16 12 17 9 18 11 20 13 22 4 24 22 26
REMARK SMILES IDX 19 28
REMARK H PARENT 9 19 11 21 13 23 4 25 22 27 19 29
REMARK Flexibility Score: inf
ROOT
ATOM      1  C   UNL     1      30.998 -92.187  37.546  1.00  0.00     0.180 A 
ATOM      2  C   UNL     1      29.779 -92.783  37.181  1.00  0.00     0.208 A 
ATOM      3  C   UNL     1      29.634 -94.173  37.314  1.00  0.00     0.238 A 
ATOM      4  O   UNL     1      28.560 -94.708  36.934  1.00  0.00    -0.285 OA
ATOM      5  C   UNL     1      30.703 -94.947  37.826  1.00  0.00     0.111 A 
ATOM      6  C   UNL     1      30.652 -96.357  38.041  1.00  0.00     0.134 A 
ATOM      7  C   UNL     1      31.812 -97.039  38.428  1.00  0.00     0.093 A 
ATOM      8  C   UNL     1      33.005 -96.352  38.672  1.00  0.00     0.123 A 
ATOM      9  C   UNL     1      33.048 -94.967  38.522  1.00  0.00     0.094 A 
ATOM     10  C   UNL     1      31.917 -94.265  38.101  1.00  0.00     0.146 A 
ATOM     11  O   UNL     1      32.004 -92.947  37.961  1.00  0.00    -0.452 OA
ENDROOT
BRANCH   1  12
ATOM     12  C   UNL     1      31.218 -90.725  37.458  1.00  0.00     0.029 A 
ATOM     13  C   UNL     1      30.515 -89.867  38.319  1.00  0.00     0.062 A 
ATOM     14  C   UNL     1      30.687 -88.482  38.243  1.00  0.00     0.162 A 
ATOM     15  C   UNL     1      32.073 -90.171  36.490  1.00  0.00     0.062 A 
ATOM     16  C   UNL     1      31.560 -87.934  37.287  1.00  0.00     0.200 A 
ATOM     17  C   UNL     1      32.250 -88.783  36.407  1.00  0.00     0.162 A 
BRANCH  14  18
ATOM     18  O   UNL     1      29.981 -87.665  39.126  1.00  0.00    -0.504 OA
ATOM     19  H   UNL     1      29.400 -88.042  39.865  1.00  0.00     0.293 HD
ENDBRANCH  14  18
BRANCH  16  20
ATOM     20  O   UNL     1      31.729 -86.550  37.221  1.00  0.00    -0.502 OA
ATOM     21  H   UNL     1      32.296 -86.109  36.508  1.00  0.00     0.293 HD
ENDBRANCH  16  20
BRANCH  17  22
ATOM     22  O   UNL     1      33.107 -88.245  35.447  1.00  0.00    -0.504 OA
ATOM     23  H   UNL     1      32.906 -88.315  34.456  1.00  0.00     0.293 HD
ENDBRANCH  17  22
ENDBRANCH   1  12
BRANCH   2  24
ATOM     24  O   UNL     1      28.744 -92.003  36.657  1.00  0.00    -0.502 OA
ATOM     25  H   UNL     1      28.146 -92.325  35.906  1.00  0.00     0.293 HD
ENDBRANCH   2  24
BRANCH   6  26
ATOM     26  O   UNL     1      29.491 -97.124  37.915  1.00  0.00    -0.507 OA
ATOM     27  H   UNL     1      29.117 -97.464  37.042  1.00  0.00     0.293 HD
ENDBRANCH   6  26
BRANCH   8  28
ATOM     28  O   UNL     1      34.150 -97.036  39.072  1.00  0.00    -0.508 OA
ATOM     29  H   UNL     1      35.077 -96.670  38.890  1.00  0.00     0.293 HD
ENDBRANCH   8  28
TORSDOF 7
ENDMDL
MODEL 2
REMARK VINA RESULT:    -5.320      9.298     10.870
REMARK INTER + INTRA:          -6.802
REMARK INTER:                  -6.669
REMARK INTRA:                  -0.133
REMARK UNBOUND:                -0.238
REMARK SMILES O=c1c(O)c(-c2cc(O)c(O)c(O)c2)oc2cc(O)cc(O)c12
REMARK SMILES IDX 5 1 3 2 2 3 1 4 23 5 21 6 20 7 18 8 17 9 16 10 15 11 6 12
REMARK SMILES IDX 7 13 8 14 14 15 10 16 12 17 9 18 11 20 13 22 4 24 22 26
REMARK SMILES IDX 19 28
REMARK H PARENT 9 19 11 21 13 23 4 25 22 27 19 29
REMARK Flexibility Score: inf
ROOT
ATOM      1  C   UNL     1      36.357 -95.381  30.064  1.00  0.00     0.180 A 
ATOM      2  C   UNL     1      37.376 -95.657  29.136  1.00  0.00     0.208 A 
ATOM      3  C   UNL     1      38.712 -95.637  29.566  1.00  0.00     0.238 A 
ATOM      4  O   UNL     1      39.623 -95.832  28.719  1.00  0.00    -0.285 OA
ATOM      5  C   UNL     1      39.012 -95.358  30.920  1.00  0.00     0.111 A 
ATOM      6  C   UNL     1      40.328 -95.350  31.474  1.00  0.00     0.134 A 
ATOM      7  C   UNL     1      40.518 -94.932  32.796  1.00  0.00     0.093 A 
ATOM      8  C   UNL     1      39.434 -94.583  33.606  1.00  0.00     0.123 A 
ATOM      9  C   UNL     1      38.140 -94.645  33.092  1.00  0.00     0.094 A 
ATOM     10  C   UNL     1      37.922 -95.023  31.765  1.00  0.00     0.146 A 
ATOM     11  O   UNL     1      36.675 -95.058  31.312  1.00  0.00    -0.452 OA
ENDROOT
BRANCH   1  12
ATOM     12  C   UNL     1      34.924 -95.408  29.692  1.00  0.00     0.029 A 
ATOM     13  C   UNL     1      34.446 -94.517  28.718  1.00  0.00     0.062 A 
ATOM     14  C   UNL     1      33.094 -94.506  28.362  1.00  0.00     0.162 A 
ATOM     15  C   UNL     1      34.018 -96.267  30.335  1.00  0.00     0.062 A 
ATOM     16  C   UNL     1      32.195 -95.383  28.994  1.00  0.00     0.200 A 
ATOM     17  C   UNL     1      32.660 -96.262  29.986  1.00  0.00     0.162 A 
BRANCH  14  18
ATOM     18  O   UNL     1      32.662 -93.616  27.379  1.00  0.00    -0.504 OA
ATOM     19  H   UNL     1      32.117 -92.792  27.599  1.00  0.00     0.293 HD
ENDBRANCH  14  18
BRANCH  16  20
ATOM     20  O   UNL     1      30.847 -95.368  28.630  1.00  0.00    -0.502 OA
ATOM     21  H   UNL     1      30.470 -94.687  27.983  1.00  0.00     0.293 HD
ENDBRANCH  16  20
BRANCH  17  22
ATOM     22  O   UNL     1      31.771 -97.124  30.626  1.00  0.00    -0.504 OA
ATOM     23  H   UNL     1      31.229 -97.808  30.111  1.00  0.00     0.293 HD
ENDBRANCH  17  22
ENDBRANCH   1  12
BRANCH   2  24
ATOM     24  O   UNL     1      37.059 -95.910  27.799  1.00  0.00    -0.502 OA
ATOM     25  H   UNL     1      36.977 -96.848  27.426  1.00  0.00     0.293 HD
ENDBRANCH   2  24
BRANCH   6  26
ATOM     26  O   UNL     1      41.468 -95.767  30.782  1.00  0.00    -0.507 OA
ATOM     27  H   UNL     1      42.304 -95.214  30.663  1.00  0.00     0.293 HD
ENDBRANCH   6  26
BRANCH   8  28
ATOM     28  O   UNL     1      39.631 -94.184  34.926  1.00  0.00    -0.508 OA
ATOM     29  H   UNL     1      40.230 -93.402  35.158  1.00  0.00     0.293 HD
ENDBRANCH   8  28
TORSDOF 7
ENDMDL
MODEL 3
REMARK VINA RESULT:    -5.228      9.119     10.549
REMARK INTER + INTRA:          -6.688
REMARK INTER:                  -6.539
REMARK INTRA:                  -0.149
REMARK UNBOUND:                -0.238
REMARK SMILES O=c1c(O)c(-c2cc(O)c(O)c(O)c2)oc2cc(O)cc(O)c12
REMARK SMILES IDX 5 1 3 2 2 3 1 4 23 5 21 6 20 7 18 8 17 9 16 10 15 11 6 12
REMARK SMILES IDX 7 13 8 14 14 15 10 16 12 17 9 18 11 20 13 22 4 24 22 26
REMARK SMILES IDX 19 28
REMARK H PARENT 9 19 11 21 13 23 4 25 22 27 19 29
REMARK Flexibility Score: inf
ROOT
ATOM      1  C   UNL     1      35.568 -95.600  29.887  1.00  0.00     0.180 A 
ATOM      2  C   UNL     1      35.379 -95.232  28.544  1.00  0.00     0.208 A 
ATOM      3  C   UNL     1      34.083 -95.262  28.005  1.00  0.00     0.238 A 
ATOM      4  O   UNL     1      33.928 -94.984  26.787  1.00  0.00    -0.285 OA
ATOM      5  C   UNL     1      32.990 -95.645  28.820  1.00  0.00     0.111 A 
ATOM      6  C   UNL     1      31.630 -95.673  28.390  1.00  0.00     0.134 A 
ATOM      7  C   UNL     1      30.647 -96.192  29.241  1.00  0.00     0.093 A 
ATOM      8  C   UNL     1      30.965 -96.624  30.531  1.00  0.00     0.123 A 
ATOM      9  C   UNL     1      32.281 -96.545  30.982  1.00  0.00     0.094 A 
ATOM     10  C   UNL     1      33.290 -96.066  30.142  1.00  0.00     0.146 A 
ATOM     11  O   UNL     1      34.532 -96.017  30.607  1.00  0.00    -0.452 OA
ENDROOT
BRANCH   1  12
ATOM     12  C   UNL     1      36.900 -95.570  30.533  1.00  0.00     0.029 A 
ATOM     13  C   UNL     1      37.129 -94.690  31.602  1.00  0.00     0.062 A 
ATOM     14  C   UNL     1      38.383 -94.624  32.217  1.00  0.00     0.162 A 
ATOM     15  C   UNL     1      37.960 -96.362  30.060  1.00  0.00     0.062 A 
ATOM     16  C   UNL     1      39.435 -95.435  31.754  1.00  0.00     0.200 A 
ATOM     17  C   UNL     1      39.221 -96.302  30.670  1.00  0.00     0.162 A 
BRANCH  14  18
ATOM     18  O   UNL     1      38.567 -93.748  33.286  1.00  0.00    -0.504 OA
ATOM     19  H   UNL     1      37.989 -92.926  33.416  1.00  0.00     0.293 HD
ENDBRANCH  14  18
BRANCH  16  20
ATOM     20  O   UNL     1      40.683 -95.366  32.375  1.00  0.00    -0.502 OA
ATOM     21  H   UNL     1      41.327 -94.604  32.209  1.00  0.00     0.293 HD
ENDBRANCH  16  20
BRANCH  17  22
ATOM     22  O   UNL     1      40.264 -97.098  30.197  1.00  0.00    -0.504 OA
ATOM     23  H   UNL     1      40.411 -98.040  30.539  1.00  0.00     0.293 HD
ENDBRANCH  17  22
ENDBRANCH   1  12
BRANCH   2  24
ATOM     24  O   UNL     1      36.474 -94.879  27.751  1.00  0.00    -0.502 OA
ATOM     25  H   UNL     1      37.276 -95.485  27.629  1.00  0.00     0.293 HD
ENDBRANCH   2  24
BRANCH   6  26
ATOM     26  O   UNL     1      31.190 -95.181  27.157  1.00  0.00    -0.507 OA
ATOM     27  H   UNL     1      30.506 -95.632  26.569  1.00  0.00     0.293 HD
ENDBRANCH   6  26
BRANCH   8  28
ATOM     28  O   UNL     1      29.979 -97.125  31.377  1.00  0.00    -0.508 OA
ATOM     29  H   UNL     1      29.036 -97.296  31.049  1.00  0.00     0.293 HD
ENDBRANCH   8  28
TORSDOF 7
ENDMDL
MODEL 4
REMARK VINA RESULT:    -5.114     15.290     17.405
REMARK INTER + INTRA:          -6.547
REMARK INTER:                  -6.899
REMARK INTRA:                   0.352
REMARK UNBOUND:                -0.238
REMARK SMILES O=c1c(O)c(-c2cc(O)c(O)c(O)c2)oc2cc(O)cc(O)c12
REMARK SMILES IDX 5 1 3 2 2 3 1 4 23 5 21 6 20 7 18 8 17 9 16 10 15 11 6 12
REMARK SMILES IDX 7 13 8 14 14 15 10 16 12 17 9 18 11 20 13 22 4 24 22 26
REMARK SMILES IDX 19 28
REMARK H PARENT 9 19 11 21 13 23 4 25 22 27 19 29
REMARK Flexibility Score: inf
ROOT
ATOM      1  C   UNL     1      37.650 -77.304  34.394  1.00  0.00     0.180 A 
ATOM      2  C   UNL     1      37.945 -77.141  35.759  1.00  0.00     0.208 A 
ATOM      3  C   UNL     1      36.900 -77.210  36.694  1.00  0.00     0.238 A 
ATOM      4  O   UNL     1      37.161 -77.009  37.909  1.00  0.00    -0.285 OA
ATOM      5  C   UNL     1      35.577 -77.459  36.255  1.00  0.00     0.111 A 
ATOM      6  C   UNL     1      34.448 -77.589  37.118  1.00  0.00     0.134 A 
ATOM      7  C   UNL     1      33.166 -77.704  36.567  1.00  0.00     0.093 A 
ATOM      8  C   UNL     1      32.979 -77.759  35.183  1.00  0.00     0.123 A 
ATOM      9  C   UNL     1      34.082 -77.693  34.333  1.00  0.00     0.094 A 
ATOM     10  C   UNL     1      35.369 -77.541  34.853  1.00  0.00     0.146 A 
ATOM     11  O   UNL     1      36.391 -77.471  34.009  1.00  0.00    -0.452 OA
ENDROOT
BRANCH   1  12
ATOM     12  C   UNL     1      38.702 -77.269  33.352  1.00  0.00     0.029 A 
ATOM     13  C   UNL     1      38.334 -77.116  32.006  1.00  0.00     0.062 A 
ATOM     14  C   UNL     1      39.304 -77.100  30.999  1.00  0.00     0.162 A 
ATOM     15  C   UNL     1      40.058 -77.443  33.675  1.00  0.00     0.062 A 
ATOM     16  C   UNL     1      40.662 -77.253  31.329  1.00  0.00     0.200 A 
ATOM     17  C   UNL     1      41.037 -77.430  32.672  1.00  0.00     0.162 A 
BRANCH  14  18
ATOM     18  O   UNL     1      38.900 -76.931  29.674  1.00  0.00    -0.504 OA
ATOM     19  H   UNL     1      39.563 -76.878  28.910  1.00  0.00     0.293 HD
ENDBRANCH  14  18
BRANCH  16  20
ATOM     20  O   UNL     1      41.625 -77.233  30.318  1.00  0.00    -0.502 OA
ATOM     21  H   UNL     1      41.984 -78.081  29.898  1.00  0.00     0.293 HD
ENDBRANCH  16  20
BRANCH  17  22
ATOM     22  O   UNL     1      42.380 -77.597  33.005  1.00  0.00    -0.504 OA
ATOM     23  H   UNL     1      43.092 -76.952  32.683  1.00  0.00     0.293 HD
ENDBRANCH  17  22
ENDBRANCH   1  12
BRANCH   2  24
ATOM     24  O   UNL     1      39.254 -76.875  36.169  1.00  0.00    -0.502 OA
ATOM     25  H   UNL     1      39.549 -76.953  37.135  1.00  0.00     0.293 HD
ENDBRANCH   2  24
BRANCH   6  26
ATOM     26  O   UNL     1      34.533 -77.639  38.513  1.00  0.00    -0.507 OA
ATOM     27  H   UNL     1      35.367 -77.442  39.045  1.00  0.00     0.293 HD
ENDBRANCH   6  26
BRANCH   8  28
ATOM     28  O   UNL     1      31.702 -77.890  34.642  1.00  0.00    -0.508 OA
ATOM     29  H   UNL     1      31.510 -77.657  33.675  1.00  0.00     0.293 HD
ENDBRANCH   8  28
TORSDOF 7
ENDMDL
MODEL 5
REMARK VINA RESULT:    -5.017      8.950     11.497
REMARK INTER + INTRA:          -6.429
REMARK INTER:                  -6.837
REMARK INTRA:                   0.408
REMARK UNBOUND:                -0.238
REMARK SMILES O=c1c(O)c(-c2cc(O)c(O)c(O)c2)oc2cc(O)cc(O)c12
REMARK SMILES IDX 5 1 3 2 2 3 1 4 23 5 21 6 20 7 18 8 17 9 16 10 15 11 6 12
REMARK SMILES IDX 7 13 8 14 14 15 10 16 12 17 9 18 11 20 13 22 4 24 22 26
REMARK SMILES IDX 19 28
REMARK H PARENT 9 19 11 21 13 23 4 25 22 27 19 29
REMARK Flexibility Score: inf
ROOT
ATOM      1  C   UNL     1      40.675 -95.234  35.678  1.00  0.00     0.180 A 
ATOM      2  C   UNL     1      41.799 -95.423  34.855  1.00  0.00     0.208 A 
ATOM      3  C   UNL     1      41.629 -95.424  33.461  1.00  0.00     0.238 A 
ATOM      4  O   UNL     1      42.629 -95.648  32.731  1.00  0.00    -0.285 OA
ATOM      5  C   UNL     1      40.342 -95.219  32.908  1.00  0.00     0.111 A 
ATOM      6  C   UNL     1      40.061 -95.161  31.510  1.00  0.00     0.134 A 
ATOM      7  C   UNL     1      38.732 -95.085  31.075  1.00  0.00     0.093 A 
ATOM      8  C   UNL     1      37.678 -94.999  31.989  1.00  0.00     0.123 A 
ATOM      9  C   UNL     1      37.947 -94.995  33.357  1.00  0.00     0.094 A 
ATOM     10  C   UNL     1      39.260 -95.107  33.820  1.00  0.00     0.146 A 
ATOM     11  O   UNL     1      39.472 -95.110  35.131  1.00  0.00    -0.452 OA
ENDROOT
BRANCH   1  12
ATOM     12  C   UNL     1      40.778 -95.196  37.155  1.00  0.00     0.029 A 
ATOM     13  C   UNL     1      41.887 -95.782  37.786  1.00  0.00     0.062 A 
ATOM     14  C   UNL     1      42.000 -95.779  39.179  1.00  0.00     0.162 A 
ATOM     15  C   UNL     1      39.760 -94.634  37.945  1.00  0.00     0.062 A 
ATOM     16  C   UNL     1      40.989 -95.198  39.964  1.00  0.00     0.200 A 
ATOM     17  C   UNL     1      39.865 -94.628  39.343  1.00  0.00     0.162 A 
BRANCH  14  18
ATOM     18  O   UNL     1      43.124 -96.359  39.767  1.00  0.00    -0.504 OA
ATOM     19  H   UNL     1      43.704 -95.861  40.431  1.00  0.00     0.293 HD
ENDBRANCH  14  18
BRANCH  16  20
ATOM     20  O   UNL     1      41.111 -95.196  41.355  1.00  0.00    -0.502 OA
ATOM     21  H   UNL     1      40.427 -94.753  41.956  1.00  0.00     0.293 HD
ENDBRANCH  16  20
BRANCH  17  22
ATOM     22  O   UNL     1      38.852 -94.063  40.116  1.00  0.00    -0.504 OA
ATOM     23  H   UNL     1      38.951 -93.942  41.117  1.00  0.00     0.293 HD
ENDBRANCH  17  22
ENDBRANCH   1  12
BRANCH   2  24
ATOM     24  O   UNL     1      43.056 -95.645  35.422  1.00  0.00    -0.502 OA
ATOM     25  H   UNL     1      43.237 -95.523  36.411  1.00  0.00     0.293 HD
ENDBRANCH   2  24
BRANCH   6  26
ATOM     26  O   UNL     1      41.044 -95.147  30.517  1.00  0.00    -0.507 OA
ATOM     27  H   UNL     1      41.643 -94.362  30.311  1.00  0.00     0.293 HD
ENDBRANCH   6  26
BRANCH   8  28
ATOM     28  O   UNL     1      36.360 -94.907  31.548  1.00  0.00    -0.508 OA
ATOM     29  H   UNL     1      35.758 -95.720  31.507  1.00  0.00     0.293 HD
ENDBRANCH   8  28
TORSDOF 7
ENDMDL
MODEL 6
REMARK VINA RESULT:    -4.991      9.033     11.046
REMARK INTER + INTRA:          -6.396
REMARK INTER:                  -6.303
REMARK INTRA:                  -0.093
REMARK UNBOUND:                -0.238
REMARK SMILES O=c1c(O)c(-c2cc(O)c(O)c(O)c2)oc2cc(O)cc(O)c12
REMARK SMILES IDX 5 1 3 2 2 3 1 4 23 5 21 6 20 7 18 8 17 9 16 10 15 11 6 12
REMARK SMILES IDX 7 13 8 14 14 15 10 16 12 17 9 18 11 20 13 22 4 24 22 26
REMARK SMILES IDX 19 28
REMARK H PARENT 9 19 11 21 13 23 4 25 22 27 19 29
REMARK Flexibility Score: inf
ROOT
ATOM      1  C   UNL     1      38.339 -95.571  31.971  1.00  0.00     0.180 A 
ATOM      2  C   UNL     1      39.075 -96.267  30.997  1.00  0.00     0.208 A 
ATOM      3  C   UNL     1      38.514 -96.454  29.724  1.00  0.00     0.238 A 
ATOM      4  O   UNL     1      39.155 -97.125  28.873  1.00  0.00    -0.285 OA
ATOM      5  C   UNL     1      37.231 -95.930  29.436  1.00  0.00     0.111 A 
ATOM      6  C   UNL     1      36.582 -96.026  28.168  1.00  0.00     0.134 A 
ATOM      7  C   UNL     1      35.260 -95.585  28.034  1.00  0.00     0.093 A 
ATOM      8  C   UNL     1      34.585 -94.992  29.105  1.00  0.00     0.123 A 
ATOM      9  C   UNL     1      35.231 -94.840  30.330  1.00  0.00     0.094 A 
ATOM     10  C   UNL     1      36.537 -95.303  30.504  1.00  0.00     0.146 A 
ATOM     11  O   UNL     1      37.112 -95.148  31.691  1.00  0.00    -0.452 OA
ENDROOT
BRANCH   1  12
ATOM     12  C   UNL     1      38.875 -95.312  33.327  1.00  0.00     0.029 A 
ATOM     13  C   UNL     1      40.104 -94.651  33.470  1.00  0.00     0.062 A 
ATOM     14  C   UNL     1      40.644 -94.412  34.737  1.00  0.00     0.162 A 
ATOM     15  C   UNL     1      38.205 -95.766  34.476  1.00  0.00     0.062 A 
ATOM     16  C   UNL     1      39.960 -94.849  35.885  1.00  0.00     0.200 A 
ATOM     17  C   UNL     1      38.740 -95.532  35.751  1.00  0.00     0.162 A 
BRANCH  14  18
ATOM     18  O   UNL     1      41.861 -93.738  34.837  1.00  0.00    -0.504 OA
ATOM     19  H   UNL     1      42.590 -93.834  34.141  1.00  0.00     0.293 HD
ENDBRANCH  14  18
BRANCH  16  20
ATOM     20  O   UNL     1      40.504 -94.603  37.147  1.00  0.00    -0.502 OA
ATOM     21  H   UNL     1      39.955 -94.677  37.994  1.00  0.00     0.293 HD
ENDBRANCH  16  20
BRANCH  17  22
ATOM     22  O   UNL     1      38.064 -95.981  36.885  1.00  0.00    -0.504 OA
ATOM     23  H   UNL     1      38.145 -96.938  37.208  1.00  0.00     0.293 HD
ENDBRANCH  17  22
ENDBRANCH   1  12
BRANCH   2  24
ATOM     24  O   UNL     1      40.331 -96.795  31.309  1.00  0.00    -0.502 OA
ATOM     25  H   UNL     1      40.672 -96.864  32.260  1.00  0.00     0.293 HD
ENDBRANCH   2  24
BRANCH   6  26
ATOM     26  O   UNL     1      37.196 -96.516  27.012  1.00  0.00    -0.507 OA
ATOM     27  H   UNL     1      38.191 -96.636  26.896  1.00  0.00     0.293 HD
ENDBRANCH   6  26
BRANCH   8  28
ATOM     28  O   UNL     1      33.275 -94.543  28.958  1.00  0.00    -0.508 OA
ATOM     29  H   UNL     1      33.031 -93.836  28.274  1.00  0.00     0.293 HD
ENDBRANCH   8  28
TORSDOF 7
ENDMDL
MODEL 7
REMARK VINA RESULT:    -4.969      8.364     10.472
REMARK INTER + INTRA:          -6.369
REMARK INTER:                  -6.394
REMARK INTRA:                   0.025
REMARK UNBOUND:                -0.238
REMARK SMILES O=c1c(O)c(-c2cc(O)c(O)c(O)c2)oc2cc(O)cc(O)c12
REMARK SMILES IDX 5 1 3 2 2 3 1 4 23 5 21 6 20 7 18 8 17 9 16 10 15 11 6 12
REMARK SMILES IDX 7 13 8 14 14 15 10 16 12 17 9 18 11 20 13 22 4 24 22 26
REMARK SMILES IDX 19 28
REMARK H PARENT 9 19 11 21 13 23 4 25 22 27 19 29
REMARK Flexibility Score: inf
ROOT
ATOM      1  C   UNL     1      39.964 -95.402  35.688  1.00  0.00     0.180 A 
ATOM      2  C   UNL     1      41.161 -95.057  36.339  1.00  0.00     0.208 A 
ATOM      3  C   UNL     1      41.261 -95.245  37.726  1.00  0.00     0.238 A 
ATOM      4  O   UNL     1      42.315 -94.884  38.311  1.00  0.00    -0.285 OA
ATOM      5  C   UNL     1      40.168 -95.789  38.444  1.00  0.00     0.111 A 
ATOM      6  C   UNL     1      40.173 -96.059  39.845  1.00  0.00     0.134 A 
ATOM      7  C   UNL     1      38.993 -96.476  40.472  1.00  0.00     0.093 A 
ATOM      8  C   UNL     1      37.824 -96.695  39.737  1.00  0.00     0.123 A 
ATOM      9  C   UNL     1      37.826 -96.491  38.359  1.00  0.00     0.094 A 
ATOM     10  C   UNL     1      38.979 -96.040  37.711  1.00  0.00     0.146 A 
ATOM     11  O   UNL     1      38.935 -95.849  36.398  1.00  0.00    -0.452 OA
ENDROOT
BRANCH   1  12
ATOM     12  C   UNL     1      39.793 -95.256  34.224  1.00  0.00     0.029 A 
ATOM     13  C   UNL     1      38.582 -94.760  33.717  1.00  0.00     0.062 A 
ATOM     14  C   UNL     1      38.385 -94.633  32.339  1.00  0.00     0.162 A 
ATOM     15  C   UNL     1      40.796 -95.659  33.327  1.00  0.00     0.062 A 
ATOM     16  C   UNL     1      39.400 -95.017  31.445  1.00  0.00     0.200 A 
ATOM     17  C   UNL     1      40.607 -95.535  31.944  1.00  0.00     0.162 A 
BRANCH  14  18
ATOM     18  O   UNL     1      37.173 -94.122  31.874  1.00  0.00    -0.504 OA
ATOM     19  H   UNL     1      36.292 -94.322  32.331  1.00  0.00     0.293 HD
ENDBRANCH  14  18
BRANCH  16  20
ATOM     20  O   UNL     1      39.197 -94.883  30.071  1.00  0.00    -0.502 OA
ATOM     21  H   UNL     1      38.595 -95.508  29.551  1.00  0.00     0.293 HD
ENDBRANCH  16  20
BRANCH  17  22
ATOM     22  O   UNL     1      41.612 -95.932  31.063  1.00  0.00    -0.504 OA
ATOM     23  H   UNL     1      42.261 -96.674  31.297  1.00  0.00     0.293 HD
ENDBRANCH  17  22
ENDBRANCH   1  12
BRANCH   2  24
ATOM     24  O   UNL     1      42.220 -94.501  35.615  1.00  0.00    -0.502 OA
ATOM     25  H   UNL     1      42.141 -94.257  34.635  1.00  0.00     0.293 HD
ENDBRANCH   2  24
BRANCH   6  26
ATOM     26  O   UNL     1      41.308 -95.961  40.655  1.00  0.00    -0.507 OA
ATOM     27  H   UNL     1      41.430 -96.440  41.535  1.00  0.00     0.293 HD
ENDBRANCH   6  26
BRANCH   8  28
ATOM     28  O   UNL     1      36.658 -97.125  40.366  1.00  0.00    -0.508 OA
ATOM     29  H   UNL     1      36.043 -96.476  40.842  1.00  0.00     0.293 HD
ENDBRANCH   8  28
TORSDOF 7
ENDMDL
MODEL 8
REMARK VINA RESULT:    -4.969     15.256     17.428
REMARK INTER + INTRA:          -6.368
REMARK INTER:                  -6.784
REMARK INTRA:                   0.415
REMARK UNBOUND:                -0.238
REMARK SMILES O=c1c(O)c(-c2cc(O)c(O)c(O)c2)oc2cc(O)cc(O)c12
REMARK SMILES IDX 5 1 3 2 2 3 1 4 23 5 21 6 20 7 18 8 17 9 16 10 15 11 6 12
REMARK SMILES IDX 7 13 8 14 14 15 10 16 12 17 9 18 11 20 13 22 4 24 22 26
REMARK SMILES IDX 19 28
REMARK H PARENT 9 19 11 21 13 23 4 25 22 27 19 29
REMARK Flexibility Score: inf
ROOT
ATOM      1  C   UNL     1      36.630 -77.302  33.636  1.00  0.00     0.180 A 
ATOM      2  C   UNL     1      36.230 -77.138  32.298  1.00  0.00     0.208 A 
ATOM      3  C   UNL     1      37.212 -77.077  31.297  1.00  0.00     0.238 A 
ATOM      4  O   UNL     1      36.852 -76.875  30.108  1.00  0.00    -0.285 OA
ATOM      5  C   UNL     1      38.580 -77.195  31.643  1.00  0.00     0.111 A 
ATOM      6  C   UNL     1      39.656 -77.187  30.706  1.00  0.00     0.134 A 
ATOM      7  C   UNL     1      40.977 -77.180  31.171  1.00  0.00     0.093 A 
ATOM      8  C   UNL     1      41.260 -77.248  32.539  1.00  0.00     0.123 A 
ATOM      9  C   UNL     1      40.216 -77.317  33.458  1.00  0.00     0.094 A 
ATOM     10  C   UNL     1      38.888 -77.288  33.026  1.00  0.00     0.146 A 
ATOM     11  O   UNL     1      37.923 -77.345  33.935  1.00  0.00    -0.452 OA
ENDROOT
BRANCH   1  12
ATOM     12  C   UNL     1      35.652 -77.402  34.744  1.00  0.00     0.029 A 
ATOM     13  C   UNL     1      36.073 -77.878  35.995  1.00  0.00     0.062 A 
ATOM     14  C   UNL     1      35.167 -78.002  37.053  1.00  0.00     0.162 A 
ATOM     15  C   UNL     1      34.297 -77.084  34.553  1.00  0.00     0.062 A 
ATOM     16  C   UNL     1      33.816 -77.662  36.864  1.00  0.00     0.200 A 
ATOM     17  C   UNL     1      33.382 -77.206  35.608  1.00  0.00     0.162 A 
BRANCH  14  18
ATOM     18  O   UNL     1      35.627 -78.465  38.286  1.00  0.00    -0.504 OA
ATOM     19  H   UNL     1      35.776 -77.846  39.073  1.00  0.00     0.293 HD
ENDBRANCH  14  18
BRANCH  16  20
ATOM     20  O   UNL     1      32.918 -77.785  37.925  1.00  0.00    -0.502 OA
ATOM     21  H   UNL     1      32.130 -78.420  37.895  1.00  0.00     0.293 HD
ENDBRANCH  16  20
BRANCH  17  22
ATOM     22  O   UNL     1      32.040 -76.882  35.409  1.00  0.00    -0.504 OA
ATOM     23  H   UNL     1      31.730 -76.389  34.580  1.00  0.00     0.293 HD
ENDBRANCH  17  22
ENDBRANCH   1  12
BRANCH   2  24
ATOM     24  O   UNL     1      34.876 -77.002  31.981  1.00  0.00    -0.502 OA
ATOM     25  H   UNL     1      34.481 -76.132  31.644  1.00  0.00     0.293 HD
ENDBRANCH   2  24
BRANCH   6  26
ATOM     26  O   UNL     1      39.485 -77.212  29.319  1.00  0.00    -0.507 OA
ATOM     27  H   UNL     1      40.236 -77.188  28.646  1.00  0.00     0.293 HD
ENDBRANCH   6  26
BRANCH   8  28
ATOM     28  O   UNL     1      42.577 -77.257  32.992  1.00  0.00    -0.508 OA
ATOM     29  H   UNL     1      43.337 -76.906  32.421  1.00  0.00     0.293 HD
ENDBRANCH   8  28
TORSDOF 7
ENDMDL
MODEL 9
REMARK VINA RESULT:    -4.960     14.939     16.180
REMARK INTER + INTRA:          -6.357
REMARK INTER:                  -6.580
REMARK INTRA:                   0.223
REMARK UNBOUND:                -0.238
REMARK SMILES O=c1c(O)c(-c2cc(O)c(O)c(O)c2)oc2cc(O)cc(O)c12
REMARK SMILES IDX 5 1 3 2 2 3 1 4 23 5 21 6 20 7 18 8 17 9 16 10 15 11 6 12
REMARK SMILES IDX 7 13 8 14 14 15 10 16 12 17 9 18 11 20 13 22 4 24 22 26
REMARK SMILES IDX 19 28
REMARK H PARENT 9 19 11 21 13 23 4 25 22 27 19 29
REMARK Flexibility Score: inf
ROOT
ATOM      1  C   UNL     1      37.249 -78.065  37.126  1.00  0.00     0.180 A 
ATOM      2  C   UNL     1      38.424 -77.539  36.561  1.00  0.00     0.208 A 
ATOM      3  C   UNL     1      39.631 -77.656  37.268  1.00  0.00     0.238 A 
ATOM      4  O   UNL     1      40.669 -77.136  36.782  1.00  0.00    -0.285 OA
ATOM      5  C   UNL     1      39.651 -78.311  38.523  1.00  0.00     0.111 A 
ATOM      6  C   UNL     1      40.825 -78.521  39.308  1.00  0.00     0.134 A 
ATOM      7  C   UNL     1      40.708 -79.064  40.593  1.00  0.00     0.093 A 
ATOM      8  C   UNL     1      39.467 -79.465  41.096  1.00  0.00     0.123 A 
ATOM      9  C   UNL     1      38.324 -79.319  40.314  1.00  0.00     0.094 A 
ATOM     10  C   UNL     1      38.404 -78.746  39.042  1.00  0.00     0.146 A 
ATOM     11  O   UNL     1      37.289 -78.615  38.334  1.00  0.00    -0.452 OA
ENDROOT
BRANCH   1  12
ATOM     12  C   UNL     1      35.943 -78.002  36.430  1.00  0.00     0.029 A 
ATOM     13  C   UNL     1      34.758 -78.004  37.182  1.00  0.00     0.062 A 
ATOM     14  C   UNL     1      33.512 -77.967  36.551  1.00  0.00     0.162 A 
ATOM     15  C   UNL     1      35.863 -77.999  35.027  1.00  0.00     0.062 A 
ATOM     16  C   UNL     1      33.436 -77.942  35.147  1.00  0.00     0.200 A 
ATOM     17  C   UNL     1      34.616 -77.963  34.386  1.00  0.00     0.162 A 
BRANCH  14  18
ATOM     18  O   UNL     1      32.358 -77.955  37.334  1.00  0.00    -0.504 OA
ATOM     19  H   UNL     1      31.552 -78.529  37.117  1.00  0.00     0.293 HD
ENDBRANCH  14  18
BRANCH  16  20
ATOM     20  O   UNL     1      32.188 -77.902  34.524  1.00  0.00    -0.502 OA
ATOM     21  H   UNL     1      31.787 -78.710  34.065  1.00  0.00     0.293 HD
ENDBRANCH  16  20
BRANCH  17  22
ATOM     22  O   UNL     1      34.548 -77.954  32.993  1.00  0.00    -0.504 OA
ATOM     23  H   UNL     1      34.853 -77.154  32.451  1.00  0.00     0.293 HD
ENDBRANCH  17  22
ENDBRANCH   1  12
BRANCH   2  24
ATOM     24  O   UNL     1      38.377 -76.878  35.331  1.00  0.00    -0.502 OA
ATOM     25  H   UNL     1      37.533 -76.442  34.978  1.00  0.00     0.293 HD
ENDBRANCH   2  24
BRANCH   6  26
ATOM     26  O   UNL     1      42.121 -78.242  38.865  1.00  0.00    -0.507 OA
ATOM     27  H   UNL     1      42.873 -78.913  38.829  1.00  0.00     0.293 HD
ENDBRANCH   6  26
BRANCH   8  28
ATOM     28  O   UNL     1      39.362 -80.020  42.370  1.00  0.00    -0.508 OA
ATOM     29  H   UNL     1      38.486 -80.395  42.714  1.00  0.00     0.293 HD
ENDBRANCH   8  28
TORSDOF 7
ENDMDL
