MODEL 1
REMARK VINA RESULT:    -8.342      0.000      0.000
REMARK INTER + INTRA:         -16.781
REMARK INTER:                 -13.707
REMARK INTRA:                  -3.075
REMARK UNBOUND:                -3.075
REMARK SMILES C[C@H]1O[C@H](OC[C@@H]2O[C@@H](Oc3c(-c4ccc(O)c(O)c4)oc4cc(O)cc(O)c4c3=O)[C@H](O)[C@H](O)[C@H]2O)[C@@H](O)[C@@H](O)[C@H]1O
REMARK SMILES IDX 7 1 36 2 34 3 32 4 9 5 8 6 6 7 5 8 4 9 1 10 2 11 42 12 3 13
REMARK SMILES IDX 40 14 38 15 43 16 41 18 39 20 37 22 35 24 10 26 11 27 12 28
REMARK SMILES IDX 30 29 21 30 29 31 31 32 22 33 27 34 23 35 26 36 24 37 13 38
REMARK SMILES IDX 20 39 14 40 18 41 15 42 16 43 19 44 17 46 28 48 25 50 33 52
REMARK H PARENT 43 17 41 19 39 21 37 23 35 25 19 45 17 47 28 49 25 51 33 53
REMARK Flexibility Score: inf
ROOT
ATOM      1  C   UNL     1      -4.073 -19.872 -28.073  1.00  0.00     0.180 C 
ATOM      2  C   UNL     1      -4.036 -19.034 -29.379  1.00  0.00     0.177 C 
ATOM      3  C   UNL     1      -4.985 -17.810 -29.257  1.00  0.00     0.180 C 
ATOM      4  C   UNL     1      -6.288 -18.164 -28.505  1.00  0.00     0.214 C 
ATOM      5  C   UNL     1      -6.458 -19.689 -28.384  1.00  0.00     0.339 C 
ATOM      6  O   UNL     1      -5.375 -20.258 -27.653  1.00  0.00    -0.332 OA
ENDROOT
BRANCH   1   7
ATOM      7  C   UNL     1      -3.218 -21.152 -28.244  1.00  0.00     0.198 C 
BRANCH   7   8
ATOM      8  O   UNL     1      -2.873 -21.398 -29.596  1.00  0.00    -0.347 OA
BRANCH   8   9
ATOM      9  C   UNL     1      -3.217 -22.713 -29.981  1.00  0.00     0.281 C 
ATOM     10  C   UNL     1      -1.365 -25.289 -30.527  1.00  0.00     0.041 C 
ATOM     11  C   UNL     1      -2.565 -24.940 -29.647  1.00  0.00     0.150 C 
ATOM     12  C   UNL     1      -3.944 -25.339 -30.268  1.00  0.00     0.174 C 
ATOM     13  O   UNL     1      -2.461 -23.603 -29.196  1.00  0.00    -0.344 OA
ATOM     14  C   UNL     1      -5.049 -24.470 -29.627  1.00  0.00     0.179 C 
ATOM     15  C   UNL     1      -4.725 -22.950 -29.711  1.00  0.00     0.202 C 
BRANCH  12  16
ATOM     16  O   UNL     1      -3.953 -25.150 -31.661  1.00  0.00    -0.388 OA
ATOM     17  H   UNL     1      -4.907 -25.222 -31.949  1.00  0.00     0.211 HD
ENDBRANCH  12  16
BRANCH  14  18
ATOM     18  O   UNL     1      -6.306 -24.748 -30.203  1.00  0.00    -0.387 OA
ATOM     19  H   UNL     1      -6.261 -25.655 -30.596  1.00  0.00     0.211 HD
ENDBRANCH  14  18
BRANCH  15  20
ATOM     20  O   UNL     1      -5.506 -22.295 -30.691  1.00  0.00    -0.385 OA
ATOM     21  H   UNL     1      -6.382 -22.745 -30.714  1.00  0.00     0.211 HD
ENDBRANCH  15  20
ENDBRANCH   8   9
ENDBRANCH   7   8
ENDBRANCH   1   7
BRANCH   2  22
ATOM     22  O   UNL     1      -2.714 -18.614 -29.626  1.00  0.00    -0.387 OA
ATOM     23  H   UNL     1      -2.588 -17.779 -29.101  1.00  0.00     0.211 HD
ENDBRANCH   2  22
BRANCH   3  24
ATOM     24  O   UNL     1      -5.267 -17.349 -30.558  1.00  0.00    -0.387 OA
ATOM     25  H   UNL     1      -4.884 -18.002 -31.200  1.00  0.00     0.211 HD
ENDBRANCH   3  24
BRANCH   5  26
ATOM     26  O   UNL     1      -7.700 -20.054 -27.754  1.00  0.00    -0.454 OA
BRANCH  26  27
ATOM     27  C   UNL     1      -7.825 -21.123 -26.858  1.00  0.00     0.214 A 
ATOM     28  C   UNL     1      -7.834 -20.932 -25.456  1.00  0.00     0.180 A 
ATOM     29  C   UNL     1      -7.925 -22.426 -27.369  1.00  0.00     0.239 A 
ATOM     30  O   UNL     1      -7.987 -22.000 -24.679  1.00  0.00    -0.452 OA
ATOM     31  C   UNL     1      -8.205 -23.513 -26.503  1.00  0.00     0.111 A 
ATOM     32  O   UNL     1      -7.695 -22.598 -28.591  1.00  0.00    -0.285 OA
ATOM     33  C   UNL     1      -8.188 -23.232 -25.121  1.00  0.00     0.146 A 
ATOM     34  C   UNL     1      -8.545 -24.839 -26.932  1.00  0.00     0.134 A 
ATOM     35  C   UNL     1      -8.396 -24.244 -24.184  1.00  0.00     0.094 A 
ATOM     36  C   UNL     1      -8.810 -25.817 -25.965  1.00  0.00     0.093 A 
ATOM     37  C   UNL     1      -8.735 -25.531 -24.602  1.00  0.00     0.123 A 
BRANCH  28  38
ATOM     38  C   UNL     1      -7.753 -19.605 -24.729  1.00  0.00     0.025 A 
ATOM     39  C   UNL     1      -8.968 -19.036 -24.281  1.00  0.00     0.062 A 
ATOM     40  C   UNL     1      -6.573 -18.834 -24.551  1.00  0.00     0.016 A 
ATOM     41  C   UNL     1      -9.038 -17.710 -23.829  1.00  0.00     0.158 A 
ATOM     42  C   UNL     1      -6.655 -17.498 -24.135  1.00  0.00     0.051 A 
ATOM     43  C   UNL     1      -7.867 -16.926 -23.801  1.00  0.00     0.157 A 
BRANCH  41  44
ATOM     44  O   UNL     1     -10.256 -17.151 -23.445  1.00  0.00    -0.504 OA
ATOM     45  H   UNL     1     -10.850 -17.638 -22.775  1.00  0.00     0.293 HD
ENDBRANCH  41  44
BRANCH  43  46
ATOM     46  O   UNL     1      -7.890 -15.585 -23.399  1.00  0.00    -0.504 OA
ATOM     47  H   UNL     1      -8.664 -15.226 -22.829  1.00  0.00     0.293 HD
ENDBRANCH  43  46
ENDBRANCH  28  38
BRANCH  34  48
ATOM     48  O   UNL     1      -8.646 -25.244 -28.267  1.00  0.00    -0.507 OA
ATOM     49  H   UNL     1      -9.378 -24.980 -28.899  1.00  0.00     0.293 HD
ENDBRANCH  34  48
BRANCH  37  50
ATOM     50  O   UNL     1      -8.988 -26.526 -23.659  1.00  0.00    -0.508 OA
ATOM     51  H   UNL     1      -9.027 -26.308 -22.674  1.00  0.00     0.293 HD
ENDBRANCH  37  50
ENDBRANCH  26  27
ENDBRANCH   5  26
BRANCH   4  52
ATOM     52  O   UNL     1      -7.400 -17.593 -29.157  1.00  0.00    -0.384 OA
ATOM     53  H   UNL     1      -8.125 -17.521 -28.487  1.00  0.00     0.211 HD
ENDBRANCH   4  52
TORSDOF 16
ENDMDL
MODEL 2
REMARK VINA RESULT:    -8.338      2.970      5.854
REMARK INTER + INTRA:         -16.774
REMARK INTER:                 -13.916
REMARK INTRA:                  -2.858
REMARK UNBOUND:                -3.075
REMARK SMILES C[C@H]1O[C@H](OC[C@@H]2O[C@@H](Oc3c(-c4ccc(O)c(O)c4)oc4cc(O)cc(O)c4c3=O)[C@H](O)[C@H](O)[C@H]2O)[C@@H](O)[C@@H](O)[C@H]1O
REMARK SMILES IDX 7 1 36 2 34 3 32 4 9 5 8 6 6 7 5 8 4 9 1 10 2 11 42 12 3 13
REMARK SMILES IDX 40 14 38 15 43 16 41 18 39 20 37 22 35 24 10 26 11 27 12 28
REMARK SMILES IDX 30 29 21 30 29 31 31 32 22 33 27 34 23 35 26 36 24 37 13 38
REMARK SMILES IDX 20 39 14 40 18 41 15 42 16 43 19 44 17 46 28 48 25 50 33 52
REMARK H PARENT 43 17 41 19 39 21 37 23 35 25 19 45 17 47 28 49 25 51 33 53
REMARK Flexibility Score: inf
ROOT
ATOM      1  C   UNL     1      -4.325 -23.884 -26.454  1.00  0.00     0.180 C 
ATOM      2  C   UNL     1      -3.236 -24.237 -25.405  1.00  0.00     0.177 C 
ATOM      3  C   UNL     1      -2.925 -25.759 -25.449  1.00  0.00     0.180 C 
ATOM      4  C   UNL     1      -4.200 -26.602 -25.673  1.00  0.00     0.214 C 
ATOM      5  C   UNL     1      -5.467 -25.757 -25.449  1.00  0.00     0.339 C 
ATOM      6  O   UNL     1      -5.510 -24.664 -26.364  1.00  0.00    -0.332 OA
ENDROOT
BRANCH   1   7
ATOM      7  C   UNL     1      -4.716 -22.391 -26.325  1.00  0.00     0.198 C 
BRANCH   7   8
ATOM      8  O   UNL     1      -4.660 -21.705 -27.563  1.00  0.00    -0.347 OA
BRANCH   8   9
ATOM      9  C   UNL     1      -4.166 -22.541 -28.590  1.00  0.00     0.281 C 
ATOM     10  C   UNL     1      -5.603 -24.897 -30.247  1.00  0.00     0.041 C 
ATOM     11  C   UNL     1      -4.852 -23.604 -30.564  1.00  0.00     0.150 C 
ATOM     12  C   UNL     1      -3.332 -23.812 -30.870  1.00  0.00     0.174 C 
ATOM     13  O   UNL     1      -5.151 -22.621 -29.591  1.00  0.00    -0.344 OA
ATOM     14  C   UNL     1      -2.585 -22.485 -30.606  1.00  0.00     0.179 C 
ATOM     15  C   UNL     1      -2.880 -21.914 -29.189  1.00  0.00     0.202 C 
BRANCH  12  16
ATOM     16  O   UNL     1      -2.780 -24.823 -30.064  1.00  0.00    -0.388 OA
ATOM     17  H   UNL     1      -3.002 -25.690 -30.508  1.00  0.00     0.211 HD
ENDBRANCH  12  16
BRANCH  14  18
ATOM     18  O   UNL     1      -1.198 -22.640 -30.807  1.00  0.00    -0.387 OA
ATOM     19  H   UNL     1      -0.918 -23.468 -30.344  1.00  0.00     0.211 HD
ENDBRANCH  14  18
BRANCH  15  20
ATOM     20  O   UNL     1      -1.790 -22.096 -28.307  1.00  0.00    -0.385 OA
ATOM     21  H   UNL     1      -1.110 -22.621 -28.788  1.00  0.00     0.211 HD
ENDBRANCH  15  20
ENDBRANCH   8   9
ENDBRANCH   7   8
ENDBRANCH   1   7
BRANCH   2  22
ATOM     22  O   UNL     1      -2.074 -23.485 -25.668  1.00  0.00    -0.387 OA
ATOM     23  H   UNL     1      -1.988 -23.449 -26.658  1.00  0.00     0.211 HD
ENDBRANCH   2  22
BRANCH   3  24
ATOM     24  O   UNL     1      -2.302 -26.108 -24.234  1.00  0.00    -0.387 OA
ATOM     25  H   UNL     1      -2.708 -25.557 -23.516  1.00  0.00     0.211 HD
ENDBRANCH   3  24
BRANCH   5  26
ATOM     26  O   UNL     1      -6.673 -26.532 -25.578  1.00  0.00    -0.454 OA
BRANCH  26  27
ATOM     27  C   UNL     1      -7.609 -26.678 -24.546  1.00  0.00     0.214 A 
ATOM     28  C   UNL     1      -8.484 -25.631 -24.171  1.00  0.00     0.180 A 
ATOM     29  C   UNL     1      -7.667 -27.896 -23.853  1.00  0.00     0.239 A 
ATOM     30  O   UNL     1      -9.362 -25.866 -23.201  1.00  0.00    -0.452 OA
ATOM     31  C   UNL     1      -8.700 -28.134 -22.911  1.00  0.00     0.111 A 
ATOM     32  O   UNL     1      -6.748 -28.728 -24.047  1.00  0.00    -0.285 OA
ATOM     33  C   UNL     1      -9.520 -27.031 -22.591  1.00  0.00     0.146 A 
ATOM     34  C   UNL     1      -8.989 -29.404 -22.310  1.00  0.00     0.134 A 
ATOM     35  C   UNL     1     -10.528 -27.145 -21.635  1.00  0.00     0.094 A 
ATOM     36  C   UNL     1     -10.050 -29.497 -21.401  1.00  0.00     0.093 A 
ATOM     37  C   UNL     1     -10.815 -28.382 -21.058  1.00  0.00     0.123 A 
BRANCH  28  38
ATOM     38  C   UNL     1      -8.574 -24.262 -24.812  1.00  0.00     0.025 A 
ATOM     39  C   UNL     1      -9.038 -24.201 -26.148  1.00  0.00     0.062 A 
ATOM     40  C   UNL     1      -8.134 -23.045 -24.224  1.00  0.00     0.016 A 
ATOM     41  C   UNL     1      -8.923 -23.032 -26.915  1.00  0.00     0.158 A 
ATOM     42  C   UNL     1      -7.987 -21.892 -25.007  1.00  0.00     0.051 A 
ATOM     43  C   UNL     1      -8.348 -21.881 -26.341  1.00  0.00     0.157 A 
BRANCH  41  44
ATOM     44  O   UNL     1      -9.336 -23.010 -28.246  1.00  0.00    -0.504 OA
ATOM     45  H   UNL     1      -9.175 -22.180 -28.815  1.00  0.00     0.293 HD
ENDBRANCH  41  44
BRANCH  43  46
ATOM     46  O   UNL     1      -8.171 -20.703 -27.076  1.00  0.00    -0.504 OA
ATOM     47  H   UNL     1      -7.233 -20.310 -27.212  1.00  0.00     0.293 HD
ENDBRANCH  43  46
ENDBRANCH  28  38
BRANCH  34  48
ATOM     48  O   UNL     1      -8.290 -30.586 -22.571  1.00  0.00    -0.507 OA
ATOM     49  H   UNL     1      -7.644 -31.029 -21.944  1.00  0.00     0.293 HD
ENDBRANCH  34  48
BRANCH  37  50
ATOM     50  O   UNL     1     -11.855 -28.498 -20.138  1.00  0.00    -0.508 OA
ATOM     51  H   UNL     1     -12.411 -29.339 -20.089  1.00  0.00     0.293 HD
ENDBRANCH  37  50
ENDBRANCH  26  27
ENDBRANCH   5  26
BRANCH   4  52
ATOM     52  O   UNL     1      -4.200 -27.727 -24.824  1.00  0.00    -0.384 OA
ATOM     53  H   UNL     1      -3.559 -27.540 -24.093  1.00  0.00     0.211 HD
ENDBRANCH   4  52
TORSDOF 16
ENDMDL
MODEL 3
REMARK VINA RESULT:    -8.178      8.447     12.972
REMARK INTER + INTRA:         -16.511
REMARK INTER:                 -14.361
REMARK INTRA:                  -2.150
REMARK UNBOUND:                -3.075
REMARK SMILES C[C@H]1O[C@H](OC[C@@H]2O[C@@H](Oc3c(-c4ccc(O)c(O)c4)oc4cc(O)cc(O)c4c3=O)[C@H](O)[C@H](O)[C@H]2O)[C@@H](O)[C@@H](O)[C@H]1O
REMARK SMILES IDX 7 1 36 2 34 3 32 4 9 5 8 6 6 7 5 8 4 9 1 10 2 11 42 12 3 13
REMARK SMILES IDX 40 14 38 15 43 16 41 18 39 20 37 22 35 24 10 26 11 27 12 28
REMARK SMILES IDX 30 29 21 30 29 31 31 32 22 33 27 34 23 35 26 36 24 37 13 38
REMARK SMILES IDX 20 39 14 40 18 41 15 42 16 43 19 44 17 46 28 48 25 50 33 52
REMARK H PARENT 43 17 41 19 39 21 37 23 35 25 19 45 17 47 28 49 25 51 33 53
REMARK Flexibility Score: inf
ROOT
ATOM      1  C   UNL     1     -14.980 -29.911 -23.620  1.00  0.00     0.180 C 
ATOM      2  C   UNL     1     -15.546 -31.273 -23.137  1.00  0.00     0.177 C 
ATOM      3  C   UNL     1     -15.913 -31.195 -21.629  1.00  0.00     0.180 C 
ATOM      4  C   UNL     1     -14.886 -30.363 -20.828  1.00  0.00     0.214 C 
ATOM      5  C   UNL     1     -13.606 -30.127 -21.650  1.00  0.00     0.339 C 
ATOM      6  O   UNL     1     -13.901 -29.407 -22.844  1.00  0.00    -0.332 OA
ENDROOT
BRANCH   1   7
ATOM      7  C   UNL     1     -14.507 -30.030 -25.091  1.00  0.00     0.198 C 
BRANCH   7   8
ATOM      8  O   UNL     1     -13.328 -30.805 -25.222  1.00  0.00    -0.347 OA
BRANCH   8   9
ATOM      9  C   UNL     1     -13.546 -31.933 -26.044  1.00  0.00     0.281 C 
ATOM     10  C   UNL     1     -15.988 -34.029 -26.122  1.00  0.00     0.041 C 
ATOM     11  C   UNL     1     -15.273 -33.106 -27.109  1.00  0.00     0.150 C 
ATOM     12  C   UNL     1     -14.154 -33.814 -27.941  1.00  0.00     0.174 C 
ATOM     13  O   UNL     1     -14.890 -31.909 -26.460  1.00  0.00    -0.344 OA
ATOM     14  C   UNL     1     -13.156 -32.745 -28.443  1.00  0.00     0.179 C 
ATOM     15  C   UNL     1     -12.625 -31.848 -27.288  1.00  0.00     0.202 C 
BRANCH  12  16
ATOM     16  O   UNL     1     -13.465 -34.766 -27.170  1.00  0.00    -0.388 OA
ATOM     17  H   UNL     1     -13.774 -34.644 -26.228  1.00  0.00     0.211 HD
ENDBRANCH  12  16
BRANCH  14  18
ATOM     18  O   UNL     1     -12.090 -33.343 -29.146  1.00  0.00    -0.387 OA
ATOM     19  H   UNL     1     -11.802 -34.139 -28.635  1.00  0.00     0.211 HD
ENDBRANCH  14  18
BRANCH  15  20
ATOM     20  O   UNL     1     -11.294 -32.170 -26.935  1.00  0.00    -0.385 OA
ATOM     21  H   UNL     1     -10.900 -32.657 -27.696  1.00  0.00     0.211 HD
ENDBRANCH  15  20
ENDBRANCH   8   9
ENDBRANCH   7   8
ENDBRANCH   1   7
BRANCH   2  22
ATOM     22  O   UNL     1     -16.678 -31.608 -23.907  1.00  0.00    -0.387 OA
ATOM     23  H   UNL     1     -17.467 -31.367 -23.353  1.00  0.00     0.211 HD
ENDBRANCH   2  22
BRANCH   3  24
ATOM     24  O   UNL     1     -15.986 -32.511 -21.133  1.00  0.00    -0.387 OA
ATOM     25  H   UNL     1     -16.553 -33.037 -21.754  1.00  0.00     0.211 HD
ENDBRANCH   3  24
BRANCH   5  26
ATOM     26  O   UNL     1     -12.598 -29.418 -20.905  1.00  0.00    -0.454 OA
BRANCH  26  27
ATOM     27  C   UNL     1     -12.414 -28.032 -20.985  1.00  0.00     0.214 A 
ATOM     28  C   UNL     1     -11.404 -27.453 -21.791  1.00  0.00     0.180 A 
ATOM     29  C   UNL     1     -13.246 -27.194 -20.228  1.00  0.00     0.239 A 
ATOM     30  O   UNL     1     -11.318 -26.127 -21.831  1.00  0.00    -0.452 OA
ATOM     31  C   UNL     1     -13.191 -25.787 -20.400  1.00  0.00     0.111 A 
ATOM     32  O   UNL     1     -13.982 -27.723 -19.360  1.00  0.00    -0.285 OA
ATOM     33  C   UNL     1     -12.148 -25.298 -21.215  1.00  0.00     0.146 A 
ATOM     34  C   UNL     1     -14.133 -24.854 -19.852  1.00  0.00     0.134 A 
ATOM     35  C   UNL     1     -11.972 -23.927 -21.403  1.00  0.00     0.094 A 
ATOM     36  C   UNL     1     -13.962 -23.488 -20.114  1.00  0.00     0.093 A 
ATOM     37  C   UNL     1     -12.893 -23.021 -20.877  1.00  0.00     0.123 A 
BRANCH  28  38
ATOM     38  C   UNL     1     -10.430 -28.195 -22.681  1.00  0.00     0.025 A 
ATOM     39  C   UNL     1      -9.152 -28.484 -22.145  1.00  0.00     0.062 A 
ATOM     40  C   UNL     1     -10.651 -28.534 -24.044  1.00  0.00     0.016 A 
ATOM     41  C   UNL     1      -8.098 -28.934 -22.954  1.00  0.00     0.158 A 
ATOM     42  C   UNL     1      -9.584 -28.947 -24.854  1.00  0.00     0.051 A 
ATOM     43  C   UNL     1      -8.317 -29.122 -24.334  1.00  0.00     0.157 A 
BRANCH  41  44
ATOM     44  O   UNL     1      -6.832 -29.159 -22.415  1.00  0.00    -0.504 OA
ATOM     45  H   UNL     1      -6.015 -29.164 -23.024  1.00  0.00     0.293 HD
ENDBRANCH  41  44
BRANCH  43  46
ATOM     46  O   UNL     1      -7.288 -29.530 -25.192  1.00  0.00    -0.504 OA
ATOM     47  H   UNL     1      -6.610 -30.239 -24.891  1.00  0.00     0.293 HD
ENDBRANCH  43  46
ENDBRANCH  28  38
BRANCH  34  48
ATOM     48  O   UNL     1     -15.237 -25.203 -19.070  1.00  0.00    -0.507 OA
ATOM     49  H   UNL     1     -15.262 -25.952 -18.404  1.00  0.00     0.293 HD
ENDBRANCH  34  48
BRANCH  37  50
ATOM     50  O   UNL     1     -12.737 -21.656 -21.109  1.00  0.00    -0.508 OA
ATOM     51  H   UNL     1     -12.318 -21.057 -20.413  1.00  0.00     0.293 HD
ENDBRANCH  37  50
ENDBRANCH  26  27
ENDBRANCH   5  26
BRANCH   4  52
ATOM     52  O   UNL     1     -14.580 -31.003 -19.610  1.00  0.00    -0.384 OA
ATOM     53  H   UNL     1     -13.840 -30.496 -19.193  1.00  0.00     0.211 HD
ENDBRANCH   4  52
TORSDOF 16
ENDMDL
MODEL 4
REMARK VINA RESULT:    -8.134      2.070      7.393
REMARK INTER + INTRA:         -16.439
REMARK INTER:                 -14.162
REMARK INTRA:                  -2.277
REMARK UNBOUND:                -3.075
REMARK SMILES C[C@H]1O[C@H](OC[C@@H]2O[C@@H](Oc3c(-c4ccc(O)c(O)c4)oc4cc(O)cc(O)c4c3=O)[C@H](O)[C@H](O)[C@H]2O)[C@@H](O)[C@@H](O)[C@H]1O
REMARK SMILES IDX 7 1 36 2 34 3 32 4 9 5 8 6 6 7 5 8 4 9 1 10 2 11 42 12 3 13
REMARK SMILES IDX 40 14 38 15 43 16 41 18 39 20 37 22 35 24 10 26 11 27 12 28
REMARK SMILES IDX 30 29 21 30 29 31 31 32 22 33 27 34 23 35 26 36 24 37 13 38
REMARK SMILES IDX 20 39 14 40 18 41 15 42 16 43 19 44 17 46 28 48 25 50 33 52
REMARK H PARENT 43 17 41 19 39 21 37 23 35 25 19 45 17 47 28 49 25 51 33 53
REMARK Flexibility Score: inf
ROOT
ATOM      1  C   UNL     1      -7.815 -21.094 -28.028  1.00  0.00     0.180 C 
ATOM      2  C   UNL     1      -6.483 -20.307 -28.153  1.00  0.00     0.177 C 
ATOM      3  C   UNL     1      -5.802 -20.621 -29.514  1.00  0.00     0.180 C 
ATOM      4  C   UNL     1      -5.957 -22.108 -29.906  1.00  0.00     0.214 C 
ATOM      5  C   UNL     1      -6.430 -22.948 -28.707  1.00  0.00     0.339 C 
ATOM      6  O   UNL     1      -7.700 -22.494 -28.245  1.00  0.00    -0.332 OA
ENDROOT
BRANCH   1   7
ATOM      7  C   UNL     1      -8.429 -20.869 -26.624  1.00  0.00     0.198 C 
BRANCH   7   8
ATOM      8  O   UNL     1      -8.790 -19.517 -26.398  1.00  0.00    -0.347 OA
BRANCH   8   9
ATOM      9  C   UNL     1      -8.487 -19.120 -25.077  1.00  0.00     0.281 C 
ATOM     10  C   UNL     1      -6.551 -20.456 -22.879  1.00  0.00     0.041 C 
ATOM     11  C   UNL     1      -6.713 -19.089 -23.544  1.00  0.00     0.150 C 
ATOM     12  C   UNL     1      -7.571 -18.078 -22.714  1.00  0.00     0.174 C 
ATOM     13  O   UNL     1      -7.097 -19.252 -24.895  1.00  0.00    -0.344 OA
ATOM     14  C   UNL     1      -8.140 -17.006 -23.670  1.00  0.00     0.179 C 
ATOM     15  C   UNL     1      -8.887 -17.635 -24.882  1.00  0.00     0.202 C 
BRANCH  12  16
ATOM     16  O   UNL     1      -8.632 -18.724 -22.056  1.00  0.00    -0.388 OA
ATOM     17  H   UNL     1      -8.936 -19.458 -22.663  1.00  0.00     0.211 HD
ENDBRANCH  12  16
BRANCH  14  18
ATOM     18  O   UNL     1      -8.976 -16.106 -22.977  1.00  0.00    -0.387 OA
ATOM     19  H   UNL     1      -9.782 -15.958 -23.530  1.00  0.00     0.211 HD
ENDBRANCH  14  18
BRANCH  15  20
ATOM     20  O   UNL     1     -10.291 -17.518 -24.758  1.00  0.00    -0.385 OA
ATOM     21  H   UNL     1     -10.559 -18.042 -23.968  1.00  0.00     0.211 HD
ENDBRANCH  15  20
ENDBRANCH   8   9
ENDBRANCH   7   8
ENDBRANCH   1   7
BRANCH   2  22
ATOM     22  O   UNL     1      -6.743 -18.927 -28.036  1.00  0.00    -0.387 OA
ATOM     23  H   UNL     1      -7.701 -18.807 -28.272  1.00  0.00     0.211 HD
ENDBRANCH   2  22
BRANCH   3  24
ATOM     24  O   UNL     1      -4.442 -20.271 -29.409  1.00  0.00    -0.387 OA
ATOM     25  H   UNL     1      -4.008 -20.475 -30.277  1.00  0.00     0.211 HD
ENDBRANCH   3  24
BRANCH   5  26
ATOM     26  O   UNL     1      -6.513 -24.351 -29.019  1.00  0.00    -0.454 OA
BRANCH  26  27
ATOM     27  C   UNL     1      -6.280 -25.365 -28.080  1.00  0.00     0.214 A 
ATOM     28  C   UNL     1      -4.987 -25.890 -27.846  1.00  0.00     0.180 A 
ATOM     29  C   UNL     1      -7.368 -25.886 -27.364  1.00  0.00     0.239 A 
ATOM     30  O   UNL     1      -4.851 -26.829 -26.915  1.00  0.00    -0.452 OA
ATOM     31  C   UNL     1      -7.151 -26.800 -26.301  1.00  0.00     0.111 A 
ATOM     32  O   UNL     1      -8.524 -25.570 -27.736  1.00  0.00    -0.285 OA
ATOM     33  C   UNL     1      -5.832 -27.276 -26.144  1.00  0.00     0.146 A 
ATOM     34  C   UNL     1      -8.152 -27.225 -25.365  1.00  0.00     0.134 A 
ATOM     35  C   UNL     1      -5.525 -28.220 -25.165  1.00  0.00     0.094 A 
ATOM     36  C   UNL     1      -7.794 -28.126 -24.354  1.00  0.00     0.093 A 
ATOM     37  C   UNL     1      -6.496 -28.626 -24.251  1.00  0.00     0.123 A 
BRANCH  28  38
ATOM     38  C   UNL     1      -3.701 -25.442 -28.510  1.00  0.00     0.025 A 
ATOM     39  C   UNL     1      -2.857 -24.578 -27.772  1.00  0.00     0.062 A 
ATOM     40  C   UNL     1      -3.321 -25.730 -29.848  1.00  0.00     0.016 A 
ATOM     41  C   UNL     1      -1.782 -23.907 -28.374  1.00  0.00     0.158 A 
ATOM     42  C   UNL     1      -2.270 -25.027 -30.453  1.00  0.00     0.051 A 
ATOM     43  C   UNL     1      -1.521 -24.108 -29.744  1.00  0.00     0.157 A 
BRANCH  41  44
ATOM     44  O   UNL     1      -0.997 -23.018 -27.641  1.00  0.00    -0.504 OA
ATOM     45  H   UNL     1      -1.349 -22.085 -27.430  1.00  0.00     0.293 HD
ENDBRANCH  41  44
BRANCH  43  46
ATOM     46  O   UNL     1      -0.488 -23.431 -30.402  1.00  0.00    -0.504 OA
ATOM     47  H   UNL     1      -0.408 -22.410 -30.334  1.00  0.00     0.293 HD
ENDBRANCH  43  46
ENDBRANCH  28  38
BRANCH  34  48
ATOM     48  O   UNL     1      -9.483 -26.797 -25.373  1.00  0.00    -0.507 OA
ATOM     49  H   UNL     1      -9.915 -26.231 -24.667  1.00  0.00     0.293 HD
ENDBRANCH  34  48
BRANCH  37  50
ATOM     50  O   UNL     1      -6.170 -29.534 -23.245  1.00  0.00    -0.508 OA
ATOM     51  H   UNL     1      -6.612 -29.483 -22.339  1.00  0.00     0.293 HD
ENDBRANCH  37  50
ENDBRANCH  26  27
ENDBRANCH   5  26
BRANCH   4  52
ATOM     52  O   UNL     1      -4.741 -22.611 -30.412  1.00  0.00    -0.384 OA
ATOM     53  H   UNL     1      -4.618 -22.222 -31.314  1.00  0.00     0.211 HD
ENDBRANCH   4  52
TORSDOF 16
ENDMDL
MODEL 5
REMARK VINA RESULT:    -8.062      2.166      2.984
REMARK INTER + INTRA:         -16.320
REMARK INTER:                 -13.785
REMARK INTRA:                  -2.536
REMARK UNBOUND:                -3.075
REMARK SMILES C[C@H]1O[C@H](OC[C@@H]2O[C@@H](Oc3c(-c4ccc(O)c(O)c4)oc4cc(O)cc(O)c4c3=O)[C@H](O)[C@H](O)[C@H]2O)[C@@H](O)[C@@H](O)[C@H]1O
REMARK SMILES IDX 7 1 36 2 34 3 32 4 9 5 8 6 6 7 5 8 4 9 1 10 2 11 42 12 3 13
REMARK SMILES IDX 40 14 38 15 43 16 41 18 39 20 37 22 35 24 10 26 11 27 12 28
REMARK SMILES IDX 30 29 21 30 29 31 31 32 22 33 27 34 23 35 26 36 24 37 13 38
REMARK SMILES IDX 20 39 14 40 18 41 15 42 16 43 19 44 17 46 28 48 25 50 33 52
REMARK H PARENT 43 17 41 19 39 21 37 23 35 25 19 45 17 47 28 49 25 51 33 53
REMARK Flexibility Score: inf
ROOT
ATOM      1  C   UNL     1      -5.176 -19.216 -28.511  1.00  0.00     0.180 C 
ATOM      2  C   UNL     1      -5.752 -18.893 -29.916  1.00  0.00     0.177 C 
ATOM      3  C   UNL     1      -7.240 -18.461 -29.798  1.00  0.00     0.180 C 
ATOM      4  C   UNL     1      -7.997 -19.286 -28.733  1.00  0.00     0.214 C 
ATOM      5  C   UNL     1      -7.190 -20.531 -28.324  1.00  0.00     0.339 C 
ATOM      6  O   UNL     1      -5.936 -20.154 -27.760  1.00  0.00    -0.332 OA
ENDROOT
BRANCH   1   7
ATOM      7  C   UNL     1      -3.732 -19.758 -28.647  1.00  0.00     0.198 C 
BRANCH   7   8
ATOM      8  O   UNL     1      -3.631 -20.808 -29.593  1.00  0.00    -0.347 OA
BRANCH   8   9
ATOM      9  C   UNL     1      -3.020 -21.950 -29.029  1.00  0.00     0.281 C 
ATOM     10  C   UNL     1      -3.141 -23.128 -26.036  1.00  0.00     0.041 C 
ATOM     11  C   UNL     1      -3.416 -23.637 -27.450  1.00  0.00     0.150 C 
ATOM     12  C   UNL     1      -2.210 -24.396 -28.097  1.00  0.00     0.174 C 
ATOM     13  O   UNL     1      -3.980 -22.604 -28.234  1.00  0.00    -0.344 OA
ATOM     14  C   UNL     1      -2.360 -24.351 -29.634  1.00  0.00     0.179 C 
ATOM     15  C   UNL     1      -2.563 -22.902 -30.164  1.00  0.00     0.202 C 
BRANCH  12  16
ATOM     16  O   UNL     1      -0.983 -23.814 -27.733  1.00  0.00    -0.388 OA
ATOM     17  H   UNL     1      -0.573 -23.470 -28.577  1.00  0.00     0.211 HD
ENDBRANCH  12  16
BRANCH  14  18
ATOM     18  O   UNL     1      -1.261 -24.968 -30.266  1.00  0.00    -0.387 OA
ATOM     19  H   UNL     1      -0.548 -25.076 -29.588  1.00  0.00     0.211 HD
ENDBRANCH  14  18
BRANCH  15  20
ATOM     20  O   UNL     1      -1.399 -22.398 -30.788  1.00  0.00    -0.385 OA
ATOM     21  H   UNL     1      -1.064 -21.660 -30.227  1.00  0.00     0.211 HD
ENDBRANCH  15  20
ENDBRANCH   8   9
ENDBRANCH   7   8
ENDBRANCH   1   7
BRANCH   2  22
ATOM     22  O   UNL     1      -4.984 -17.871 -30.511  1.00  0.00    -0.387 OA
ATOM     23  H   UNL     1      -4.135 -18.299 -30.800  1.00  0.00     0.211 HD
ENDBRANCH   2  22
BRANCH   3  24
ATOM     24  O   UNL     1      -7.836 -18.612 -31.065  1.00  0.00    -0.387 OA
ATOM     25  H   UNL     1      -7.118 -18.826 -31.714  1.00  0.00     0.211 HD
ENDBRANCH   3  24
BRANCH   5  26
ATOM     26  O   UNL     1      -7.900 -21.361 -27.387  1.00  0.00    -0.454 OA
BRANCH  26  27
ATOM     27  C   UNL     1      -7.372 -22.541 -26.848  1.00  0.00     0.214 A 
ATOM     28  C   UNL     1      -6.966 -22.635 -25.496  1.00  0.00     0.180 A 
ATOM     29  C   UNL     1      -7.225 -23.660 -27.683  1.00  0.00     0.239 A 
ATOM     30  O   UNL     1      -6.503 -23.803 -25.060  1.00  0.00    -0.452 OA
ATOM     31  C   UNL     1      -6.840 -24.911 -27.139  1.00  0.00     0.111 A 
ATOM     32  O   UNL     1      -7.381 -23.497 -28.918  1.00  0.00    -0.285 OA
ATOM     33  C   UNL     1      -6.445 -24.910 -25.785  1.00  0.00     0.146 A 
ATOM     34  C   UNL     1      -6.871 -26.159 -27.846  1.00  0.00     0.134 A 
ATOM     35  C   UNL     1      -5.994 -26.078 -25.171  1.00  0.00     0.094 A 
ATOM     36  C   UNL     1      -6.472 -27.325 -27.179  1.00  0.00     0.093 A 
ATOM     37  C   UNL     1      -6.033 -27.292 -25.856  1.00  0.00     0.123 A 
BRANCH  28  38
ATOM     38  C   UNL     1      -7.063 -21.543 -24.451  1.00  0.00     0.025 A 
ATOM     39  C   UNL     1      -6.155 -21.600 -23.367  1.00  0.00     0.062 A 
ATOM     40  C   UNL     1      -8.055 -20.526 -24.410  1.00  0.00     0.016 A 
ATOM     41  C   UNL     1      -6.318 -20.799 -22.227  1.00  0.00     0.158 A 
ATOM     42  C   UNL     1      -8.235 -19.757 -23.253  1.00  0.00     0.051 A 
ATOM     43  C   UNL     1      -7.402 -19.900 -22.161  1.00  0.00     0.157 A 
BRANCH  41  44
ATOM     44  O   UNL     1      -5.443 -20.912 -21.147  1.00  0.00    -0.504 OA
ATOM     45  H   UNL     1      -4.497 -21.261 -21.293  1.00  0.00     0.293 HD
ENDBRANCH  41  44
BRANCH  43  46
ATOM     46  O   UNL     1      -7.632 -19.110 -21.029  1.00  0.00    -0.504 OA
ATOM     47  H   UNL     1      -7.944 -18.137 -21.129  1.00  0.00     0.293 HD
ENDBRANCH  43  46
ENDBRANCH  28  38
BRANCH  34  48
ATOM     48  O   UNL     1      -7.285 -26.314 -29.172  1.00  0.00    -0.507 OA
ATOM     49  H   UNL     1      -8.198 -26.096 -29.524  1.00  0.00     0.293 HD
ENDBRANCH  34  48
BRANCH  37  50
ATOM     50  O   UNL     1      -5.626 -28.464 -25.221  1.00  0.00    -0.508 OA
ATOM     51  H   UNL     1      -6.080 -28.779 -24.376  1.00  0.00     0.293 HD
ENDBRANCH  37  50
ENDBRANCH  26  27
ENDBRANCH   5  26
BRANCH   4  52
ATOM     52  O   UNL     1      -9.269 -19.658 -29.214  1.00  0.00    -0.384 OA
ATOM     53  H   UNL     1      -9.419 -20.597 -28.943  1.00  0.00     0.211 HD
ENDBRANCH   4  52
TORSDOF 16
ENDMDL
MODEL 6
REMARK VINA RESULT:    -8.002      2.733      6.287
REMARK INTER + INTRA:         -16.223
REMARK INTER:                 -13.639
REMARK INTRA:                  -2.583
REMARK UNBOUND:                -3.075
REMARK SMILES C[C@H]1O[C@H](OC[C@@H]2O[C@@H](Oc3c(-c4ccc(O)c(O)c4)oc4cc(O)cc(O)c4c3=O)[C@H](O)[C@H](O)[C@H]2O)[C@@H](O)[C@@H](O)[C@H]1O
REMARK SMILES IDX 7 1 36 2 34 3 32 4 9 5 8 6 6 7 5 8 4 9 1 10 2 11 42 12 3 13
REMARK SMILES IDX 40 14 38 15 43 16 41 18 39 20 37 22 35 24 10 26 11 27 12 28
REMARK SMILES IDX 30 29 21 30 29 31 31 32 22 33 27 34 23 35 26 36 24 37 13 38
REMARK SMILES IDX 20 39 14 40 18 41 15 42 16 43 19 44 17 46 28 48 25 50 33 52
REMARK H PARENT 43 17 41 19 39 21 37 23 35 25 19 45 17 47 28 49 25 51 33 53
REMARK Flexibility Score: inf
ROOT
ATOM      1  C   UNL     1      -5.554 -22.736 -30.102  1.00  0.00     0.180 C 
ATOM      2  C   UNL     1      -4.108 -22.855 -29.548  1.00  0.00     0.177 C 
ATOM      3  C   UNL     1      -3.536 -24.269 -29.846  1.00  0.00     0.180 C 
ATOM      4  C   UNL     1      -4.608 -25.370 -29.682  1.00  0.00     0.214 C 
ATOM      5  C   UNL     1      -5.844 -24.831 -28.941  1.00  0.00     0.339 C 
ATOM      6  O   UNL     1      -6.440 -23.761 -29.671  1.00  0.00    -0.332 OA
ENDROOT
BRANCH   1   7
ATOM      7  C   UNL     1      -6.160 -21.369 -29.699  1.00  0.00     0.198 C 
BRANCH   7   8
ATOM      8  O   UNL     1      -5.798 -20.329 -30.591  1.00  0.00    -0.347 OA
BRANCH   8   9
ATOM      9  C   UNL     1      -6.367 -19.097 -30.200  1.00  0.00     0.281 C 
ATOM     10  C   UNL     1      -9.363 -17.970 -30.541  1.00  0.00     0.041 C 
ATOM     11  C   UNL     1      -8.374 -18.189 -29.397  1.00  0.00     0.150 C 
ATOM     12  C   UNL     1      -7.542 -16.918 -29.026  1.00  0.00     0.174 C 
ATOM     13  O   UNL     1      -7.623 -19.366 -29.625  1.00  0.00    -0.344 OA
ATOM     14  C   UNL     1      -6.242 -17.362 -28.317  1.00  0.00     0.179 C 
ATOM     15  C   UNL     1      -5.457 -18.423 -29.140  1.00  0.00     0.202 C 
BRANCH  12  16
ATOM     16  O   UNL     1      -7.214 -16.167 -30.168  1.00  0.00    -0.388 OA
ATOM     17  H   UNL     1      -8.055 -15.713 -30.459  1.00  0.00     0.211 HD
ENDBRANCH  12  16
BRANCH  14  18
ATOM     18  O   UNL     1      -5.426 -16.252 -28.020  1.00  0.00    -0.387 OA
ATOM     19  H   UNL     1      -5.409 -16.146 -27.037  1.00  0.00     0.211 HD
ENDBRANCH  14  18
BRANCH  15  20
ATOM     20  O   UNL     1      -4.311 -17.873 -29.759  1.00  0.00    -0.385 OA
ATOM     21  H   UNL     1      -4.595 -17.512 -30.631  1.00  0.00     0.211 HD
ENDBRANCH  15  20
ENDBRANCH   8   9
ENDBRANCH   7   8
ENDBRANCH   1   7
BRANCH   2  22
ATOM     22  O   UNL     1      -3.301 -21.860 -30.135  1.00  0.00    -0.387 OA
ATOM     23  H   UNL     1      -2.498 -22.329 -30.486  1.00  0.00     0.211 HD
ENDBRANCH   2  22
BRANCH   3  24
ATOM     24  O   UNL     1      -2.453 -24.490 -28.973  1.00  0.00    -0.387 OA
ATOM     25  H   UNL     1      -1.684 -24.799 -29.517  1.00  0.00     0.211 HD
ENDBRANCH   3  24
BRANCH   5  26
ATOM     26  O   UNL     1      -6.831 -25.852 -28.705  1.00  0.00    -0.454 OA
BRANCH  26  27
ATOM     27  C   UNL     1      -7.397 -26.102 -27.448  1.00  0.00     0.214 A 
ATOM     28  C   UNL     1      -8.577 -25.454 -27.012  1.00  0.00     0.180 A 
ATOM     29  C   UNL     1      -6.761 -27.012 -26.590  1.00  0.00     0.239 A 
ATOM     30  O   UNL     1      -9.061 -25.774 -25.816  1.00  0.00    -0.452 OA
ATOM     31  C   UNL     1      -7.383 -27.405 -25.377  1.00  0.00     0.111 A 
ATOM     32  O   UNL     1      -5.610 -27.407 -26.898  1.00  0.00    -0.285 OA
ATOM     33  C   UNL     1      -8.551 -26.700 -25.018  1.00  0.00     0.146 A 
ATOM     34  C   UNL     1      -6.940 -28.479 -24.536  1.00  0.00     0.134 A 
ATOM     35  C   UNL     1      -9.207 -26.971 -23.818  1.00  0.00     0.094 A 
ATOM     36  C   UNL     1      -7.660 -28.766 -23.370  1.00  0.00     0.093 A 
ATOM     37  C   UNL     1      -8.781 -28.022 -23.005  1.00  0.00     0.123 A 
BRANCH  28  38
ATOM     38  C   UNL     1      -9.402 -24.462 -27.804  1.00  0.00     0.025 A 
ATOM     39  C   UNL     1      -9.144 -23.087 -27.589  1.00  0.00     0.062 A 
ATOM     40  C   UNL     1     -10.484 -24.790 -28.665  1.00  0.00     0.016 A 
ATOM     41  C   UNL     1     -10.007 -22.091 -28.070  1.00  0.00     0.158 A 
ATOM     42  C   UNL     1     -11.363 -23.793 -29.110  1.00  0.00     0.051 A 
ATOM     43  C   UNL     1     -11.153 -22.463 -28.802  1.00  0.00     0.157 A 
BRANCH  41  44
ATOM     44  O   UNL     1      -9.763 -20.746 -27.800  1.00  0.00    -0.504 OA
ATOM     45  H   UNL     1      -8.960 -20.280 -28.220  1.00  0.00     0.293 HD
ENDBRANCH  41  44
BRANCH  43  46
ATOM     46  O   UNL     1     -12.068 -21.512 -29.268  1.00  0.00    -0.504 OA
ATOM     47  H   UNL     1     -11.739 -20.648 -29.714  1.00  0.00     0.293 HD
ENDBRANCH  43  46
ENDBRANCH  28  38
BRANCH  34  48
ATOM     48  O   UNL     1      -5.830 -29.288 -24.796  1.00  0.00    -0.507 OA
ATOM     49  H   UNL     1      -5.011 -29.351 -24.220  1.00  0.00     0.293 HD
ENDBRANCH  34  48
BRANCH  37  50
ATOM     50  O   UNL     1      -9.471 -28.318 -21.830  1.00  0.00    -0.508 OA
ATOM     51  H   UNL     1      -8.976 -28.594 -20.995  1.00  0.00     0.293 HD
ENDBRANCH  37  50
ENDBRANCH  26  27
ENDBRANCH   5  26
BRANCH   4  52
ATOM     52  O   UNL     1      -4.069 -26.481 -29.000  1.00  0.00    -0.384 OA
ATOM     53  H   UNL     1      -4.427 -27.293 -29.437  1.00  0.00     0.211 HD
ENDBRANCH   4  52
TORSDOF 16
ENDMDL
MODEL 7
REMARK VINA RESULT:    -7.999      2.847      8.298
REMARK INTER + INTRA:         -16.218
REMARK INTER:                 -13.368
REMARK INTRA:                  -2.849
REMARK UNBOUND:                -3.075
REMARK SMILES C[C@H]1O[C@H](OC[C@@H]2O[C@@H](Oc3c(-c4ccc(O)c(O)c4)oc4cc(O)cc(O)c4c3=O)[C@H](O)[C@H](O)[C@H]2O)[C@@H](O)[C@@H](O)[C@H]1O
REMARK SMILES IDX 7 1 36 2 34 3 32 4 9 5 8 6 6 7 5 8 4 9 1 10 2 11 42 12 3 13
REMARK SMILES IDX 40 14 38 15 43 16 41 18 39 20 37 22 35 24 10 26 11 27 12 28
REMARK SMILES IDX 30 29 21 30 29 31 31 32 22 33 27 34 23 35 26 36 24 37 13 38
REMARK SMILES IDX 20 39 14 40 18 41 15 42 16 43 19 44 17 46 28 48 25 50 33 52
REMARK H PARENT 43 17 41 19 39 21 37 23 35 25 19 45 17 47 28 49 25 51 33 53
REMARK Flexibility Score: inf
ROOT
ATOM      1  C   UNL     1      -8.942 -23.955 -24.933  1.00  0.00     0.180 C 
ATOM      2  C   UNL     1      -9.750 -23.846 -23.612  1.00  0.00     0.177 C 
ATOM      3  C   UNL     1      -9.886 -22.356 -23.190  1.00  0.00     0.180 C 
ATOM      4  C   UNL     1      -8.593 -21.558 -23.471  1.00  0.00     0.214 C 
ATOM      5  C   UNL     1      -7.413 -22.502 -23.763  1.00  0.00     0.339 C 
ATOM      6  O   UNL     1      -7.681 -23.299 -24.914  1.00  0.00    -0.332 OA
ENDROOT
BRANCH   1   7
ATOM      7  C   UNL     1      -8.709 -25.446 -25.285  1.00  0.00     0.198 C 
BRANCH   7   8
ATOM      8  O   UNL     1      -7.693 -26.039 -24.494  1.00  0.00    -0.347 OA
BRANCH   8   9
ATOM      9  C   UNL     1      -8.098 -27.300 -24.002  1.00  0.00     0.281 C 
ATOM     10  C   UNL     1      -9.276 -28.148 -21.129  1.00  0.00     0.041 C 
ATOM     11  C   UNL     1      -9.695 -28.280 -22.593  1.00  0.00     0.150 C 
ATOM     12  C   UNL     1      -9.297 -29.644 -23.246  1.00  0.00     0.174 C 
ATOM     13  O   UNL     1      -9.311 -27.123 -23.311  1.00  0.00    -0.344 OA
ATOM     14  C   UNL     1      -9.232 -29.463 -24.780  1.00  0.00     0.179 C 
ATOM     15  C   UNL     1      -8.326 -28.267 -25.192  1.00  0.00     0.202 C 
BRANCH  12  16
ATOM     16  O   UNL     1      -8.050 -30.093 -22.779  1.00  0.00    -0.388 OA
ATOM     17  H   UNL     1      -7.361 -29.690 -23.380  1.00  0.00     0.211 HD
ENDBRANCH  12  16
BRANCH  14  18
ATOM     18  O   UNL     1      -8.813 -30.652 -25.410  1.00  0.00    -0.387 OA
ATOM     19  H   UNL     1      -8.778 -30.480 -26.384  1.00  0.00     0.211 HD
ENDBRANCH  14  18
BRANCH  15  20
ATOM     20  O   UNL     1      -7.085 -28.698 -25.717  1.00  0.00    -0.385 OA
ATOM     21  H   UNL     1      -7.263 -29.493 -26.271  1.00  0.00     0.211 HD
ENDBRANCH  15  20
ENDBRANCH   8   9
ENDBRANCH   7   8
ENDBRANCH   1   7
BRANCH   2  22
ATOM     22  O   UNL     1     -11.020 -24.428 -23.792  1.00  0.00    -0.387 OA
ATOM     23  H   UNL     1     -11.648 -23.675 -23.950  1.00  0.00     0.211 HD
ENDBRANCH   2  22
BRANCH   3  24
ATOM     24  O   UNL     1     -10.207 -22.322 -21.819  1.00  0.00    -0.387 OA
ATOM     25  H   UNL     1     -10.224 -21.372 -21.536  1.00  0.00     0.211 HD
ENDBRANCH   3  24
BRANCH   5  26
ATOM     26  O   UNL     1      -6.176 -21.792 -23.955  1.00  0.00    -0.454 OA
BRANCH  26  27
ATOM     27  C   UNL     1      -5.801 -21.214 -25.175  1.00  0.00     0.214 A 
ATOM     28  C   UNL     1      -5.082 -21.935 -26.159  1.00  0.00     0.180 A 
ATOM     29  C   UNL     1      -6.134 -19.873 -25.419  1.00  0.00     0.239 A 
ATOM     30  O   UNL     1      -4.793 -21.318 -27.300  1.00  0.00    -0.452 OA
ATOM     31  C   UNL     1      -5.907 -19.302 -26.697  1.00  0.00     0.111 A 
ATOM     32  O   UNL     1      -6.571 -19.191 -24.461  1.00  0.00    -0.285 OA
ATOM     33  C   UNL     1      -5.177 -20.089 -27.613  1.00  0.00     0.146 A 
ATOM     34  C   UNL     1      -6.402 -18.026 -27.127  1.00  0.00     0.134 A 
ATOM     35  C   UNL     1      -4.852 -19.598 -28.877  1.00  0.00     0.094 A 
ATOM     36  C   UNL     1      -6.110 -17.590 -28.426  1.00  0.00     0.093 A 
ATOM     37  C   UNL     1      -5.341 -18.361 -29.297  1.00  0.00     0.123 A 
BRANCH  28  38
ATOM     38  C   UNL     1      -4.653 -23.385 -26.076  1.00  0.00     0.025 A 
ATOM     39  C   UNL     1      -5.401 -24.326 -26.823  1.00  0.00     0.062 A 
ATOM     40  C   UNL     1      -3.631 -23.896 -25.231  1.00  0.00     0.016 A 
ATOM     41  C   UNL     1      -5.255 -25.707 -26.625  1.00  0.00     0.158 A 
ATOM     42  C   UNL     1      -3.517 -25.275 -25.010  1.00  0.00     0.051 A 
ATOM     43  C   UNL     1      -4.329 -26.175 -25.672  1.00  0.00     0.157 A 
BRANCH  41  44
ATOM     44  O   UNL     1      -6.042 -26.615 -27.333  1.00  0.00    -0.504 OA
ATOM     45  H   UNL     1      -6.992 -26.362 -27.602  1.00  0.00     0.293 HD
ENDBRANCH  41  44
BRANCH  43  46
ATOM     46  O   UNL     1      -4.175 -27.541 -25.407  1.00  0.00    -0.504 OA
ATOM     47  H   UNL     1      -4.986 -28.115 -25.147  1.00  0.00     0.293 HD
ENDBRANCH  43  46
ENDBRANCH  28  38
BRANCH  34  48
ATOM     48  O   UNL     1      -7.176 -17.167 -26.343  1.00  0.00    -0.507 OA
ATOM     49  H   UNL     1      -7.124 -16.165 -26.354  1.00  0.00     0.293 HD
ENDBRANCH  34  48
BRANCH  37  50
ATOM     50  O   UNL     1      -5.052 -17.897 -30.580  1.00  0.00    -0.508 OA
ATOM     51  H   UNL     1      -4.661 -18.513 -31.277  1.00  0.00     0.293 HD
ENDBRANCH  37  50
ENDBRANCH  26  27
ENDBRANCH   5  26
BRANCH   4  52
ATOM     52  O   UNL     1      -8.292 -20.714 -22.382  1.00  0.00    -0.384 OA
ATOM     53  H   UNL     1      -8.877 -20.987 -21.632  1.00  0.00     0.211 HD
ENDBRANCH   4  52
TORSDOF 16
ENDMDL
MODEL 8
REMARK VINA RESULT:    -7.955      1.764      6.925
REMARK INTER + INTRA:         -16.146
REMARK INTER:                 -13.817
REMARK INTRA:                  -2.329
REMARK UNBOUND:                -3.075
REMARK SMILES C[C@H]1O[C@H](OC[C@@H]2O[C@@H](Oc3c(-c4ccc(O)c(O)c4)oc4cc(O)cc(O)c4c3=O)[C@H](O)[C@H](O)[C@H]2O)[C@@H](O)[C@@H](O)[C@H]1O
REMARK SMILES IDX 7 1 36 2 34 3 32 4 9 5 8 6 6 7 5 8 4 9 1 10 2 11 42 12 3 13
REMARK SMILES IDX 40 14 38 15 43 16 41 18 39 20 37 22 35 24 10 26 11 27 12 28
REMARK SMILES IDX 30 29 21 30 29 31 31 32 22 33 27 34 23 35 26 36 24 37 13 38
REMARK SMILES IDX 20 39 14 40 18 41 15 42 16 43 19 44 17 46 28 48 25 50 33 52
REMARK H PARENT 43 17 41 19 39 21 37 23 35 25 19 45 17 47 28 49 25 51 33 53
REMARK Flexibility Score: inf
ROOT
ATOM      1  C   UNL     1      -6.482 -18.907 -27.035  1.00  0.00     0.180 C 
ATOM      2  C   UNL     1      -5.356 -18.345 -27.942  1.00  0.00     0.177 C 
ATOM      3  C   UNL     1      -5.819 -18.334 -29.426  1.00  0.00     0.180 C 
ATOM      4  C   UNL     1      -6.655 -19.585 -29.777  1.00  0.00     0.214 C 
ATOM      5  C   UNL     1      -6.519 -20.664 -28.687  1.00  0.00     0.339 C 
ATOM      6  O   UNL     1      -6.989 -20.174 -27.434  1.00  0.00    -0.332 OA
ENDROOT
BRANCH   1   7
ATOM      7  C   UNL     1      -5.973 -19.025 -25.576  1.00  0.00     0.198 C 
BRANCH   7   8
ATOM      8  O   UNL     1      -6.357 -17.922 -24.775  1.00  0.00    -0.347 OA
BRANCH   8   9
ATOM      9  C   UNL     1      -7.742 -17.950 -24.494  1.00  0.00     0.281 C 
ATOM     10  C   UNL     1      -9.990 -20.125 -25.256  1.00  0.00     0.041 C 
ATOM     11  C   UNL     1      -9.468 -19.453 -23.986  1.00  0.00     0.150 C 
ATOM     12  C   UNL     1     -10.299 -18.203 -23.543  1.00  0.00     0.174 C 
ATOM     13  O   UNL     1      -8.071 -19.255 -24.083  1.00  0.00    -0.344 OA
ATOM     14  C   UNL     1      -9.408 -17.301 -22.658  1.00  0.00     0.179 C 
ATOM     15  C   UNL     1      -8.053 -16.960 -23.343  1.00  0.00     0.202 C 
BRANCH  12  16
ATOM     16  O   UNL     1     -10.749 -17.466 -24.652  1.00  0.00    -0.388 OA
ATOM     17  H   UNL     1     -10.223 -17.789 -25.438  1.00  0.00     0.211 HD
ENDBRANCH  12  16
BRANCH  14  18
ATOM     18  O   UNL     1     -10.094 -16.127 -22.286  1.00  0.00    -0.387 OA
ATOM     19  H   UNL     1     -10.994 -16.392 -21.973  1.00  0.00     0.211 HD
ENDBRANCH  14  18
BRANCH  15  20
ATOM     20  O   UNL     1      -8.021 -15.629 -23.820  1.00  0.00    -0.385 OA
ATOM     21  H   UNL     1      -7.999 -15.672 -24.804  1.00  0.00     0.211 HD
ENDBRANCH  15  20
ENDBRANCH   8   9
ENDBRANCH   7   8
ENDBRANCH   1   7
BRANCH   2  22
ATOM     22  O   UNL     1      -5.021 -17.043 -27.518  1.00  0.00    -0.387 OA
ATOM     23  H   UNL     1      -5.483 -16.910 -26.648  1.00  0.00     0.211 HD
ENDBRANCH   2  22
BRANCH   3  24
ATOM     24  O   UNL     1      -4.671 -18.256 -30.237  1.00  0.00    -0.387 OA
ATOM     25  H   UNL     1      -4.147 -19.088 -30.101  1.00  0.00     0.211 HD
ENDBRANCH   3  24
BRANCH   5  26
ATOM     26  O   UNL     1      -7.227 -21.872 -29.020  1.00  0.00    -0.454 OA
BRANCH  26  27
ATOM     27  C   UNL     1      -7.227 -23.014 -28.208  1.00  0.00     0.214 A 
ATOM     28  C   UNL     1      -6.118 -23.890 -28.141  1.00  0.00     0.180 A 
ATOM     29  C   UNL     1      -8.372 -23.305 -27.450  1.00  0.00     0.239 A 
ATOM     30  O   UNL     1      -6.192 -24.934 -27.321  1.00  0.00    -0.452 OA
ATOM     31  C   UNL     1      -8.354 -24.361 -26.504  1.00  0.00     0.111 A 
ATOM     32  O   UNL     1      -9.416 -22.649 -27.686  1.00  0.00    -0.285 OA
ATOM     33  C   UNL     1      -7.211 -25.188 -26.513  1.00  0.00     0.146 A 
ATOM     34  C   UNL     1      -9.375 -24.608 -25.528  1.00  0.00     0.134 A 
ATOM     35  C   UNL     1      -7.119 -26.287 -25.661  1.00  0.00     0.094 A 
ATOM     36  C   UNL     1      -9.221 -25.684 -24.645  1.00  0.00     0.093 A 
ATOM     37  C   UNL     1      -8.108 -26.523 -24.706  1.00  0.00     0.123 A 
BRANCH  28  38
ATOM     38  C   UNL     1      -4.801 -23.729 -28.871  1.00  0.00     0.025 A 
ATOM     39  C   UNL     1      -3.745 -23.096 -28.172  1.00  0.00     0.062 A 
ATOM     40  C   UNL     1      -4.565 -24.064 -30.232  1.00  0.00     0.016 A 
ATOM     41  C   UNL     1      -2.579 -22.671 -28.826  1.00  0.00     0.158 A 
ATOM     42  C   UNL     1      -3.415 -23.603 -30.887  1.00  0.00     0.051 A 
ATOM     43  C   UNL     1      -2.442 -22.894 -30.211  1.00  0.00     0.157 A 
BRANCH  41  44
ATOM     44  O   UNL     1      -1.576 -22.000 -28.129  1.00  0.00    -0.504 OA
ATOM     45  H   UNL     1      -0.995 -22.505 -27.461  1.00  0.00     0.293 HD
ENDBRANCH  41  44
BRANCH  43  46
ATOM     46  O   UNL     1      -1.317 -22.452 -30.918  1.00  0.00    -0.504 OA
ATOM     47  H   UNL     1      -0.373 -22.636 -30.560  1.00  0.00     0.293 HD
ENDBRANCH  43  46
ENDBRANCH  28  38
BRANCH  34  48
ATOM     48  O   UNL     1     -10.534 -23.842 -25.376  1.00  0.00    -0.507 OA
ATOM     49  H   UNL     1     -10.706 -23.190 -24.633  1.00  0.00     0.293 HD
ENDBRANCH  34  48
BRANCH  37  50
ATOM     50  O   UNL     1      -7.986 -27.596 -23.826  1.00  0.00    -0.508 OA
ATOM     51  H   UNL     1      -7.203 -27.660 -23.193  1.00  0.00     0.293 HD
ENDBRANCH  37  50
ENDBRANCH  26  27
ENDBRANCH   5  26
BRANCH   4  52
ATOM     52  O   UNL     1      -6.266 -20.099 -31.031  1.00  0.00    -0.384 OA
ATOM     53  H   UNL     1      -5.286 -19.985 -31.101  1.00  0.00     0.211 HD
ENDBRANCH   4  52
TORSDOF 16
ENDMDL
MODEL 9
REMARK VINA RESULT:    -7.886      1.943      6.884
REMARK INTER + INTRA:         -16.031
REMARK INTER:                 -13.490
REMARK INTRA:                  -2.541
REMARK UNBOUND:                -3.075
REMARK SMILES C[C@H]1O[C@H](OC[C@@H]2O[C@@H](Oc3c(-c4ccc(O)c(O)c4)oc4cc(O)cc(O)c4c3=O)[C@H](O)[C@H](O)[C@H]2O)[C@@H](O)[C@@H](O)[C@H]1O
REMARK SMILES IDX 7 1 36 2 34 3 32 4 9 5 8 6 6 7 5 8 4 9 1 10 2 11 42 12 3 13
REMARK SMILES IDX 40 14 38 15 43 16 41 18 39 20 37 22 35 24 10 26 11 27 12 28
REMARK SMILES IDX 30 29 21 30 29 31 31 32 22 33 27 34 23 35 26 36 24 37 13 38
REMARK SMILES IDX 20 39 14 40 18 41 15 42 16 43 19 44 17 46 28 48 25 50 33 52
REMARK H PARENT 43 17 41 19 39 21 37 23 35 25 19 45 17 47 28 49 25 51 33 53
REMARK Flexibility Score: inf
ROOT
ATOM      1  C   UNL     1      -7.934 -18.899 -28.670  1.00  0.00     0.180 C 
ATOM      2  C   UNL     1      -7.536 -17.566 -29.358  1.00  0.00     0.177 C 
ATOM      3  C   UNL     1      -6.289 -17.781 -30.260  1.00  0.00     0.180 C 
ATOM      4  C   UNL     1      -5.271 -18.747 -29.614  1.00  0.00     0.214 C 
ATOM      5  C   UNL     1      -5.586 -18.965 -28.124  1.00  0.00     0.339 C 
ATOM      6  O   UNL     1      -6.881 -19.539 -27.963  1.00  0.00    -0.332 OA
ENDROOT
BRANCH   1   7
ATOM      7  C   UNL     1      -9.103 -18.653 -27.683  1.00  0.00     0.198 C 
BRANCH   7   8
ATOM      8  O   UNL     1      -9.238 -17.288 -27.329  1.00  0.00    -0.347 OA
BRANCH   8   9
ATOM      9  C   UNL     1      -8.855 -17.066 -25.987  1.00  0.00     0.281 C 
ATOM     10  C   UNL     1      -9.744 -18.565 -23.280  1.00  0.00     0.041 C 
ATOM     11  C   UNL     1      -8.435 -18.229 -23.995  1.00  0.00     0.150 C 
ATOM     12  C   UNL     1      -7.751 -16.919 -23.484  1.00  0.00     0.174 C 
ATOM     13  O   UNL     1      -8.613 -18.320 -25.396  1.00  0.00    -0.344 OA
ATOM     14  C   UNL     1      -6.819 -16.378 -24.592  1.00  0.00     0.179 C 
ATOM     15  C   UNL     1      -7.552 -16.227 -25.956  1.00  0.00     0.202 C 
BRANCH  12  16
ATOM     16  O   UNL     1      -8.702 -15.936 -23.158  1.00  0.00    -0.388 OA
ATOM     17  H   UNL     1      -8.944 -16.083 -22.200  1.00  0.00     0.211 HD
ENDBRANCH  12  16
BRANCH  14  18
ATOM     18  O   UNL     1      -6.227 -15.160 -24.201  1.00  0.00    -0.387 OA
ATOM     19  H   UNL     1      -5.364 -15.079 -24.678  1.00  0.00     0.211 HD
ENDBRANCH  14  18
BRANCH  15  20
ATOM     20  O   UNL     1      -7.832 -14.875 -26.260  1.00  0.00    -0.385 OA
ATOM     21  H   UNL     1      -7.112 -14.332 -25.864  1.00  0.00     0.211 HD
ENDBRANCH  15  20
ENDBRANCH   8   9
ENDBRANCH   7   8
ENDBRANCH   1   7
BRANCH   2  22
ATOM     22  O   UNL     1      -8.623 -17.090 -30.119  1.00  0.00    -0.387 OA
ATOM     23  H   UNL     1      -8.401 -17.287 -31.067  1.00  0.00     0.211 HD
ENDBRANCH   2  22
BRANCH   3  24
ATOM     24  O   UNL     1      -5.703 -16.522 -30.496  1.00  0.00    -0.387 OA
ATOM     25  H   UNL     1      -5.139 -16.598 -31.309  1.00  0.00     0.211 HD
ENDBRANCH   3  24
BRANCH   5  26
ATOM     26  O   UNL     1      -4.611 -19.803 -27.474  1.00  0.00    -0.454 OA
BRANCH  26  27
ATOM     27  C   UNL     1      -4.416 -21.152 -27.798  1.00  0.00     0.214 A 
ATOM     28  C   UNL     1      -5.196 -22.184 -27.224  1.00  0.00     0.180 A 
ATOM     29  C   UNL     1      -3.401 -21.489 -28.707  1.00  0.00     0.239 A 
ATOM     30  O   UNL     1      -4.963 -23.434 -27.611  1.00  0.00    -0.452 OA
ATOM     31  C   UNL     1      -3.275 -22.822 -29.174  1.00  0.00     0.111 A 
ATOM     32  O   UNL     1      -2.583 -20.595 -29.034  1.00  0.00    -0.285 OA
ATOM     33  C   UNL     1      -4.087 -23.786 -28.541  1.00  0.00     0.146 A 
ATOM     34  C   UNL     1      -2.430 -23.237 -30.257  1.00  0.00     0.134 A 
ATOM     35  C   UNL     1      -3.999 -25.133 -28.888  1.00  0.00     0.094 A 
ATOM     36  C   UNL     1      -2.412 -24.589 -30.621  1.00  0.00     0.093 A 
ATOM     37  C   UNL     1      -3.183 -25.535 -29.946  1.00  0.00     0.123 A 
BRANCH  28  38
ATOM     38  C   UNL     1      -6.337 -22.008 -26.244  1.00  0.00     0.025 A 
ATOM     39  C   UNL     1      -6.012 -21.536 -24.950  1.00  0.00     0.062 A 
ATOM     40  C   UNL     1      -7.690 -22.376 -26.478  1.00  0.00     0.016 A 
ATOM     41  C   UNL     1      -6.939 -21.577 -23.897  1.00  0.00     0.158 A 
ATOM     42  C   UNL     1      -8.598 -22.450 -25.413  1.00  0.00     0.051 A 
ATOM     43  C   UNL     1      -8.232 -22.084 -24.133  1.00  0.00     0.157 A 
BRANCH  41  44
ATOM     44  O   UNL     1      -6.580 -21.158 -22.616  1.00  0.00    -0.504 OA
ATOM     45  H   UNL     1      -7.252 -20.654 -22.040  1.00  0.00     0.293 HD
ENDBRANCH  41  44
BRANCH  43  46
ATOM     46  O   UNL     1      -9.180 -22.185 -23.107  1.00  0.00    -0.504 OA
ATOM     47  H   UNL     1     -10.148 -22.454 -23.317  1.00  0.00     0.293 HD
ENDBRANCH  43  46
ENDBRANCH  28  38
BRANCH  34  48
ATOM     48  O   UNL     1      -1.611 -22.382 -31.001  1.00  0.00    -0.507 OA
ATOM     49  H   UNL     1      -1.115 -21.591 -30.636  1.00  0.00     0.293 HD
ENDBRANCH  34  48
BRANCH  37  50
ATOM     50  O   UNL     1      -3.136 -26.877 -30.319  1.00  0.00    -0.508 OA
ATOM     51  H   UNL     1      -2.471 -27.508 -29.897  1.00  0.00     0.293 HD
ENDBRANCH  37  50
ENDBRANCH  26  27
ENDBRANCH   5  26
BRANCH   4  52
ATOM     52  O   UNL     1      -3.959 -18.256 -29.775  1.00  0.00    -0.384 OA
ATOM     53  H   UNL     1      -3.822 -17.560 -29.085  1.00  0.00     0.211 HD
ENDBRANCH   4  52
TORSDOF 16
ENDMDL
