MODEL 1
REMARK VINA RESULT:    -3.754      0.000      0.000
REMARK INTER + INTRA:          -3.991
REMARK INTER:                  -3.974
REMARK INTRA:                  -0.018
REMARK UNBOUND:                -0.018
REMARK SMILES O=C([O-])c1cccnc1
REMARK SMILES IDX 4 1 5 2 9 3 6 4 8 5 7 6 2 7 1 8 3 9
REMARK H PARENT
REMARK Flexibility Score: inf
ROOT
ATOM      1  C   UNL     1      52.148 -50.137  -9.476  1.00  0.00     0.016 A 
ATOM      2  C   UNL     1      51.660 -49.098  -8.667  1.00  0.00     0.013 A 
ATOM      3  C   UNL     1      52.127 -49.963 -10.872  1.00  0.00     0.120 A 
ATOM      4  C   UNL     1      51.169 -47.928  -9.249  1.00  0.00     0.021 A 
ATOM      5  N   UNL     1      51.642 -48.814 -11.412  1.00  0.00    -0.264 NA
ATOM      6  C   UNL     1      51.168 -47.803 -10.638  1.00  0.00     0.111 A 
ENDROOT
BRANCH   1   7
ATOM      7  C   UNL     1      52.671 -51.381  -8.872  1.00  0.00     0.073 C 
ATOM      8  O   UNL     1      51.921 -52.125  -8.186  1.00  0.00    -0.545 OA
ATOM      9  O   UNL     1      54.001 -51.745  -9.053  1.00  0.00    -0.545 OA
ENDBRANCH   1   7
TORSDOF 1
ENDMDL
MODEL 2
REMARK VINA RESULT:    -3.720      0.103      1.081
REMARK INTER + INTRA:          -3.955
REMARK INTER:                  -3.937
REMARK INTRA:                  -0.017
REMARK UNBOUND:                -0.018
REMARK SMILES O=C([O-])c1cccnc1
REMARK SMILES IDX 4 1 5 2 9 3 6 4 8 5 7 6 2 7 1 8 3 9
REMARK H PARENT
REMARK Flexibility Score: inf
ROOT
ATOM      1  C   UNL     1      52.112 -50.084  -9.479  1.00  0.00     0.016 A 
ATOM      2  C   UNL     1      51.633 -49.025  -8.691  1.00  0.00     0.013 A 
ATOM      3  C   UNL     1      52.076 -49.946 -10.878  1.00  0.00     0.120 A 
ATOM      4  C   UNL     1      51.136 -47.870  -9.297  1.00  0.00     0.021 A 
ATOM      5  N   UNL     1      51.586 -48.811 -11.443  1.00  0.00    -0.264 NA
ATOM      6  C   UNL     1      51.120 -47.780 -10.689  1.00  0.00     0.111 A 
ENDROOT
BRANCH   1   7
ATOM      7  C   UNL     1      52.643 -51.312  -8.849  1.00  0.00     0.073 C 
ATOM      8  O   UNL     1      53.850 -51.640  -9.000  1.00  0.00    -0.545 OA
ATOM      9  O   UNL     1      51.814 -52.124  -8.082  1.00  0.00    -0.545 OA
ENDBRANCH   1   7
TORSDOF 1
ENDMDL
MODEL 3
REMARK VINA RESULT:    -3.685      2.808      3.623
REMARK INTER + INTRA:          -3.918
REMARK INTER:                  -3.894
REMARK INTRA:                  -0.024
REMARK UNBOUND:                -0.018
REMARK SMILES O=C([O-])c1cccnc1
REMARK SMILES IDX 4 1 5 2 9 3 6 4 8 5 7 6 2 7 1 8 3 9
REMARK H PARENT
REMARK Flexibility Score: inf
ROOT
ATOM      1  C   UNL     1      51.641 -49.101  -9.910  1.00  0.00     0.016 A 
ATOM      2  C   UNL     1      52.364 -49.357  -8.735  1.00  0.00     0.013 A 
ATOM      3  C   UNL     1      51.821 -49.964 -11.007  1.00  0.00     0.120 A 
ATOM      4  C   UNL     1      53.237 -50.445  -8.671  1.00  0.00     0.021 A 
ATOM      5  N   UNL     1      52.678 -51.015 -10.919  1.00  0.00    -0.264 NA
ATOM      6  C   UNL     1      53.383 -51.271  -9.785  1.00  0.00     0.111 A 
ENDROOT
BRANCH   1   7
ATOM      7  C   UNL     1      50.713 -47.953  -9.990  1.00  0.00     0.073 C 
ATOM      8  O   UNL     1      50.666 -47.101  -9.063  1.00  0.00    -0.545 OA
ATOM      9  O   UNL     1      49.876 -47.800 -11.090  1.00  0.00    -0.545 OA
ENDBRANCH   1   7
TORSDOF 1
ENDMDL
MODEL 4
REMARK VINA RESULT:    -3.580      2.339      3.145
REMARK INTER + INTRA:          -3.807
REMARK INTER:                  -3.791
REMARK INTRA:                  -0.016
REMARK UNBOUND:                -0.018
REMARK SMILES O=C([O-])c1cccnc1
REMARK SMILES IDX 4 1 5 2 9 3 6 4 8 5 7 6 2 7 1 8 3 9
REMARK H PARENT
REMARK Flexibility Score: inf
ROOT
ATOM      1  C   UNL     1      52.152 -50.795 -10.380  1.00  0.00     0.016 A 
ATOM      2  C   UNL     1      51.590 -51.665  -9.431  1.00  0.00     0.013 A 
ATOM      3  C   UNL     1      52.458 -49.481  -9.984  1.00  0.00     0.120 A 
ATOM      4  C   UNL     1      51.346 -51.220  -8.130  1.00  0.00     0.021 A 
ATOM      5  N   UNL     1      52.209 -49.073  -8.711  1.00  0.00    -0.264 NA
ATOM      6  C   UNL     1      51.666 -49.907  -7.785  1.00  0.00     0.111 A 
ENDROOT
BRANCH   1   7
ATOM      7  C   UNL     1      52.416 -51.255 -11.760  1.00  0.00     0.073 C 
ATOM      8  O   UNL     1      53.545 -51.714 -12.078  1.00  0.00    -0.545 OA
ATOM      9  O   UNL     1      51.420 -51.183 -12.728  1.00  0.00    -0.545 OA
ENDBRANCH   1   7
TORSDOF 1
ENDMDL
MODEL 5
REMARK VINA RESULT:    -3.374      2.376      3.272
REMARK INTER + INTRA:          -3.589
REMARK INTER:                  -3.565
REMARK INTRA:                  -0.024
REMARK UNBOUND:                -0.018
REMARK SMILES O=C([O-])c1cccnc1
REMARK SMILES IDX 4 1 5 2 9 3 6 4 8 5 7 6 2 7 1 8 3 9
REMARK H PARENT
REMARK Flexibility Score: inf
ROOT
ATOM      1  C   UNL     1      52.011 -49.532 -10.036  1.00  0.00     0.016 A 
ATOM      2  C   UNL     1      51.570 -49.290 -11.347  1.00  0.00     0.013 A 
ATOM      3  C   UNL     1      52.880 -50.614  -9.812  1.00  0.00     0.120 A 
ATOM      4  C   UNL     1      51.993 -50.115 -12.392  1.00  0.00     0.021 A 
ATOM      5  N   UNL     1      53.275 -51.402 -10.846  1.00  0.00    -0.264 NA
ATOM      6  C   UNL     1      52.855 -51.177 -12.119  1.00  0.00     0.111 A 
ENDROOT
BRANCH   1   7
ATOM      7  C   UNL     1      51.571 -48.665  -8.922  1.00  0.00     0.073 C 
ATOM      8  O   UNL     1      50.884 -47.633  -9.145  1.00  0.00    -0.545 OA
ATOM      9  O   UNL     1      51.911 -48.979  -7.610  1.00  0.00    -0.545 OA
ENDBRANCH   1   7
TORSDOF 1
ENDMDL
MODEL 6
REMARK VINA RESULT:    -3.156      3.021      4.066
REMARK INTER + INTRA:          -3.358
REMARK INTER:                  -3.341
REMARK INTRA:                  -0.018
REMARK UNBOUND:                -0.018
REMARK SMILES O=C([O-])c1cccnc1
REMARK SMILES IDX 4 1 5 2 9 3 6 4 8 5 7 6 2 7 1 8 3 9
REMARK H PARENT
REMARK Flexibility Score: inf
ROOT
ATOM      1  C   UNL     1      51.985 -49.292 -10.791  1.00  0.00     0.016 A 
ATOM      2  C   UNL     1      52.455 -50.594 -11.029  1.00  0.00     0.013 A 
ATOM      3  C   UNL     1      52.223 -48.716  -9.530  1.00  0.00     0.120 A 
ATOM      4  C   UNL     1      53.139 -51.287 -10.028  1.00  0.00     0.021 A 
ATOM      5  N   UNL     1      52.890 -49.413  -8.573  1.00  0.00    -0.264 NA
ATOM      6  C   UNL     1      53.349 -50.673  -8.793  1.00  0.00     0.111 A 
ENDROOT
BRANCH   1   7
ATOM      7  C   UNL     1      51.261 -48.548 -11.843  1.00  0.00     0.073 C 
ATOM      8  O   UNL     1      51.813 -48.299 -12.948  1.00  0.00    -0.545 OA
ATOM      9  O   UNL     1      49.959 -48.110 -11.626  1.00  0.00    -0.545 OA
ENDBRANCH   1   7
TORSDOF 1
ENDMDL
MODEL 7
REMARK VINA RESULT:    -3.106     16.309     17.124
REMARK INTER + INTRA:          -3.305
REMARK INTER:                  -3.286
REMARK INTRA:                  -0.019
REMARK UNBOUND:                -0.018
REMARK SMILES O=C([O-])c1cccnc1
REMARK SMILES IDX 4 1 5 2 9 3 6 4 8 5 7 6 2 7 1 8 3 9
REMARK H PARENT
REMARK Flexibility Score: inf
ROOT
ATOM      1  C   UNL     1      36.276 -49.405 -15.797  1.00  0.00     0.016 A 
ATOM      2  C   UNL     1      35.457 -49.280 -16.931  1.00  0.00     0.013 A 
ATOM      3  C   UNL     1      37.045 -48.295 -15.403  1.00  0.00     0.120 A 
ATOM      4  C   UNL     1      35.417 -48.076 -17.638  1.00  0.00     0.021 A 
ATOM      5  N   UNL     1      36.988 -47.136 -16.110  1.00  0.00    -0.264 NA
ATOM      6  C   UNL     1      36.198 -47.004 -17.207  1.00  0.00     0.111 A 
ENDROOT
BRANCH   1   7
ATOM      7  C   UNL     1      36.326 -50.673 -15.040  1.00  0.00     0.073 C 
ATOM      8  O   UNL     1      36.519 -51.768 -15.634  1.00  0.00    -0.545 OA
ATOM      9  O   UNL     1      36.159 -50.675 -13.659  1.00  0.00    -0.545 OA
ENDBRANCH   1   7
TORSDOF 1
ENDMDL
MODEL 8
REMARK VINA RESULT:    -3.041     16.095     16.862
REMARK INTER + INTRA:          -3.236
REMARK INTER:                  -3.220
REMARK INTRA:                  -0.017
REMARK UNBOUND:                -0.018
REMARK SMILES O=C([O-])c1cccnc1
REMARK SMILES IDX 4 1 5 2 9 3 6 4 8 5 7 6 2 7 1 8 3 9
REMARK H PARENT
REMARK Flexibility Score: inf
ROOT
ATOM      1  C   UNL     1      36.858 -50.340 -15.666  1.00  0.00     0.016 A 
ATOM      2  C   UNL     1      37.599 -51.029 -16.639  1.00  0.00     0.013 A 
ATOM      3  C   UNL     1      35.472 -50.567 -15.596  1.00  0.00     0.120 A 
ATOM      4  C   UNL     1      36.961 -51.915 -17.510  1.00  0.00     0.021 A 
ATOM      5  N   UNL     1      34.875 -51.434 -16.456  1.00  0.00    -0.264 NA
ATOM      6  C   UNL     1      35.583 -52.106 -17.402  1.00  0.00     0.111 A 
ENDROOT
BRANCH   1   7
ATOM      7  C   UNL     1      37.523 -49.401 -14.738  1.00  0.00     0.073 C 
ATOM      8  O   UNL     1      37.937 -48.283 -15.145  1.00  0.00    -0.545 OA
ATOM      9  O   UNL     1      37.701 -49.740 -13.401  1.00  0.00    -0.545 OA
ENDBRANCH   1   7
TORSDOF 1
ENDMDL
MODEL 9
REMARK VINA RESULT:    -1.565     17.176     18.027
REMARK INTER + INTRA:          -1.674
REMARK INTER:                  -1.658
REMARK INTRA:                  -0.016
REMARK UNBOUND:                -0.018
REMARK SMILES O=C([O-])c1cccnc1
REMARK SMILES IDX 4 1 5 2 9 3 6 4 8 5 7 6 2 7 1 8 3 9
REMARK H PARENT
REMARK Flexibility Score: inf
ROOT
ATOM      1  C   UNL     1      36.065 -49.106 -17.093  1.00  0.00     0.016 A 
ATOM      2  C   UNL     1      34.875 -49.848 -17.158  1.00  0.00     0.013 A 
ATOM      3  C   UNL     1      37.251 -49.774 -16.739  1.00  0.00     0.120 A 
ATOM      4  C   UNL     1      34.885 -51.215 -16.874  1.00  0.00     0.021 A 
ATOM      5  N   UNL     1      37.232 -51.106 -16.466  1.00  0.00    -0.264 NA
ATOM      6  C   UNL     1      36.086 -51.833 -16.526  1.00  0.00     0.111 A 
ENDROOT
BRANCH   1   7
ATOM      7  C   UNL     1      36.068 -47.658 -17.392  1.00  0.00     0.073 C 
ATOM      8  O   UNL     1      36.166 -47.249 -18.580  1.00  0.00    -0.545 OA
ATOM      9  O   UNL     1      35.965 -46.727 -16.364  1.00  0.00    -0.545 OA
ENDBRANCH   1   7
TORSDOF 1
ENDMDL
