MODEL 1
REMARK VINA RESULT:    16.485      0.000      0.000
REMARK INTER + INTRA:          46.895
REMARK INTER:                  43.469
REMARK INTRA:                   3.427
REMARK UNBOUND:                 3.427
REMARK SMILES CCCCCCCCCCCCCCCCCCCCCCCCCCCCCC(=O)[O-]
REMARK SMILES IDX 16 1 17 2 18 3 19 4 20 5 21 6 22 7 23 8 24 9 25 10 26 11
REMARK SMILES IDX 27 12 28 13 29 14 30 15 31 16 32 17 15 18 14 19 13 20 12 21
REMARK SMILES IDX 11 22 10 23 9 24 8 25 7 26 6 27 5 28 4 29 3 30 2 31 1 32
REMARK H PARENT
REMARK Flexibility Score: inf
ROOT
ATOM      1  C   UNL     1       8.588 -29.679 -12.026  1.00  0.00     0.000 C 
ENDROOT
BRANCH   1   2
ATOM      2  C   UNL     1       7.600 -29.567 -13.201  1.00  0.00     0.000 C 
BRANCH   2   3
ATOM      3  C   UNL     1       8.306 -29.271 -14.535  1.00  0.00     0.000 C 
BRANCH   3   4
ATOM      4  C   UNL     1       7.477 -28.353 -15.450  1.00  0.00     0.000 C 
BRANCH   4   5
ATOM      5  C   UNL     1       7.394 -28.876 -16.893  1.00  0.00     0.000 C 
BRANCH   5   6
ATOM      6  C   UNL     1       6.370 -28.104 -17.740  1.00  0.00     0.000 C 
BRANCH   6   7
ATOM      7  C   UNL     1       6.061 -28.845 -19.047  1.00  0.00     0.000 C 
BRANCH   7   8
ATOM      8  C   UNL     1       7.040 -28.425 -20.155  1.00  0.00     0.000 C 
BRANCH   8   9
ATOM      9  C   UNL     1       7.485 -29.607 -21.029  1.00  0.00     0.000 C 
BRANCH   9  10
ATOM     10  C   UNL     1       8.848 -30.180 -20.600  1.00  0.00     0.000 C 
BRANCH  10  11
ATOM     11  C   UNL     1       9.254 -29.736 -19.181  1.00  0.00     0.000 C 
BRANCH  11  12
ATOM     12  C   UNL     1       9.353 -30.888 -18.162  1.00  0.00     0.000 C 
BRANCH  12  13
ATOM     13  C   UNL     1      10.100 -30.516 -16.866  1.00  0.00     0.006 C 
BRANCH  13  14
ATOM     14  C   UNL     1       9.575 -31.290 -15.648  1.00  0.00     0.053 C 
BRANCH  14  15
ATOM     15  C   UNL     1       9.236 -32.700 -16.017  1.00  0.00     0.041 C 
ATOM     16  O   UNL     1       8.688 -33.463 -15.176  1.00  0.00    -0.550 OA
ATOM     17  O   UNL     1       9.508 -33.168 -17.296  1.00  0.00    -0.550 OA
ENDBRANCH  14  15
ENDBRANCH  13  14
ENDBRANCH  12  13
ENDBRANCH  11  12
ENDBRANCH  10  11
ENDBRANCH   9  10
ENDBRANCH   8   9
ENDBRANCH   7   8
ENDBRANCH   6   7
ENDBRANCH   5   6
ENDBRANCH   4   5
ENDBRANCH   3   4
ENDBRANCH   2   3
ENDBRANCH   1   2
BRANCH   1  18
ATOM     18  C   UNL     1       7.945 -29.325 -10.676  1.00  0.00     0.000 C 
BRANCH  18  19
ATOM     19  C   UNL     1       8.872 -29.606  -9.484  1.00  0.00     0.000 C 
BRANCH  19  20
ATOM     20  C   UNL     1      10.260 -28.985  -9.712  1.00  0.00     0.000 C 
BRANCH  20  21
ATOM     21  C   UNL     1      10.296 -27.477  -9.419  1.00  0.00     0.000 C 
BRANCH  21  22
ATOM     22  C   UNL     1       8.891 -26.862  -9.302  1.00  0.00     0.000 C 
BRANCH  22  23
ATOM     23  C   UNL     1       8.905 -25.461  -8.661  1.00  0.00     0.000 C 
BRANCH  23  24
ATOM     24  C   UNL     1       8.386 -25.404  -7.212  1.00  0.00    -0.000 C 
BRANCH  24  25
ATOM     25  C   UNL     1       7.604 -24.117  -6.906  1.00  0.00    -0.000 C 
BRANCH  25  26
ATOM     26  C   UNL     1       6.984 -24.168  -5.504  1.00  0.00    -0.000 C 
BRANCH  26  27
ATOM     27  C   UNL     1       8.052 -24.473  -4.444  1.00  0.00    -0.000 C 
BRANCH  27  28
ATOM     28  C   UNL     1       9.129 -25.452  -4.945  1.00  0.00    -0.000 C 
BRANCH  28  29
ATOM     29  C   UNL     1      10.313 -25.665  -3.981  1.00  0.00    -0.000 C 
BRANCH  29  30
ATOM     30  C   UNL     1      11.005 -27.040  -4.084  1.00  0.00    -0.000 C 
BRANCH  30  31
ATOM     31  C   UNL     1      12.101 -27.134  -5.160  1.00  0.00    -0.003 C 
ATOM     32  C   UNL     1      12.970 -25.879  -5.237  1.00  0.00     0.004 C 
ENDBRANCH  30  31
ENDBRANCH  29  30
ENDBRANCH  28  29
ENDBRANCH  27  28
ENDBRANCH  26  27
ENDBRANCH  25  26
ENDBRANCH  24  25
ENDBRANCH  23  24
ENDBRANCH  22  23
ENDBRANCH  21  22
ENDBRANCH  20  21
ENDBRANCH  19  20
ENDBRANCH  18  19
ENDBRANCH   1  18
TORSDOF 28
ENDMDL
MODEL 2
REMARK VINA RESULT:    16.561      3.509     11.756
REMARK INTER + INTRA:          47.097
REMARK INTER:                  44.715
REMARK INTRA:                   2.382
REMARK UNBOUND:                 3.427
REMARK SMILES CCCCCCCCCCCCCCCCCCCCCCCCCCCCCC(=O)[O-]
REMARK SMILES IDX 16 1 17 2 18 3 19 4 20 5 21 6 22 7 23 8 24 9 25 10 26 11
REMARK SMILES IDX 27 12 28 13 29 14 30 15 31 16 32 17 15 18 14 19 13 20 12 21
REMARK SMILES IDX 11 22 10 23 9 24 8 25 7 26 6 27 5 28 4 29 3 30 2 31 1 32
REMARK H PARENT
REMARK Flexibility Score: inf
ROOT
ATOM      1  C   UNL     1       9.123 -30.057 -11.974  1.00  0.00     0.000 C 
ENDROOT
BRANCH   1   2
ATOM      2  C   UNL     1      10.476 -30.233 -11.261  1.00  0.00     0.000 C 
BRANCH   2   3
ATOM      3  C   UNL     1      10.395 -29.907  -9.760  1.00  0.00     0.000 C 
BRANCH   3   4
ATOM      4  C   UNL     1       8.961 -29.583  -9.304  1.00  0.00     0.000 C 
BRANCH   4   5
ATOM      5  C   UNL     1       8.599 -28.101  -9.500  1.00  0.00     0.000 C 
BRANCH   5   6
ATOM      6  C   UNL     1       9.836 -27.191  -9.518  1.00  0.00     0.000 C 
BRANCH   6   7
ATOM      7  C   UNL     1       9.486 -25.771  -9.056  1.00  0.00     0.000 C 
BRANCH   7   8
ATOM      8  C   UNL     1       8.387 -25.802  -7.983  1.00  0.00     0.000 C 
BRANCH   8   9
ATOM      9  C   UNL     1       8.141 -24.426  -7.348  1.00  0.00     0.000 C 
BRANCH   9  10
ATOM     10  C   UNL     1       7.471 -24.522  -5.966  1.00  0.00     0.000 C 
BRANCH  10  11
ATOM     11  C   UNL     1       8.497 -24.609  -4.819  1.00  0.00     0.000 C 
BRANCH  11  12
ATOM     12  C   UNL     1       9.191 -25.979  -4.694  1.00  0.00     0.000 C 
BRANCH  12  13
ATOM     13  C   UNL     1      10.727 -25.897  -4.583  1.00  0.00     0.006 C 
BRANCH  13  14
ATOM     14  C   UNL     1      11.363 -27.260  -4.277  1.00  0.00     0.053 C 
BRANCH  14  15
ATOM     15  C   UNL     1      12.809 -27.273  -4.664  1.00  0.00     0.041 C 
ATOM     16  O   UNL     1      13.554 -28.224  -4.304  1.00  0.00    -0.550 OA
ATOM     17  O   UNL     1      13.330 -26.245  -5.439  1.00  0.00    -0.550 OA
ENDBRANCH  14  15
ENDBRANCH  13  14
ENDBRANCH  12  13
ENDBRANCH  11  12
ENDBRANCH  10  11
ENDBRANCH   9  10
ENDBRANCH   8   9
ENDBRANCH   7   8
ENDBRANCH   6   7
ENDBRANCH   5   6
ENDBRANCH   4   5
ENDBRANCH   3   4
ENDBRANCH   2   3
ENDBRANCH   1   2
BRANCH   1  18
ATOM     18  C   UNL     1       9.267 -29.951 -13.500  1.00  0.00     0.000 C 
BRANCH  18  19
ATOM     19  C   UNL     1       7.926 -29.702 -14.207  1.00  0.00     0.000 C 
BRANCH  19  20
ATOM     20  C   UNL     1       8.145 -29.060 -15.586  1.00  0.00     0.000 C 
BRANCH  20  21
ATOM     21  C   UNL     1       6.992 -28.134 -16.006  1.00  0.00     0.000 C 
BRANCH  21  22
ATOM     22  C   UNL     1       6.259 -28.634 -17.262  1.00  0.00     0.000 C 
BRANCH  22  23
ATOM     23  C   UNL     1       7.033 -28.338 -18.562  1.00  0.00     0.000 C 
BRANCH  23  24
ATOM     24  C   UNL     1       6.201 -28.447 -19.853  1.00  0.00    -0.000 C 
BRANCH  24  25
ATOM     25  C   UNL     1       6.864 -29.330 -20.921  1.00  0.00    -0.000 C 
BRANCH  25  26
ATOM     26  C   UNL     1       8.392 -29.201 -20.873  1.00  0.00    -0.000 C 
BRANCH  26  27
ATOM     27  C   UNL     1       9.004 -30.274 -19.961  1.00  0.00    -0.000 C 
BRANCH  27  28
ATOM     28  C   UNL     1       8.931 -29.904 -18.469  1.00  0.00    -0.000 C 
BRANCH  28  29
ATOM     29  C   UNL     1      10.114 -30.404 -17.616  1.00  0.00    -0.000 C 
BRANCH  29  30
ATOM     30  C   UNL     1       9.724 -31.108 -16.300  1.00  0.00    -0.000 C 
BRANCH  30  31
ATOM     31  C   UNL     1       9.222 -32.554 -16.462  1.00  0.00    -0.003 C 
ATOM     32  C   UNL     1       8.901 -33.226 -15.128  1.00  0.00     0.004 C 
ENDBRANCH  30  31
ENDBRANCH  29  30
ENDBRANCH  28  29
ENDBRANCH  27  28
ENDBRANCH  26  27
ENDBRANCH  25  26
ENDBRANCH  24  25
ENDBRANCH  23  24
ENDBRANCH  22  23
ENDBRANCH  21  22
ENDBRANCH  20  21
ENDBRANCH  19  20
ENDBRANCH  18  19
ENDBRANCH   1  18
TORSDOF 28
ENDMDL
MODEL 3
REMARK VINA RESULT:    16.648      3.377     11.819
REMARK INTER + INTRA:          47.326
REMARK INTER:                  47.479
REMARK INTRA:                  -0.154
REMARK UNBOUND:                 3.427
REMARK SMILES CCCCCCCCCCCCCCCCCCCCCCCCCCCCCC(=O)[O-]
REMARK SMILES IDX 16 1 17 2 18 3 19 4 20 5 21 6 22 7 23 8 24 9 25 10 26 11
REMARK SMILES IDX 27 12 28 13 29 14 30 15 31 16 32 17 15 18 14 19 13 20 12 21
REMARK SMILES IDX 11 22 10 23 9 24 8 25 7 26 6 27 5 28 4 29 3 30 2 31 1 32
REMARK H PARENT
REMARK Flexibility Score: inf
ROOT
ATOM      1  C   UNL     1       8.989 -30.008 -13.592  1.00  0.00     0.000 C 
ENDROOT
BRANCH   1   2
ATOM      2  C   UNL     1       8.322 -29.780 -12.223  1.00  0.00     0.000 C 
BRANCH   2   3
ATOM      3  C   UNL     1       9.306 -29.949 -11.055  1.00  0.00     0.000 C 
BRANCH   3   4
ATOM      4  C   UNL     1       8.901 -29.127  -9.819  1.00  0.00     0.000 C 
BRANCH   4   5
ATOM      5  C   UNL     1       9.954 -28.073  -9.438  1.00  0.00     0.000 C 
BRANCH   5   6
ATOM      6  C   UNL     1       9.402 -27.014  -8.472  1.00  0.00     0.000 C 
BRANCH   6   7
ATOM      7  C   UNL     1       8.876 -25.790  -9.232  1.00  0.00     0.000 C 
BRANCH   7   8
ATOM      8  C   UNL     1       8.689 -24.598  -8.281  1.00  0.00     0.000 C 
BRANCH   8   9
ATOM      9  C   UNL     1       7.591 -24.843  -7.235  1.00  0.00     0.000 C 
BRANCH   9  10
ATOM     10  C   UNL     1       7.865 -24.114  -5.907  1.00  0.00     0.000 C 
BRANCH  10  11
ATOM     11  C   UNL     1       7.953 -25.082  -4.711  1.00  0.00     0.000 C 
BRANCH  11  12
ATOM     12  C   UNL     1       9.376 -25.266  -4.149  1.00  0.00     0.000 C 
BRANCH  12  13
ATOM     13  C   UNL     1      10.348 -25.966  -5.120  1.00  0.00     0.006 C 
BRANCH  13  14
ATOM     14  C   UNL     1      11.797 -25.492  -4.936  1.00  0.00     0.053 C 
BRANCH  14  15
ATOM     15  C   UNL     1      12.751 -26.642  -5.029  1.00  0.00     0.041 C 
ATOM     16  O   UNL     1      12.674 -27.598  -4.212  1.00  0.00    -0.550 OA
ATOM     17  O   UNL     1      13.713 -26.667  -6.031  1.00  0.00    -0.550 OA
ENDBRANCH  14  15
ENDBRANCH  13  14
ENDBRANCH  12  13
ENDBRANCH  11  12
ENDBRANCH  10  11
ENDBRANCH   9  10
ENDBRANCH   8   9
ENDBRANCH   7   8
ENDBRANCH   6   7
ENDBRANCH   5   6
ENDBRANCH   4   5
ENDBRANCH   3   4
ENDBRANCH   2   3
ENDBRANCH   1   2
BRANCH   1  18
ATOM     18  C   UNL     1       8.066 -29.654 -14.768  1.00  0.00     0.000 C 
BRANCH  18  19
ATOM     19  C   UNL     1       7.828 -28.142 -14.902  1.00  0.00     0.000 C 
BRANCH  19  20
ATOM     20  C   UNL     1       6.855 -27.842 -16.054  1.00  0.00     0.000 C 
BRANCH  20  21
ATOM     21  C   UNL     1       7.035 -28.787 -17.252  1.00  0.00     0.000 C 
BRANCH  21  22
ATOM     22  C   UNL     1       6.514 -28.183 -18.567  1.00  0.00     0.000 C 
BRANCH  22  23
ATOM     23  C   UNL     1       6.214 -29.251 -19.636  1.00  0.00     0.000 C 
BRANCH  23  24
ATOM     24  C   UNL     1       6.794 -28.956 -21.032  1.00  0.00    -0.000 C 
BRANCH  24  25
ATOM     25  C   UNL     1       8.264 -29.379 -21.171  1.00  0.00    -0.000 C 
BRANCH  25  26
ATOM     26  C   UNL     1       8.743 -30.133 -19.924  1.00  0.00    -0.000 C 
BRANCH  26  27
ATOM     27  C   UNL     1       9.786 -29.310 -19.154  1.00  0.00    -0.000 C 
BRANCH  27  28
ATOM     28  C   UNL     1      10.197 -29.961 -17.822  1.00  0.00    -0.000 C 
BRANCH  28  29
ATOM     29  C   UNL     1       9.122 -30.859 -17.177  1.00  0.00    -0.000 C 
BRANCH  29  30
ATOM     30  C   UNL     1       9.617 -31.747 -16.018  1.00  0.00    -0.000 C 
BRANCH  30  31
ATOM     31  C   UNL     1       8.950 -33.132 -15.933  1.00  0.00    -0.003 C 
ATOM     32  C   UNL     1       8.775 -33.622 -14.496  1.00  0.00     0.004 C 
ENDBRANCH  30  31
ENDBRANCH  29  30
ENDBRANCH  28  29
ENDBRANCH  27  28
ENDBRANCH  26  27
ENDBRANCH  25  26
ENDBRANCH  24  25
ENDBRANCH  23  24
ENDBRANCH  22  23
ENDBRANCH  21  22
ENDBRANCH  20  21
ENDBRANCH  19  20
ENDBRANCH  18  19
ENDBRANCH   1  18
TORSDOF 28
ENDMDL
MODEL 4
REMARK VINA RESULT:    17.289      0.768      2.237
REMARK INTER + INTRA:          49.017
REMARK INTER:                  49.117
REMARK INTRA:                  -0.101
REMARK UNBOUND:                 3.427
REMARK SMILES CCCCCCCCCCCCCCCCCCCCCCCCCCCCCC(=O)[O-]
REMARK SMILES IDX 16 1 17 2 18 3 19 4 20 5 21 6 22 7 23 8 24 9 25 10 26 11
REMARK SMILES IDX 27 12 28 13 29 14 30 15 31 16 32 17 15 18 14 19 13 20 12 21
REMARK SMILES IDX 11 22 10 23 9 24 8 25 7 26 6 27 5 28 4 29 3 30 2 31 1 32
REMARK H PARENT
REMARK Flexibility Score: inf
ROOT
ATOM      1  C   UNL     1       7.451 -28.643 -14.340  1.00  0.00     0.000 C 
ENDROOT
BRANCH   1   2
ATOM      2  C   UNL     1       7.704 -28.122 -15.767  1.00  0.00     0.000 C 
BRANCH   2   3
ATOM      3  C   UNL     1       6.879 -28.878 -16.822  1.00  0.00     0.000 C 
BRANCH   3   4
ATOM      4  C   UNL     1       6.461 -27.979 -17.999  1.00  0.00     0.000 C 
BRANCH   4   5
ATOM      5  C   UNL     1       6.220 -28.772 -19.293  1.00  0.00     0.000 C 
BRANCH   5   6
ATOM      6  C   UNL     1       6.117 -27.865 -20.528  1.00  0.00     0.000 C 
BRANCH   6   7
ATOM      7  C   UNL     1       6.601 -28.590 -21.790  1.00  0.00     0.000 C 
BRANCH   7   8
ATOM      8  C   UNL     1       7.583 -29.715 -21.430  1.00  0.00     0.000 C 
BRANCH   8   9
ATOM      9  C   UNL     1       8.999 -29.196 -21.142  1.00  0.00     0.000 C 
BRANCH   9  10
ATOM     10  C   UNL     1       9.736 -30.037 -20.086  1.00  0.00     0.000 C 
BRANCH  10  11
ATOM     11  C   UNL     1       8.911 -30.218 -18.796  1.00  0.00     0.000 C 
BRANCH  11  12
ATOM     12  C   UNL     1       9.592 -29.672 -17.527  1.00  0.00     0.000 C 
BRANCH  12  13
ATOM     13  C   UNL     1      10.375 -30.733 -16.728  1.00  0.00     0.006 C 
BRANCH  13  14
ATOM     14  C   UNL     1       9.519 -31.386 -15.632  1.00  0.00     0.053 C 
BRANCH  14  15
ATOM     15  C   UNL     1       9.156 -32.790 -16.004  1.00  0.00     0.041 C 
ATOM     16  O   UNL     1       8.738 -33.591 -15.125  1.00  0.00    -0.550 OA
ATOM     17  O   UNL     1       9.261 -33.208 -17.324  1.00  0.00    -0.550 OA
ENDBRANCH  14  15
ENDBRANCH  13  14
ENDBRANCH  12  13
ENDBRANCH  11  12
ENDBRANCH  10  11
ENDBRANCH   9  10
ENDBRANCH   8   9
ENDBRANCH   7   8
ENDBRANCH   6   7
ENDBRANCH   5   6
ENDBRANCH   4   5
ENDBRANCH   3   4
ENDBRANCH   2   3
ENDBRANCH   1   2
BRANCH   1  18
ATOM     18  C   UNL     1       8.518 -29.646 -13.877  1.00  0.00     0.000 C 
BRANCH  18  19
ATOM     19  C   UNL     1       8.229 -30.220 -12.482  1.00  0.00     0.000 C 
BRANCH  19  20
ATOM     20  C   UNL     1       7.843 -29.102 -11.500  1.00  0.00     0.000 C 
BRANCH  20  21
ATOM     21  C   UNL     1       7.833 -29.569 -10.036  1.00  0.00     0.000 C 
BRANCH  21  22
ATOM     22  C   UNL     1       9.193 -29.378  -9.344  1.00  0.00     0.000 C 
BRANCH  22  23
ATOM     23  C   UNL     1       9.954 -28.139  -9.854  1.00  0.00     0.000 C 
BRANCH  23  24
ATOM     24  C   UNL     1      10.034 -26.969  -8.857  1.00  0.00    -0.000 C 
BRANCH  24  25
ATOM     25  C   UNL     1       8.672 -26.308  -8.598  1.00  0.00    -0.000 C 
BRANCH  25  26
ATOM     26  C   UNL     1       8.816 -25.086  -7.682  1.00  0.00    -0.000 C 
BRANCH  26  27
ATOM     27  C   UNL     1       7.594 -24.944  -6.763  1.00  0.00    -0.000 C 
BRANCH  27  28
ATOM     28  C   UNL     1       7.975 -24.803  -5.279  1.00  0.00    -0.000 C 
BRANCH  28  29
ATOM     29  C   UNL     1       9.491 -24.747  -4.999  1.00  0.00    -0.000 C 
BRANCH  29  30
ATOM     30  C   UNL     1      10.048 -25.917  -4.162  1.00  0.00    -0.000 C 
BRANCH  30  31
ATOM     31  C   UNL     1      11.172 -26.721  -4.840  1.00  0.00    -0.003 C 
ATOM     32  C   UNL     1      12.404 -25.872  -5.156  1.00  0.00     0.004 C 
ENDBRANCH  30  31
ENDBRANCH  29  30
ENDBRANCH  28  29
ENDBRANCH  27  28
ENDBRANCH  26  27
ENDBRANCH  25  26
ENDBRANCH  24  25
ENDBRANCH  23  24
ENDBRANCH  22  23
ENDBRANCH  21  22
ENDBRANCH  20  21
ENDBRANCH  19  20
ENDBRANCH  18  19
ENDBRANCH   1  18
TORSDOF 28
ENDMDL
MODEL 5
REMARK VINA RESULT:    17.353      3.546     12.434
REMARK INTER + INTRA:          49.184
REMARK INTER:                  48.239
REMARK INTRA:                   0.945
REMARK UNBOUND:                 3.427
REMARK SMILES CCCCCCCCCCCCCCCCCCCCCCCCCCCCCC(=O)[O-]
REMARK SMILES IDX 16 1 17 2 18 3 19 4 20 5 21 6 22 7 23 8 24 9 25 10 26 11
REMARK SMILES IDX 27 12 28 13 29 14 30 15 31 16 32 17 15 18 14 19 13 20 12 21
REMARK SMILES IDX 11 22 10 23 9 24 8 25 7 26 6 27 5 28 4 29 3 30 2 31 1 32
REMARK H PARENT
REMARK Flexibility Score: inf
ROOT
ATOM      1  C   UNL     1      10.516 -30.548 -11.440  1.00  0.00     0.000 C 
ENDROOT
BRANCH   1   2
ATOM      2  C   UNL     1      10.742 -29.807 -10.110  1.00  0.00     0.000 C 
BRANCH   2   3
ATOM      3  C   UNL     1       9.468 -29.741  -9.251  1.00  0.00     0.000 C 
BRANCH   3   4
ATOM      4  C   UNL     1       8.792 -28.360  -9.304  1.00  0.00     0.000 C 
BRANCH   4   5
ATOM      5  C   UNL     1       9.802 -27.203  -9.238  1.00  0.00     0.000 C 
BRANCH   5   6
ATOM      6  C   UNL     1       9.131 -25.853  -8.946  1.00  0.00     0.000 C 
BRANCH   6   7
ATOM      7  C   UNL     1       8.161 -25.960  -7.762  1.00  0.00     0.000 C 
BRANCH   7   8
ATOM      8  C   UNL     1       8.036 -24.612  -7.036  1.00  0.00     0.000 C 
BRANCH   8   9
ATOM      9  C   UNL     1       6.799 -24.542  -6.129  1.00  0.00     0.000 C 
BRANCH   9  10
ATOM     10  C   UNL     1       7.104 -23.914  -4.758  1.00  0.00     0.000 C 
BRANCH  10  11
ATOM     11  C   UNL     1       8.527 -24.242  -4.264  1.00  0.00     0.000 C 
BRANCH  11  12
ATOM     12  C   UNL     1       9.003 -25.667  -4.605  1.00  0.00     0.000 C 
BRANCH  12  13
ATOM     13  C   UNL     1      10.457 -25.960  -4.186  1.00  0.00     0.006 C 
BRANCH  13  14
ATOM     14  C   UNL     1      11.411 -26.011  -5.389  1.00  0.00     0.053 C 
BRANCH  14  15
ATOM     15  C   UNL     1      12.677 -26.727  -5.037  1.00  0.00     0.041 C 
ATOM     16  O   UNL     1      13.779 -26.336  -5.507  1.00  0.00    -0.550 OA
ATOM     17  O   UNL     1      12.643 -27.814  -4.172  1.00  0.00    -0.550 OA
ENDBRANCH  14  15
ENDBRANCH  13  14
ENDBRANCH  12  13
ENDBRANCH  11  12
ENDBRANCH  10  11
ENDBRANCH   9  10
ENDBRANCH   8   9
ENDBRANCH   7   8
ENDBRANCH   6   7
ENDBRANCH   5   6
ENDBRANCH   4   5
ENDBRANCH   3   4
ENDBRANCH   2   3
ENDBRANCH   1   2
BRANCH   1  18
ATOM     18  C   UNL     1       9.525 -29.823 -12.362  1.00  0.00     0.000 C 
BRANCH  18  19
ATOM     19  C   UNL     1       8.851 -30.767 -13.370  1.00  0.00     0.000 C 
BRANCH  19  20
ATOM     20  C   UNL     1       9.082 -30.285 -14.811  1.00  0.00     0.000 C 
BRANCH  20  21
ATOM     21  C   UNL     1       9.659 -31.379 -15.722  1.00  0.00     0.000 C 
BRANCH  21  22
ATOM     22  C   UNL     1       9.541 -31.030 -17.216  1.00  0.00     0.000 C 
BRANCH  22  23
ATOM     23  C   UNL     1       9.066 -29.583 -17.454  1.00  0.00     0.000 C 
BRANCH  23  24
ATOM     24  C   UNL     1       7.724 -29.222 -16.791  1.00  0.00    -0.000 C 
BRANCH  24  25
ATOM     25  C   UNL     1       6.862 -28.287 -17.652  1.00  0.00    -0.000 C 
BRANCH  25  26
ATOM     26  C   UNL     1       6.718 -28.828 -19.080  1.00  0.00    -0.000 C 
BRANCH  26  27
ATOM     27  C   UNL     1       6.141 -27.755 -20.015  1.00  0.00    -0.000 C 
BRANCH  27  28
ATOM     28  C   UNL     1       6.088 -28.209 -21.485  1.00  0.00    -0.000 C 
BRANCH  28  29
ATOM     29  C   UNL     1       7.013 -29.392 -21.834  1.00  0.00    -0.000 C 
BRANCH  29  30
ATOM     30  C   UNL     1       8.439 -29.306 -21.253  1.00  0.00    -0.000 C 
BRANCH  30  31
ATOM     31  C   UNL     1       8.925 -30.579 -20.538  1.00  0.00    -0.003 C 
ATOM     32  C   UNL     1       8.552 -31.860 -21.283  1.00  0.00     0.004 C 
ENDBRANCH  30  31
ENDBRANCH  29  30
ENDBRANCH  28  29
ENDBRANCH  27  28
ENDBRANCH  26  27
ENDBRANCH  25  26
ENDBRANCH  24  25
ENDBRANCH  23  24
ENDBRANCH  22  23
ENDBRANCH  21  22
ENDBRANCH  20  21
ENDBRANCH  19  20
ENDBRANCH  18  19
ENDBRANCH   1  18
TORSDOF 28
ENDMDL
MODEL 6
REMARK VINA RESULT:    17.573      3.316     12.371
REMARK INTER + INTRA:          49.765
REMARK INTER:                  50.021
REMARK INTRA:                  -0.256
REMARK UNBOUND:                 3.427
REMARK SMILES CCCCCCCCCCCCCCCCCCCCCCCCCCCCCC(=O)[O-]
REMARK SMILES IDX 16 1 17 2 18 3 19 4 20 5 21 6 22 7 23 8 24 9 25 10 26 11
REMARK SMILES IDX 27 12 28 13 29 14 30 15 31 16 32 17 15 18 14 19 13 20 12 21
REMARK SMILES IDX 11 22 10 23 9 24 8 25 7 26 6 27 5 28 4 29 3 30 2 31 1 32
REMARK H PARENT
REMARK Flexibility Score: inf
ROOT
ATOM      1  C   UNL     1       8.841 -29.180  -9.997  1.00  0.00     0.000 C 
ENDROOT
BRANCH   1   2
ATOM      2  C   UNL     1       9.318 -28.272  -8.849  1.00  0.00     0.000 C 
BRANCH   2   3
ATOM      3  C   UNL     1       9.922 -26.952  -9.358  1.00  0.00     0.000 C 
BRANCH   3   4
ATOM      4  C   UNL     1       8.868 -25.840  -9.505  1.00  0.00     0.000 C 
BRANCH   4   5
ATOM      5  C   UNL     1       8.406 -25.280  -8.151  1.00  0.00     0.000 C 
BRANCH   5   6
ATOM      6  C   UNL     1       8.886 -23.839  -7.916  1.00  0.00     0.000 C 
BRANCH   6   7
ATOM      7  C   UNL     1       8.288 -23.258  -6.629  1.00  0.00     0.000 C 
BRANCH   7   8
ATOM      8  C   UNL     1       6.897 -23.851  -6.358  1.00  0.00     0.000 C 
BRANCH   8   9
ATOM      9  C   UNL     1       6.856 -24.706  -5.083  1.00  0.00     0.000 C 
BRANCH   9  10
ATOM     10  C   UNL     1       8.259 -25.090  -4.581  1.00  0.00     0.000 C 
BRANCH  10  11
ATOM     11  C   UNL     1       8.798 -26.365  -5.260  1.00  0.00     0.000 C 
BRANCH  11  12
ATOM     12  C   UNL     1      10.223 -26.759  -4.827  1.00  0.00     0.000 C 
BRANCH  12  13
ATOM     13  C   UNL     1      11.056 -25.586  -4.272  1.00  0.00     0.006 C 
BRANCH  13  14
ATOM     14  C   UNL     1      12.397 -25.426  -5.003  1.00  0.00     0.053 C 
BRANCH  14  15
ATOM     15  C   UNL     1      12.996 -26.761  -5.317  1.00  0.00     0.041 C 
ATOM     16  O   UNL     1      13.446 -27.000  -6.470  1.00  0.00    -0.550 OA
ATOM     17  O   UNL     1      13.077 -27.736  -4.331  1.00  0.00    -0.550 OA
ENDBRANCH  14  15
ENDBRANCH  13  14
ENDBRANCH  12  13
ENDBRANCH  11  12
ENDBRANCH  10  11
ENDBRANCH   9  10
ENDBRANCH   8   9
ENDBRANCH   7   8
ENDBRANCH   6   7
ENDBRANCH   5   6
ENDBRANCH   4   5
ENDBRANCH   3   4
ENDBRANCH   2   3
ENDBRANCH   1   2
BRANCH   1  18
ATOM     18  C   UNL     1       9.967 -30.055 -10.568  1.00  0.00     0.000 C 
BRANCH  18  19
ATOM     19  C   UNL     1      10.169 -29.853 -12.077  1.00  0.00     0.000 C 
BRANCH  19  20
ATOM     20  C   UNL     1       9.005 -30.467 -12.872  1.00  0.00     0.000 C 
BRANCH  20  21
ATOM     21  C   UNL     1       9.104 -30.197 -14.382  1.00  0.00     0.000 C 
BRANCH  21  22
ATOM     22  C   UNL     1       9.662 -31.399 -15.163  1.00  0.00     0.000 C 
BRANCH  22  23
ATOM     23  C   UNL     1       9.912 -31.081 -16.650  1.00  0.00     0.000 C 
BRANCH  23  24
ATOM     24  C   UNL     1       9.008 -29.983 -17.241  1.00  0.00    -0.000 C 
BRANCH  24  25
ATOM     25  C   UNL     1       7.721 -29.767 -16.432  1.00  0.00    -0.000 C 
BRANCH  25  26
ATOM     26  C   UNL     1       6.616 -29.157 -17.304  1.00  0.00    -0.000 C 
BRANCH  26  27
ATOM     27  C   UNL     1       7.170 -28.018 -18.171  1.00  0.00    -0.000 C 
BRANCH  27  28
ATOM     28  C   UNL     1       6.635 -28.051 -19.614  1.00  0.00    -0.000 C 
BRANCH  28  29
ATOM     29  C   UNL     1       6.454 -29.461 -20.209  1.00  0.00    -0.000 C 
BRANCH  29  30
ATOM     30  C   UNL     1       7.053 -29.664 -21.616  1.00  0.00    -0.000 C 
BRANCH  30  31
ATOM     31  C   UNL     1       6.478 -28.740 -22.704  1.00  0.00    -0.003 C 
ATOM     32  C   UNL     1       7.283 -27.453 -22.879  1.00  0.00     0.004 C 
ENDBRANCH  30  31
ENDBRANCH  29  30
ENDBRANCH  28  29
ENDBRANCH  27  28
ENDBRANCH  26  27
ENDBRANCH  25  26
ENDBRANCH  24  25
ENDBRANCH  23  24
ENDBRANCH  22  23
ENDBRANCH  21  22
ENDBRANCH  20  21
ENDBRANCH  19  20
ENDBRANCH  18  19
ENDBRANCH   1  18
TORSDOF 28
ENDMDL
MODEL 7
REMARK VINA RESULT:    17.980      3.417     12.398
REMARK INTER + INTRA:          50.837
REMARK INTER:                  50.651
REMARK INTRA:                   0.186
REMARK UNBOUND:                 3.427
REMARK SMILES CCCCCCCCCCCCCCCCCCCCCCCCCCCCCC(=O)[O-]
REMARK SMILES IDX 16 1 17 2 18 3 19 4 20 5 21 6 22 7 23 8 24 9 25 10 26 11
REMARK SMILES IDX 27 12 28 13 29 14 30 15 31 16 32 17 15 18 14 19 13 20 12 21
REMARK SMILES IDX 11 22 10 23 9 24 8 25 7 26 6 27 5 28 4 29 3 30 2 31 1 32
REMARK H PARENT
REMARK Flexibility Score: inf
ROOT
ATOM      1  C   UNL     1       9.270 -30.359 -13.835  1.00  0.00     0.000 C 
ENDROOT
BRANCH   1   2
ATOM      2  C   UNL     1       9.039 -30.284 -12.314  1.00  0.00     0.000 C 
BRANCH   2   3
ATOM      3  C   UNL     1      10.343 -30.060 -11.533  1.00  0.00     0.000 C 
BRANCH   3   4
ATOM      4  C   UNL     1      10.120 -30.019 -10.011  1.00  0.00     0.000 C 
BRANCH   4   5
ATOM      5  C   UNL     1       9.233 -28.842  -9.574  1.00  0.00     0.000 C 
BRANCH   5   6
ATOM      6  C   UNL     1       9.998 -27.510  -9.544  1.00  0.00     0.000 C 
BRANCH   6   7
ATOM      7  C   UNL     1       9.064 -26.343  -9.199  1.00  0.00     0.000 C 
BRANCH   7   8
ATOM      8  C   UNL     1       8.892 -26.214  -7.678  1.00  0.00     0.000 C 
BRANCH   8   9
ATOM      9  C   UNL     1       8.195 -24.908  -7.270  1.00  0.00     0.000 C 
BRANCH   9  10
ATOM     10  C   UNL     1       7.235 -25.094  -6.082  1.00  0.00     0.000 C 
BRANCH  10  11
ATOM     11  C   UNL     1       7.804 -24.521  -4.769  1.00  0.00     0.000 C 
BRANCH  11  12
ATOM     12  C   UNL     1       9.332 -24.323  -4.775  1.00  0.00     0.000 C 
BRANCH  12  13
ATOM     13  C   UNL     1      10.135 -25.636  -4.671  1.00  0.00     0.006 C 
BRANCH  13  14
ATOM     14  C   UNL     1      11.651 -25.393  -4.662  1.00  0.00     0.053 C 
BRANCH  14  15
ATOM     15  C   UNL     1      12.398 -26.672  -4.875  1.00  0.00     0.041 C 
ATOM     16  O   UNL     1      12.149 -27.679  -4.160  1.00  0.00    -0.550 OA
ATOM     17  O   UNL     1      13.357 -26.758  -5.877  1.00  0.00    -0.550 OA
ENDBRANCH  14  15
ENDBRANCH  13  14
ENDBRANCH  12  13
ENDBRANCH  11  12
ENDBRANCH  10  11
ENDBRANCH   9  10
ENDBRANCH   8   9
ENDBRANCH   7   8
ENDBRANCH   6   7
ENDBRANCH   5   6
ENDBRANCH   4   5
ENDBRANCH   3   4
ENDBRANCH   2   3
ENDBRANCH   1   2
BRANCH   1  18
ATOM     18  C   UNL     1       9.342 -31.804 -14.352  1.00  0.00     0.000 C 
BRANCH  18  19
ATOM     19  C   UNL     1       8.961 -31.923 -15.836  1.00  0.00     0.000 C 
BRANCH  19  20
ATOM     20  C   UNL     1       9.907 -31.087 -16.713  1.00  0.00     0.000 C 
BRANCH  20  21
ATOM     21  C   UNL     1       9.281 -29.762 -17.176  1.00  0.00     0.000 C 
BRANCH  21  22
ATOM     22  C   UNL     1       8.205 -29.245 -16.206  1.00  0.00     0.000 C 
BRANCH  22  23
ATOM     23  C   UNL     1       7.015 -28.587 -16.931  1.00  0.00     0.000 C 
BRANCH  23  24
ATOM     24  C   UNL     1       6.811 -29.039 -18.389  1.00  0.00    -0.000 C 
BRANCH  24  25
ATOM     25  C   UNL     1       6.048 -28.009 -19.235  1.00  0.00    -0.000 C 
BRANCH  25  26
ATOM     26  C   UNL     1       6.794 -27.704 -20.540  1.00  0.00    -0.000 C 
BRANCH  26  27
ATOM     27  C   UNL     1       6.428 -28.723 -21.629  1.00  0.00    -0.000 C 
BRANCH  27  28
ATOM     28  C   UNL     1       7.344 -29.960 -21.622  1.00  0.00    -0.000 C 
BRANCH  28  29
ATOM     29  C   UNL     1       8.428 -29.961 -20.526  1.00  0.00    -0.000 C 
BRANCH  29  30
ATOM     30  C   UNL     1       9.541 -31.015 -20.703  1.00  0.00    -0.000 C 
BRANCH  30  31
ATOM     31  C   UNL     1       9.069 -32.365 -21.272  1.00  0.00    -0.003 C 
ATOM     32  C   UNL     1       9.579 -33.561 -20.469  1.00  0.00     0.004 C 
ENDBRANCH  30  31
ENDBRANCH  29  30
ENDBRANCH  28  29
ENDBRANCH  27  28
ENDBRANCH  26  27
ENDBRANCH  25  26
ENDBRANCH  24  25
ENDBRANCH  23  24
ENDBRANCH  22  23
ENDBRANCH  21  22
ENDBRANCH  20  21
ENDBRANCH  19  20
ENDBRANCH  18  19
ENDBRANCH   1  18
TORSDOF 28
ENDMDL
MODEL 8
REMARK VINA RESULT:    18.889      1.762      3.787
REMARK INTER + INTRA:          53.234
REMARK INTER:                  53.085
REMARK INTRA:                   0.150
REMARK UNBOUND:                 3.427
REMARK SMILES CCCCCCCCCCCCCCCCCCCCCCCCCCCCCC(=O)[O-]
REMARK SMILES IDX 16 1 17 2 18 3 19 4 20 5 21 6 22 7 23 8 24 9 25 10 26 11
REMARK SMILES IDX 27 12 28 13 29 14 30 15 31 16 32 17 15 18 14 19 13 20 12 21
REMARK SMILES IDX 11 22 10 23 9 24 8 25 7 26 6 27 5 28 4 29 3 30 2 31 1 32
REMARK H PARENT
REMARK Flexibility Score: inf
ROOT
ATOM      1  C   UNL     1      10.410 -29.202 -10.204  1.00  0.00     0.000 C 
ENDROOT
BRANCH   1   2
ATOM      2  C   UNL     1       9.973 -30.186 -11.305  1.00  0.00     0.000 C 
BRANCH   2   3
ATOM      3  C   UNL     1       8.581 -29.858 -11.866  1.00  0.00     0.000 C 
BRANCH   3   4
ATOM      4  C   UNL     1       8.276 -30.617 -13.169  1.00  0.00     0.000 C 
BRANCH   4   5
ATOM      5  C   UNL     1       8.725 -29.848 -14.422  1.00  0.00     0.000 C 
BRANCH   5   6
ATOM      6  C   UNL     1      10.013 -30.420 -15.033  1.00  0.00     0.000 C 
BRANCH   6   7
ATOM      7  C   UNL     1       9.712 -31.630 -15.927  1.00  0.00     0.000 C 
BRANCH   7   8
ATOM      8  C   UNL     1       9.235 -31.177 -17.315  1.00  0.00     0.000 C 
BRANCH   8   9
ATOM      9  C   UNL     1       8.722 -29.730 -17.321  1.00  0.00     0.000 C 
BRANCH   9  10
ATOM     10  C   UNL     1       7.231 -29.631 -17.687  1.00  0.00     0.000 C 
BRANCH  10  11
ATOM     11  C   UNL     1       6.787 -28.181 -17.965  1.00  0.00     0.000 C 
BRANCH  11  12
ATOM     12  C   UNL     1       6.748 -27.806 -19.459  1.00  0.00     0.000 C 
BRANCH  12  13
ATOM     13  C   UNL     1       6.173 -28.911 -20.368  1.00  0.00     0.006 C 
BRANCH  13  14
ATOM     14  C   UNL     1       7.090 -29.221 -21.561  1.00  0.00     0.053 C 
BRANCH  14  15
ATOM     15  C   UNL     1       8.179 -30.169 -21.165  1.00  0.00     0.041 C 
ATOM     16  O   UNL     1       9.167 -29.759 -20.499  1.00  0.00    -0.550 OA
ATOM     17  O   UNL     1       8.093 -31.511 -21.515  1.00  0.00    -0.550 OA
ENDBRANCH  14  15
ENDBRANCH  13  14
ENDBRANCH  12  13
ENDBRANCH  11  12
ENDBRANCH  10  11
ENDBRANCH   9  10
ENDBRANCH   8   9
ENDBRANCH   7   8
ENDBRANCH   6   7
ENDBRANCH   5   6
ENDBRANCH   4   5
ENDBRANCH   3   4
ENDBRANCH   2   3
ENDBRANCH   1   2
BRANCH   1  18
ATOM     18  C   UNL     1       9.231 -28.416  -9.610  1.00  0.00     0.000 C 
BRANCH  18  19
ATOM     19  C   UNL     1       9.679 -27.165  -8.839  1.00  0.00     0.000 C 
BRANCH  19  20
ATOM     20  C   UNL     1       8.908 -25.923  -9.316  1.00  0.00     0.000 C 
BRANCH  20  21
ATOM     21  C   UNL     1       8.545 -24.967  -8.169  1.00  0.00     0.000 C 
BRANCH  21  22
ATOM     22  C   UNL     1       7.722 -25.653  -7.064  1.00  0.00     0.000 C 
BRANCH  22  23
ATOM     23  C   UNL     1       6.864 -24.661  -6.256  1.00  0.00     0.000 C 
BRANCH  23  24
ATOM     24  C   UNL     1       7.653 -23.543  -5.550  1.00  0.00    -0.000 C 
BRANCH  24  25
ATOM     25  C   UNL     1       8.773 -24.080  -4.646  1.00  0.00    -0.000 C 
BRANCH  25  26
ATOM     26  C   UNL     1       8.756 -25.613  -4.596  1.00  0.00    -0.000 C 
BRANCH  26  27
ATOM     27  C   UNL     1      10.135 -26.187  -4.955  1.00  0.00    -0.000 C 
BRANCH  27  28
ATOM     28  C   UNL     1      11.288 -25.225  -4.621  1.00  0.00    -0.000 C 
BRANCH  28  29
ATOM     29  C   UNL     1      12.543 -25.381  -5.503  1.00  0.00    -0.000 C 
BRANCH  29  30
ATOM     30  C   UNL     1      13.222 -26.765  -5.441  1.00  0.00    -0.000 C 
BRANCH  30  31
ATOM     31  C   UNL     1      12.604 -27.745  -4.428  1.00  0.00    -0.003 C 
ATOM     32  C   UNL     1      13.638 -28.667  -3.783  1.00  0.00     0.004 C 
ENDBRANCH  30  31
ENDBRANCH  29  30
ENDBRANCH  28  29
ENDBRANCH  27  28
ENDBRANCH  26  27
ENDBRANCH  25  26
ENDBRANCH  24  25
ENDBRANCH  23  24
ENDBRANCH  22  23
ENDBRANCH  21  22
ENDBRANCH  20  21
ENDBRANCH  19  20
ENDBRANCH  18  19
ENDBRANCH   1  18
TORSDOF 28
ENDMDL
MODEL 9
REMARK VINA RESULT:    18.900      1.275      2.654
REMARK INTER + INTRA:          53.264
REMARK INTER:                  49.313
REMARK INTRA:                   3.951
REMARK UNBOUND:                 3.427
REMARK SMILES CCCCCCCCCCCCCCCCCCCCCCCCCCCCCC(=O)[O-]
REMARK SMILES IDX 16 1 17 2 18 3 19 4 20 5 21 6 22 7 23 8 24 9 25 10 26 11
REMARK SMILES IDX 27 12 28 13 29 14 30 15 31 16 32 17 15 18 14 19 13 20 12 21
REMARK SMILES IDX 11 22 10 23 9 24 8 25 7 26 6 27 5 28 4 29 3 30 2 31 1 32
REMARK H PARENT
REMARK Flexibility Score: inf
ROOT
ATOM      1  C   UNL     1       9.731 -29.984 -11.237  1.00  0.00     0.000 C 
ENDROOT
BRANCH   1   2
ATOM      2  C   UNL     1       8.995 -30.361 -12.535  1.00  0.00     0.000 C 
BRANCH   2   3
ATOM      3  C   UNL     1       9.908 -30.288 -13.770  1.00  0.00     0.000 C 
BRANCH   3   4
ATOM      4  C   UNL     1       9.280 -30.951 -15.008  1.00  0.00     0.000 C 
BRANCH   4   5
ATOM      5  C   UNL     1       8.811 -29.926 -16.054  1.00  0.00     0.000 C 
BRANCH   5   6
ATOM      6  C   UNL     1       7.702 -29.007 -15.520  1.00  0.00     0.000 C 
BRANCH   6   7
ATOM      7  C   UNL     1       6.960 -28.311 -16.668  1.00  0.00     0.000 C 
BRANCH   7   8
ATOM      8  C   UNL     1       7.208 -29.037 -17.998  1.00  0.00     0.000 C 
BRANCH   8   9
ATOM      9  C   UNL     1       6.198 -28.641 -19.086  1.00  0.00     0.000 C 
BRANCH   9  10
ATOM     10  C   UNL     1       6.816 -27.736 -20.166  1.00  0.00     0.000 C 
BRANCH  10  11
ATOM     11  C   UNL     1       6.846 -28.410 -21.553  1.00  0.00     0.000 C 
BRANCH  11  12
ATOM     12  C   UNL     1       6.865 -29.950 -21.507  1.00  0.00     0.000 C 
BRANCH  12  13
ATOM     13  C   UNL     1       8.111 -30.542 -20.818  1.00  0.00     0.006 C 
BRANCH  13  14
ATOM     14  C   UNL     1       9.040 -29.453 -20.260  1.00  0.00     0.053 C 
BRANCH  14  15
ATOM     15  C   UNL     1       9.633 -29.876 -18.952  1.00  0.00     0.041 C 
ATOM     16  O   UNL     1      10.382 -29.090 -18.311  1.00  0.00    -0.550 OA
ATOM     17  O   UNL     1       9.343 -31.131 -18.431  1.00  0.00    -0.550 OA
ENDBRANCH  14  15
ENDBRANCH  13  14
ENDBRANCH  12  13
ENDBRANCH  11  12
ENDBRANCH  10  11
ENDBRANCH   9  10
ENDBRANCH   8   9
ENDBRANCH   7   8
ENDBRANCH   6   7
ENDBRANCH   5   6
ENDBRANCH   4   5
ENDBRANCH   3   4
ENDBRANCH   2   3
ENDBRANCH   1   2
BRANCH   1  18
ATOM     18  C   UNL     1       8.770 -29.650 -10.086  1.00  0.00     0.000 C 
BRANCH  18  19
ATOM     19  C   UNL     1       9.451 -28.871  -8.950  1.00  0.00     0.000 C 
BRANCH  19  20
ATOM     20  C   UNL     1       9.702 -27.412  -9.361  1.00  0.00     0.000 C 
BRANCH  20  21
ATOM     21  C   UNL     1       9.567 -26.427  -8.189  1.00  0.00     0.000 C 
BRANCH  21  22
ATOM     22  C   UNL     1       8.332 -25.519  -8.318  1.00  0.00     0.000 C 
BRANCH  22  23
ATOM     23  C   UNL     1       8.285 -24.420  -7.239  1.00  0.00     0.000 C 
BRANCH  23  24
ATOM     24  C   UNL     1       7.030 -24.438  -6.346  1.00  0.00    -0.000 C 
BRANCH  24  25
ATOM     25  C   UNL     1       7.203 -23.628  -5.053  1.00  0.00    -0.000 C 
BRANCH  25  26
ATOM     26  C   UNL     1       8.230 -24.285  -4.122  1.00  0.00    -0.000 C 
BRANCH  26  27
ATOM     27  C   UNL     1       8.773 -25.584  -4.736  1.00  0.00    -0.000 C 
BRANCH  27  28
ATOM     28  C   UNL     1      10.261 -25.816  -4.424  1.00  0.00    -0.000 C 
BRANCH  28  29
ATOM     29  C   UNL     1      10.722 -27.285  -4.506  1.00  0.00    -0.000 C 
BRANCH  29  30
ATOM     30  C   UNL     1      12.038 -27.604  -3.768  1.00  0.00    -0.000 C 
BRANCH  30  31
ATOM     31  C   UNL     1      13.306 -27.513  -4.635  1.00  0.00    -0.003 C 
ATOM     32  C   UNL     1      13.293 -26.316  -5.585  1.00  0.00     0.004 C 
ENDBRANCH  30  31
ENDBRANCH  29  30
ENDBRANCH  28  29
ENDBRANCH  27  28
ENDBRANCH  26  27
ENDBRANCH  25  26
ENDBRANCH  24  25
ENDBRANCH  23  24
ENDBRANCH  22  23
ENDBRANCH  21  22
ENDBRANCH  20  21
ENDBRANCH  19  20
ENDBRANCH  18  19
ENDBRANCH   1  18
TORSDOF 28
ENDMDL
