MODEL 1
REMARK VINA RESULT:    -6.314      0.000      0.000
REMARK INTER + INTRA:          -6.314
REMARK INTER:                  -6.314
REMARK INTRA:                   0.000
REMARK UNBOUND:                 0.000
REMARK SMILES C=C1CCC[C@]2(C)CC(=O)C(=C(C)C)C[C@@H]12
REMARK SMILES IDX 13 1 12 2 11 3 15 4 16 5 2 6 1 7 3 8 4 9 5 10 6 11 8 12 9 13
REMARK SMILES IDX 10 14 7 15 14 16
REMARK H PARENT
REMARK Flexibility Score: inf
ROOT
ATOM      1  C   UNL     1      15.032 -10.547  63.106  1.00  0.00     0.039 C 
ATOM      2  C   UNL     1      15.131 -11.180  64.475  1.00  0.00    -0.070 C 
ATOM      3  C   UNL     1      16.286 -11.120  65.202  1.00  0.00    -0.006 C 
ATOM      4  C   UNL     1      17.528 -10.430  64.653  1.00  0.00     0.047 C 
ATOM      5  C   UNL     1      18.844 -11.055  65.180  1.00  0.00     0.025 C 
ATOM      6  C   UNL     1      20.125 -10.377  64.695  1.00  0.00    -0.073 C 
ATOM      7  C   UNL     1      20.149  -9.307  63.877  1.00  0.00     0.008 C 
ATOM      8  C   UNL     1      21.423 -11.003  65.146  1.00  0.00     0.031 C 
ATOM      9  C   UNL     1      21.442 -11.152  66.670  1.00  0.00     0.005 C 
ATOM     10  C   UNL     1      20.183 -11.872  67.183  1.00  0.00     0.008 C 
ATOM     11  C   UNL     1      18.859 -11.183  66.736  1.00  0.00    -0.018 C 
ATOM     12  C   UNL     1      17.677 -12.084  67.170  1.00  0.00     0.088 C 
ATOM     13  C   UNL     1      16.366 -11.608  66.610  1.00  0.00     0.159 C 
ATOM     14  O   UNL     1      15.352 -11.619  67.357  1.00  0.00    -0.295 OA
ATOM     15  C   UNL     1      18.732  -9.799  67.432  1.00  0.00     0.012 C 
ATOM     16  C   UNL     1      13.909 -11.913  64.979  1.00  0.00     0.039 C 
ENDROOT
TORSDOF 0
ENDMDL
MODEL 2
REMARK VINA RESULT:    -6.300      1.887      3.244
REMARK INTER + INTRA:          -6.300
REMARK INTER:                  -6.300
REMARK INTRA:                   0.000
REMARK UNBOUND:                 0.000
REMARK SMILES C=C1CCC[C@]2(C)CC(=O)C(=C(C)C)C[C@@H]12
REMARK SMILES IDX 13 1 12 2 11 3 15 4 16 5 2 6 1 7 3 8 4 9 5 10 6 11 8 12 9 13
REMARK SMILES IDX 10 14 7 15 14 16
REMARK H PARENT
REMARK Flexibility Score: inf
ROOT
ATOM      1  C   UNL     1      13.498 -11.855  64.638  1.00  0.00     0.039 C 
ATOM      2  C   UNL     1      14.428 -10.843  64.011  1.00  0.00    -0.070 C 
ATOM      3  C   UNL     1      15.717 -10.702  64.441  1.00  0.00    -0.006 C 
ATOM      4  C   UNL     1      16.262 -11.545  65.586  1.00  0.00     0.047 C 
ATOM      5  C   UNL     1      17.357 -10.814  66.401  1.00  0.00     0.025 C 
ATOM      6  C   UNL     1      17.972 -11.628  67.540  1.00  0.00    -0.073 C 
ATOM      7  C   UNL     1      17.620 -12.894  67.837  1.00  0.00     0.008 C 
ATOM      8  C   UNL     1      18.999 -10.918  68.389  1.00  0.00     0.031 C 
ATOM      9  C   UNL     1      20.098 -10.319  67.507  1.00  0.00     0.005 C 
ATOM     10  C   UNL     1      19.510  -9.458  66.376  1.00  0.00     0.008 C 
ATOM     11  C   UNL     1      18.482 -10.226  65.492  1.00  0.00    -0.018 C 
ATOM     12  C   UNL     1      17.845  -9.217  64.506  1.00  0.00     0.088 C 
ATOM     13  C   UNL     1      16.696  -9.817  63.746  1.00  0.00     0.159 C 
ATOM     14  O   UNL     1      16.592  -9.566  62.515  1.00  0.00    -0.295 OA
ATOM     15  C   UNL     1      19.215 -11.337  64.688  1.00  0.00     0.012 C 
ATOM     16  C   UNL     1      13.854  -9.972  62.917  1.00  0.00     0.039 C 
ENDROOT
TORSDOF 0
ENDMDL
MODEL 3
REMARK VINA RESULT:    -6.275      1.710      4.892
REMARK INTER + INTRA:          -6.275
REMARK INTER:                  -6.275
REMARK INTRA:                   0.000
REMARK UNBOUND:                 0.000
REMARK SMILES C=C1CCC[C@]2(C)CC(=O)C(=C(C)C)C[C@@H]12
REMARK SMILES IDX 13 1 12 2 11 3 15 4 16 5 2 6 1 7 3 8 4 9 5 10 6 11 8 12 9 13
REMARK SMILES IDX 10 14 7 15 14 16
REMARK H PARENT
REMARK Flexibility Score: inf
ROOT
ATOM      1  C   UNL     1      19.872  -9.199  66.723  1.00  0.00     0.039 C 
ATOM      2  C   UNL     1      18.914 -10.223  67.286  1.00  0.00    -0.070 C 
ATOM      3  C   UNL     1      17.845 -10.668  66.561  1.00  0.00    -0.006 C 
ATOM      4  C   UNL     1      17.563 -10.133  65.164  1.00  0.00     0.047 C 
ATOM      5  C   UNL     1      16.053 -10.131  64.815  1.00  0.00     0.025 C 
ATOM      6  C   UNL     1      15.712  -9.642  63.407  1.00  0.00    -0.073 C 
ATOM      7  C   UNL     1      16.629  -9.244  62.505  1.00  0.00     0.008 C 
ATOM      8  C   UNL     1      14.244  -9.573  63.062  1.00  0.00     0.031 C 
ATOM      9  C   UNL     1      13.567 -10.919  63.339  1.00  0.00     0.005 C 
ATOM     10  C   UNL     1      13.857 -11.415  64.766  1.00  0.00     0.008 C 
ATOM     11  C   UNL     1      15.380 -11.514  65.082  1.00  0.00    -0.018 C 
ATOM     12  C   UNL     1      15.539 -11.860  66.582  1.00  0.00     0.088 C 
ATOM     13  C   UNL     1      16.970 -11.781  67.033  1.00  0.00     0.159 C 
ATOM     14  O   UNL     1      17.411 -12.678  67.801  1.00  0.00    -0.295 OA
ATOM     15  C   UNL     1      16.018 -12.643  64.224  1.00  0.00     0.012 C 
ATOM     16  C   UNL     1      19.173 -10.699  68.697  1.00  0.00     0.039 C 
ENDROOT
TORSDOF 0
ENDMDL
MODEL 4
REMARK VINA RESULT:    -6.205     14.159     16.643
REMARK INTER + INTRA:          -6.205
REMARK INTER:                  -6.205
REMARK INTRA:                   0.000
REMARK UNBOUND:                 0.000
REMARK SMILES C=C1CCC[C@]2(C)CC(=O)C(=C(C)C)C[C@@H]12
REMARK SMILES IDX 13 1 12 2 11 3 15 4 16 5 2 6 1 7 3 8 4 9 5 10 6 11 8 12 9 13
REMARK SMILES IDX 10 14 7 15 14 16
REMARK H PARENT
REMARK Flexibility Score: inf
ROOT
ATOM      1  C   UNL     1       7.813  -2.355  62.829  1.00  0.00     0.039 C 
ATOM      2  C   UNL     1       8.929  -1.473  62.320  1.00  0.00    -0.070 C 
ATOM      3  C   UNL     1       8.906  -0.120  62.506  1.00  0.00    -0.006 C 
ATOM      4  C   UNL     1       7.740   0.557  63.215  1.00  0.00     0.047 C 
ATOM      5  C   UNL     1       7.489   2.000  62.712  1.00  0.00     0.025 C 
ATOM      6  C   UNL     1       6.355   2.746  63.418  1.00  0.00    -0.073 C 
ATOM      7  C   UNL     1       5.615   2.224  64.414  1.00  0.00     0.008 C 
ATOM      8  C   UNL     1       6.050   4.133  62.906  1.00  0.00     0.031 C 
ATOM      9  C   UNL     1       7.321   4.987  62.887  1.00  0.00     0.005 C 
ATOM     10  C   UNL     1       8.467   4.279  62.144  1.00  0.00     0.008 C 
ATOM     11  C   UNL     1       8.788   2.866  62.717  1.00  0.00    -0.018 C 
ATOM     12  C   UNL     1       9.832   2.196  61.792  1.00  0.00     0.088 C 
ATOM     13  C   UNL     1      10.059   0.753  62.145  1.00  0.00     0.159 C 
ATOM     14  O   UNL     1      11.239   0.311  62.141  1.00  0.00    -0.295 OA
ATOM     15  C   UNL     1       9.383   3.007  64.146  1.00  0.00     0.012 C 
ATOM     16  C   UNL     1      10.048  -2.154  61.565  1.00  0.00     0.039 C 
ENDROOT
TORSDOF 0
ENDMDL
MODEL 5
REMARK VINA RESULT:    -6.191      1.829      5.374
REMARK INTER + INTRA:          -6.191
REMARK INTER:                  -6.191
REMARK INTRA:                   0.000
REMARK UNBOUND:                 0.000
REMARK SMILES C=C1CCC[C@]2(C)CC(=O)C(=C(C)C)C[C@@H]12
REMARK SMILES IDX 13 1 12 2 11 3 15 4 16 5 2 6 1 7 3 8 4 9 5 10 6 11 8 12 9 13
REMARK SMILES IDX 10 14 7 15 14 16
REMARK H PARENT
REMARK Flexibility Score: inf
ROOT
ATOM      1  C   UNL     1      20.465  -9.497  63.998  1.00  0.00     0.039 C 
ATOM      2  C   UNL     1      19.617 -10.600  64.587  1.00  0.00    -0.070 C 
ATOM      3  C   UNL     1      18.309 -10.761  64.223  1.00  0.00    -0.006 C 
ATOM      4  C   UNL     1      17.648  -9.820  63.226  1.00  0.00     0.047 C 
ATOM      5  C   UNL     1      16.129  -9.648  63.479  1.00  0.00     0.025 C 
ATOM      6  C   UNL     1      15.402  -8.745  62.482  1.00  0.00    -0.073 C 
ATOM      7  C   UNL     1      16.001  -8.134  61.442  1.00  0.00     0.008 C 
ATOM      8  C   UNL     1      13.933  -8.512  62.741  1.00  0.00     0.031 C 
ATOM      9  C   UNL     1      13.199  -9.849  62.885  1.00  0.00     0.005 C 
ATOM     10  C   UNL     1      13.884 -10.762  63.916  1.00  0.00     0.008 C 
ATOM     11  C   UNL     1      15.389 -11.017  63.604  1.00  0.00    -0.018 C 
ATOM     12  C   UNL     1      16.001 -11.804  64.788  1.00  0.00     0.088 C 
ATOM     13  C   UNL     1      17.494 -11.925  64.677  1.00  0.00     0.159 C 
ATOM     14  O   UNL     1      18.032 -13.030  64.960  1.00  0.00    -0.295 OA
ATOM     15  C   UNL     1      15.515 -11.863  62.306  1.00  0.00     0.012 C 
ATOM     16  C   UNL     1      20.271 -11.488  65.620  1.00  0.00     0.039 C 
ENDROOT
TORSDOF 0
ENDMDL
MODEL 6
REMARK VINA RESULT:    -6.188      1.635      2.546
REMARK INTER + INTRA:          -6.188
REMARK INTER:                  -6.188
REMARK INTRA:                   0.000
REMARK UNBOUND:                 0.000
REMARK SMILES C=C1CCC[C@]2(C)CC(=O)C(=C(C)C)C[C@@H]12
REMARK SMILES IDX 13 1 12 2 11 3 15 4 16 5 2 6 1 7 3 8 4 9 5 10 6 11 8 12 9 13
REMARK SMILES IDX 10 14 7 15 14 16
REMARK H PARENT
REMARK Flexibility Score: inf
ROOT
ATOM      1  C   UNL     1      15.376  -7.704  62.435  1.00  0.00     0.039 C 
ATOM      2  C   UNL     1      14.763  -9.008  62.891  1.00  0.00    -0.070 C 
ATOM      3  C   UNL     1      15.417  -9.834  63.760  1.00  0.00    -0.006 C 
ATOM      4  C   UNL     1      16.801  -9.483  64.289  1.00  0.00     0.047 C 
ATOM      5  C   UNL     1      17.660 -10.735  64.599  1.00  0.00     0.025 C 
ATOM      6  C   UNL     1      19.047 -10.445  65.173  1.00  0.00    -0.073 C 
ATOM      7  C   UNL     1      19.520  -9.208  65.414  1.00  0.00     0.008 C 
ATOM      8  C   UNL     1      19.927 -11.645  65.428  1.00  0.00     0.031 C 
ATOM      9  C   UNL     1      19.193 -12.670  66.298  1.00  0.00     0.005 C 
ATOM     10  C   UNL     1      17.809 -13.014  65.720  1.00  0.00     0.008 C 
ATOM     11  C   UNL     1      16.908 -11.762  65.503  1.00  0.00    -0.018 C 
ATOM     12  C   UNL     1      15.621 -12.215  64.772  1.00  0.00     0.088 C 
ATOM     13  C   UNL     1      14.776 -11.051  64.337  1.00  0.00     0.159 C 
ATOM     14  O   UNL     1      13.527 -11.125  64.485  1.00  0.00    -0.295 OA
ATOM     15  C   UNL     1      16.527 -11.149  66.880  1.00  0.00     0.012 C 
ATOM     16  C   UNL     1      13.415  -9.369  62.310  1.00  0.00     0.039 C 
ENDROOT
TORSDOF 0
ENDMDL
MODEL 7
REMARK VINA RESULT:    -6.181      2.140      3.303
REMARK INTER + INTRA:          -6.181
REMARK INTER:                  -6.181
REMARK INTRA:                   0.000
REMARK UNBOUND:                 0.000
REMARK SMILES C=C1CCC[C@]2(C)CC(=O)C(=C(C)C)C[C@@H]12
REMARK SMILES IDX 13 1 12 2 11 3 15 4 16 5 2 6 1 7 3 8 4 9 5 10 6 11 8 12 9 13
REMARK SMILES IDX 10 14 7 15 14 16
REMARK H PARENT
REMARK Flexibility Score: inf
ROOT
ATOM      1  C   UNL     1      16.504 -14.093  62.590  1.00  0.00     0.039 C 
ATOM      2  C   UNL     1      16.270 -12.609  62.753  1.00  0.00    -0.070 C 
ATOM      3  C   UNL     1      16.886 -11.898  63.743  1.00  0.00    -0.006 C 
ATOM      4  C   UNL     1      17.818 -12.577  64.737  1.00  0.00     0.047 C 
ATOM      5  C   UNL     1      17.820 -11.888  66.125  1.00  0.00     0.025 C 
ATOM      6  C   UNL     1      18.770 -12.503  67.154  1.00  0.00    -0.073 C 
ATOM      7  C   UNL     1      19.568 -13.558  66.907  1.00  0.00     0.008 C 
ATOM      8  C   UNL     1      18.747 -11.887  68.533  1.00  0.00     0.031 C 
ATOM      9  C   UNL     1      18.961 -10.373  68.445  1.00  0.00     0.005 C 
ATOM     10  C   UNL     1      17.988  -9.721  67.448  1.00  0.00     0.008 C 
ATOM     11  C   UNL     1      18.060 -10.349  66.023  1.00  0.00    -0.018 C 
ATOM     12  C   UNL     1      16.931  -9.728  65.166  1.00  0.00     0.088 C 
ATOM     13  C   UNL     1      16.787 -10.413  63.836  1.00  0.00     0.159 C 
ATOM     14  O   UNL     1      16.597  -9.704  62.811  1.00  0.00    -0.295 OA
ATOM     15  C   UNL     1      19.435 -10.019  65.377  1.00  0.00     0.012 C 
ATOM     16  C   UNL     1      15.296 -11.962  61.795  1.00  0.00     0.039 C 
ENDROOT
TORSDOF 0
ENDMDL
MODEL 8
REMARK VINA RESULT:    -6.122     15.438     17.710
REMARK INTER + INTRA:          -6.122
REMARK INTER:                  -6.122
REMARK INTRA:                   0.000
REMARK UNBOUND:                 0.000
REMARK SMILES C=C1CCC[C@]2(C)CC(=O)C(=C(C)C)C[C@@H]12
REMARK SMILES IDX 13 1 12 2 11 3 15 4 16 5 2 6 1 7 3 8 4 9 5 10 6 11 8 12 9 13
REMARK SMILES IDX 10 14 7 15 14 16
REMARK H PARENT
REMARK Flexibility Score: inf
ROOT
ATOM      1  C   UNL     1       7.109   3.208  58.751  1.00  0.00     0.039 C 
ATOM      2  C   UNL     1       8.040   3.564  59.886  1.00  0.00    -0.070 C 
ATOM      3  C   UNL     1       7.946   2.947  61.102  1.00  0.00    -0.006 C 
ATOM      4  C   UNL     1       6.881   1.891  61.368  1.00  0.00     0.047 C 
ATOM      5  C   UNL     1       6.429   1.855  62.849  1.00  0.00     0.025 C 
ATOM      6  C   UNL     1       5.390   0.785  63.186  1.00  0.00    -0.073 C 
ATOM      7  C   UNL     1       4.889  -0.087  62.290  1.00  0.00     0.008 C 
ATOM      8  C   UNL     1       4.888   0.767  64.610  1.00  0.00     0.031 C 
ATOM      9  C   UNL     1       6.064   0.697  65.589  1.00  0.00     0.005 C 
ATOM     10  C   UNL     1       7.105   1.792  65.302  1.00  0.00     0.008 C 
ATOM     11  C   UNL     1       7.635   1.763  63.836  1.00  0.00    -0.018 C 
ATOM     12  C   UNL     1       8.541   3.001  63.627  1.00  0.00     0.088 C 
ATOM     13  C   UNL     1       8.941   3.174  62.189  1.00  0.00     0.159 C 
ATOM     14  O   UNL     1      10.131   3.497  61.929  1.00  0.00    -0.295 OA
ATOM     15  C   UNL     1       8.471   0.472  63.610  1.00  0.00     0.012 C 
ATOM     16  C   UNL     1       9.051   4.657  59.624  1.00  0.00     0.039 C 
ENDROOT
TORSDOF 0
ENDMDL
MODEL 9
REMARK VINA RESULT:    -6.049     14.793     17.247
REMARK INTER + INTRA:          -6.049
REMARK INTER:                  -6.049
REMARK INTRA:                   0.000
REMARK UNBOUND:                 0.000
REMARK SMILES C=C1CCC[C@]2(C)CC(=O)C(=C(C)C)C[C@@H]12
REMARK SMILES IDX 13 1 12 2 11 3 15 4 16 5 2 6 1 7 3 8 4 9 5 10 6 11 8 12 9 13
REMARK SMILES IDX 10 14 7 15 14 16
REMARK H PARENT
REMARK Flexibility Score: inf
ROOT
ATOM      1  C   UNL     1      10.930   2.833  60.119  1.00  0.00     0.039 C 
ATOM      2  C   UNL     1       9.979   3.697  60.914  1.00  0.00    -0.070 C 
ATOM      3  C   UNL     1       9.123   3.154  61.830  1.00  0.00    -0.006 C 
ATOM      4  C   UNL     1       9.077   1.650  62.069  1.00  0.00     0.047 C 
ATOM      5  C   UNL     1       7.674   1.154  62.500  1.00  0.00     0.025 C 
ATOM      6  C   UNL     1       7.577  -0.343  62.794  1.00  0.00    -0.073 C 
ATOM      7  C   UNL     1       8.614  -1.198  62.707  1.00  0.00     0.008 C 
ATOM      8  C   UNL     1       6.207  -0.864  63.159  1.00  0.00     0.031 C 
ATOM      9  C   UNL     1       5.619  -0.052  64.316  1.00  0.00     0.005 C 
ATOM     10  C   UNL     1       5.663   1.458  64.028  1.00  0.00     0.008 C 
ATOM     11  C   UNL     1       7.094   1.976  63.694  1.00  0.00    -0.018 C 
ATOM     12  C   UNL     1       6.983   3.459  63.265  1.00  0.00     0.088 C 
ATOM     13  C   UNL     1       8.281   3.994  62.729  1.00  0.00     0.159 C 
ATOM     14  O   UNL     1       8.641   5.153  63.069  1.00  0.00    -0.295 OA
ATOM     15  C   UNL     1       7.994   1.873  64.957  1.00  0.00     0.012 C 
ATOM     16  C   UNL     1       9.995   5.180  60.621  1.00  0.00     0.039 C 
ENDROOT
TORSDOF 0
ENDMDL
