MODEL 1
REMARK VINA RESULT:    -3.102      0.000      0.000
REMARK INTER + INTRA:          -3.294
REMARK INTER:                  -3.283
REMARK INTRA:                  -0.011
REMARK UNBOUND:                -0.011
REMARK SMILES O=Cc1ccco1
REMARK SMILES IDX 5 1 6 2 7 3 3 4 4 5 2 6 1 7
REMARK H PARENT
REMARK Flexibility Score: inf
ROOT
ATOM      1  C   UNL     1     213.926 198.012 215.966  1.00  0.00     0.043 A 
ATOM      2  C   UNL     1     212.971 197.030 216.137  1.00  0.00     0.196 A 
ATOM      3  O   UNL     1     212.340 196.824 215.004  1.00  0.00    -0.462 OA
ATOM      4  C   UNL     1     212.840 197.629 214.097  1.00  0.00     0.166 A 
ATOM      5  C   UNL     1     213.843 198.401 214.646  1.00  0.00     0.054 A 
ENDROOT
BRANCH   4   6
ATOM      6  C   UNL     1     212.388 197.688 212.705  1.00  0.00     0.298 C 
ATOM      7  O   UNL     1     211.675 198.647 212.311  1.00  0.00    -0.294 OA
ENDBRANCH   4   6
TORSDOF 1
ENDMDL
MODEL 2
REMARK VINA RESULT:    -3.081      1.569      3.374
REMARK INTER + INTRA:          -3.272
REMARK INTER:                  -3.260
REMARK INTRA:                  -0.011
REMARK UNBOUND:                -0.011
REMARK SMILES O=Cc1ccco1
REMARK SMILES IDX 5 1 6 2 7 3 3 4 4 5 2 6 1 7
REMARK H PARENT
REMARK Flexibility Score: inf
ROOT
ATOM      1  C   UNL     1     212.192 197.416 211.520  1.00  0.00     0.043 A 
ATOM      2  C   UNL     1     212.645 196.119 211.658  1.00  0.00     0.196 A 
ATOM      3  O   UNL     1     212.987 195.900 212.907  1.00  0.00    -0.462 OA
ATOM      4  C   UNL     1     212.776 196.998 213.595  1.00  0.00     0.166 A 
ATOM      5  C   UNL     1     212.276 197.986 212.773  1.00  0.00     0.054 A 
ENDROOT
BRANCH   4   6
ATOM      6  C   UNL     1     213.041 197.137 215.029  1.00  0.00     0.298 C 
ATOM      7  O   UNL     1     212.243 196.647 215.870  1.00  0.00    -0.294 OA
ENDBRANCH   4   6
TORSDOF 1
ENDMDL
MODEL 3
REMARK VINA RESULT:    -3.011      1.237      3.511
REMARK INTER + INTRA:          -3.198
REMARK INTER:                  -3.186
REMARK INTRA:                  -0.012
REMARK UNBOUND:                -0.011
REMARK SMILES O=Cc1ccco1
REMARK SMILES IDX 5 1 6 2 7 3 3 4 4 5 2 6 1 7
REMARK H PARENT
REMARK Flexibility Score: inf
ROOT
ATOM      1  C   UNL     1     212.234 196.921 211.312  1.00  0.00     0.043 A 
ATOM      2  C   UNL     1     211.868 198.178 211.753  1.00  0.00     0.196 A 
ATOM      3  O   UNL     1     212.136 198.293 213.033  1.00  0.00    -0.462 OA
ATOM      4  C   UNL     1     212.664 197.166 213.451  1.00  0.00     0.166 A 
ATOM      5  C   UNL     1     212.749 196.265 212.410  1.00  0.00     0.054 A 
ENDROOT
BRANCH   4   6
ATOM      6  C   UNL     1     213.094 196.917 214.829  1.00  0.00     0.298 C 
ATOM      7  O   UNL     1     212.240 196.730 215.734  1.00  0.00    -0.294 OA
ENDBRANCH   4   6
TORSDOF 1
ENDMDL
MODEL 4
REMARK VINA RESULT:    -2.876      2.038      3.099
REMARK INTER + INTRA:          -3.055
REMARK INTER:                  -3.043
REMARK INTRA:                  -0.012
REMARK UNBOUND:                -0.011
REMARK SMILES O=Cc1ccco1
REMARK SMILES IDX 5 1 6 2 7 3 3 4 4 5 2 6 1 7
REMARK H PARENT
REMARK Flexibility Score: inf
ROOT
ATOM      1  C   UNL     1     213.017 196.423 212.888  1.00  0.00     0.043 A 
ATOM      2  C   UNL     1     212.709 197.663 213.410  1.00  0.00     0.196 A 
ATOM      3  O   UNL     1     211.943 198.320 212.569  1.00  0.00    -0.462 OA
ATOM      4  C   UNL     1     211.735 197.563 211.517  1.00  0.00     0.166 A 
ATOM      5  C   UNL     1     212.387 196.356 211.663  1.00  0.00     0.054 A 
ENDROOT
BRANCH   4   6
ATOM      6  C   UNL     1     210.925 197.958 210.362  1.00  0.00     0.298 C 
ATOM      7  O   UNL     1     209.698 198.200 210.504  1.00  0.00    -0.294 OA
ENDBRANCH   4   6
TORSDOF 1
ENDMDL
MODEL 5
REMARK VINA RESULT:    -2.861      2.048      3.872
REMARK INTER + INTRA:          -3.039
REMARK INTER:                  -3.027
REMARK INTRA:                  -0.012
REMARK UNBOUND:                -0.011
REMARK SMILES O=Cc1ccco1
REMARK SMILES IDX 5 1 6 2 7 3 3 4 4 5 2 6 1 7
REMARK H PARENT
REMARK Flexibility Score: inf
ROOT
ATOM      1  C   UNL     1     211.506 198.706 211.067  1.00  0.00     0.043 A 
ATOM      2  C   UNL     1     211.901 197.599 210.344  1.00  0.00     0.196 A 
ATOM      3  O   UNL     1     212.464 196.724 211.146  1.00  0.00    -0.462 OA
ATOM      4  C   UNL     1     212.454 197.210 212.365  1.00  0.00     0.166 A 
ATOM      5  C   UNL     1     211.863 198.457 212.375  1.00  0.00     0.054 A 
ENDROOT
BRANCH   4   6
ATOM      6  C   UNL     1     212.997 196.517 213.535  1.00  0.00     0.298 C 
ATOM      7  O   UNL     1     212.661 196.873 214.694  1.00  0.00    -0.294 OA
ENDBRANCH   4   6
TORSDOF 1
ENDMDL
MODEL 6
REMARK VINA RESULT:    -2.826      2.315      2.894
REMARK INTER + INTRA:          -3.002
REMARK INTER:                  -2.992
REMARK INTRA:                  -0.011
REMARK UNBOUND:                -0.011
REMARK SMILES O=Cc1ccco1
REMARK SMILES IDX 5 1 6 2 7 3 3 4 4 5 2 6 1 7
REMARK H PARENT
REMARK Flexibility Score: inf
ROOT
ATOM      1  C   UNL     1     213.012 197.125 213.506  1.00  0.00     0.043 A 
ATOM      2  C   UNL     1     213.096 195.948 212.790  1.00  0.00     0.196 A 
ATOM      3  O   UNL     1     212.447 196.073 211.654  1.00  0.00    -0.462 OA
ATOM      4  C   UNL     1     211.942 197.283 211.594  1.00  0.00     0.166 A 
ATOM      5  C   UNL     1     212.266 197.990 212.734  1.00  0.00     0.054 A 
ENDROOT
BRANCH   4   6
ATOM      6  C   UNL     1     211.151 197.793 210.473  1.00  0.00     0.298 C 
ATOM      7  O   UNL     1     209.900 197.895 210.575  1.00  0.00    -0.294 OA
ENDBRANCH   4   6
TORSDOF 1
ENDMDL
MODEL 7
REMARK VINA RESULT:    -2.669     16.158     17.412
REMARK INTER + INTRA:          -2.836
REMARK INTER:                  -2.820
REMARK INTRA:                  -0.016
REMARK UNBOUND:                -0.011
REMARK SMILES O=Cc1ccco1
REMARK SMILES IDX 5 1 6 2 7 3 3 4 4 5 2 6 1 7
REMARK H PARENT
REMARK Flexibility Score: inf
ROOT
ATOM      1  C   UNL     1     199.184 204.168 208.058  1.00  0.00     0.043 A 
ATOM      2  C   UNL     1     200.147 204.868 208.757  1.00  0.00     0.196 A 
ATOM      3  O   UNL     1     199.608 205.932 209.309  1.00  0.00    -0.462 OA
ATOM      4  C   UNL     1     198.332 205.958 209.001  1.00  0.00     0.166 A 
ATOM      5  C   UNL     1     198.009 204.872 208.215  1.00  0.00     0.054 A 
ENDROOT
BRANCH   4   6
ATOM      6  C   UNL     1     197.399 206.999 209.439  1.00  0.00     0.298 C 
ATOM      7  O   UNL     1     197.823 208.011 210.055  1.00  0.00    -0.294 OA
ENDBRANCH   4   6
TORSDOF 1
ENDMDL
MODEL 8
REMARK VINA RESULT:    -2.655     19.099     19.957
REMARK INTER + INTRA:          -2.821
REMARK INTER:                  -2.809
REMARK INTRA:                  -0.012
REMARK UNBOUND:                -0.011
REMARK SMILES O=Cc1ccco1
REMARK SMILES IDX 5 1 6 2 7 3 3 4 4 5 2 6 1 7
REMARK H PARENT
REMARK Flexibility Score: inf
ROOT
ATOM      1  C   UNL     1     197.474 208.549 210.599  1.00  0.00     0.043 A 
ATOM      2  C   UNL     1     196.621 209.501 210.077  1.00  0.00     0.196 A 
ATOM      3  O   UNL     1     195.976 209.001 209.048  1.00  0.00    -0.462 OA
ATOM      4  C   UNL     1     196.370 207.761 208.873  1.00  0.00     0.166 A 
ATOM      5  C   UNL     1     197.313 207.423 209.821  1.00  0.00     0.054 A 
ENDROOT
BRANCH   4   6
ATOM      6  C   UNL     1     195.871 206.877 207.817  1.00  0.00     0.298 C 
ATOM      7  O   UNL     1     196.365 205.729 207.666  1.00  0.00    -0.294 OA
ENDBRANCH   4   6
TORSDOF 1
ENDMDL
MODEL 9
REMARK VINA RESULT:    -2.614     19.629     20.384
REMARK INTER + INTRA:          -2.777
REMARK INTER:                  -2.761
REMARK INTRA:                  -0.016
REMARK UNBOUND:                -0.011
REMARK SMILES O=Cc1ccco1
REMARK SMILES IDX 5 1 6 2 7 3 3 4 4 5 2 6 1 7
REMARK H PARENT
REMARK Flexibility Score: inf
ROOT
ATOM      1  C   UNL     1     196.206 206.620 207.885  1.00  0.00     0.043 A 
ATOM      2  C   UNL     1     195.396 207.723 207.700  1.00  0.00     0.196 A 
ATOM      3  O   UNL     1     195.649 208.619 208.626  1.00  0.00    -0.462 OA
ATOM      4  C   UNL     1     196.593 208.152 209.410  1.00  0.00     0.166 A 
ATOM      5  C   UNL     1     196.981 206.897 208.991  1.00  0.00     0.054 A 
ENDROOT
BRANCH   4   6
ATOM      6  C   UNL     1     197.142 208.873 210.561  1.00  0.00     0.298 C 
ATOM      7  O   UNL     1     196.736 210.032 210.834  1.00  0.00    -0.294 OA
ENDBRANCH   4   6
TORSDOF 1
ENDMDL
