MODEL 1
REMARK VINA RESULT:    -2.594      0.000      0.000
REMARK INTER + INTRA:          -4.074
REMARK INTER:                  -3.958
REMARK INTRA:                  -0.116
REMARK UNBOUND:                -0.116
REMARK SMILES CC1=CCC[C@@H](C)C(=O)C[C@H](C(C)C)C(=O)C1
REMARK SMILES IDX 8 1 9 2 6 3 7 4 5 5 4 6 3 7 2 8 1 9 10 11 11 12 15 13 16 14
REMARK SMILES IDX 17 15 12 17 13 18 14 19
REMARK H PARENT
REMARK Flexibility Score: 70.00
ROOT
ATOM      1  C   UNL     1     190.278 204.031 211.531  1.00  0.00     0.136 C 
ATOM      2  O   UNL     1     191.299 204.361 210.943  1.00  0.00    -0.299 OA
ENDROOT
BRANCH   1   3
ATOM      3  C   UNL     1     190.325 203.924 213.048  1.00  0.00     0.053 C 
ATOM      4  C   UNL     1     191.058 205.129 213.655  1.00  0.00     0.016 C 
BRANCH   3   5
ATOM      5  C   UNL     1     190.947 202.593 213.536  1.00  0.00     0.015 C 
BRANCH   5   6
ATOM      6  C   UNL     1     189.951 201.440 213.785  1.00  0.00     0.028 C 
BRANCH   6   7
ATOM      7  C   UNL     1     188.506 201.823 214.010  1.00  0.00    -0.028 C 
ATOM      8  C   UNL     1     187.441 201.412 213.280  1.00  0.00    -0.070 CG0
ATOM      9  C   UNL     1     186.066 201.780 213.777  1.00  0.00     0.039 C 
ATOM     10  G   UNL     1     187.556 200.670 211.963  1.00  0.00     0.000 G0
ENDBRANCH   6   7
ENDBRANCH   5   6
ENDBRANCH   3   5
ENDBRANCH   1   3
BRANCH   1  11
ATOM     11  C   UNL     1     189.042 203.723 210.700  1.00  0.00     0.087 C 
BRANCH  11  12
ATOM     12  C   UNL     1     188.898 202.229 210.307  1.00  0.00     0.066 C 
BRANCH  12  13
ATOM     13  C   UNL     1     187.584 201.639 210.787  1.00  0.00     0.140 C 
ATOM     14  O   UNL     1     186.532 202.004 210.284  1.00  0.00    -0.299 OA
BRANCH  13  15
ATOM     15  C   UNL     1     187.548 200.665 211.943  1.00  0.00     0.106 CG0
ATOM     16  G   UNL     1     187.482 201.421 213.255  1.00  0.00     0.000 G0
ENDBRANCH  13  15
ENDBRANCH  12  13
BRANCH  12  17
ATOM     17  C   UNL     1     189.188 201.973 208.793  1.00  0.00    -0.006 C 
ATOM     18  C   UNL     1     188.337 202.803 207.814  1.00  0.00     0.008 C 
ATOM     19  C   UNL     1     189.058 200.479 208.454  1.00  0.00     0.008 C 
ENDBRANCH  12  17
ENDBRANCH  11  12
ENDBRANCH   1  11
TORSDOF 1
ENDMDL
MODEL 2
REMARK VINA RESULT:    -2.577      3.391      4.632
REMARK INTER + INTRA:          -4.049
REMARK INTER:                  -3.721
REMARK INTRA:                  -0.329
REMARK UNBOUND:                -0.116
REMARK SMILES CC1=CCC[C@@H](C)C(=O)C[C@H](C(C)C)C(=O)C1
REMARK SMILES IDX 8 1 9 2 6 3 7 4 5 5 4 6 3 7 2 8 1 9 10 11 11 12 15 13 16 14
REMARK SMILES IDX 17 15 12 17 13 18 14 19
REMARK H PARENT
REMARK Flexibility Score: 70.00
ROOT
ATOM      1  C   UNL     1     185.000 200.747 211.262  1.00  0.00     0.136 C 
ATOM      2  O   UNL     1     184.006 201.241 210.747  1.00  0.00    -0.299 OA
ENDROOT
BRANCH   1   3
ATOM      3  C   UNL     1     185.836 201.615 212.190  1.00  0.00     0.053 C 
ATOM      4  C   UNL     1     186.981 202.288 211.418  1.00  0.00     0.016 C 
BRANCH   3   5
ATOM      5  C   UNL     1     186.376 200.836 213.415  1.00  0.00     0.015 C 
BRANCH   5   6
ATOM      6  C   UNL     1     187.857 200.408 213.335  1.00  0.00     0.028 C 
BRANCH   6   7
ATOM      7  C   UNL     1     188.164 198.954 213.606  1.00  0.00    -0.028 C 
ATOM      8  C   UNL     1     188.673 198.060 212.724  1.00  0.00    -0.070 CG0
ATOM      9  C   UNL     1     189.059 196.699 213.247  1.00  0.00     0.039 C 
ATOM     10  G   UNL     1     188.808 198.324 211.238  1.00  0.00     0.000 G0
ENDBRANCH   6   7
ENDBRANCH   5   6
ENDBRANCH   3   5
ENDBRANCH   1   3
BRANCH   1  11
ATOM     11  C   UNL     1     185.345 199.307 210.914  1.00  0.00     0.087 C 
BRANCH  11  12
ATOM     12  C   UNL     1     186.605 199.155 210.020  1.00  0.00     0.066 C 
BRANCH  12  13
ATOM     13  C   UNL     1     187.503 198.025 210.491  1.00  0.00     0.140 C 
ATOM     14  O   UNL     1     187.141 196.865 210.359  1.00  0.00    -0.299 OA
BRANCH  13  15
ATOM     15  C   UNL     1     188.806 198.313 211.202  1.00  0.00     0.106 CG0
ATOM     16  G   UNL     1     188.648 198.067 212.690  1.00  0.00     0.000 G0
ENDBRANCH  13  15
ENDBRANCH  12  13
BRANCH  12  17
ATOM     17  C   UNL     1     186.261 199.094 208.498  1.00  0.00    -0.006 C 
ATOM     18  C   UNL     1     186.467 200.412 207.727  1.00  0.00     0.008 C 
ATOM     19  C   UNL     1     184.827 198.586 208.278  1.00  0.00     0.008 C 
ENDBRANCH  12  17
ENDBRANCH  11  12
ENDBRANCH   1  11
TORSDOF 1
ENDMDL
MODEL 3
REMARK VINA RESULT:    -2.444      1.882      4.097
REMARK INTER + INTRA:          -3.846
REMARK INTER:                  -3.836
REMARK INTRA:                  -0.010
REMARK UNBOUND:                -0.116
REMARK SMILES CC1=CCC[C@@H](C)C(=O)C[C@H](C(C)C)C(=O)C1
REMARK SMILES IDX 8 1 9 2 6 3 7 4 5 5 4 6 3 7 2 8 1 9 10 11 11 12 15 13 16 14
REMARK SMILES IDX 17 15 12 17 13 18 14 19
REMARK H PARENT
REMARK Flexibility Score: 70.00
ROOT
ATOM      1  C   UNL     1     185.730 199.749 210.718  1.00  0.00     0.136 C 
ATOM      2  O   UNL     1     184.914 199.201 209.991  1.00  0.00    -0.299 OA
ENDROOT
BRANCH   1   3
ATOM      3  C   UNL     1     185.216 200.507 211.933  1.00  0.00     0.053 C 
ATOM      4  C   UNL     1     184.989 201.988 211.593  1.00  0.00     0.016 C 
BRANCH   3   5
ATOM      5  C   UNL     1     186.139 200.357 213.168  1.00  0.00     0.015 C 
BRANCH   5   6
ATOM      6  C   UNL     1     186.646 201.678 213.787  1.00  0.00     0.028 C 
BRANCH   6   7
ATOM      7  C   UNL     1     188.128 201.776 214.067  1.00  0.00    -0.028 C 
ATOM      8  C   UNL     1     189.072 202.281 213.236  1.00  0.00    -0.070 CG0
ATOM      9  C   UNL     1     190.471 202.439 213.777  1.00  0.00     0.039 C 
ATOM     10  G   UNL     1     188.819 202.626 211.782  1.00  0.00     0.000 G0
ENDBRANCH   6   7
ENDBRANCH   5   6
ENDBRANCH   3   5
ENDBRANCH   1   3
BRANCH   1  11
ATOM     11  C   UNL     1     187.201 199.658 210.340  1.00  0.00     0.087 C 
BRANCH  11  12
ATOM     12  C   UNL     1     187.839 201.017 209.943  1.00  0.00     0.066 C 
BRANCH  12  13
ATOM     13  C   UNL     1     188.962 201.413 210.885  1.00  0.00     0.140 C 
ATOM     14  O   UNL     1     189.951 200.702 210.986  1.00  0.00    -0.299 OA
BRANCH  13  15
ATOM     15  C   UNL     1     188.841 202.634 211.768  1.00  0.00     0.106 CG0
ATOM     16  G   UNL     1     189.058 202.247 213.217  1.00  0.00     0.000 G0
ENDBRANCH  13  15
ENDBRANCH  12  13
BRANCH  12  17
ATOM     17  C   UNL     1     188.229 201.082 208.433  1.00  0.00    -0.006 C 
ATOM     18  C   UNL     1     188.058 202.463 207.771  1.00  0.00     0.008 C 
ATOM     19  C   UNL     1     187.466 200.023 207.622  1.00  0.00     0.008 C 
ENDBRANCH  12  17
ENDBRANCH  11  12
ENDBRANCH   1  11
TORSDOF 1
ENDMDL
MODEL 4
REMARK VINA RESULT:    -2.340      2.018      2.901
REMARK INTER + INTRA:          -3.688
REMARK INTER:                  -4.053
REMARK INTRA:                   0.365
REMARK UNBOUND:                -0.116
REMARK SMILES CC1=CCC[C@@H](C)C(=O)C[C@H](C(C)C)C(=O)C1
REMARK SMILES IDX 8 1 9 2 6 3 7 4 5 5 4 6 3 7 2 8 1 9 10 11 11 12 15 13 16 14
REMARK SMILES IDX 17 15 12 17 13 18 14 19
REMARK H PARENT
REMARK Flexibility Score: 70.00
ROOT
ATOM      1  C   UNL     1     188.552 202.244 210.001  1.00  0.00     0.136 C 
ATOM      2  O   UNL     1     189.521 201.684 209.508  1.00  0.00    -0.299 OA
ENDROOT
BRANCH   1   3
ATOM      3  C   UNL     1     188.801 203.378 210.985  1.00  0.00     0.053 C 
ATOM      4  C   UNL     1     189.569 204.524 210.309  1.00  0.00     0.016 C 
BRANCH   3   5
ATOM      5  C   UNL     1     189.525 202.909 212.271  1.00  0.00     0.015 C 
BRANCH   5   6
ATOM      6  C   UNL     1     188.622 202.285 213.357  1.00  0.00     0.028 C 
BRANCH   6   7
ATOM      7  C   UNL     1     188.671 200.782 213.505  1.00  0.00    -0.028 C 
ATOM      8  C   UNL     1     187.649 199.918 213.294  1.00  0.00    -0.070 CG0
ATOM      9  C   UNL     1     187.956 198.442 213.338  1.00  0.00     0.039 C 
ATOM     10  G   UNL     1     186.210 200.348 213.091  1.00  0.00     0.000 G0
ENDBRANCH   6   7
ENDBRANCH   5   6
ENDBRANCH   3   5
ENDBRANCH   1   3
BRANCH   1  11
ATOM     11  C   UNL     1     187.166 201.748 209.618  1.00  0.00     0.087 C 
BRANCH  11  12
ATOM     12  C   UNL     1     186.646 200.579 210.498  1.00  0.00     0.066 C 
BRANCH  12  13
ATOM     13  C   UNL     1     186.003 201.075 211.780  1.00  0.00     0.140 C 
ATOM     14  O   UNL     1     185.386 202.131 211.782  1.00  0.00    -0.299 OA
BRANCH  13  15
ATOM     15  C   UNL     1     186.185 200.327 213.080  1.00  0.00     0.106 CG0
ATOM     16  G   UNL     1     187.640 199.937 213.253  1.00  0.00     0.000 G0
ENDBRANCH  13  15
ENDBRANCH  12  13
BRANCH  12  17
ATOM     17  C   UNL     1     185.762 199.570 209.698  1.00  0.00    -0.006 C 
ATOM     18  C   UNL     1     185.649 199.852 208.188  1.00  0.00     0.008 C 
ATOM     19  C   UNL     1     184.357 199.465 210.311  1.00  0.00     0.008 C 
ENDBRANCH  12  17
ENDBRANCH  11  12
ENDBRANCH   1  11
TORSDOF 1
ENDMDL
MODEL 5
REMARK VINA RESULT:    -2.312      2.647      4.179
REMARK INTER + INTRA:          -3.645
REMARK INTER:                  -3.643
REMARK INTRA:                  -0.002
REMARK UNBOUND:                -0.116
REMARK SMILES CC1=CCC[C@@H](C)C(=O)C[C@H](C(C)C)C(=O)C1
REMARK SMILES IDX 8 1 9 2 6 3 7 4 5 5 4 6 3 7 2 8 1 9 10 11 11 12 15 13 16 14
REMARK SMILES IDX 17 15 12 17 13 18 14 19
REMARK H PARENT
REMARK Flexibility Score: 70.00
ROOT
ATOM      1  C   UNL     1     189.917 201.358 213.508  1.00  0.00     0.136 C 
ATOM      2  O   UNL     1     190.677 200.578 214.065  1.00  0.00    -0.299 OA
ENDROOT
BRANCH   1   3
ATOM      3  C   UNL     1     190.512 202.381 212.551  1.00  0.00     0.053 C 
ATOM      4  C   UNL     1     189.477 203.461 212.202  1.00  0.00     0.016 C 
BRANCH   3   5
ATOM      5  C   UNL     1     191.094 201.736 211.269  1.00  0.00     0.015 C 
BRANCH   5   6
ATOM      6  C   UNL     1     190.178 200.715 210.560  1.00  0.00     0.028 C 
BRANCH   6   7
ATOM      7  C   UNL     1     190.444 199.252 210.835  1.00  0.00    -0.028 C 
ATOM      8  C   UNL     1     189.513 198.285 211.018  1.00  0.00    -0.070 CG0
ATOM      9  C   UNL     1     189.992 196.859 211.115  1.00  0.00     0.039 C 
ATOM     10  G   UNL     1     188.034 198.562 211.203  1.00  0.00     0.000 G0
ENDBRANCH   6   7
ENDBRANCH   5   6
ENDBRANCH   3   5
ENDBRANCH   1   3
BRANCH   1  11
ATOM     11  C   UNL     1     188.434 201.268 213.833  1.00  0.00     0.087 C 
BRANCH  11  12
ATOM     12  C   UNL     1     187.569 200.673 212.690  1.00  0.00     0.066 C 
BRANCH  12  13
ATOM     13  C   UNL     1     187.764 199.174 212.550  1.00  0.00     0.140 C 
ATOM     14  O   UNL     1     187.779 198.467 213.547  1.00  0.00    -0.299 OA
BRANCH  13  15
ATOM     15  C   UNL     1     188.029 198.549 211.200  1.00  0.00     0.106 CG0
ATOM     16  G   UNL     1     189.512 198.289 211.031  1.00  0.00     0.000 G0
ENDBRANCH  13  15
ENDBRANCH  12  13
BRANCH  12  17
ATOM     17  C   UNL     1     186.071 201.109 212.778  1.00  0.00    -0.006 C 
ATOM     18  C   UNL     1     185.570 201.969 211.603  1.00  0.00     0.008 C 
ATOM     19  C   UNL     1     185.786 201.830 214.105  1.00  0.00     0.008 C 
ENDBRANCH  12  17
ENDBRANCH  11  12
ENDBRANCH   1  11
TORSDOF 1
ENDMDL
MODEL 6
REMARK VINA RESULT:    -2.101      2.732      5.212
REMARK INTER + INTRA:          -3.322
REMARK INTER:                  -3.305
REMARK INTRA:                  -0.017
REMARK UNBOUND:                -0.116
REMARK SMILES CC1=CCC[C@@H](C)C(=O)C[C@H](C(C)C)C(=O)C1
REMARK SMILES IDX 8 1 9 2 6 3 7 4 5 5 4 6 3 7 2 8 1 9 10 11 11 12 15 13 16 14
REMARK SMILES IDX 17 15 12 17 13 18 14 19
REMARK H PARENT
REMARK Flexibility Score: 70.00
ROOT
ATOM      1  C   UNL     1     187.445 198.289 210.455  1.00  0.00     0.136 C 
ATOM      2  O   UNL     1     186.457 197.721 210.011  1.00  0.00    -0.299 OA
ENDROOT
BRANCH   1   3
ATOM      3  C   UNL     1     188.611 197.436 210.933  1.00  0.00     0.053 C 
ATOM      4  C   UNL     1     188.556 196.038 210.300  1.00  0.00     0.016 C 
BRANCH   3   5
ATOM      5  C   UNL     1     188.692 197.343 212.477  1.00  0.00     0.015 C 
BRANCH   5   6
ATOM      6  C   UNL     1     190.014 197.831 213.107  1.00  0.00     0.028 C 
BRANCH   6   7
ATOM      7  C   UNL     1     190.792 198.876 212.340  1.00  0.00    -0.028 C 
ATOM      8  C   UNL     1     190.673 200.220 212.464  1.00  0.00    -0.070 CG0
ATOM      9  C   UNL     1     191.662 201.084 211.723  1.00  0.00     0.039 C 
ATOM     10  G   UNL     1     189.564 200.901 213.242  1.00  0.00     0.000 G0
ENDBRANCH   6   7
ENDBRANCH   5   6
ENDBRANCH   3   5
ENDBRANCH   1   3
BRANCH   1  11
ATOM     11  C   UNL     1     187.425 199.808 210.525  1.00  0.00     0.087 C 
BRANCH  11  12
ATOM     12  C   UNL     1     187.313 200.375 211.966  1.00  0.00     0.066 C 
BRANCH  12  13
ATOM     13  C   UNL     1     188.444 201.335 212.289  1.00  0.00     0.140 C 
ATOM     14  O   UNL     1     188.497 202.422 211.733  1.00  0.00    -0.299 OA
BRANCH  13  15
ATOM     15  C   UNL     1     189.559 200.933 213.227  1.00  0.00     0.106 CG0
ATOM     16  G   UNL     1     190.660 200.236 212.453  1.00  0.00     0.000 G0
ENDBRANCH  13  15
ENDBRANCH  12  13
BRANCH  12  17
ATOM     17  C   UNL     1     185.893 200.945 212.281  1.00  0.00    -0.006 C 
ATOM     18  C   UNL     1     185.296 201.856 211.191  1.00  0.00     0.008 C 
ATOM     19  C   UNL     1     185.882 201.680 213.631  1.00  0.00     0.008 C 
ENDBRANCH  12  17
ENDBRANCH  11  12
ENDBRANCH   1  11
TORSDOF 1
ENDMDL
MODEL 7
REMARK VINA RESULT:    -2.091      2.257      4.392
REMARK INTER + INTRA:          -3.307
REMARK INTER:                  -3.424
REMARK INTRA:                   0.117
REMARK UNBOUND:                -0.116
REMARK SMILES CC1=CCC[C@@H](C)C(=O)C[C@H](C(C)C)C(=O)C1
REMARK SMILES IDX 8 1 9 2 6 3 7 4 5 5 4 6 3 7 2 8 1 9 10 11 11 12 15 13 16 14
REMARK SMILES IDX 17 15 12 17 13 18 14 19
REMARK H PARENT
REMARK Flexibility Score: 70.00
ROOT
ATOM      1  C   UNL     1     187.744 202.114 209.170  1.00  0.00     0.136 C 
ATOM      2  O   UNL     1     187.205 201.217 208.538  1.00  0.00    -0.299 OA
ENDROOT
BRANCH   1   3
ATOM      3  C   UNL     1     188.790 202.964 208.462  1.00  0.00     0.053 C 
ATOM      4  C   UNL     1     188.566 202.946 206.943  1.00  0.00     0.016 C 
BRANCH   3   5
ATOM      5  C   UNL     1     190.239 202.547 208.814  1.00  0.00     0.015 C 
BRANCH   5   6
ATOM      6  C   UNL     1     190.709 202.902 210.241  1.00  0.00     0.028 C 
BRANCH   6   7
ATOM      7  C   UNL     1     191.266 201.773 211.078  1.00  0.00    -0.028 C 
ATOM      8  C   UNL     1     190.622 201.113 212.071  1.00  0.00    -0.070 CG0
ATOM      9  C   UNL     1     191.301 199.906 212.668  1.00  0.00     0.039 C 
ATOM     10  G   UNL     1     189.300 201.561 212.662  1.00  0.00     0.000 G0
ENDBRANCH   6   7
ENDBRANCH   5   6
ENDBRANCH   3   5
ENDBRANCH   1   3
BRANCH   1  11
ATOM     11  C   UNL     1     187.353 202.298 210.628  1.00  0.00     0.087 C 
BRANCH  11  12
ATOM     12  C   UNL     1     187.057 200.971 211.377  1.00  0.00     0.066 C 
BRANCH  12  13
ATOM     13  C   UNL     1     188.188 200.582 212.312  1.00  0.00     0.140 C 
ATOM     14  O   UNL     1     188.185 199.482 212.847  1.00  0.00    -0.299 OA
BRANCH  13  15
ATOM     15  C   UNL     1     189.280 201.567 212.661  1.00  0.00     0.106 CG0
ATOM     16  G   UNL     1     190.601 201.103 212.080  1.00  0.00     0.000 G0
ENDBRANCH  13  15
ENDBRANCH  12  13
BRANCH  12  17
ATOM     17  C   UNL     1     185.649 200.961 212.053  1.00  0.00    -0.006 C 
ATOM     18  C   UNL     1     184.458 201.117 211.088  1.00  0.00     0.008 C 
ATOM     19  C   UNL     1     185.562 202.026 213.158  1.00  0.00     0.008 C 
ENDBRANCH  12  17
ENDBRANCH  11  12
ENDBRANCH   1  11
TORSDOF 1
ENDMDL
MODEL 8
REMARK VINA RESULT:    -2.083      3.054      5.514
REMARK INTER + INTRA:          -3.295
REMARK INTER:                  -3.123
REMARK INTRA:                  -0.172
REMARK UNBOUND:                -0.116
REMARK SMILES CC1=CCC[C@@H](C)C(=O)C[C@H](C(C)C)C(=O)C1
REMARK SMILES IDX 8 1 9 2 6 3 7 4 5 5 4 6 3 7 2 8 1 9 10 11 11 12 15 13 16 14
REMARK SMILES IDX 17 15 12 17 13 18 14 19
REMARK H PARENT
REMARK Flexibility Score: 70.00
ROOT
ATOM      1  C   UNL     1     187.722 201.039 210.319  1.00  0.00     0.136 C 
ATOM      2  O   UNL     1     187.140 202.111 210.404  1.00  0.00    -0.299 OA
ENDROOT
BRANCH   1   3
ATOM      3  C   UNL     1     187.388 200.131 209.144  1.00  0.00     0.053 C 
ATOM      4  C   UNL     1     186.019 199.464 209.347  1.00  0.00     0.016 C 
BRANCH   3   5
ATOM      5  C   UNL     1     188.486 199.073 208.874  1.00  0.00     0.015 C 
BRANCH   5   6
ATOM      6  C   UNL     1     188.216 197.667 209.453  1.00  0.00     0.028 C 
BRANCH   6   7
ATOM      7  C   UNL     1     189.347 197.013 210.214  1.00  0.00    -0.028 C 
ATOM      8  C   UNL     1     189.388 196.773 211.547  1.00  0.00    -0.070 CG0
ATOM      9  C   UNL     1     190.541 195.960 212.079  1.00  0.00     0.039 C 
ATOM     10  G   UNL     1     188.386 197.335 212.536  1.00  0.00     0.000 G0
ENDBRANCH   6   7
ENDBRANCH   5   6
ENDBRANCH   3   5
ENDBRANCH   1   3
BRANCH   1  11
ATOM     11  C   UNL     1     188.719 200.676 211.410  1.00  0.00     0.087 C 
BRANCH  11  12
ATOM     12  C   UNL     1     188.085 199.968 212.637  1.00  0.00     0.066 C 
BRANCH  12  13
ATOM     13  C   UNL     1     188.843 198.710 213.021  1.00  0.00     0.140 C 
ATOM     14  O   UNL     1     189.880 198.796 213.662  1.00  0.00    -0.299 OA
BRANCH  13  15
ATOM     15  C   UNL     1     188.381 197.351 212.548  1.00  0.00     0.106 CG0
ATOM     16  G   UNL     1     189.385 196.774 211.571  1.00  0.00     0.000 G0
ENDBRANCH  13  15
ENDBRANCH  12  13
BRANCH  12  17
ATOM     17  C   UNL     1     187.834 200.942 213.832  1.00  0.00    -0.006 C 
ATOM     18  C   UNL     1     186.390 201.465 213.958  1.00  0.00     0.008 C 
ATOM     19  C   UNL     1     188.810 202.128 213.789  1.00  0.00     0.008 C 
ENDBRANCH  12  17
ENDBRANCH  11  12
ENDBRANCH   1  11
TORSDOF 1
ENDMDL
MODEL 9
REMARK VINA RESULT:    -2.067      2.608      5.903
REMARK INTER + INTRA:          -3.270
REMARK INTER:                  -3.264
REMARK INTRA:                  -0.006
REMARK UNBOUND:                -0.116
REMARK SMILES CC1=CCC[C@@H](C)C(=O)C[C@H](C(C)C)C(=O)C1
REMARK SMILES IDX 8 1 9 2 6 3 7 4 5 5 4 6 3 7 2 8 1 9 10 11 11 12 15 13 16 14
REMARK SMILES IDX 17 15 12 17 13 18 14 19
REMARK H PARENT
REMARK Flexibility Score: 70.00
ROOT
ATOM      1  C   UNL     1     185.273 200.102 209.851  1.00  0.00     0.136 C 
ATOM      2  O   UNL     1     184.380 199.670 210.567  1.00  0.00    -0.299 OA
ENDROOT
BRANCH   1   3
ATOM      3  C   UNL     1     185.622 199.327 208.588  1.00  0.00     0.053 C 
ATOM      4  C   UNL     1     186.097 197.909 208.937  1.00  0.00     0.016 C 
BRANCH   3   5
ATOM      5  C   UNL     1     186.661 200.059 207.704  1.00  0.00     0.015 C 
BRANCH   5   6
ATOM      6  C   UNL     1     188.104 199.515 207.780  1.00  0.00     0.028 C 
BRANCH   6   7
ATOM      7  C   UNL     1     189.220 200.534 207.772  1.00  0.00    -0.028 C 
ATOM      8  C   UNL     1     189.917 200.973 208.847  1.00  0.00    -0.070 CG0
ATOM      9  C   UNL     1     191.103 201.871 208.596  1.00  0.00     0.039 C 
ATOM     10  G   UNL     1     189.532 200.674 210.282  1.00  0.00     0.000 G0
ENDBRANCH   6   7
ENDBRANCH   5   6
ENDBRANCH   3   5
ENDBRANCH   1   3
BRANCH   1  11
ATOM     11  C   UNL     1     185.992 201.369 210.290  1.00  0.00     0.087 C 
BRANCH  11  12
ATOM     12  C   UNL     1     187.145 201.126 211.301  1.00  0.00     0.066 C 
BRANCH  12  13
ATOM     13  C   UNL     1     188.475 201.641 210.780  1.00  0.00     0.140 C 
ATOM     14  O   UNL     1     188.666 202.845 210.686  1.00  0.00    -0.299 OA
BRANCH  13  15
ATOM     15  C   UNL     1     189.541 200.686 210.294  1.00  0.00     0.106 CG0
ATOM     16  G   UNL     1     189.888 200.990 208.851  1.00  0.00     0.000 G0
ENDBRANCH  13  15
ENDBRANCH  12  13
BRANCH  12  17
ATOM     17  C   UNL     1     186.797 201.618 212.742  1.00  0.00    -0.006 C 
ATOM     18  C   UNL     1     187.127 200.624 213.871  1.00  0.00     0.008 C 
ATOM     19  C   UNL     1     185.322 202.039 212.838  1.00  0.00     0.008 C 
ENDBRANCH  12  17
ENDBRANCH  11  12
ENDBRANCH   1  11
TORSDOF 1
ENDMDL
