MODEL 1
REMARK VINA RESULT:    -7.347      0.000      0.000
REMARK INTER + INTRA:         -11.982
REMARK INTER:                 -11.427
REMARK INTRA:                  -0.555
REMARK UNBOUND:                -0.555
REMARK SMILES COc1cc(CNC(=O)CCCCC=CC(C)C)ccc1O
REMARK SMILES IDX 11 1 12 2 13 3 14 4 15 5 16 6 17 7 18 8 10 9 8 10 9 11 7 12
REMARK SMILES IDX 6 14 5 15 4 16 19 17 3 18 20 19 21 20 2 21 1 22 22 23
REMARK H PARENT 7 13 22 24
REMARK Flexibility Score: inf
ROOT
ATOM      1  C   UNL     1     -10.213 -69.270 -27.983  1.00  0.00     0.010 C 
ENDROOT
BRANCH   1   2
ATOM      2  C   UNL     1      -9.560 -68.368 -29.047  1.00  0.00     0.005 C 
BRANCH   2   3
ATOM      3  C   UNL     1     -10.420 -68.117 -30.298  1.00  0.00     0.027 C 
BRANCH   3   4
ATOM      4  C   UNL     1      -9.718 -67.247 -31.313  1.00  0.00    -0.031 C 
ATOM      5  C   UNL     1     -10.231 -66.765 -32.464  1.00  0.00    -0.028 C 
BRANCH   5   6
ATOM      6  C   UNL     1     -11.648 -66.899 -32.995  1.00  0.00     0.005 C 
ATOM      7  C   UNL     1     -12.617 -65.849 -32.439  1.00  0.00     0.012 C 
ATOM      8  C   UNL     1     -11.697 -66.995 -34.524  1.00  0.00     0.012 C 
ENDBRANCH   5   6
ENDBRANCH   3   4
ENDBRANCH   2   3
ENDBRANCH   1   2
BRANCH   1   9
ATOM      9  C   UNL     1      -9.268 -69.616 -26.828  1.00  0.00     0.100 C 
BRANCH   9  10
ATOM     10  C   UNL     1      -9.143 -68.451 -25.889  1.00  0.00     0.220 C 
ATOM     11  O   UNL     1      -8.171 -68.410 -25.084  1.00  0.00    -0.275 OA
ATOM     12  N   UNL     1     -10.137 -67.417 -25.881  1.00  0.00    -0.352 N 
ATOM     13  H   UNL     1     -10.967 -67.506 -26.508  1.00  0.00     0.163 HD
BRANCH  12  14
ATOM     14  C   UNL     1     -10.045 -66.248 -25.008  1.00  0.00     0.151 C 
BRANCH  14  15
ATOM     15  C   UNL     1     -11.302 -66.101 -24.197  1.00  0.00    -0.025 A 
ATOM     16  C   UNL     1     -12.545 -66.002 -24.842  1.00  0.00     0.056 A 
ATOM     17  C   UNL     1     -11.244 -66.016 -22.798  1.00  0.00     0.009 A 
ATOM     18  C   UNL     1     -13.727 -65.818 -24.095  1.00  0.00     0.160 A 
ATOM     19  C   UNL     1     -12.412 -65.838 -22.054  1.00  0.00     0.050 A 
ATOM     20  C   UNL     1     -13.652 -65.737 -22.698  1.00  0.00     0.157 A 
BRANCH  18  21
ATOM     21  O   UNL     1     -14.987 -65.711 -24.704  1.00  0.00    -0.493 OA
ATOM     22  C   UNL     1     -15.201 -65.680 -26.109  1.00  0.00     0.278 C 
ENDBRANCH  18  21
BRANCH  20  23
ATOM     23  O   UNL     1     -14.818 -65.556 -21.955  1.00  0.00    -0.504 OA
ATOM     24  H   UNL     1     -15.722 -65.464 -22.402  1.00  0.00     0.293 HD
ENDBRANCH  20  23
ENDBRANCH  14  15
ENDBRANCH  12  14
ENDBRANCH   9  10
ENDBRANCH   1   9
TORSDOF 10
ENDMDL
MODEL 2
REMARK VINA RESULT:    -7.210      2.849      5.545
REMARK INTER + INTRA:         -11.770
REMARK INTER:                 -11.033
REMARK INTRA:                  -0.737
REMARK UNBOUND:                -0.555
REMARK SMILES COc1cc(CNC(=O)CCCCC=CC(C)C)ccc1O
REMARK SMILES IDX 11 1 12 2 13 3 14 4 15 5 16 6 17 7 18 8 10 9 8 10 9 11 7 12
REMARK SMILES IDX 6 14 5 15 4 16 19 17 3 18 20 19 21 20 2 21 1 22 22 23
REMARK H PARENT 7 13 22 24
REMARK Flexibility Score: inf
ROOT
ATOM      1  C   UNL     1     -10.857 -65.891 -33.164  1.00  0.00     0.010 C 
ENDROOT
BRANCH   1   2
ATOM      2  C   UNL     1     -11.220 -66.324 -34.596  1.00  0.00     0.005 C 
BRANCH   2   3
ATOM      3  C   UNL     1     -12.244 -67.470 -34.685  1.00  0.00     0.027 C 
BRANCH   3   4
ATOM      4  C   UNL     1     -12.860 -67.584 -36.059  1.00  0.00    -0.031 C 
ATOM      5  C   UNL     1     -14.163 -67.441 -36.380  1.00  0.00    -0.028 C 
BRANCH   5   6
ATOM      6  C   UNL     1     -15.321 -67.056 -35.476  1.00  0.00     0.005 C 
ATOM      7  C   UNL     1     -16.371 -66.173 -36.161  1.00  0.00     0.012 C 
ATOM      8  C   UNL     1     -15.941 -68.266 -34.766  1.00  0.00     0.012 C 
ENDBRANCH   5   6
ENDBRANCH   3   4
ENDBRANCH   2   3
ENDBRANCH   1   2
BRANCH   1   9
ATOM      9  C   UNL     1     -11.406 -66.839 -32.093  1.00  0.00     0.100 C 
BRANCH   9  10
ATOM     10  C   UNL     1     -10.280 -67.461 -31.319  1.00  0.00     0.220 C 
ATOM     11  O   UNL     1      -9.091 -67.252 -31.686  1.00  0.00    -0.275 OA
ATOM     12  N   UNL     1     -10.555 -68.314 -30.198  1.00  0.00    -0.352 N 
ATOM     13  H   UNL     1     -11.548 -68.527 -29.954  1.00  0.00     0.163 HD
BRANCH  12  14
ATOM     14  C   UNL     1      -9.494 -68.919 -29.395  1.00  0.00     0.151 C 
BRANCH  14  15
ATOM     15  C   UNL     1      -9.154 -68.033 -28.228  1.00  0.00    -0.025 A 
ATOM     16  C   UNL     1      -9.927 -68.087 -27.058  1.00  0.00     0.056 A 
ATOM     17  C   UNL     1      -8.094 -67.118 -28.312  1.00  0.00     0.009 A 
ATOM     18  C   UNL     1      -9.646 -67.230 -25.974  1.00  0.00     0.160 A 
ATOM     19  C   UNL     1      -7.809 -66.271 -27.239  1.00  0.00     0.050 A 
ATOM     20  C   UNL     1      -8.583 -66.323 -26.073  1.00  0.00     0.157 A 
BRANCH  18  21
ATOM     21  O   UNL     1     -10.399 -67.251 -24.789  1.00  0.00    -0.493 OA
ATOM     22  C   UNL     1     -11.510 -66.404 -24.528  1.00  0.00     0.278 C 
ENDBRANCH  18  21
BRANCH  20  23
ATOM     23  O   UNL     1      -8.300 -65.474 -25.003  1.00  0.00    -0.504 OA
ATOM     24  H   UNL     1      -9.037 -65.016 -24.480  1.00  0.00     0.293 HD
ENDBRANCH  20  23
ENDBRANCH  14  15
ENDBRANCH  12  14
ENDBRANCH   9  10
ENDBRANCH   1   9
TORSDOF 10
ENDMDL
MODEL 3
REMARK VINA RESULT:    -7.154      1.813      2.348
REMARK INTER + INTRA:         -11.682
REMARK INTER:                 -10.957
REMARK INTRA:                  -0.724
REMARK UNBOUND:                -0.555
REMARK SMILES COc1cc(CNC(=O)CCCCC=CC(C)C)ccc1O
REMARK SMILES IDX 11 1 12 2 13 3 14 4 15 5 16 6 17 7 18 8 10 9 8 10 9 11 7 12
REMARK SMILES IDX 6 14 5 15 4 16 19 17 3 18 20 19 21 20 2 21 1 22 22 23
REMARK H PARENT 7 13 22 24
REMARK Flexibility Score: inf
ROOT
ATOM      1  C   UNL     1      -7.835 -66.861 -28.889  1.00  0.00     0.010 C 
ENDROOT
BRANCH   1   2
ATOM      2  C   UNL     1      -7.323 -66.547 -30.307  1.00  0.00     0.005 C 
BRANCH   2   3
ATOM      3  C   UNL     1      -8.403 -66.567 -31.403  1.00  0.00     0.027 C 
BRANCH   3   4
ATOM      4  C   UNL     1      -9.583 -67.432 -31.030  1.00  0.00    -0.031 C 
ATOM      5  C   UNL     1     -10.840 -67.343 -31.512  1.00  0.00    -0.028 C 
BRANCH   5   6
ATOM      6  C   UNL     1     -11.373 -66.419 -32.595  1.00  0.00     0.005 C 
ATOM      7  C   UNL     1     -11.274 -67.006 -34.008  1.00  0.00     0.012 C 
ATOM      8  C   UNL     1     -12.774 -65.884 -32.275  1.00  0.00     0.012 C 
ENDBRANCH   5   6
ENDBRANCH   3   4
ENDBRANCH   2   3
ENDBRANCH   1   2
BRANCH   1   9
ATOM      9  C   UNL     1      -7.169 -66.005 -27.807  1.00  0.00     0.100 C 
BRANCH   9  10
ATOM     10  C   UNL     1      -7.642 -66.424 -26.445  1.00  0.00     0.220 C 
ATOM     11  O   UNL     1      -6.894 -67.143 -25.727  1.00  0.00    -0.275 OA
ATOM     12  N   UNL     1      -8.945 -66.042 -25.982  1.00  0.00    -0.352 N 
ATOM     13  H   UNL     1      -9.573 -65.503 -26.619  1.00  0.00     0.163 HD
BRANCH  12  14
ATOM     14  C   UNL     1      -9.439 -66.398 -24.653  1.00  0.00     0.151 C 
BRANCH  14  15
ATOM     15  C   UNL     1     -10.930 -66.213 -24.583  1.00  0.00    -0.025 A 
ATOM     16  C   UNL     1     -11.504 -64.994 -24.977  1.00  0.00     0.056 A 
ATOM     17  C   UNL     1     -11.753 -67.233 -24.084  1.00  0.00     0.009 A 
ATOM     18  C   UNL     1     -12.896 -64.792 -24.874  1.00  0.00     0.160 A 
ATOM     19  C   UNL     1     -13.132 -67.039 -23.983  1.00  0.00     0.050 A 
ATOM     20  C   UNL     1     -13.705 -65.822 -24.374  1.00  0.00     0.157 A 
BRANCH  18  21
ATOM     21  O   UNL     1     -13.506 -63.586 -25.253  1.00  0.00    -0.493 OA
ATOM     22  C   UNL     1     -12.924 -62.633 -26.133  1.00  0.00     0.278 C 
ENDBRANCH  18  21
BRANCH  20  23
ATOM     23  O   UNL     1     -15.081 -65.627 -24.271  1.00  0.00    -0.504 OA
ATOM     24  H   UNL     1     -15.516 -65.364 -23.394  1.00  0.00     0.293 HD
ENDBRANCH  20  23
ENDBRANCH  14  15
ENDBRANCH  12  14
ENDBRANCH   9  10
ENDBRANCH   1   9
TORSDOF 10
ENDMDL
MODEL 4
REMARK VINA RESULT:    -7.117      3.405      8.553
REMARK INTER + INTRA:         -11.625
REMARK INTER:                 -11.044
REMARK INTRA:                  -0.581
REMARK UNBOUND:                -0.555
REMARK SMILES COc1cc(CNC(=O)CCCCC=CC(C)C)ccc1O
REMARK SMILES IDX 11 1 12 2 13 3 14 4 15 5 16 6 17 7 18 8 10 9 8 10 9 11 7 12
REMARK SMILES IDX 6 14 5 15 4 16 19 17 3 18 20 19 21 20 2 21 1 22 22 23
REMARK H PARENT 7 13 22 24
REMARK Flexibility Score: inf
ROOT
ATOM      1  C   UNL     1      -8.806 -67.188 -25.224  1.00  0.00     0.010 C 
ENDROOT
BRANCH   1   2
ATOM      2  C   UNL     1      -9.666 -66.121 -24.521  1.00  0.00     0.005 C 
BRANCH   2   3
ATOM      3  C   UNL     1     -11.179 -66.236 -24.782  1.00  0.00     0.027 C 
BRANCH   3   4
ATOM      4  C   UNL     1     -11.930 -64.996 -24.360  1.00  0.00    -0.031 C 
ATOM      5  C   UNL     1     -12.728 -64.857 -23.281  1.00  0.00    -0.028 C 
BRANCH   5   6
ATOM      6  C   UNL     1     -13.014 -65.866 -22.182  1.00  0.00     0.005 C 
ATOM      7  C   UNL     1     -13.622 -67.178 -22.693  1.00  0.00     0.012 C 
ATOM      8  C   UNL     1     -11.808 -66.094 -21.264  1.00  0.00     0.012 C 
ENDBRANCH   5   6
ENDBRANCH   3   4
ENDBRANCH   2   3
ENDBRANCH   1   2
BRANCH   1   9
ATOM      9  C   UNL     1      -8.128 -66.669 -26.496  1.00  0.00     0.100 C 
BRANCH   9  10
ATOM     10  C   UNL     1      -8.606 -67.438 -27.693  1.00  0.00     0.220 C 
ATOM     11  O   UNL     1      -9.569 -68.244 -27.564  1.00  0.00    -0.275 OA
ATOM     12  N   UNL     1      -7.950 -67.287 -28.961  1.00  0.00    -0.352 N 
ATOM     13  H   UNL     1      -7.114 -66.666 -29.029  1.00  0.00     0.163 HD
BRANCH  12  14
ATOM     14  C   UNL     1      -8.397 -67.989 -30.162  1.00  0.00     0.151 C 
BRANCH  14  15
ATOM     15  C   UNL     1      -8.740 -67.005 -31.246  1.00  0.00    -0.025 A 
ATOM     16  C   UNL     1      -9.991 -67.069 -31.880  1.00  0.00     0.056 A 
ATOM     17  C   UNL     1      -7.804 -66.048 -31.663  1.00  0.00     0.009 A 
ATOM     18  C   UNL     1     -10.308 -66.182 -32.929  1.00  0.00     0.160 A 
ATOM     19  C   UNL     1      -8.115 -65.163 -32.698  1.00  0.00     0.050 A 
ATOM     20  C   UNL     1      -9.362 -65.229 -33.333  1.00  0.00     0.157 A 
BRANCH  18  21
ATOM     21  O   UNL     1     -11.545 -66.217 -33.591  1.00  0.00    -0.493 OA
ATOM     22  C   UNL     1     -11.828 -67.029 -34.723  1.00  0.00     0.278 C 
ENDBRANCH  18  21
BRANCH  20  23
ATOM     23  O   UNL     1      -9.671 -64.348 -34.369  1.00  0.00    -0.504 OA
ATOM     24  H   UNL     1     -10.304 -63.570 -34.232  1.00  0.00     0.293 HD
ENDBRANCH  20  23
ENDBRANCH  14  15
ENDBRANCH  12  14
ENDBRANCH   9  10
ENDBRANCH   1   9
TORSDOF 10
ENDMDL
MODEL 5
REMARK VINA RESULT:    -7.055      2.594      3.873
REMARK INTER + INTRA:         -11.529
REMARK INTER:                 -10.581
REMARK INTRA:                  -0.947
REMARK UNBOUND:                -0.555
REMARK SMILES COc1cc(CNC(=O)CCCCC=CC(C)C)ccc1O
REMARK SMILES IDX 11 1 12 2 13 3 14 4 15 5 16 6 17 7 18 8 10 9 8 10 9 11 7 12
REMARK SMILES IDX 6 14 5 15 4 16 19 17 3 18 20 19 21 20 2 21 1 22 22 23
REMARK H PARENT 7 13 22 24
REMARK Flexibility Score: inf
ROOT
ATOM      1  C   UNL     1      -6.412 -65.243 -31.172  1.00  0.00     0.010 C 
ENDROOT
BRANCH   1   2
ATOM      2  C   UNL     1      -6.910 -65.201 -32.629  1.00  0.00     0.005 C 
BRANCH   2   3
ATOM      3  C   UNL     1      -8.054 -64.207 -32.892  1.00  0.00     0.027 C 
BRANCH   3   4
ATOM      4  C   UNL     1      -8.986 -64.679 -33.982  1.00  0.00    -0.031 C 
ATOM      5  C   UNL     1     -10.093 -65.436 -33.834  1.00  0.00    -0.028 C 
BRANCH   5   6
ATOM      6  C   UNL     1     -10.729 -65.936 -32.548  1.00  0.00     0.005 C 
ATOM      7  C   UNL     1     -12.260 -66.016 -32.608  1.00  0.00     0.012 C 
ATOM      8  C   UNL     1     -10.091 -67.235 -32.043  1.00  0.00     0.012 C 
ENDBRANCH   5   6
ENDBRANCH   3   4
ENDBRANCH   2   3
ENDBRANCH   1   2
BRANCH   1   9
ATOM      9  C   UNL     1      -6.974 -66.428 -30.379  1.00  0.00     0.100 C 
BRANCH   9  10
ATOM     10  C   UNL     1      -6.964 -66.125 -28.909  1.00  0.00     0.220 C 
ATOM     11  O   UNL     1      -6.314 -65.127 -28.490  1.00  0.00    -0.275 OA
ATOM     12  N   UNL     1      -7.654 -66.982 -27.988  1.00  0.00    -0.352 N 
ATOM     13  H   UNL     1      -8.129 -67.838 -28.349  1.00  0.00     0.163 HD
BRANCH  12  14
ATOM     14  C   UNL     1      -7.699 -66.712 -26.552  1.00  0.00     0.151 C 
BRANCH  14  15
ATOM     15  C   UNL     1      -9.092 -66.920 -26.025  1.00  0.00    -0.025 A 
ATOM     16  C   UNL     1      -9.766 -65.865 -25.389  1.00  0.00     0.056 A 
ATOM     17  C   UNL     1      -9.712 -68.174 -26.123  1.00  0.00     0.009 A 
ATOM     18  C   UNL     1     -11.054 -66.060 -24.850  1.00  0.00     0.160 A 
ATOM     19  C   UNL     1     -10.990 -68.371 -25.595  1.00  0.00     0.050 A 
ATOM     20  C   UNL     1     -11.661 -67.319 -24.958  1.00  0.00     0.157 A 
BRANCH  18  21
ATOM     21  O   UNL     1     -11.758 -65.032 -24.204  1.00  0.00    -0.493 OA
ATOM     22  C   UNL     1     -12.607 -64.102 -24.863  1.00  0.00     0.278 C 
ENDBRANCH  18  21
BRANCH  20  23
ATOM     23  O   UNL     1     -12.936 -67.516 -24.428  1.00  0.00    -0.504 OA
ATOM     24  H   UNL     1     -13.168 -68.348 -23.899  1.00  0.00     0.293 HD
ENDBRANCH  20  23
ENDBRANCH  14  15
ENDBRANCH  12  14
ENDBRANCH   9  10
ENDBRANCH   1   9
TORSDOF 10
ENDMDL
MODEL 6
REMARK VINA RESULT:    -7.001      3.276      7.770
REMARK INTER + INTRA:         -11.444
REMARK INTER:                 -10.504
REMARK INTRA:                  -0.941
REMARK UNBOUND:                -0.555
REMARK SMILES COc1cc(CNC(=O)CCCCC=CC(C)C)ccc1O
REMARK SMILES IDX 11 1 12 2 13 3 14 4 15 5 16 6 17 7 18 8 10 9 8 10 9 11 7 12
REMARK SMILES IDX 6 14 5 15 4 16 19 17 3 18 20 19 21 20 2 21 1 22 22 23
REMARK H PARENT 7 13 22 24
REMARK Flexibility Score: inf
ROOT
ATOM      1  C   UNL     1     -10.583 -67.764 -26.025  1.00  0.00     0.010 C 
ENDROOT
BRANCH   1   2
ATOM      2  C   UNL     1     -11.318 -67.476 -24.703  1.00  0.00     0.005 C 
BRANCH   2   3
ATOM      3  C   UNL     1     -10.825 -66.229 -23.947  1.00  0.00     0.027 C 
BRANCH   3   4
ATOM      4  C   UNL     1     -11.930 -65.556 -23.168  1.00  0.00    -0.031 C 
ATOM      5  C   UNL     1     -12.859 -64.703 -23.647  1.00  0.00    -0.028 C 
BRANCH   5   6
ATOM      6  C   UNL     1     -13.086 -64.264 -25.083  1.00  0.00     0.005 C 
ATOM      7  C   UNL     1     -14.420 -64.744 -25.671  1.00  0.00     0.012 C 
ATOM      8  C   UNL     1     -12.861 -62.761 -25.282  1.00  0.00     0.012 C 
ENDBRANCH   5   6
ENDBRANCH   3   4
ENDBRANCH   2   3
ENDBRANCH   1   2
BRANCH   1   9
ATOM      9  C   UNL     1      -9.228 -67.056 -26.124  1.00  0.00     0.100 C 
BRANCH   9  10
ATOM     10  C   UNL     1      -8.538 -67.427 -27.404  1.00  0.00     0.220 C 
ATOM     11  O   UNL     1      -7.301 -67.207 -27.524  1.00  0.00    -0.275 OA
ATOM     12  N   UNL     1      -9.284 -67.991 -28.493  1.00  0.00    -0.352 N 
ATOM     13  H   UNL     1     -10.318 -68.102 -28.396  1.00  0.00     0.163 HD
BRANCH  12  14
ATOM     14  C   UNL     1      -8.653 -68.397 -29.748  1.00  0.00     0.151 C 
BRANCH  14  15
ATOM     15  C   UNL     1      -8.909 -67.371 -30.817  1.00  0.00    -0.025 A 
ATOM     16  C   UNL     1     -10.168 -67.301 -31.434  1.00  0.00     0.056 A 
ATOM     17  C   UNL     1      -7.886 -66.509 -31.238  1.00  0.00     0.009 A 
ATOM     18  C   UNL     1     -10.407 -66.374 -32.470  1.00  0.00     0.160 A 
ATOM     19  C   UNL     1      -8.119 -65.586 -32.260  1.00  0.00     0.050 A 
ATOM     20  C   UNL     1      -9.375 -65.518 -32.878  1.00  0.00     0.157 A 
BRANCH  18  21
ATOM     21  O   UNL     1     -11.650 -66.276 -33.114  1.00  0.00    -0.493 OA
ATOM     22  C   UNL     1     -12.870 -65.947 -32.461  1.00  0.00     0.278 C 
ENDBRANCH  18  21
BRANCH  20  23
ATOM     23  O   UNL     1      -9.607 -64.599 -33.901  1.00  0.00    -0.504 OA
ATOM     24  H   UNL     1     -10.285 -63.853 -33.800  1.00  0.00     0.293 HD
ENDBRANCH  20  23
ENDBRANCH  14  15
ENDBRANCH  12  14
ENDBRANCH   9  10
ENDBRANCH   1   9
TORSDOF 10
ENDMDL
MODEL 7
REMARK VINA RESULT:    -6.983      8.984     12.120
REMARK INTER + INTRA:         -11.417
REMARK INTER:                 -10.804
REMARK INTRA:                  -0.613
REMARK UNBOUND:                -0.555
REMARK SMILES COc1cc(CNC(=O)CCCCC=CC(C)C)ccc1O
REMARK SMILES IDX 11 1 12 2 13 3 14 4 15 5 16 6 17 7 18 8 10 9 8 10 9 11 7 12
REMARK SMILES IDX 6 14 5 15 4 16 19 17 3 18 20 19 21 20 2 21 1 22 22 23
REMARK H PARENT 7 13 22 24
REMARK Flexibility Score: inf
ROOT
ATOM      1  C   UNL     1      -7.631 -59.145 -34.757  1.00  0.00     0.010 C 
ENDROOT
BRANCH   1   2
ATOM      2  C   UNL     1      -7.463 -57.627 -34.956  1.00  0.00     0.005 C 
BRANCH   2   3
ATOM      3  C   UNL     1      -7.088 -57.200 -36.386  1.00  0.00     0.027 C 
BRANCH   3   4
ATOM      4  C   UNL     1      -7.717 -55.884 -36.776  1.00  0.00    -0.031 C 
ATOM      5  C   UNL     1      -7.568 -55.227 -37.945  1.00  0.00    -0.028 C 
BRANCH   5   6
ATOM      6  C   UNL     1      -6.807 -55.666 -39.184  1.00  0.00     0.005 C 
ATOM      7  C   UNL     1      -7.497 -55.284 -40.500  1.00  0.00     0.012 C 
ATOM      8  C   UNL     1      -5.333 -55.247 -39.149  1.00  0.00     0.012 C 
ENDBRANCH   5   6
ENDBRANCH   3   4
ENDBRANCH   2   3
ENDBRANCH   1   2
BRANCH   1   9
ATOM      9  C   UNL     1      -6.636 -59.971 -35.579  1.00  0.00     0.100 C 
BRANCH   9  10
ATOM     10  C   UNL     1      -7.267 -61.259 -36.021  1.00  0.00     0.220 C 
ATOM     11  O   UNL     1      -7.190 -61.600 -37.234  1.00  0.00    -0.275 OA
ATOM     12  N   UNL     1      -7.984 -62.075 -35.082  1.00  0.00    -0.352 N 
ATOM     13  H   UNL     1      -8.092 -61.741 -34.099  1.00  0.00     0.163 HD
BRANCH  12  14
ATOM     14  C   UNL     1      -8.589 -63.351 -35.456  1.00  0.00     0.151 C 
BRANCH  14  15
ATOM     15  C   UNL     1      -8.646 -64.271 -34.267  1.00  0.00    -0.025 A 
ATOM     16  C   UNL     1      -7.513 -64.437 -33.455  1.00  0.00     0.056 A 
ATOM     17  C   UNL     1      -9.810 -65.001 -33.986  1.00  0.00     0.009 A 
ATOM     18  C   UNL     1      -7.540 -65.331 -32.364  1.00  0.00     0.160 A 
ATOM     19  C   UNL     1      -9.842 -65.884 -32.904  1.00  0.00     0.050 A 
ATOM     20  C   UNL     1      -8.711 -66.053 -32.095  1.00  0.00     0.157 A 
BRANCH  18  21
ATOM     21  O   UNL     1      -6.427 -65.528 -31.532  1.00  0.00    -0.493 OA
ATOM     22  C   UNL     1      -5.077 -65.349 -31.940  1.00  0.00     0.278 C 
ENDBRANCH  18  21
BRANCH  20  23
ATOM     23  O   UNL     1      -8.742 -66.936 -31.017  1.00  0.00    -0.504 OA
ATOM     24  H   UNL     1      -9.385 -67.718 -30.990  1.00  0.00     0.293 HD
ENDBRANCH  20  23
ENDBRANCH  14  15
ENDBRANCH  12  14
ENDBRANCH   9  10
ENDBRANCH   1   9
TORSDOF 10
ENDMDL
MODEL 8
REMARK VINA RESULT:    -6.983      1.142      2.073
REMARK INTER + INTRA:         -11.416
REMARK INTER:                 -10.580
REMARK INTRA:                  -0.836
REMARK UNBOUND:                -0.555
REMARK SMILES COc1cc(CNC(=O)CCCCC=CC(C)C)ccc1O
REMARK SMILES IDX 11 1 12 2 13 3 14 4 15 5 16 6 17 7 18 8 10 9 8 10 9 11 7 12
REMARK SMILES IDX 6 14 5 15 4 16 19 17 3 18 20 19 21 20 2 21 1 22 22 23
REMARK H PARENT 7 13 22 24
REMARK Flexibility Score: inf
ROOT
ATOM      1  C   UNL     1      -9.146 -70.308 -26.402  1.00  0.00     0.010 C 
ENDROOT
BRANCH   1   2
ATOM      2  C   UNL     1      -8.750 -70.983 -27.728  1.00  0.00     0.005 C 
BRANCH   2   3
ATOM      3  C   UNL     1      -8.794 -70.062 -28.961  1.00  0.00     0.027 C 
BRANCH   3   4
ATOM      4  C   UNL     1      -9.980 -69.127 -28.937  1.00  0.00    -0.031 C 
ATOM      5  C   UNL     1     -10.235 -68.116 -29.792  1.00  0.00    -0.028 C 
BRANCH   5   6
ATOM      6  C   UNL     1      -9.455 -67.707 -31.030  1.00  0.00     0.005 C 
ATOM      7  C   UNL     1     -10.316 -67.036 -32.108  1.00  0.00     0.012 C 
ATOM      8  C   UNL     1      -8.196 -66.899 -30.693  1.00  0.00     0.012 C 
ENDBRANCH   5   6
ENDBRANCH   3   4
ENDBRANCH   2   3
ENDBRANCH   1   2
BRANCH   1   9
ATOM      9  C   UNL     1      -7.989 -69.546 -25.747  1.00  0.00     0.100 C 
BRANCH   9  10
ATOM     10  C   UNL     1      -8.304 -68.081 -25.673  1.00  0.00     0.220 C 
ATOM     11  O   UNL     1      -7.636 -67.270 -26.373  1.00  0.00    -0.275 OA
ATOM     12  N   UNL     1      -9.328 -67.603 -24.788  1.00  0.00    -0.352 N 
ATOM     13  H   UNL     1      -9.822 -68.284 -24.169  1.00  0.00     0.163 HD
BRANCH  12  14
ATOM     14  C   UNL     1      -9.693 -66.190 -24.702  1.00  0.00     0.151 C 
BRANCH  14  15
ATOM     15  C   UNL     1     -11.044 -66.037 -24.060  1.00  0.00    -0.025 A 
ATOM     16  C   UNL     1     -12.141 -65.616 -24.828  1.00  0.00     0.056 A 
ATOM     17  C   UNL     1     -11.212 -66.268 -22.687  1.00  0.00     0.009 A 
ATOM     18  C   UNL     1     -13.403 -65.425 -24.228  1.00  0.00     0.160 A 
ATOM     19  C   UNL     1     -12.460 -66.085 -22.089  1.00  0.00     0.050 A 
ATOM     20  C   UNL     1     -13.555 -65.662 -22.855  1.00  0.00     0.157 A 
BRANCH  18  21
ATOM     21  O   UNL     1     -14.523 -65.002 -24.961  1.00  0.00    -0.493 OA
ATOM     22  C   UNL     1     -15.415 -65.875 -25.642  1.00  0.00     0.278 C 
ENDBRANCH  18  21
BRANCH  20  23
ATOM     23  O   UNL     1     -14.801 -65.476 -22.258  1.00  0.00    -0.504 OA
ATOM     24  H   UNL     1     -15.546 -64.977 -22.729  1.00  0.00     0.293 HD
ENDBRANCH  20  23
ENDBRANCH  14  15
ENDBRANCH  12  14
ENDBRANCH   9  10
ENDBRANCH   1   9
TORSDOF 10
ENDMDL
MODEL 9
REMARK VINA RESULT:    -6.943      3.320      8.162
REMARK INTER + INTRA:         -11.353
REMARK INTER:                 -10.524
REMARK INTRA:                  -0.829
REMARK UNBOUND:                -0.555
REMARK SMILES COc1cc(CNC(=O)CCCCC=CC(C)C)ccc1O
REMARK SMILES IDX 11 1 12 2 13 3 14 4 15 5 16 6 17 7 18 8 10 9 8 10 9 11 7 12
REMARK SMILES IDX 6 14 5 15 4 16 19 17 3 18 20 19 21 20 2 21 1 22 22 23
REMARK H PARENT 7 13 22 24
REMARK Flexibility Score: inf
ROOT
ATOM      1  C   UNL     1      -8.490 -67.891 -25.486  1.00  0.00     0.010 C 
ENDROOT
BRANCH   1   2
ATOM      2  C   UNL     1      -8.485 -66.426 -25.013  1.00  0.00     0.005 C 
BRANCH   2   3
ATOM      3  C   UNL     1      -9.876 -65.780 -24.896  1.00  0.00     0.027 C 
BRANCH   3   4
ATOM      4  C   UNL     1     -10.914 -66.741 -24.368  1.00  0.00    -0.031 C 
ATOM      5  C   UNL     1     -12.253 -66.580 -24.382  1.00  0.00    -0.028 C 
BRANCH   5   6
ATOM      6  C   UNL     1     -13.061 -65.448 -24.992  1.00  0.00     0.005 C 
ATOM      7  C   UNL     1     -14.525 -65.815 -25.269  1.00  0.00     0.012 C 
ATOM      8  C   UNL     1     -12.920 -64.137 -24.211  1.00  0.00     0.012 C 
ENDBRANCH   5   6
ENDBRANCH   3   4
ENDBRANCH   2   3
ENDBRANCH   1   2
BRANCH   1   9
ATOM      9  C   UNL     1      -8.022 -68.056 -26.936  1.00  0.00     0.100 C 
BRANCH   9  10
ATOM     10  C   UNL     1      -9.202 -68.196 -27.853  1.00  0.00     0.220 C 
ATOM     11  O   UNL     1     -10.338 -68.445 -27.362  1.00  0.00    -0.275 OA
ATOM     12  N   UNL     1      -9.032 -68.087 -29.274  1.00  0.00    -0.352 N 
ATOM     13  H   UNL     1      -8.073 -67.947 -29.661  1.00  0.00     0.163 HD
BRANCH  12  14
ATOM     14  C   UNL     1     -10.154 -68.185 -30.206  1.00  0.00     0.151 C 
BRANCH  14  15
ATOM     15  C   UNL     1      -9.990 -67.197 -31.327  1.00  0.00    -0.025 A 
ATOM     16  C   UNL     1      -8.754 -66.562 -31.527  1.00  0.00     0.056 A 
ATOM     17  C   UNL     1     -11.075 -66.867 -32.152  1.00  0.00     0.009 A 
ATOM     18  C   UNL     1      -8.600 -65.600 -32.547  1.00  0.00     0.160 A 
ATOM     19  C   UNL     1     -10.926 -65.919 -33.166  1.00  0.00     0.050 A 
ATOM     20  C   UNL     1      -9.694 -65.283 -33.364  1.00  0.00     0.157 A 
BRANCH  18  21
ATOM     21  O   UNL     1      -7.382 -64.941 -32.775  1.00  0.00    -0.493 OA
ATOM     22  C   UNL     1      -6.197 -65.157 -32.019  1.00  0.00     0.278 C 
ENDBRANCH  18  21
BRANCH  20  23
ATOM     23  O   UNL     1      -9.546 -64.333 -34.373  1.00  0.00    -0.504 OA
ATOM     24  H   UNL     1      -9.466 -63.345 -34.165  1.00  0.00     0.293 HD
ENDBRANCH  20  23
ENDBRANCH  14  15
ENDBRANCH  12  14
ENDBRANCH   9  10
ENDBRANCH   1   9
TORSDOF 10
ENDMDL
