MODEL 1
REMARK VINA RESULT:    -3.526      0.000      0.000
REMARK INTER + INTRA:          -3.591
REMARK INTER:                  -4.351
REMARK INTRA:                   0.759
REMARK UNBOUND:                 0.759
REMARK SMILES CC1=CC=CC(C)(C)CC1=O
REMARK SMILES IDX 1 1 2 2 3 3 10 4 11 5 9 6 4 8 5 9 6 10 7 11 8 12
REMARK H PARENT
REMARK Flexibility Score: 80.00
ROOT
ATOM      1  C   UNL     1     -13.129  -4.422 -14.324  1.00  0.00     0.048 C 
ATOM      2  C   UNL     1     -11.781  -4.696 -14.948  1.00  0.00    -0.008 C 
ATOM      3  C   UNL     1     -11.294  -3.780 -15.812  1.00  0.00     0.007 C 
ENDROOT
BRANCH   2   4
ATOM      4  C   UNL     1     -11.066  -5.918 -14.503  1.00  0.00     0.159 C 
ATOM      5  O   UNL     1     -11.507  -6.551 -13.504  1.00  0.00    -0.295 OA
BRANCH   4   6
ATOM      6  C   UNL     1      -9.846  -6.458 -15.185  1.00  0.00     0.091 CG0
ATOM      7  G   UNL     1      -8.670  -5.456 -15.211  1.00  0.00     0.000 G0
ENDBRANCH   4   6
ENDBRANCH   2   4
BRANCH   3   8
ATOM      8  C   UNL     1     -10.009  -3.758 -16.551  1.00  0.00    -0.003 C 
ATOM      9  C   UNL     1      -8.885  -4.445 -16.311  1.00  0.00    -0.020 C 
BRANCH   9  10
ATOM     10  C   UNL     1      -8.670  -5.457 -15.211  1.00  0.00    -0.010 CG0
ATOM     11  C   UNL     1      -8.467  -4.733 -13.860  1.00  0.00     0.016 C 
ATOM     12  C   UNL     1      -7.380  -6.249 -15.526  1.00  0.00     0.016 C 
ATOM     13  G   UNL     1      -9.850  -6.454 -15.181  1.00  0.00     0.000 G0
ENDBRANCH   9  10
ENDBRANCH   3   8
TORSDOF 0
ENDMDL
MODEL 2
REMARK VINA RESULT:    -3.474      1.743      2.611
REMARK INTER + INTRA:          -3.527
REMARK INTER:                  -4.301
REMARK INTRA:                   0.774
REMARK UNBOUND:                 0.759
REMARK SMILES CC1=CC=CC(C)(C)CC1=O
REMARK SMILES IDX 1 1 2 2 3 3 10 4 11 5 9 6 4 8 5 9 6 10 7 11 8 12
REMARK H PARENT
REMARK Flexibility Score: 80.00
ROOT
ATOM      1  C   UNL     1     -12.514  -4.241 -15.697  1.00  0.00     0.048 C 
ATOM      2  C   UNL     1     -11.147  -4.701 -15.250  1.00  0.00    -0.008 C 
ATOM      3  C   UNL     1     -11.084  -5.781 -14.441  1.00  0.00     0.007 C 
ENDROOT
BRANCH   2   4
ATOM      4  C   UNL     1      -9.976  -3.973 -15.798  1.00  0.00     0.159 C 
ATOM      5  O   UNL     1     -10.155  -3.152 -16.739  1.00  0.00    -0.295 OA
BRANCH   4   6
ATOM      6  C   UNL     1      -8.579  -4.147 -15.284  1.00  0.00     0.091 CG0
ATOM      7  G   UNL     1      -8.067  -5.600 -15.391  1.00  0.00     0.000 G0
ENDBRANCH   4   6
ENDBRANCH   2   4
BRANCH   3   8
ATOM      8  C   UNL     1      -9.906  -6.474 -13.868  1.00  0.00    -0.003 C 
ATOM      9  C   UNL     1      -8.625  -6.423 -14.257  1.00  0.00    -0.020 C 
BRANCH   9  10
ATOM     10  C   UNL     1      -8.064  -5.597 -15.390  1.00  0.00    -0.010 CG0
ATOM     11  C   UNL     1      -8.421  -6.250 -16.746  1.00  0.00     0.016 C 
ATOM     12  C   UNL     1      -6.523  -5.582 -15.262  1.00  0.00     0.016 C 
ATOM     13  G   UNL     1      -8.571  -4.143 -15.278  1.00  0.00     0.000 G0
ENDBRANCH   9  10
ENDBRANCH   3   8
TORSDOF 0
ENDMDL
MODEL 3
REMARK VINA RESULT:    -3.420      8.267      9.067
REMARK INTER + INTRA:          -3.460
REMARK INTER:                  -4.220
REMARK INTRA:                   0.761
REMARK UNBOUND:                 0.759
REMARK SMILES CC1=CC=CC(C)(C)CC1=O
REMARK SMILES IDX 1 1 2 2 3 3 10 4 11 5 9 6 4 8 5 9 6 10 7 11 8 12
REMARK H PARENT
REMARK Flexibility Score: 80.00
ROOT
ATOM      1  C   UNL     1      -7.165   3.181  -9.890  1.00  0.00     0.048 C 
ATOM      2  C   UNL     1      -6.325   1.949 -10.129  1.00  0.00    -0.008 C 
ATOM      3  C   UNL     1      -5.180   2.099 -10.828  1.00  0.00     0.007 C 
ENDROOT
BRANCH   2   4
ATOM      4  C   UNL     1      -6.789   0.684  -9.508  1.00  0.00     0.159 C 
ATOM      5  O   UNL     1      -7.727   0.728  -8.665  1.00  0.00    -0.295 OA
BRANCH   4   6
ATOM      6  C   UNL     1      -6.214  -0.659  -9.839  1.00  0.00     0.091 CG0
ATOM      7  G   UNL     1      -4.703  -0.766  -9.537  1.00  0.00     0.000 G0
ENDBRANCH   4   6
ENDBRANCH   2   4
BRANCH   3   8
ATOM      8  C   UNL     1      -4.150   1.098 -11.194  1.00  0.00    -0.003 C 
ATOM      9  C   UNL     1      -3.921  -0.110 -10.663  1.00  0.00    -0.020 C 
BRANCH   9  10
ATOM     10  C   UNL     1      -4.705  -0.764  -9.550  1.00  0.00    -0.010 CG0
ATOM     11  C   UNL     1      -4.313  -0.138  -8.191  1.00  0.00     0.016 C 
ATOM     12  C   UNL     1      -4.329  -2.263  -9.508  1.00  0.00     0.016 C 
ATOM     13  G   UNL     1      -6.217  -0.654  -9.842  1.00  0.00     0.000 G0
ENDBRANCH   9  10
ENDBRANCH   3   8
TORSDOF 0
ENDMDL
MODEL 4
REMARK VINA RESULT:    -3.275      8.453      9.771
REMARK INTER + INTRA:          -3.282
REMARK INTER:                  -4.035
REMARK INTRA:                   0.753
REMARK UNBOUND:                 0.759
REMARK SMILES CC1=CC=CC(C)(C)CC1=O
REMARK SMILES IDX 1 1 2 2 3 3 10 4 11 5 9 6 4 8 5 9 6 10 7 11 8 12
REMARK H PARENT
REMARK Flexibility Score: 80.00
ROOT
ATOM      1  C   UNL     1      -3.147  -1.969 -19.745  1.00  0.00     0.048 C 
ATOM      2  C   UNL     1      -2.685  -1.782 -18.319  1.00  0.00    -0.008 C 
ATOM      3  C   UNL     1      -3.556  -2.092 -17.335  1.00  0.00     0.007 C 
ENDROOT
BRANCH   2   4
ATOM      4  C   UNL     1      -1.283  -1.343 -18.115  1.00  0.00     0.159 C 
ATOM      5  O   UNL     1      -0.500  -1.325 -19.104  1.00  0.00    -0.295 OA
BRANCH   4   6
ATOM      6  C   UNL     1      -0.739  -0.901 -16.791  1.00  0.00     0.091 CG0
ATOM      7  G   UNL     1      -0.865  -1.978 -15.690  1.00  0.00     0.000 G0
ENDBRANCH   4   6
ENDBRANCH   2   4
BRANCH   3   8
ATOM      8  C   UNL     1      -3.387  -2.039 -15.863  1.00  0.00    -0.003 C 
ATOM      9  C   UNL     1      -2.257  -1.997 -15.144  1.00  0.00    -0.020 C 
BRANCH   9  10
ATOM     10  C   UNL     1      -0.848  -1.964 -15.688  1.00  0.00    -0.010 CG0
ATOM     11  C   UNL     1      -0.436  -3.375 -16.171  1.00  0.00     0.016 C 
ATOM     12  C   UNL     1       0.105  -1.557 -14.541  1.00  0.00     0.016 C 
ATOM     13  G   UNL     1      -0.744  -0.899 -16.802  1.00  0.00     0.000 G0
ENDBRANCH   9  10
ENDBRANCH   3   8
TORSDOF 0
ENDMDL
MODEL 5
REMARK VINA RESULT:    -3.261      8.211      9.374
REMARK INTER + INTRA:          -3.264
REMARK INTER:                  -4.041
REMARK INTRA:                   0.778
REMARK UNBOUND:                 0.759
REMARK SMILES CC1=CC=CC(C)(C)CC1=O
REMARK SMILES IDX 1 1 2 2 3 3 10 4 11 5 9 6 4 8 5 9 6 10 7 11 8 12
REMARK H PARENT
REMARK Flexibility Score: 80.00
ROOT
ATOM      1  C   UNL     1      -6.697   3.074 -11.036  1.00  0.00     0.048 C 
ATOM      2  C   UNL     1      -6.072   1.847 -10.417  1.00  0.00    -0.008 C 
ATOM      3  C   UNL     1      -6.869   1.042  -9.682  1.00  0.00     0.007 C 
ENDROOT
BRANCH   2   4
ATOM      4  C   UNL     1      -4.645   1.583 -10.730  1.00  0.00     0.159 C 
ATOM      5  O   UNL     1      -4.085   2.263 -11.633  1.00  0.00    -0.295 OA
BRANCH   4   6
ATOM      6  C   UNL     1      -3.818   0.557 -10.019  1.00  0.00     0.091 CG0
ATOM      7  G   UNL     1      -4.388  -0.874 -10.139  1.00  0.00     0.000 G0
ENDBRANCH   4   6
ENDBRANCH   2   4
BRANCH   3   8
ATOM      8  C   UNL     1      -6.556  -0.226  -8.983  1.00  0.00    -0.003 C 
ATOM      9  C   UNL     1      -5.523  -1.060  -9.168  1.00  0.00    -0.020 C 
BRANCH   9  10
ATOM     10  C   UNL     1      -4.387  -0.877 -10.145  1.00  0.00    -0.010 CG0
ATOM     11  C   UNL     1      -4.869  -1.196 -11.580  1.00  0.00     0.016 C 
ATOM     12  C   UNL     1      -3.270  -1.883  -9.784  1.00  0.00     0.016 C 
ATOM     13  G   UNL     1      -3.810   0.550 -10.015  1.00  0.00     0.000 G0
ENDBRANCH   9  10
ENDBRANCH   3   8
TORSDOF 0
ENDMDL
MODEL 6
REMARK VINA RESULT:    -3.186      8.379      9.935
REMARK INTER + INTRA:          -3.171
REMARK INTER:                  -3.930
REMARK INTRA:                   0.759
REMARK UNBOUND:                 0.759
REMARK SMILES CC1=CC=CC(C)(C)CC1=O
REMARK SMILES IDX 1 1 2 2 3 3 10 4 11 5 9 6 4 8 5 9 6 10 7 11 8 12
REMARK H PARENT
REMARK Flexibility Score: 80.00
ROOT
ATOM      1  C   UNL     1      -3.591   2.316  -7.135  1.00  0.00     0.048 C 
ATOM      2  C   UNL     1      -4.547   1.350  -7.793  1.00  0.00    -0.008 C 
ATOM      3  C   UNL     1      -5.819   1.759  -7.979  1.00  0.00     0.007 C 
ENDROOT
BRANCH   2   4
ATOM      4  C   UNL     1      -3.988   0.054  -8.252  1.00  0.00     0.159 C 
ATOM      5  O   UNL     1      -2.737  -0.112  -8.231  1.00  0.00    -0.295 OA
BRANCH   4   6
ATOM      6  C   UNL     1      -4.833  -1.088  -8.730  1.00  0.00     0.091 CG0
ATOM      7  G   UNL     1      -5.729  -0.720  -9.932  1.00  0.00     0.000 G0
ENDBRANCH   4   6
ENDBRANCH   2   4
BRANCH   3   8
ATOM      8  C   UNL     1      -6.962   1.057  -8.610  1.00  0.00    -0.003 C 
ATOM      9  C   UNL     1      -6.952   0.012  -9.448  1.00  0.00    -0.020 C 
BRANCH   9  10
ATOM     10  C   UNL     1      -5.734  -0.734  -9.937  1.00  0.00    -0.010 CG0
ATOM     11  C   UNL     1      -5.004   0.098 -11.018  1.00  0.00     0.016 C 
ATOM     12  C   UNL     1      -6.204  -2.054 -10.591  1.00  0.00     0.016 C 
ATOM     13  G   UNL     1      -4.823  -1.087  -8.741  1.00  0.00     0.000 G0
ENDBRANCH   9  10
ENDBRANCH   3   8
TORSDOF 0
ENDMDL
MODEL 7
REMARK VINA RESULT:    -3.105      9.596     11.205
REMARK INTER + INTRA:          -3.072
REMARK INTER:                  -3.824
REMARK INTRA:                   0.752
REMARK UNBOUND:                 0.759
REMARK SMILES CC1=CC=CC(C)(C)CC1=O
REMARK SMILES IDX 1 1 2 2 3 3 10 4 11 5 9 6 4 8 5 9 6 10 7 11 8 12
REMARK H PARENT
REMARK Flexibility Score: 80.00
ROOT
ATOM      1  C   UNL     1      -1.502   2.316  -8.238  1.00  0.00     0.048 C 
ATOM      2  C   UNL     1      -2.929   2.147  -8.703  1.00  0.00    -0.008 C 
ATOM      3  C   UNL     1      -3.168   2.231 -10.029  1.00  0.00     0.007 C 
ENDROOT
BRANCH   2   4
ATOM      4  C   UNL     1      -3.943   1.826  -7.669  1.00  0.00     0.159 C 
ATOM      5  O   UNL     1      -3.554   1.516  -6.510  1.00  0.00    -0.295 OA
BRANCH   4   6
ATOM      6  C   UNL     1      -5.420   1.865  -7.919  1.00  0.00     0.091 CG0
ATOM      7  G   UNL     1      -5.874   0.894  -9.031  1.00  0.00     0.000 G0
ENDBRANCH   4   6
ENDBRANCH   2   4
BRANCH   3   8
ATOM      8  C   UNL     1      -4.438   2.084 -10.778  1.00  0.00    -0.003 C 
ATOM      9  C   UNL     1      -5.586   1.513 -10.390  1.00  0.00    -0.020 C 
BRANCH   9  10
ATOM     10  C   UNL     1      -5.867   0.891  -9.043  1.00  0.00    -0.010 CG0
ATOM     11  C   UNL     1      -5.192  -0.498  -8.952  1.00  0.00     0.016 C 
ATOM     12  C   UNL     1      -7.394   0.686  -8.913  1.00  0.00     0.016 C 
ATOM     13  G   UNL     1      -5.414   1.849  -7.920  1.00  0.00     0.000 G0
ENDBRANCH   9  10
ENDBRANCH   3   8
TORSDOF 0
ENDMDL
MODEL 8
REMARK VINA RESULT:    -3.056      7.815      9.331
REMARK INTER + INTRA:          -3.011
REMARK INTER:                  -3.755
REMARK INTRA:                   0.745
REMARK UNBOUND:                 0.759
REMARK SMILES CC1=CC=CC(C)(C)CC1=O
REMARK SMILES IDX 1 1 2 2 3 3 10 4 11 5 9 6 4 8 5 9 6 10 7 11 8 12
REMARK H PARENT
REMARK Flexibility Score: 80.00
ROOT
ATOM      1  C   UNL     1      -5.100  -2.733  -9.314  1.00  0.00     0.048 C 
ATOM      2  C   UNL     1      -5.451  -1.264  -9.283  1.00  0.00    -0.008 C 
ATOM      3  C   UNL     1      -4.880  -0.505  -8.324  1.00  0.00     0.007 C 
ENDROOT
BRANCH   2   4
ATOM      4  C   UNL     1      -6.339  -0.759 -10.359  1.00  0.00     0.159 C 
ATOM      5  O   UNL     1      -6.590  -1.508 -11.344  1.00  0.00    -0.295 OA
BRANCH   4   6
ATOM      6  C   UNL     1      -6.974   0.598 -10.339  1.00  0.00     0.091 CG0
ATOM      7  G   UNL     1      -5.947   1.750 -10.295  1.00  0.00     0.000 G0
ENDBRANCH   4   6
ENDBRANCH   2   4
BRANCH   3   8
ATOM      8  C   UNL     1      -5.007   0.948  -8.059  1.00  0.00    -0.003 C 
ATOM      9  C   UNL     1      -5.442   1.920  -8.872  1.00  0.00    -0.020 C 
BRANCH   9  10
ATOM     10  C   UNL     1      -5.948   1.748 -10.285  1.00  0.00    -0.010 CG0
ATOM     11  C   UNL     1      -4.757   1.543 -11.250  1.00  0.00     0.016 C 
ATOM     12  C   UNL     1      -6.678   3.046 -10.700  1.00  0.00     0.016 C 
ATOM     13  G   UNL     1      -6.964   0.586 -10.338  1.00  0.00     0.000 G0
ENDBRANCH   9  10
ENDBRANCH   3   8
TORSDOF 0
ENDMDL
MODEL 9
REMARK VINA RESULT:    -3.027     10.025     10.744
REMARK INTER + INTRA:          -2.976
REMARK INTER:                  -3.732
REMARK INTRA:                   0.756
REMARK UNBOUND:                 0.759
REMARK SMILES CC1=CC=CC(C)(C)CC1=O
REMARK SMILES IDX 1 1 2 2 3 3 10 4 11 5 9 6 4 8 5 9 6 10 7 11 8 12
REMARK H PARENT
REMARK Flexibility Score: 80.00
ROOT
ATOM      1  C   UNL     1      -6.598   2.722 -10.477  1.00  0.00     0.048 C 
ATOM      2  C   UNL     1      -5.356   1.923 -10.159  1.00  0.00    -0.008 C 
ATOM      3  C   UNL     1      -4.375   1.897 -11.086  1.00  0.00     0.007 C 
ENDROOT
BRANCH   2   4
ATOM      4  C   UNL     1      -5.283   1.292  -8.818  1.00  0.00     0.159 C 
ATOM      5  O   UNL     1      -6.134   1.618  -7.945  1.00  0.00    -0.295 OA
BRANCH   4   6
ATOM      6  C   UNL     1      -4.257   0.268  -8.440  1.00  0.00     0.091 CG0
ATOM      7  G   UNL     1      -2.807   0.791  -8.550  1.00  0.00     0.000 G0
ENDBRANCH   4   6
ENDBRANCH   2   4
BRANCH   3   8
ATOM      8  C   UNL     1      -3.051   1.232 -11.053  1.00  0.00    -0.003 C 
ATOM      9  C   UNL     1      -2.364   0.773  -9.998  1.00  0.00    -0.020 C 
BRANCH   9  10
ATOM     10  C   UNL     1      -2.809   0.802  -8.556  1.00  0.00    -0.010 CG0
ATOM     11  C   UNL     1      -2.647   2.230  -7.982  1.00  0.00     0.016 C 
ATOM     12  C   UNL     1      -1.891  -0.142  -7.745  1.00  0.00     0.016 C 
ATOM     13  G   UNL     1      -4.257   0.276  -8.445  1.00  0.00     0.000 G0
ENDBRANCH   9  10
ENDBRANCH   3   8
TORSDOF 0
ENDMDL
