MODEL 1
REMARK VINA RESULT:    -6.065      0.000      0.000
REMARK INTER + INTRA:          -9.428
REMARK INTER:                  -7.660
REMARK INTRA:                  -1.768
REMARK UNBOUND:                -1.768
REMARK SMILES CC(C)[C@H](C)C=C[C@H](C)[C@@H]1CC[C@H]2C3=CC=C4C[C@@H](O)CC[C@]4(C)[C@H]3CC[C@@]21C
REMARK SMILES IDX 8 1 9 2 7 3 6 4 4 5 5 6 2 7 1 8 3 9 10 10 11 11 28 12 12 13
REMARK SMILES IDX 13 14 27 15 29 16 14 17 26 18 25 19 15 20 23 21 16 22 17 23
REMARK SMILES IDX 22 24 24 25 18 26 21 27 19 28 20 29
REMARK H PARENT 20 30
REMARK Flexibility Score: inf
ROOT
ATOM      1  C   UNL     1     -10.849 -40.491   9.625  1.00  0.00     0.012 C 
ATOM      2  C   UNL     1     -10.254 -41.882   9.972  1.00  0.00     0.012 C 
ENDROOT
BRANCH   1   3
ATOM      3  C   UNL     1     -11.445 -39.827  10.883  1.00  0.00    -0.028 C 
ATOM      4  C   UNL     1     -10.985 -39.974  12.142  1.00  0.00    -0.028 C 
BRANCH   4   5
ATOM      5  C   UNL     1     -11.321 -38.964  13.228  1.00  0.00     0.011 C 
ATOM      6  C   UNL     1     -10.853 -39.497  14.597  1.00  0.00     0.012 C 
BRANCH   5   7
ATOM      7  C   UNL     1     -10.713 -37.529  12.988  1.00  0.00    -0.011 C 
ATOM      8  C   UNL     1      -9.263 -37.407  13.489  1.00  0.00     0.008 C 
ATOM      9  C   UNL     1     -11.573 -36.369  13.549  1.00  0.00     0.008 C 
ENDBRANCH   5   7
ENDBRANCH   4   5
ENDBRANCH   1   3
BRANCH   1  10
ATOM     10  C   UNL     1      -9.730 -39.589   8.986  1.00  0.00     0.002 C 
ATOM     11  C   UNL     1      -8.307 -39.759   9.591  1.00  0.00     0.005 C 
ATOM     12  C   UNL     1      -9.968 -38.019   8.932  1.00  0.00    -0.023 C 
ATOM     13  C   UNL     1      -7.647 -38.390   9.588  1.00  0.00     0.009 C 
ATOM     14  C   UNL     1      -8.840 -37.491   9.831  1.00  0.00     0.021 C 
ATOM     15  C   UNL     1     -11.277 -37.383   9.504  1.00  0.00     0.008 C 
ATOM     16  C   UNL     1      -9.784 -37.573   7.445  1.00  0.00     0.012 C 
ATOM     17  C   UNL     1      -8.705 -36.006   9.730  1.00  0.00    -0.063 C 
ATOM     18  C   UNL     1     -11.199 -35.809   9.532  1.00  0.00     0.009 C 
ATOM     19  C   UNL     1      -9.917 -35.251  10.237  1.00  0.00     0.025 C 
ATOM     20  C   UNL     1      -7.744 -35.421   9.014  1.00  0.00    -0.000 C 
ATOM     21  C   UNL     1      -9.734 -33.650  10.283  1.00  0.00    -0.005 C 
ATOM     22  C   UNL     1      -7.657 -33.981   8.865  1.00  0.00    -0.000 C 
ATOM     23  C   UNL     1      -8.508 -33.155   9.499  1.00  0.00    -0.061 C 
ATOM     24  C   UNL     1      -9.515 -33.224  11.777  1.00  0.00     0.014 C 
ATOM     25  C   UNL     1     -10.992 -32.911   9.734  1.00  0.00     0.017 C 
ATOM     26  C   UNL     1      -8.086 -31.712   9.668  1.00  0.00     0.063 C 
ATOM     27  C   UNL     1      -9.126 -31.739  11.959  1.00  0.00     0.033 C 
ATOM     28  C   UNL     1      -7.853 -31.423  11.158  1.00  0.00     0.118 C 
BRANCH  28  29
ATOM     29  O   UNL     1      -7.466 -30.101  11.324  1.00  0.00    -0.393 OA
ATOM     30  H   UNL     1      -7.087 -30.032  12.247  1.00  0.00     0.210 HD
ENDBRANCH  28  29
ENDBRANCH   1  10
TORSDOF 5
ENDMDL
MODEL 2
REMARK VINA RESULT:    -5.854      3.779      7.412
REMARK INTER + INTRA:          -9.162
REMARK INTER:                  -7.852
REMARK INTRA:                  -1.309
REMARK UNBOUND:                -1.768
REMARK SMILES CC(C)[C@H](C)C=C[C@H](C)[C@@H]1CC[C@H]2C3=CC=C4C[C@@H](O)CC[C@]4(C)[C@H]3CC[C@@]21C
REMARK SMILES IDX 8 1 9 2 7 3 6 4 4 5 5 6 2 7 1 8 3 9 10 10 11 11 28 12 12 13
REMARK SMILES IDX 13 14 27 15 29 16 14 17 26 18 25 19 15 20 23 21 16 22 17 23
REMARK SMILES IDX 22 24 24 25 18 26 21 27 19 28 20 29
REMARK H PARENT 20 30
REMARK Flexibility Score: inf
ROOT
ATOM      1  C   UNL     1     -10.712 -36.385  11.318  1.00  0.00     0.012 C 
ATOM      2  C   UNL     1     -10.723 -35.856  12.778  1.00  0.00     0.012 C 
ENDROOT
BRANCH   1   3
ATOM      3  C   UNL     1     -10.212 -35.292  10.350  1.00  0.00    -0.028 C 
ATOM      4  C   UNL     1      -9.305 -34.338  10.642  1.00  0.00    -0.028 C 
BRANCH   4   5
ATOM      5  C   UNL     1      -8.545 -33.611   9.544  1.00  0.00     0.011 C 
ATOM      6  C   UNL     1      -7.744 -32.442  10.154  1.00  0.00     0.012 C 
BRANCH   5   7
ATOM      7  C   UNL     1      -7.577 -34.530   8.707  1.00  0.00    -0.011 C 
ATOM      8  C   UNL     1      -6.273 -33.815   8.311  1.00  0.00     0.008 C 
ATOM      9  C   UNL     1      -8.230 -35.182   7.462  1.00  0.00     0.008 C 
ENDBRANCH   5   7
ENDBRANCH   4   5
ENDBRANCH   1   3
BRANCH   1  10
ATOM     10  C   UNL     1      -9.809 -37.670  11.234  1.00  0.00     0.002 C 
ATOM     11  C   UNL     1      -8.274 -37.411  11.232  1.00  0.00     0.005 C 
ATOM     12  C   UNL     1     -10.055 -38.686  10.038  1.00  0.00    -0.023 C 
ATOM     13  C   UNL     1      -7.642 -38.444  10.314  1.00  0.00     0.009 C 
ATOM     14  C   UNL     1      -8.726 -38.608   9.271  1.00  0.00     0.021 C 
ATOM     15  C   UNL     1     -11.161 -38.416   8.967  1.00  0.00     0.008 C 
ATOM     16  C   UNL     1     -10.281 -40.098  10.669  1.00  0.00     0.012 C 
ATOM     17  C   UNL     1      -8.626 -39.680   8.234  1.00  0.00    -0.063 C 
ATOM     18  C   UNL     1     -11.082 -39.440   7.771  1.00  0.00     0.009 C 
ATOM     19  C   UNL     1      -9.657 -39.555   7.130  1.00  0.00     0.025 C 
ATOM     20  C   UNL     1      -7.896 -40.782   8.411  1.00  0.00    -0.000 C 
ATOM     21  C   UNL     1      -9.471 -40.605   5.922  1.00  0.00    -0.005 C 
ATOM     22  C   UNL     1      -7.855 -41.850   7.430  1.00  0.00    -0.000 C 
ATOM     23  C   UNL     1      -8.504 -41.752   6.256  1.00  0.00    -0.061 C 
ATOM     24  C   UNL     1      -8.856 -39.841   4.697  1.00  0.00     0.014 C 
ATOM     25  C   UNL     1     -10.831 -41.229   5.487  1.00  0.00     0.017 C 
ATOM     26  C   UNL     1      -8.054 -42.659   5.132  1.00  0.00     0.063 C 
ATOM     27  C   UNL     1      -8.435 -40.759   3.527  1.00  0.00     0.033 C 
ATOM     28  C   UNL     1      -7.427 -41.810   4.016  1.00  0.00     0.118 C 
BRANCH  28  29
ATOM     29  O   UNL     1      -7.011 -42.634   2.978  1.00  0.00    -0.393 OA
ATOM     30  H   UNL     1      -6.188 -43.101   3.303  1.00  0.00     0.210 HD
ENDBRANCH  28  29
ENDBRANCH   1  10
TORSDOF 5
ENDMDL
MODEL 3
REMARK VINA RESULT:    -5.838      1.933      4.522
REMARK INTER + INTRA:          -9.142
REMARK INTER:                  -7.479
REMARK INTRA:                  -1.663
REMARK UNBOUND:                -1.768
REMARK SMILES CC(C)[C@H](C)C=C[C@H](C)[C@@H]1CC[C@H]2C3=CC=C4C[C@@H](O)CC[C@]4(C)[C@H]3CC[C@@]21C
REMARK SMILES IDX 8 1 9 2 7 3 6 4 4 5 5 6 2 7 1 8 3 9 10 10 11 11 28 12 12 13
REMARK SMILES IDX 13 14 27 15 29 16 14 17 26 18 25 19 15 20 23 21 16 22 17 23
REMARK SMILES IDX 22 24 24 25 18 26 21 27 19 28 20 29
REMARK H PARENT 20 30
REMARK Flexibility Score: inf
ROOT
ATOM      1  C   UNL     1      -9.750 -40.919  10.371  1.00  0.00     0.012 C 
ATOM      2  C   UNL     1     -10.681 -42.019  10.949  1.00  0.00     0.012 C 
ENDROOT
BRANCH   1   3
ATOM      3  C   UNL     1      -9.765 -40.952   8.828  1.00  0.00    -0.028 C 
ATOM      4  C   UNL     1     -10.858 -41.121   8.056  1.00  0.00    -0.028 C 
BRANCH   4   5
ATOM      5  C   UNL     1     -10.866 -40.695   6.597  1.00  0.00     0.011 C 
ATOM      6  C   UNL     1     -12.206 -40.007   6.264  1.00  0.00     0.012 C 
BRANCH   5   7
ATOM      7  C   UNL     1      -9.675 -39.744   6.193  1.00  0.00    -0.011 C 
ATOM      8  C   UNL     1     -10.072 -38.257   6.203  1.00  0.00     0.008 C 
ATOM      9  C   UNL     1      -8.994 -40.109   4.849  1.00  0.00     0.008 C 
ENDBRANCH   5   7
ENDBRANCH   4   5
ENDBRANCH   1   3
BRANCH   1  10
ATOM     10  C   UNL     1     -10.202 -39.513  10.911  1.00  0.00     0.002 C 
ATOM     11  C   UNL     1     -11.646 -39.080  10.522  1.00  0.00     0.005 C 
ATOM     12  C   UNL     1      -9.294 -38.252  10.583  1.00  0.00    -0.023 C 
ATOM     13  C   UNL     1     -11.622 -37.579  10.291  1.00  0.00     0.009 C 
ATOM     14  C   UNL     1     -10.233 -37.395   9.719  1.00  0.00     0.021 C 
ATOM     15  C   UNL     1      -7.986 -38.400   9.739  1.00  0.00     0.008 C 
ATOM     16  C   UNL     1      -8.957 -37.557  11.942  1.00  0.00     0.012 C 
ATOM     17  C   UNL     1      -9.678 -36.025   9.497  1.00  0.00    -0.063 C 
ATOM     18  C   UNL     1      -7.368 -36.999   9.365  1.00  0.00     0.009 C 
ATOM     19  C   UNL     1      -8.388 -36.014   8.701  1.00  0.00     0.025 C 
ATOM     20  C   UNL     1     -10.116 -34.958  10.166  1.00  0.00    -0.000 C 
ATOM     21  C   UNL     1      -7.855 -34.543   8.316  1.00  0.00    -0.005 C 
ATOM     22  C   UNL     1      -9.529 -33.642   9.996  1.00  0.00    -0.000 C 
ATOM     23  C   UNL     1      -8.551 -33.418   9.100  1.00  0.00    -0.061 C 
ATOM     24  C   UNL     1      -8.163 -34.290   6.798  1.00  0.00     0.014 C 
ATOM     25  C   UNL     1      -6.318 -34.411   8.540  1.00  0.00     0.017 C 
ATOM     26  C   UNL     1      -8.321 -31.990   8.659  1.00  0.00     0.063 C 
ATOM     27  C   UNL     1      -7.889 -32.842   6.331  1.00  0.00     0.033 C 
ATOM     28  C   UNL     1      -8.701 -31.850   7.177  1.00  0.00     0.118 C 
BRANCH  28  29
ATOM     29  O   UNL     1      -8.492 -30.542   6.762  1.00  0.00    -0.393 OA
ATOM     30  H   UNL     1      -8.916 -29.957   7.454  1.00  0.00     0.210 HD
ENDBRANCH  28  29
ENDBRANCH   1  10
TORSDOF 5
ENDMDL
MODEL 4
REMARK VINA RESULT:    -5.741      2.268      4.858
REMARK INTER + INTRA:          -9.019
REMARK INTER:                  -7.910
REMARK INTRA:                  -1.108
REMARK UNBOUND:                -1.768
REMARK SMILES CC(C)[C@H](C)C=C[C@H](C)[C@@H]1CC[C@H]2C3=CC=C4C[C@@H](O)CC[C@]4(C)[C@H]3CC[C@@]21C
REMARK SMILES IDX 8 1 9 2 7 3 6 4 4 5 5 6 2 7 1 8 3 9 10 10 11 11 28 12 12 13
REMARK SMILES IDX 13 14 27 15 29 16 14 17 26 18 25 19 15 20 23 21 16 22 17 23
REMARK SMILES IDX 22 24 24 25 18 26 21 27 19 28 20 29
REMARK H PARENT 20 30
REMARK Flexibility Score: inf
ROOT
ATOM      1  C   UNL     1      -9.938 -40.961  10.363  1.00  0.00     0.012 C 
ATOM      2  C   UNL     1     -10.579 -42.049  11.266  1.00  0.00     0.012 C 
ENDROOT
BRANCH   1   3
ATOM      3  C   UNL     1     -10.269 -41.225   8.879  1.00  0.00    -0.028 C 
ATOM      4  C   UNL     1      -9.547 -40.796   7.824  1.00  0.00    -0.028 C 
BRANCH   4   5
ATOM      5  C   UNL     1      -9.672 -41.460   6.462  1.00  0.00     0.011 C 
ATOM      6  C   UNL     1     -10.142 -40.423   5.421  1.00  0.00     0.012 C 
BRANCH   5   7
ATOM      7  C   UNL     1      -8.350 -42.151   5.954  1.00  0.00    -0.011 C 
ATOM      8  C   UNL     1      -7.514 -42.750   7.100  1.00  0.00     0.008 C 
ATOM      9  C   UNL     1      -7.462 -41.252   5.057  1.00  0.00     0.008 C 
ENDBRANCH   5   7
ENDBRANCH   4   5
ENDBRANCH   1   3
BRANCH   1  10
ATOM     10  C   UNL     1     -10.446 -39.542  10.812  1.00  0.00     0.002 C 
ATOM     11  C   UNL     1     -11.853 -39.138  10.284  1.00  0.00     0.005 C 
ATOM     12  C   UNL     1      -9.521 -38.284  10.520  1.00  0.00    -0.023 C 
ATOM     13  C   UNL     1     -11.819 -37.645  10.004  1.00  0.00     0.009 C 
ATOM     14  C   UNL     1     -10.386 -37.467   9.549  1.00  0.00     0.021 C 
ATOM     15  C   UNL     1      -8.143 -38.448   9.800  1.00  0.00     0.008 C 
ATOM     16  C   UNL     1      -9.309 -37.540  11.879  1.00  0.00     0.012 C 
ATOM     17  C   UNL     1      -9.824 -36.100   9.329  1.00  0.00    -0.063 C 
ATOM     18  C   UNL     1      -7.505 -37.054   9.433  1.00  0.00     0.009 C 
ATOM     19  C   UNL     1      -8.470 -36.102   8.648  1.00  0.00     0.025 C 
ATOM     20  C   UNL     1     -10.326 -35.014   9.919  1.00  0.00    -0.000 C 
ATOM     21  C   UNL     1      -7.915 -34.640   8.260  1.00  0.00    -0.005 C 
ATOM     22  C   UNL     1      -9.736 -33.699   9.755  1.00  0.00    -0.000 C 
ATOM     23  C   UNL     1      -8.685 -33.497   8.940  1.00  0.00    -0.061 C 
ATOM     24  C   UNL     1      -8.092 -34.443   6.713  1.00  0.00     0.014 C 
ATOM     25  C   UNL     1      -6.405 -34.485   8.612  1.00  0.00     0.017 C 
ATOM     26  C   UNL     1      -8.427 -32.082   8.471  1.00  0.00     0.063 C 
ATOM     27  C   UNL     1      -7.787 -33.009   6.222  1.00  0.00     0.033 C 
ATOM     28  C   UNL     1      -8.677 -31.997   6.958  1.00  0.00     0.118 C 
BRANCH  28  29
ATOM     29  O   UNL     1      -8.443 -30.701   6.517  1.00  0.00    -0.393 OA
ATOM     30  H   UNL     1      -8.392 -30.130   7.337  1.00  0.00     0.210 HD
ENDBRANCH  28  29
ENDBRANCH   1  10
TORSDOF 5
ENDMDL
MODEL 5
REMARK VINA RESULT:    -5.713      2.308      3.446
REMARK INTER + INTRA:          -8.984
REMARK INTER:                  -8.156
REMARK INTRA:                  -0.828
REMARK UNBOUND:                -1.768
REMARK SMILES CC(C)[C@H](C)C=C[C@H](C)[C@@H]1CC[C@H]2C3=CC=C4C[C@@H](O)CC[C@]4(C)[C@H]3CC[C@@]21C
REMARK SMILES IDX 8 1 9 2 7 3 6 4 4 5 5 6 2 7 1 8 3 9 10 10 11 11 28 12 12 13
REMARK SMILES IDX 13 14 27 15 29 16 14 17 26 18 25 19 15 20 23 21 16 22 17 23
REMARK SMILES IDX 22 24 24 25 18 26 21 27 19 28 20 29
REMARK H PARENT 20 30
REMARK Flexibility Score: inf
ROOT
ATOM      1  C   UNL     1     -10.853 -39.557  11.235  1.00  0.00     0.012 C 
ATOM      2  C   UNL     1     -10.493 -40.904  10.553  1.00  0.00     0.012 C 
ENDROOT
BRANCH   1   3
ATOM      3  C   UNL     1     -11.361 -39.795  12.672  1.00  0.00    -0.028 C 
ATOM      4  C   UNL     1     -11.081 -40.870  13.437  1.00  0.00    -0.028 C 
BRANCH   4   5
ATOM      5  C   UNL     1     -11.230 -40.822  14.949  1.00  0.00     0.011 C 
ATOM      6  C   UNL     1     -11.203 -42.255  15.520  1.00  0.00     0.012 C 
BRANCH   5   7
ATOM      7  C   UNL     1     -10.140 -39.947  15.679  1.00  0.00    -0.011 C 
ATOM      8  C   UNL     1      -9.681 -40.562  17.013  1.00  0.00     0.008 C 
ATOM      9  C   UNL     1     -10.543 -38.464  15.883  1.00  0.00     0.008 C 
ENDBRANCH   5   7
ENDBRANCH   4   5
ENDBRANCH   1   3
BRANCH   1  10
ATOM     10  C   UNL     1      -9.593 -38.615  11.230  1.00  0.00     0.002 C 
ATOM     11  C   UNL     1      -9.630 -37.443  12.253  1.00  0.00     0.005 C 
ATOM     12  C   UNL     1      -9.156 -37.948   9.857  1.00  0.00    -0.023 C 
ATOM     13  C   UNL     1      -8.957 -36.249  11.597  1.00  0.00     0.009 C 
ATOM     14  C   UNL     1      -9.349 -36.452  10.150  1.00  0.00     0.021 C 
ATOM     15  C   UNL     1      -9.960 -38.213   8.543  1.00  0.00     0.008 C 
ATOM     16  C   UNL     1      -7.653 -38.306   9.624  1.00  0.00     0.012 C 
ATOM     17  C   UNL     1      -8.756 -35.601   9.075  1.00  0.00    -0.063 C 
ATOM     18  C   UNL     1      -9.474 -37.289   7.362  1.00  0.00     0.009 C 
ATOM     19  C   UNL     1      -9.429 -35.766   7.727  1.00  0.00     0.025 C 
ATOM     20  C   UNL     1      -7.585 -34.977   9.218  1.00  0.00    -0.000 C 
ATOM     21  C   UNL     1      -8.910 -34.747   6.592  1.00  0.00    -0.005 C 
ATOM     22  C   UNL     1      -6.981 -34.205   8.149  1.00  0.00    -0.000 C 
ATOM     23  C   UNL     1      -7.607 -34.025   6.972  1.00  0.00    -0.061 C 
ATOM     24  C   UNL     1     -10.000 -33.635   6.396  1.00  0.00     0.014 C 
ATOM     25  C   UNL     1      -8.685 -35.469   5.229  1.00  0.00     0.017 C 
ATOM     26  C   UNL     1      -7.152 -32.868   6.109  1.00  0.00     0.063 C 
ATOM     27  C   UNL     1      -9.555 -32.471   5.480  1.00  0.00     0.033 C 
ATOM     28  C   UNL     1      -8.275 -31.824   6.029  1.00  0.00     0.118 C 
BRANCH  28  29
ATOM     29  O   UNL     1      -7.868 -30.758   5.238  1.00  0.00    -0.393 OA
ATOM     30  H   UNL     1      -7.241 -31.137   4.557  1.00  0.00     0.210 HD
ENDBRANCH  28  29
ENDBRANCH   1  10
TORSDOF 5
ENDMDL
MODEL 6
REMARK VINA RESULT:    -5.474      1.863      2.780
REMARK INTER + INTRA:          -8.682
REMARK INTER:                  -7.441
REMARK INTRA:                  -1.241
REMARK UNBOUND:                -1.768
REMARK SMILES CC(C)[C@H](C)C=C[C@H](C)[C@@H]1CC[C@H]2C3=CC=C4C[C@@H](O)CC[C@]4(C)[C@H]3CC[C@@]21C
REMARK SMILES IDX 8 1 9 2 7 3 6 4 4 5 5 6 2 7 1 8 3 9 10 10 11 11 28 12 12 13
REMARK SMILES IDX 13 14 27 15 29 16 14 17 26 18 25 19 15 20 23 21 16 22 17 23
REMARK SMILES IDX 22 24 24 25 18 26 21 27 19 28 20 29
REMARK H PARENT 20 30
REMARK Flexibility Score: inf
ROOT
ATOM      1  C   UNL     1     -10.090 -40.489   8.635  1.00  0.00     0.012 C 
ATOM      2  C   UNL     1      -9.510 -41.423   7.538  1.00  0.00     0.012 C 
ENDROOT
BRANCH   1   3
ATOM      3  C   UNL     1     -10.035 -41.175  10.016  1.00  0.00    -0.028 C 
ATOM      4  C   UNL     1     -10.859 -40.922  11.053  1.00  0.00    -0.028 C 
BRANCH   4   5
ATOM      5  C   UNL     1     -11.036 -41.925  12.181  1.00  0.00     0.011 C 
ATOM      6  C   UNL     1     -10.091 -43.125  11.963  1.00  0.00     0.012 C 
BRANCH   5   7
ATOM      7  C   UNL     1     -10.802 -41.328  13.621  1.00  0.00    -0.011 C 
ATOM      8  C   UNL     1     -11.146 -42.327  14.742  1.00  0.00     0.008 C 
ATOM      9  C   UNL     1     -11.511 -39.974  13.875  1.00  0.00     0.008 C 
ENDBRANCH   5   7
ENDBRANCH   4   5
ENDBRANCH   1   3
BRANCH   1  10
ATOM     10  C   UNL     1      -9.291 -39.134   8.645  1.00  0.00     0.002 C 
ATOM     11  C   UNL     1      -7.983 -39.136   9.489  1.00  0.00     0.005 C 
ATOM     12  C   UNL     1     -10.056 -37.812   9.078  1.00  0.00    -0.023 C 
ATOM     13  C   UNL     1      -7.850 -37.761  10.121  1.00  0.00     0.009 C 
ATOM     14  C   UNL     1      -9.303 -37.407  10.355  1.00  0.00     0.021 C 
ATOM     15  C   UNL     1     -11.563 -37.852   9.490  1.00  0.00     0.008 C 
ATOM     16  C   UNL     1      -9.861 -36.767   7.932  1.00  0.00     0.012 C 
ATOM     17  C   UNL     1      -9.687 -36.036  10.808  1.00  0.00    -0.063 C 
ATOM     18  C   UNL     1     -12.048 -36.472  10.078  1.00  0.00     0.009 C 
ATOM     19  C   UNL     1     -11.139 -35.919  11.227  1.00  0.00     0.025 C 
ATOM     20  C   UNL     1      -8.913 -34.969  10.601  1.00  0.00    -0.000 C 
ATOM     21  C   UNL     1     -11.536 -34.494  11.865  1.00  0.00    -0.005 C 
ATOM     22  C   UNL     1      -9.320 -33.630  10.983  1.00  0.00    -0.000 C 
ATOM     23  C   UNL     1     -10.477 -33.405  11.631  1.00  0.00    -0.061 C 
ATOM     24  C   UNL     1     -11.664 -34.670  13.419  1.00  0.00     0.014 C 
ATOM     25  C   UNL     1     -12.897 -33.974  11.310  1.00  0.00     0.017 C 
ATOM     26  C   UNL     1     -10.612 -32.101  12.386  1.00  0.00     0.063 C 
ATOM     27  C   UNL     1     -11.845 -33.344  14.192  1.00  0.00     0.033 C 
ATOM     28  C   UNL     1     -10.678 -32.392  13.892  1.00  0.00     0.118 C 
BRANCH  28  29
ATOM     29  O   UNL     1     -10.803 -31.201  14.595  1.00  0.00    -0.393 OA
ATOM     30  H   UNL     1      -9.905 -30.760  14.562  1.00  0.00     0.210 HD
ENDBRANCH  28  29
ENDBRANCH   1  10
TORSDOF 5
ENDMDL
MODEL 7
REMARK VINA RESULT:    -5.448      4.134      8.719
REMARK INTER + INTRA:          -8.649
REMARK INTER:                  -7.791
REMARK INTRA:                  -0.858
REMARK UNBOUND:                -1.768
REMARK SMILES CC(C)[C@H](C)C=C[C@H](C)[C@@H]1CC[C@H]2C3=CC=C4C[C@@H](O)CC[C@]4(C)[C@H]3CC[C@@]21C
REMARK SMILES IDX 8 1 9 2 7 3 6 4 4 5 5 6 2 7 1 8 3 9 10 10 11 11 28 12 12 13
REMARK SMILES IDX 13 14 27 15 29 16 14 17 26 18 25 19 15 20 23 21 16 22 17 23
REMARK SMILES IDX 22 24 24 25 18 26 21 27 19 28 20 29
REMARK H PARENT 20 30
REMARK Flexibility Score: inf
ROOT
ATOM      1  C   UNL     1      -7.718 -32.664   5.948  1.00  0.00     0.012 C 
ATOM      2  C   UNL     1      -8.437 -31.290   5.878  1.00  0.00     0.012 C 
ENDROOT
BRANCH   1   3
ATOM      3  C   UNL     1      -6.296 -32.562   5.358  1.00  0.00    -0.028 C 
ATOM      4  C   UNL     1      -5.873 -31.629   4.482  1.00  0.00    -0.028 C 
BRANCH   4   5
ATOM      5  C   UNL     1      -4.394 -31.323   4.308  1.00  0.00     0.011 C 
ATOM      6  C   UNL     1      -3.842 -32.101   3.096  1.00  0.00     0.012 C 
BRANCH   5   7
ATOM      7  C   UNL     1      -4.065 -29.790   4.141  1.00  0.00    -0.011 C 
ATOM      8  C   UNL     1      -2.957 -29.313   5.098  1.00  0.00     0.008 C 
ATOM      9  C   UNL     1      -5.298 -28.857   4.241  1.00  0.00     0.008 C 
ENDBRANCH   5   7
ENDBRANCH   4   5
ENDBRANCH   1   3
BRANCH   1  10
ATOM     10  C   UNL     1      -7.676 -33.158   7.441  1.00  0.00     0.002 C 
ATOM     11  C   UNL     1      -6.315 -33.747   7.913  1.00  0.00     0.005 C 
ATOM     12  C   UNL     1      -8.766 -34.211   7.917  1.00  0.00    -0.023 C 
ATOM     13  C   UNL     1      -6.623 -34.888   8.867  1.00  0.00     0.009 C 
ATOM     14  C   UNL     1      -7.902 -35.431   8.268  1.00  0.00     0.021 C 
ATOM     15  C   UNL     1      -9.850 -34.749   6.927  1.00  0.00     0.008 C 
ATOM     16  C   UNL     1      -9.469 -33.612   9.178  1.00  0.00     0.012 C 
ATOM     17  C   UNL     1      -8.694 -36.476   8.986  1.00  0.00    -0.063 C 
ATOM     18  C   UNL     1     -10.683 -35.930   7.557  1.00  0.00     0.009 C 
ATOM     19  C   UNL     1      -9.802 -37.082   8.148  1.00  0.00     0.025 C 
ATOM     20  C   UNL     1      -8.615 -36.654  10.306  1.00  0.00    -0.000 C 
ATOM     21  C   UNL     1     -10.567 -38.317   8.846  1.00  0.00    -0.005 C 
ATOM     22  C   UNL     1      -9.434 -37.624  11.008  1.00  0.00    -0.000 C 
ATOM     23  C   UNL     1     -10.272 -38.445  10.349  1.00  0.00    -0.061 C 
ATOM     24  C   UNL     1     -10.068 -39.645   8.176  1.00  0.00     0.014 C 
ATOM     25  C   UNL     1     -12.111 -38.215   8.662  1.00  0.00     0.017 C 
ATOM     26  C   UNL     1     -10.726 -39.698  11.064  1.00  0.00     0.063 C 
ATOM     27  C   UNL     1     -10.566 -40.930   8.876  1.00  0.00     0.033 C 
ATOM     28  C   UNL     1     -10.141 -40.927  10.352  1.00  0.00     0.118 C 
BRANCH  28  29
ATOM     29  O   UNL     1     -10.553 -42.084  11.000  1.00  0.00    -0.393 OA
ATOM     30  H   UNL     1     -11.292 -41.812  11.617  1.00  0.00     0.210 HD
ENDBRANCH  28  29
ENDBRANCH   1  10
TORSDOF 5
ENDMDL
MODEL 8
REMARK VINA RESULT:    -5.366      3.759      7.398
REMARK INTER + INTRA:          -8.546
REMARK INTER:                  -7.512
REMARK INTRA:                  -1.034
REMARK UNBOUND:                -1.768
REMARK SMILES CC(C)[C@H](C)C=C[C@H](C)[C@@H]1CC[C@H]2C3=CC=C4C[C@@H](O)CC[C@]4(C)[C@H]3CC[C@@]21C
REMARK SMILES IDX 8 1 9 2 7 3 6 4 4 5 5 6 2 7 1 8 3 9 10 10 11 11 28 12 12 13
REMARK SMILES IDX 13 14 27 15 29 16 14 17 26 18 25 19 15 20 23 21 16 22 17 23
REMARK SMILES IDX 22 24 24 25 18 26 21 27 19 28 20 29
REMARK H PARENT 20 30
REMARK Flexibility Score: inf
ROOT
ATOM      1  C   UNL     1      -8.919 -33.503  14.082  1.00  0.00     0.012 C 
ATOM      2  C   UNL     1      -9.561 -32.444  15.019  1.00  0.00     0.012 C 
ENDROOT
BRANCH   1   3
ATOM      3  C   UNL     1      -7.465 -33.793  14.508  1.00  0.00    -0.028 C 
ATOM      4  C   UNL     1      -6.553 -32.869  14.872  1.00  0.00    -0.028 C 
BRANCH   4   5
ATOM      5  C   UNL     1      -5.331 -33.249  15.692  1.00  0.00     0.011 C 
ATOM      6  C   UNL     1      -5.390 -34.749  16.049  1.00  0.00     0.012 C 
BRANCH   5   7
ATOM      7  C   UNL     1      -3.955 -32.931  14.991  1.00  0.00    -0.011 C 
ATOM      8  C   UNL     1      -4.130 -32.252  13.621  1.00  0.00     0.008 C 
ATOM      9  C   UNL     1      -3.003 -34.147  14.869  1.00  0.00     0.008 C 
ENDBRANCH   5   7
ENDBRANCH   4   5
ENDBRANCH   1   3
BRANCH   1  10
ATOM     10  C   UNL     1      -9.787 -34.815  14.104  1.00  0.00     0.002 C 
ATOM     11  C   UNL     1      -9.333 -35.900  15.123  1.00  0.00     0.005 C 
ATOM     12  C   UNL     1     -10.003 -35.598  12.740  1.00  0.00    -0.023 C 
ATOM     13  C   UNL     1      -9.578 -37.255  14.480  1.00  0.00     0.009 C 
ATOM     14  C   UNL     1      -9.310 -36.939  13.024  1.00  0.00     0.021 C 
ATOM     15  C   UNL     1      -9.366 -35.084  11.408  1.00  0.00     0.008 C 
ATOM     16  C   UNL     1     -11.544 -35.770  12.543  1.00  0.00     0.012 C 
ATOM     17  C   UNL     1      -9.605 -37.947  11.961  1.00  0.00    -0.063 C 
ATOM     18  C   UNL     1      -9.537 -36.125  10.236  1.00  0.00     0.009 C 
ATOM     19  C   UNL     1      -9.057 -37.571  10.599  1.00  0.00     0.025 C 
ATOM     20  C   UNL     1     -10.492 -38.928  12.131  1.00  0.00    -0.000 C 
ATOM     21  C   UNL     1      -9.227 -38.712   9.474  1.00  0.00    -0.005 C 
ATOM     22  C   UNL     1     -10.824 -39.865  11.073  1.00  0.00    -0.000 C 
ATOM     23  C   UNL     1     -10.200 -39.830   9.882  1.00  0.00    -0.061 C 
ATOM     24  C   UNL     1      -7.831 -39.392   9.250  1.00  0.00     0.014 C 
ATOM     25  C   UNL     1      -9.714 -38.117   8.118  1.00  0.00     0.017 C 
ATOM     26  C   UNL     1     -10.257 -41.077   9.027  1.00  0.00     0.063 C 
ATOM     27  C   UNL     1      -7.876 -40.643   8.341  1.00  0.00     0.033 C 
ATOM     28  C   UNL     1      -8.849 -41.681   8.919  1.00  0.00     0.118 C 
BRANCH  28  29
ATOM     29  O   UNL     1      -8.891 -42.826   8.135  1.00  0.00    -0.393 OA
ATOM     30  H   UNL     1      -9.731 -42.768   7.596  1.00  0.00     0.210 HD
ENDBRANCH  28  29
ENDBRANCH   1  10
TORSDOF 5
ENDMDL
MODEL 9
REMARK VINA RESULT:    -5.365      2.853      7.350
REMARK INTER + INTRA:          -8.544
REMARK INTER:                  -7.058
REMARK INTRA:                  -1.486
REMARK UNBOUND:                -1.768
REMARK SMILES CC(C)[C@H](C)C=C[C@H](C)[C@@H]1CC[C@H]2C3=CC=C4C[C@@H](O)CC[C@]4(C)[C@H]3CC[C@@]21C
REMARK SMILES IDX 8 1 9 2 7 3 6 4 4 5 5 6 2 7 1 8 3 9 10 10 11 11 28 12 12 13
REMARK SMILES IDX 13 14 27 15 29 16 14 17 26 18 25 19 15 20 23 21 16 22 17 23
REMARK SMILES IDX 22 24 24 25 18 26 21 27 19 28 20 29
REMARK H PARENT 20 30
REMARK Flexibility Score: inf
ROOT
ATOM      1  C   UNL     1     -10.110 -32.203  10.688  1.00  0.00     0.012 C 
ATOM      2  C   UNL     1      -9.439 -31.110  11.564  1.00  0.00     0.012 C 
ENDROOT
BRANCH   1   3
ATOM      3  C   UNL     1      -9.194 -32.591   9.509  1.00  0.00    -0.028 C 
ATOM      4  C   UNL     1      -7.865 -32.809   9.585  1.00  0.00    -0.028 C 
BRANCH   4   5
ATOM      5  C   UNL     1      -7.136 -33.610   8.518  1.00  0.00     0.011 C 
ATOM      6  C   UNL     1      -7.219 -35.114   8.850  1.00  0.00     0.012 C 
BRANCH   5   7
ATOM      7  C   UNL     1      -7.662 -33.367   7.052  1.00  0.00    -0.011 C 
ATOM      8  C   UNL     1      -8.343 -34.609   6.451  1.00  0.00     0.008 C 
ATOM      9  C   UNL     1      -6.595 -32.814   6.074  1.00  0.00     0.008 C 
ENDBRANCH   5   7
ENDBRANCH   4   5
ENDBRANCH   1   3
BRANCH   1  10
ATOM     10  C   UNL     1     -10.445 -33.455  11.579  1.00  0.00     0.002 C 
ATOM     11  C   UNL     1      -9.351 -33.854  12.611  1.00  0.00     0.005 C 
ATOM     12  C   UNL     1     -10.839 -34.812  10.854  1.00  0.00    -0.023 C 
ATOM     13  C   UNL     1      -9.344 -35.371  12.699  1.00  0.00     0.009 C 
ATOM     14  C   UNL     1      -9.696 -35.746  11.277  1.00  0.00     0.021 C 
ATOM     15  C   UNL     1     -10.888 -34.906   9.294  1.00  0.00     0.008 C 
ATOM     16  C   UNL     1     -12.213 -35.269  11.443  1.00  0.00     0.012 C 
ATOM     17  C   UNL     1      -9.986 -37.168  10.916  1.00  0.00    -0.063 C 
ATOM     18  C   UNL     1     -11.094 -36.389   8.803  1.00  0.00     0.009 C 
ATOM     19  C   UNL     1     -10.080 -37.409   9.423  1.00  0.00     0.025 C 
ATOM     20  C   UNL     1     -10.396 -38.065  11.813  1.00  0.00    -0.000 C 
ATOM     21  C   UNL     1     -10.236 -38.957   9.005  1.00  0.00    -0.005 C 
ATOM     22  C   UNL     1     -10.740 -39.426  11.447  1.00  0.00    -0.000 C 
ATOM     23  C   UNL     1     -10.599 -39.872  10.186  1.00  0.00    -0.061 C 
ATOM     24  C   UNL     1      -8.855 -39.459   8.455  1.00  0.00     0.014 C 
ATOM     25  C   UNL     1     -11.314 -39.148   7.895  1.00  0.00     0.017 C 
ATOM     26  C   UNL     1     -10.531 -41.369   9.979  1.00  0.00     0.063 C 
ATOM     27  C   UNL     1      -8.794 -40.983   8.200  1.00  0.00     0.033 C 
ATOM     28  C   UNL     1      -9.126 -41.749   9.489  1.00  0.00     0.118 C 
BRANCH  28  29
ATOM     29  O   UNL     1      -9.053 -43.122   9.294  1.00  0.00    -0.393 OA
ATOM     30  H   UNL     1      -9.986 -43.469   9.391  1.00  0.00     0.210 HD
ENDBRANCH  28  29
ENDBRANCH   1  10
TORSDOF 5
ENDMDL
