MODEL 1
REMARK VINA RESULT:    -7.305      0.000      0.000
REMARK INTER + INTRA:          -9.116
REMARK INTER:                  -8.800
REMARK INTRA:                  -0.316
REMARK UNBOUND:                -0.316
REMARK SMILES O=c1c(O)c(-c2ccc(O)c(O)c2)oc2cc(O)cc(O)c12
REMARK SMILES IDX 5 1 3 2 2 3 1 4 22 5 20 6 19 7 17 8 16 9 15 10 14 11 6 12
REMARK SMILES IDX 7 13 8 14 9 15 13 16 11 17 10 18 12 20 4 22 21 24 18 26
REMARK H PARENT 10 19 12 21 4 23 21 25 18 27
REMARK Flexibility Score: inf
ROOT
ATOM      1  C   UNL     1     -11.839  38.814  -6.996  1.00  0.00     0.180 A 
ATOM      2  C   UNL     1     -11.181  38.758  -8.236  1.00  0.00     0.208 A 
ATOM      3  C   UNL     1     -11.864  39.181  -9.388  1.00  0.00     0.238 A 
ATOM      4  O   UNL     1     -11.289  39.078 -10.503  1.00  0.00    -0.285 OA
ATOM      5  C   UNL     1     -13.188  39.670  -9.283  1.00  0.00     0.111 A 
ATOM      6  C   UNL     1     -13.960  40.162 -10.378  1.00  0.00     0.134 A 
ATOM      7  C   UNL     1     -15.305  40.497 -10.180  1.00  0.00     0.093 A 
ATOM      8  C   UNL     1     -15.887  40.422  -8.912  1.00  0.00     0.123 A 
ATOM      9  C   UNL     1     -15.125  39.999  -7.825  1.00  0.00     0.094 A 
ATOM     10  C   UNL     1     -13.791  39.623  -7.999  1.00  0.00     0.146 A 
ATOM     11  O   UNL     1     -13.104  39.216  -6.939  1.00  0.00    -0.452 OA
ENDROOT
BRANCH   1  12
ATOM     12  C   UNL     1     -11.178  38.410  -5.733  1.00  0.00     0.025 A 
ATOM     13  C   UNL     1     -11.305  37.105  -5.226  1.00  0.00     0.016 A 
ATOM     14  C   UNL     1     -10.652  36.739  -4.046  1.00  0.00     0.051 A 
ATOM     15  C   UNL     1      -9.855  37.666  -3.363  1.00  0.00     0.157 A 
ATOM     16  C   UNL     1     -10.360  39.329  -5.055  1.00  0.00     0.062 A 
ATOM     17  C   UNL     1      -9.706  38.963  -3.871  1.00  0.00     0.158 A 
BRANCH  15  18
ATOM     18  O   UNL     1      -9.204  37.306  -2.185  1.00  0.00    -0.504 OA
ATOM     19  H   UNL     1      -8.590  37.951  -1.700  1.00  0.00     0.293 HD
ENDBRANCH  15  18
BRANCH  17  20
ATOM     20  O   UNL     1      -8.906  39.882  -3.193  1.00  0.00    -0.504 OA
ATOM     21  H   UNL     1      -7.974  39.642  -2.877  1.00  0.00     0.293 HD
ENDBRANCH  17  20
ENDBRANCH   1  12
BRANCH   2  22
ATOM     22  O   UNL     1      -9.882  38.252  -8.320  1.00  0.00    -0.502 OA
ATOM     23  H   UNL     1      -9.450  38.006  -9.203  1.00  0.00     0.293 HD
ENDBRANCH   2  22
BRANCH   6  24
ATOM     24  O   UNL     1     -13.449  40.364 -11.665  1.00  0.00    -0.507 OA
ATOM     25  H   UNL     1     -13.881  40.030 -12.513  1.00  0.00     0.293 HD
ENDBRANCH   6  24
BRANCH   8  26
ATOM     26  O   UNL     1     -17.221  40.773  -8.721  1.00  0.00    -0.508 OA
ATOM     27  H   UNL     1     -17.492  41.720  -8.483  1.00  0.00     0.293 HD
ENDBRANCH   8  26
TORSDOF 6
ENDMDL
MODEL 2
REMARK VINA RESULT:    -7.232      3.538      6.519
REMARK INTER + INTRA:          -9.028
REMARK INTER:                  -8.756
REMARK INTRA:                  -0.272
REMARK UNBOUND:                -0.316
REMARK SMILES O=c1c(O)c(-c2ccc(O)c(O)c2)oc2cc(O)cc(O)c12
REMARK SMILES IDX 5 1 3 2 2 3 1 4 22 5 20 6 19 7 17 8 16 9 15 10 14 11 6 12
REMARK SMILES IDX 7 13 8 14 9 15 13 16 11 17 10 18 12 20 4 22 21 24 18 26
REMARK H PARENT 10 19 12 21 4 23 21 25 18 27
REMARK Flexibility Score: inf
ROOT
ATOM      1  C   UNL     1     -11.553  38.594  -9.831  1.00  0.00     0.180 A 
ATOM      2  C   UNL     1     -11.229  37.381 -10.460  1.00  0.00     0.208 A 
ATOM      3  C   UNL     1      -9.945  37.218 -11.006  1.00  0.00     0.238 A 
ATOM      4  O   UNL     1      -9.679  36.150 -11.615  1.00  0.00    -0.285 OA
ATOM      5  C   UNL     1      -8.998  38.265 -10.902  1.00  0.00     0.111 A 
ATOM      6  C   UNL     1      -7.656  38.195 -11.384  1.00  0.00     0.134 A 
ATOM      7  C   UNL     1      -6.847  39.337 -11.345  1.00  0.00     0.093 A 
ATOM      8  C   UNL     1      -7.310  40.528 -10.779  1.00  0.00     0.123 A 
ATOM      9  C   UNL     1      -8.598  40.589 -10.253  1.00  0.00     0.094 A 
ATOM     10  C   UNL     1      -9.440  39.477 -10.311  1.00  0.00     0.146 A 
ATOM     11  O   UNL     1     -10.664  39.581  -9.807  1.00  0.00    -0.452 OA
ENDROOT
BRANCH   1  12
ATOM     12  C   UNL     1     -12.876  38.831  -9.209  1.00  0.00     0.025 A 
ATOM     13  C   UNL     1     -13.044  38.805  -7.813  1.00  0.00     0.016 A 
ATOM     14  C   UNL     1     -14.297  39.055  -7.248  1.00  0.00     0.051 A 
ATOM     15  C   UNL     1     -15.396  39.347  -8.066  1.00  0.00     0.157 A 
ATOM     16  C   UNL     1     -13.977  39.144 -10.023  1.00  0.00     0.062 A 
ATOM     17  C   UNL     1     -15.235  39.395  -9.457  1.00  0.00     0.158 A 
BRANCH  15  18
ATOM     18  O   UNL     1     -16.648  39.595  -7.506  1.00  0.00    -0.504 OA
ATOM     19  H   UNL     1     -17.066  38.956  -6.839  1.00  0.00     0.293 HD
ENDBRANCH  15  18
BRANCH  17  20
ATOM     20  O   UNL     1     -16.328  39.693 -10.268  1.00  0.00    -0.504 OA
ATOM     21  H   UNL     1     -16.738  38.998 -10.881  1.00  0.00     0.293 HD
ENDBRANCH  17  20
ENDBRANCH   1  12
BRANCH   2  22
ATOM     22  O   UNL     1     -12.186  36.369 -10.571  1.00  0.00    -0.502 OA
ATOM     23  H   UNL     1     -13.014  36.338  -9.988  1.00  0.00     0.293 HD
ENDBRANCH   2  22
BRANCH   6  24
ATOM     24  O   UNL     1      -7.065  37.029 -11.882  1.00  0.00    -0.507 OA
ATOM     25  H   UNL     1      -7.570  36.269 -12.312  1.00  0.00     0.293 HD
ENDBRANCH   6  24
BRANCH   8  26
ATOM     26  O   UNL     1      -6.493  41.656 -10.730  1.00  0.00    -0.508 OA
ATOM     27  H   UNL     1      -5.539  41.605 -10.391  1.00  0.00     0.293 HD
ENDBRANCH   8  26
TORSDOF 6
ENDMDL
MODEL 3
REMARK VINA RESULT:    -7.215      7.079      9.512
REMARK INTER + INTRA:          -9.008
REMARK INTER:                  -8.729
REMARK INTRA:                  -0.279
REMARK UNBOUND:                -0.316
REMARK SMILES O=c1c(O)c(-c2ccc(O)c(O)c2)oc2cc(O)cc(O)c12
REMARK SMILES IDX 5 1 3 2 2 3 1 4 22 5 20 6 19 7 17 8 16 9 15 10 14 11 6 12
REMARK SMILES IDX 7 13 8 14 9 15 13 16 11 17 10 18 12 20 4 22 21 24 18 26
REMARK H PARENT 10 19 12 21 4 23 21 25 18 27
REMARK Flexibility Score: inf
ROOT
ATOM      1  C   UNL     1     -15.845  35.835  -1.606  1.00  0.00     0.180 A 
ATOM      2  C   UNL     1     -16.961  36.600  -1.984  1.00  0.00     0.208 A 
ATOM      3  C   UNL     1     -17.762  37.175  -0.984  1.00  0.00     0.238 A 
ATOM      4  O   UNL     1     -18.791  37.814  -1.327  1.00  0.00    -0.285 OA
ATOM      5  C   UNL     1     -17.427  36.992   0.379  1.00  0.00     0.111 A 
ATOM      6  C   UNL     1     -18.145  37.562   1.473  1.00  0.00     0.134 A 
ATOM      7  C   UNL     1     -17.802  37.207   2.784  1.00  0.00     0.093 A 
ATOM      8  C   UNL     1     -16.725  36.355   3.041  1.00  0.00     0.123 A 
ATOM      9  C   UNL     1     -15.982  35.840   1.982  1.00  0.00     0.094 A 
ATOM     10  C   UNL     1     -16.323  36.148   0.663  1.00  0.00     0.146 A 
ATOM     11  O   UNL     1     -15.595  35.627  -0.318  1.00  0.00    -0.452 OA
ENDROOT
BRANCH   1  12
ATOM     12  C   UNL     1     -14.938  35.218  -2.602  1.00  0.00     0.025 A 
ATOM     13  C   UNL     1     -15.026  33.852  -2.923  1.00  0.00     0.016 A 
ATOM     14  C   UNL     1     -14.176  33.296  -3.883  1.00  0.00     0.051 A 
ATOM     15  C   UNL     1     -13.237  34.098  -4.544  1.00  0.00     0.157 A 
ATOM     16  C   UNL     1     -14.008  36.021  -3.282  1.00  0.00     0.062 A 
ATOM     17  C   UNL     1     -13.155  35.464  -4.245  1.00  0.00     0.158 A 
BRANCH  15  18
ATOM     18  O   UNL     1     -12.386  33.547  -5.500  1.00  0.00    -0.504 OA
ATOM     19  H   UNL     1     -11.495  33.975  -5.727  1.00  0.00     0.293 HD
ENDBRANCH  15  18
BRANCH  17  20
ATOM     20  O   UNL     1     -12.224  36.261  -4.909  1.00  0.00    -0.504 OA
ATOM     21  H   UNL     1     -11.432  36.668  -4.424  1.00  0.00     0.293 HD
ENDBRANCH  17  20
ENDBRANCH   1  12
BRANCH   2  22
ATOM     22  O   UNL     1     -17.286  36.749  -3.335  1.00  0.00    -0.502 OA
ATOM     23  H   UNL     1     -18.085  37.290  -3.645  1.00  0.00     0.293 HD
ENDBRANCH   2  22
BRANCH   6  24
ATOM     24  O   UNL     1     -19.176  38.496   1.329  1.00  0.00    -0.507 OA
ATOM     25  H   UNL     1     -19.895  38.453   0.624  1.00  0.00     0.293 HD
ENDBRANCH   6  24
BRANCH   8  26
ATOM     26  O   UNL     1     -16.381  36.019   4.348  1.00  0.00    -0.508 OA
ATOM     27  H   UNL     1     -15.516  36.338   4.768  1.00  0.00     0.293 HD
ENDBRANCH   8  26
TORSDOF 6
ENDMDL
MODEL 4
REMARK VINA RESULT:    -7.140      4.316      6.852
REMARK INTER + INTRA:          -8.917
REMARK INTER:                  -8.584
REMARK INTRA:                  -0.333
REMARK UNBOUND:                -0.316
REMARK SMILES O=c1c(O)c(-c2ccc(O)c(O)c2)oc2cc(O)cc(O)c12
REMARK SMILES IDX 5 1 3 2 2 3 1 4 22 5 20 6 19 7 17 8 16 9 15 10 14 11 6 12
REMARK SMILES IDX 7 13 8 14 9 15 13 16 11 17 10 18 12 20 4 22 21 24 18 26
REMARK H PARENT 10 19 12 21 4 23 21 25 18 27
REMARK Flexibility Score: inf
ROOT
ATOM      1  C   UNL     1     -15.048  38.875  -5.761  1.00  0.00     0.180 A 
ATOM      2  C   UNL     1     -14.342  37.665  -5.656  1.00  0.00     0.208 A 
ATOM      3  C   UNL     1     -14.705  36.750  -4.654  1.00  0.00     0.238 A 
ATOM      4  O   UNL     1     -14.034  35.692  -4.531  1.00  0.00    -0.285 OA
ATOM      5  C   UNL     1     -15.778  37.050  -3.781  1.00  0.00     0.111 A 
ATOM      6  C   UNL     1     -16.256  36.180  -2.756  1.00  0.00     0.134 A 
ATOM      7  C   UNL     1     -17.238  36.634  -1.867  1.00  0.00     0.093 A 
ATOM      8  C   UNL     1     -17.806  37.903  -2.007  1.00  0.00     0.123 A 
ATOM      9  C   UNL     1     -17.387  38.737  -3.041  1.00  0.00     0.094 A 
ATOM     10  C   UNL     1     -16.384  38.326  -3.921  1.00  0.00     0.146 A 
ATOM     11  O   UNL     1     -16.006  39.156  -4.886  1.00  0.00    -0.452 OA
ENDROOT
BRANCH   1  12
ATOM     12  C   UNL     1     -14.742  39.878  -6.807  1.00  0.00     0.025 A 
ATOM     13  C   UNL     1     -15.329  39.809  -8.082  1.00  0.00     0.016 A 
ATOM     14  C   UNL     1     -15.044  40.780  -9.045  1.00  0.00     0.051 A 
ATOM     15  C   UNL     1     -14.179  41.840  -8.746  1.00  0.00     0.157 A 
ATOM     16  C   UNL     1     -13.891  40.955  -6.505  1.00  0.00     0.062 A 
ATOM     17  C   UNL     1     -13.604  41.929  -7.471  1.00  0.00     0.158 A 
BRANCH  15  18
ATOM     18  O   UNL     1     -13.890  42.809  -9.704  1.00  0.00    -0.504 OA
ATOM     19  H   UNL     1     -13.118  43.456  -9.588  1.00  0.00     0.293 HD
ENDBRANCH  15  18
BRANCH  17  20
ATOM     20  O   UNL     1     -12.749  42.989  -7.173  1.00  0.00    -0.504 OA
ATOM     21  H   UNL     1     -11.742  42.884  -7.210  1.00  0.00     0.293 HD
ENDBRANCH  17  20
ENDBRANCH   1  12
BRANCH   2  22
ATOM     22  O   UNL     1     -13.272  37.398  -6.514  1.00  0.00    -0.502 OA
ATOM     23  H   UNL     1     -12.820  36.493  -6.555  1.00  0.00     0.293 HD
ENDBRANCH   2  22
BRANCH   6  24
ATOM     24  O   UNL     1     -15.824  34.860  -2.587  1.00  0.00    -0.507 OA
ATOM     25  H   UNL     1     -15.635  34.428  -1.696  1.00  0.00     0.293 HD
ENDBRANCH   6  24
BRANCH   8  26
ATOM     26  O   UNL     1     -18.793  38.341  -1.128  1.00  0.00    -0.508 OA
ATOM     27  H   UNL     1     -18.621  39.090  -0.468  1.00  0.00     0.293 HD
ENDBRANCH   8  26
TORSDOF 6
ENDMDL
MODEL 5
REMARK VINA RESULT:    -7.118      1.477      2.760
REMARK INTER + INTRA:          -8.890
REMARK INTER:                  -8.854
REMARK INTRA:                  -0.036
REMARK UNBOUND:                -0.316
REMARK SMILES O=c1c(O)c(-c2ccc(O)c(O)c2)oc2cc(O)cc(O)c12
REMARK SMILES IDX 5 1 3 2 2 3 1 4 22 5 20 6 19 7 17 8 16 9 15 10 14 11 6 12
REMARK SMILES IDX 7 13 8 14 9 15 13 16 11 17 10 18 12 20 4 22 21 24 18 26
REMARK H PARENT 10 19 12 21 4 23 21 25 18 27
REMARK Flexibility Score: inf
ROOT
ATOM      1  C   UNL     1     -12.611  39.014  -6.250  1.00  0.00     0.180 A 
ATOM      2  C   UNL     1     -13.977  38.689  -6.200  1.00  0.00     0.208 A 
ATOM      3  C   UNL     1     -14.828  39.172  -7.208  1.00  0.00     0.238 A 
ATOM      4  O   UNL     1     -16.059  38.923  -7.129  1.00  0.00    -0.285 OA
ATOM      5  C   UNL     1     -14.300  39.959  -8.259  1.00  0.00     0.111 A 
ATOM      6  C   UNL     1     -15.063  40.467  -9.353  1.00  0.00     0.134 A 
ATOM      7  C   UNL     1     -14.462  41.344 -10.266  1.00  0.00     0.093 A 
ATOM      8  C   UNL     1     -13.110  41.677 -10.161  1.00  0.00     0.123 A 
ATOM      9  C   UNL     1     -12.342  41.139  -9.131  1.00  0.00     0.094 A 
ATOM     10  C   UNL     1     -12.922  40.291  -8.185  1.00  0.00     0.146 A 
ATOM     11  O   UNL     1     -12.157  39.808  -7.212  1.00  0.00    -0.452 OA
ENDROOT
BRANCH   1  12
ATOM     12  C   UNL     1     -11.646  38.522  -5.238  1.00  0.00     0.025 A 
ATOM     13  C   UNL     1     -11.565  37.157  -4.908  1.00  0.00     0.016 A 
ATOM     14  C   UNL     1     -10.632  36.713  -3.969  1.00  0.00     0.051 A 
ATOM     15  C   UNL     1      -9.758  37.620  -3.356  1.00  0.00     0.157 A 
ATOM     16  C   UNL     1     -10.754  39.424  -4.636  1.00  0.00     0.062 A 
ATOM     17  C   UNL     1      -9.818  38.979  -3.693  1.00  0.00     0.158 A 
BRANCH  15  18
ATOM     18  O   UNL     1      -8.827  37.181  -2.417  1.00  0.00    -0.504 OA
ATOM     19  H   UNL     1      -7.833  37.181  -2.616  1.00  0.00     0.293 HD
ENDBRANCH  15  18
BRANCH  17  20
ATOM     20  O   UNL     1      -8.942  39.879  -3.088  1.00  0.00    -0.504 OA
ATOM     21  H   UNL     1      -8.872  39.953  -2.080  1.00  0.00     0.293 HD
ENDBRANCH  17  20
ENDBRANCH   1  12
BRANCH   2  22
ATOM     22  O   UNL     1     -14.481  37.929  -5.142  1.00  0.00    -0.502 OA
ATOM     23  H   UNL     1     -14.435  38.240  -4.179  1.00  0.00     0.293 HD
ENDBRANCH   2  22
BRANCH   6  24
ATOM     24  O   UNL     1     -16.395  40.123  -9.602  1.00  0.00    -0.507 OA
ATOM     25  H   UNL     1     -17.038  39.776  -8.907  1.00  0.00     0.293 HD
ENDBRANCH   6  24
BRANCH   8  26
ATOM     26  O   UNL     1     -12.517  42.537 -11.082  1.00  0.00    -0.508 OA
ATOM     27  H   UNL     1     -11.784  42.222 -11.708  1.00  0.00     0.293 HD
ENDBRANCH   8  26
TORSDOF 6
ENDMDL
MODEL 6
REMARK VINA RESULT:    -7.110      6.738      9.142
REMARK INTER + INTRA:          -8.881
REMARK INTER:                  -8.599
REMARK INTRA:                  -0.282
REMARK UNBOUND:                -0.316
REMARK SMILES O=c1c(O)c(-c2ccc(O)c(O)c2)oc2cc(O)cc(O)c12
REMARK SMILES IDX 5 1 3 2 2 3 1 4 22 5 20 6 19 7 17 8 16 9 15 10 14 11 6 12
REMARK SMILES IDX 7 13 8 14 9 15 13 16 11 17 10 18 12 20 4 22 21 24 18 26
REMARK H PARENT 10 19 12 21 4 23 21 25 18 27
REMARK Flexibility Score: inf
ROOT
ATOM      1  C   UNL     1     -15.045  36.153  -0.210  1.00  0.00     0.180 A 
ATOM      2  C   UNL     1     -13.783  36.770  -0.187  1.00  0.00     0.208 A 
ATOM      3  C   UNL     1     -12.852  36.453  -1.190  1.00  0.00     0.238 A 
ATOM      4  O   UNL     1     -11.705  36.967  -1.134  1.00  0.00    -0.285 OA
ATOM      5  C   UNL     1     -13.201  35.536  -2.210  1.00  0.00     0.111 A 
ATOM      6  C   UNL     1     -12.351  35.172  -3.298  1.00  0.00     0.134 A 
ATOM      7  C   UNL     1     -12.750  34.157  -4.177  1.00  0.00     0.093 A 
ATOM      8  C   UNL     1     -13.996  33.540  -4.046  1.00  0.00     0.123 A 
ATOM      9  C   UNL     1     -14.858  33.930  -3.023  1.00  0.00     0.094 A 
ATOM     10  C   UNL     1     -14.472  34.914  -2.110  1.00  0.00     0.146 A 
ATOM     11  O   UNL     1     -15.319  35.248  -1.143  1.00  0.00    -0.452 OA
ENDROOT
BRANCH   1  12
ATOM     12  C   UNL     1     -16.088  36.455   0.797  1.00  0.00     0.025 A 
ATOM     13  C   UNL     1     -16.036  35.907   2.091  1.00  0.00     0.016 A 
ATOM     14  C   UNL     1     -17.018  36.224   3.033  1.00  0.00     0.051 A 
ATOM     15  C   UNL     1     -18.058  37.102   2.701  1.00  0.00     0.157 A 
ATOM     16  C   UNL     1     -17.122  37.349   0.476  1.00  0.00     0.062 A 
ATOM     17  C   UNL     1     -18.109  37.668   1.420  1.00  0.00     0.158 A 
BRANCH  15  18
ATOM     18  O   UNL     1     -19.041  37.419   3.636  1.00  0.00    -0.504 OA
ATOM     19  H   UNL     1     -19.172  36.866   4.476  1.00  0.00     0.293 HD
ENDBRANCH  15  18
BRANCH  17  20
ATOM     20  O   UNL     1     -19.141  38.546   1.094  1.00  0.00    -0.504 OA
ATOM     21  H   UNL     1     -20.080  38.215   0.909  1.00  0.00     0.293 HD
ENDBRANCH  17  20
ENDBRANCH   1  12
BRANCH   2  22
ATOM     22  O   UNL     1     -13.452  37.655   0.842  1.00  0.00    -0.502 OA
ATOM     23  H   UNL     1     -12.926  38.506   0.679  1.00  0.00     0.293 HD
ENDBRANCH   2  22
BRANCH   6  24
ATOM     24  O   UNL     1     -11.127  35.791  -3.574  1.00  0.00    -0.507 OA
ATOM     25  H   UNL     1     -10.289  35.305  -3.854  1.00  0.00     0.293 HD
ENDBRANCH   6  24
BRANCH   8  26
ATOM     26  O   UNL     1     -14.392  32.542  -4.933  1.00  0.00    -0.508 OA
ATOM     27  H   UNL     1     -13.750  31.820  -5.240  1.00  0.00     0.293 HD
ENDBRANCH   8  26
TORSDOF 6
ENDMDL
MODEL 7
REMARK VINA RESULT:    -7.036      6.201     10.203
REMARK INTER + INTRA:          -8.792
REMARK INTER:                  -8.488
REMARK INTRA:                  -0.305
REMARK UNBOUND:                -0.316
REMARK SMILES O=c1c(O)c(-c2ccc(O)c(O)c2)oc2cc(O)cc(O)c12
REMARK SMILES IDX 5 1 3 2 2 3 1 4 22 5 20 6 19 7 17 8 16 9 15 10 14 11 6 12
REMARK SMILES IDX 7 13 8 14 9 15 13 16 11 17 10 18 12 20 4 22 21 24 18 26
REMARK H PARENT 10 19 12 21 4 23 21 25 18 27
REMARK Flexibility Score: inf
ROOT
ATOM      1  C   UNL     1     -14.970  37.515  -0.639  1.00  0.00     0.180 A 
ATOM      2  C   UNL     1     -15.898  37.073   0.319  1.00  0.00     0.208 A 
ATOM      3  C   UNL     1     -15.611  37.258   1.681  1.00  0.00     0.238 A 
ATOM      4  O   UNL     1     -16.422  36.812   2.535  1.00  0.00    -0.285 OA
ATOM      5  C   UNL     1     -14.408  37.895   2.067  1.00  0.00     0.111 A 
ATOM      6  C   UNL     1     -14.034  38.170   3.417  1.00  0.00     0.134 A 
ATOM      7  C   UNL     1     -12.761  38.687   3.690  1.00  0.00     0.093 A 
ATOM      8  C   UNL     1     -11.875  39.001   2.657  1.00  0.00     0.123 A 
ATOM      9  C   UNL     1     -12.254  38.792   1.332  1.00  0.00     0.094 A 
ATOM     10  C   UNL     1     -13.503  38.243   1.032  1.00  0.00     0.146 A 
ATOM     11  O   UNL     1     -13.820  38.050  -0.243  1.00  0.00    -0.452 OA
ENDROOT
BRANCH   1  12
ATOM     12  C   UNL     1     -15.212  37.379  -2.094  1.00  0.00     0.025 A 
ATOM     13  C   UNL     1     -14.692  36.296  -2.824  1.00  0.00     0.016 A 
ATOM     14  C   UNL     1     -14.953  36.175  -4.191  1.00  0.00     0.051 A 
ATOM     15  C   UNL     1     -15.747  37.126  -4.845  1.00  0.00     0.157 A 
ATOM     16  C   UNL     1     -16.024  38.318  -2.751  1.00  0.00     0.062 A 
ATOM     17  C   UNL     1     -16.286  38.198  -4.123  1.00  0.00     0.158 A 
BRANCH  15  18
ATOM     18  O   UNL     1     -16.008  37.010  -6.209  1.00  0.00    -0.504 OA
ATOM     19  H   UNL     1     -16.849  37.397  -6.623  1.00  0.00     0.293 HD
ENDBRANCH  15  18
BRANCH  17  20
ATOM     20  O   UNL     1     -17.082  39.139  -4.775  1.00  0.00    -0.504 OA
ATOM     21  H   UNL     1     -18.073  39.220  -4.581  1.00  0.00     0.293 HD
ENDBRANCH  17  20
ENDBRANCH   1  12
BRANCH   2  22
ATOM     22  O   UNL     1     -17.070  36.427  -0.084  1.00  0.00    -0.502 OA
ATOM     23  H   UNL     1     -17.070  35.487  -0.461  1.00  0.00     0.293 HD
ENDBRANCH   2  22
BRANCH   6  24
ATOM     24  O   UNL     1     -14.879  37.981   4.516  1.00  0.00    -0.507 OA
ATOM     25  H   UNL     1     -15.343  37.114   4.740  1.00  0.00     0.293 HD
ENDBRANCH   6  24
BRANCH   8  26
ATOM     26  O   UNL     1     -10.617  39.529   2.935  1.00  0.00    -0.508 OA
ATOM     27  H   UNL     1      -9.937  39.019   3.487  1.00  0.00     0.293 HD
ENDBRANCH   8  26
TORSDOF 6
ENDMDL
MODEL 8
REMARK VINA RESULT:    -6.956      2.393      3.144
REMARK INTER + INTRA:          -8.696
REMARK INTER:                  -8.391
REMARK INTRA:                  -0.305
REMARK UNBOUND:                -0.316
REMARK SMILES O=c1c(O)c(-c2ccc(O)c(O)c2)oc2cc(O)cc(O)c12
REMARK SMILES IDX 5 1 3 2 2 3 1 4 22 5 20 6 19 7 17 8 16 9 15 10 14 11 6 12
REMARK SMILES IDX 7 13 8 14 9 15 13 16 11 17 10 18 12 20 4 22 21 24 18 26
REMARK H PARENT 10 19 12 21 4 23 21 25 18 27
REMARK Flexibility Score: inf
ROOT
ATOM      1  C   UNL     1     -12.247  37.773  -6.720  1.00  0.00     0.180 A 
ATOM      2  C   UNL     1     -11.127  37.978  -7.542  1.00  0.00     0.208 A 
ATOM      3  C   UNL     1     -11.124  39.065  -8.431  1.00  0.00     0.238 A 
ATOM      4  O   UNL     1     -10.141  39.213  -9.202  1.00  0.00    -0.285 OA
ATOM      5  C   UNL     1     -12.234  39.942  -8.474  1.00  0.00     0.111 A 
ATOM      6  C   UNL     1     -12.323  41.098  -9.306  1.00  0.00     0.134 A 
ATOM      7  C   UNL     1     -13.522  41.819  -9.363  1.00  0.00     0.093 A 
ATOM      8  C   UNL     1     -14.614  41.465  -8.567  1.00  0.00     0.123 A 
ATOM      9  C   UNL     1     -14.517  40.373  -7.707  1.00  0.00     0.094 A 
ATOM     10  C   UNL     1     -13.347  39.613  -7.656  1.00  0.00     0.146 A 
ATOM     11  O   UNL     1     -13.300  38.574  -6.831  1.00  0.00    -0.452 OA
ENDROOT
BRANCH   1  12
ATOM     12  C   UNL     1     -12.314  36.663  -5.740  1.00  0.00     0.025 A 
ATOM     13  C   UNL     1     -12.035  36.873  -4.378  1.00  0.00     0.016 A 
ATOM     14  C   UNL     1     -12.127  35.817  -3.468  1.00  0.00     0.051 A 
ATOM     15  C   UNL     1     -12.512  34.542  -3.901  1.00  0.00     0.157 A 
ATOM     16  C   UNL     1     -12.719  35.388  -6.166  1.00  0.00     0.062 A 
ATOM     17  C   UNL     1     -12.811  34.327  -5.253  1.00  0.00     0.158 A 
BRANCH  15  18
ATOM     18  O   UNL     1     -12.603  33.485  -2.997  1.00  0.00    -0.504 OA
ATOM     19  H   UNL     1     -12.944  33.624  -2.052  1.00  0.00     0.293 HD
ENDBRANCH  15  18
BRANCH  17  20
ATOM     20  O   UNL     1     -13.201  33.059  -5.681  1.00  0.00    -0.504 OA
ATOM     21  H   UNL     1     -13.769  32.931  -6.510  1.00  0.00     0.293 HD
ENDBRANCH  17  20
ENDBRANCH   1  12
BRANCH   2  22
ATOM     22  O   UNL     1     -10.051  37.087  -7.499  1.00  0.00    -0.502 OA
ATOM     23  H   UNL     1     -10.044  36.217  -8.018  1.00  0.00     0.293 HD
ENDBRANCH   2  22
BRANCH   6  24
ATOM     24  O   UNL     1     -11.260  41.593 -10.070  1.00  0.00    -0.507 OA
ATOM     25  H   UNL     1     -10.353  41.833  -9.703  1.00  0.00     0.293 HD
ENDBRANCH   6  24
BRANCH   8  26
ATOM     26  O   UNL     1     -15.798  42.196  -8.618  1.00  0.00    -0.508 OA
ATOM     27  H   UNL     1     -15.986  42.850  -9.370  1.00  0.00     0.293 HD
ENDBRANCH   8  26
TORSDOF 6
ENDMDL
MODEL 9
REMARK VINA RESULT:    -6.942      5.071      8.817
REMARK INTER + INTRA:          -8.678
REMARK INTER:                  -8.359
REMARK INTRA:                  -0.319
REMARK UNBOUND:                -0.316
REMARK SMILES O=c1c(O)c(-c2ccc(O)c(O)c2)oc2cc(O)cc(O)c12
REMARK SMILES IDX 5 1 3 2 2 3 1 4 22 5 20 6 19 7 17 8 16 9 15 10 14 11 6 12
REMARK SMILES IDX 7 13 8 14 9 15 13 16 11 17 10 18 12 20 4 22 21 24 18 26
REMARK H PARENT 10 19 12 21 4 23 21 25 18 27
REMARK Flexibility Score: inf
ROOT
ATOM      1  C   UNL     1     -13.084  36.695  -1.774  1.00  0.00     0.180 A 
ATOM      2  C   UNL     1     -11.850  37.357  -1.663  1.00  0.00     0.208 A 
ATOM      3  C   UNL     1     -11.539  38.019  -0.464  1.00  0.00     0.238 A 
ATOM      4  O   UNL     1     -10.456  38.656  -0.389  1.00  0.00    -0.285 OA
ATOM      5  C   UNL     1     -12.457  37.996   0.612  1.00  0.00     0.111 A 
ATOM      6  C   UNL     1     -12.229  38.599   1.886  1.00  0.00     0.134 A 
ATOM      7  C   UNL     1     -13.261  38.627   2.833  1.00  0.00     0.093 A 
ATOM      8  C   UNL     1     -14.491  38.015   2.576  1.00  0.00     0.123 A 
ATOM      9  C   UNL     1     -14.703  37.373   1.358  1.00  0.00     0.094 A 
ATOM     10  C   UNL     1     -13.705  37.360   0.381  1.00  0.00     0.146 A 
ATOM     11  O   UNL     1     -13.952  36.747  -0.771  1.00  0.00    -0.452 OA
ENDROOT
BRANCH   1  12
ATOM     12  C   UNL     1     -13.474  35.954  -2.996  1.00  0.00     0.025 A 
ATOM     13  C   UNL     1     -13.030  34.640  -3.228  1.00  0.00     0.016 A 
ATOM     14  C   UNL     1     -13.429  33.952  -4.376  1.00  0.00     0.051 A 
ATOM     15  C   UNL     1     -14.287  34.559  -5.302  1.00  0.00     0.157 A 
ATOM     16  C   UNL     1     -14.349  36.551  -3.918  1.00  0.00     0.062 A 
ATOM     17  C   UNL     1     -14.750  35.861  -5.071  1.00  0.00     0.158 A 
BRANCH  15  18
ATOM     18  O   UNL     1     -14.686  33.877  -6.450  1.00  0.00    -0.504 OA
ATOM     19  H   UNL     1     -14.012  33.549  -7.133  1.00  0.00     0.293 HD
ENDBRANCH  15  18
BRANCH  17  20
ATOM     20  O   UNL     1     -15.609  36.461  -5.990  1.00  0.00    -0.504 OA
ATOM     21  H   UNL     1     -16.558  36.131  -6.123  1.00  0.00     0.293 HD
ENDBRANCH  17  20
ENDBRANCH   1  12
BRANCH   2  22
ATOM     22  O   UNL     1     -10.968  37.386  -2.746  1.00  0.00    -0.502 OA
ATOM     23  H   UNL     1     -10.154  36.784  -2.800  1.00  0.00     0.293 HD
ENDBRANCH   2  22
BRANCH   6  24
ATOM     24  O   UNL     1     -11.007  39.155   2.279  1.00  0.00    -0.507 OA
ATOM     25  H   UNL     1     -10.905  39.900   2.950  1.00  0.00     0.293 HD
ENDBRANCH   6  24
BRANCH   8  26
ATOM     26  O   UNL     1     -15.506  38.034   3.528  1.00  0.00    -0.508 OA
ATOM     27  H   UNL     1     -16.352  38.576   3.392  1.00  0.00     0.293 HD
ENDBRANCH   8  26
TORSDOF 6
ENDMDL
