MODEL 1
REMARK VINA RESULT:     3.355      0.000      0.000
REMARK INTER + INTRA:           4.761
REMARK INTER:                   4.727
REMARK INTRA:                   0.033
REMARK UNBOUND:                 0.033
REMARK SMILES CCCCCCCCC(=O)[O-]
REMARK SMILES IDX 6 1 7 2 8 3 9 4 10 5 11 6 5 7 4 8 3 9 2 10 1 11
REMARK H PARENT
REMARK Flexibility Score: inf
ROOT
ATOM      1  C   UNL     1       1.413 -51.341   9.282  1.00  0.00     0.000 C 
ENDROOT
BRANCH   1   2
ATOM      2  C   UNL     1       0.405 -52.246  10.014  1.00  0.00     0.006 C 
BRANCH   2   3
ATOM      3  C   UNL     1      -1.034 -51.729   9.889  1.00  0.00     0.053 C 
BRANCH   3   4
ATOM      4  C   UNL     1      -1.080 -50.345   9.315  1.00  0.00     0.041 C 
ATOM      5  O   UNL     1      -1.113 -49.345  10.078  1.00  0.00    -0.550 OA
ATOM      6  O   UNL     1      -1.050 -50.161   7.938  1.00  0.00    -0.550 OA
ENDBRANCH   3   4
ENDBRANCH   2   3
ENDBRANCH   1   2
BRANCH   1   7
ATOM      7  C   UNL     1       2.663 -51.046  10.124  1.00  0.00     0.000 C 
BRANCH   7   8
ATOM      8  C   UNL     1       3.921 -51.736   9.576  1.00  0.00    -0.000 C 
BRANCH   8   9
ATOM      9  C   UNL     1       4.025 -53.177  10.091  1.00  0.00    -0.000 C 
BRANCH   9  10
ATOM     10  C   UNL     1       5.098 -53.959   9.326  1.00  0.00    -0.003 C 
ATOM     11  C   UNL     1       6.396 -54.040  10.124  1.00  0.00     0.004 C 
ENDBRANCH   9  10
ENDBRANCH   8   9
ENDBRANCH   7   8
ENDBRANCH   1   7
TORSDOF 7
ENDMDL
MODEL 2
REMARK VINA RESULT:     3.643     20.419     21.889
REMARK INTER + INTRA:           5.167
REMARK INTER:                   5.422
REMARK INTRA:                  -0.255
REMARK UNBOUND:                 0.033
REMARK SMILES CCCCCCCCC(=O)[O-]
REMARK SMILES IDX 6 1 7 2 8 3 9 4 10 5 11 6 5 7 4 8 3 9 2 10 1 11
REMARK H PARENT
REMARK Flexibility Score: inf
ROOT
ATOM      1  C   UNL     1      18.182 -57.507  -1.475  1.00  0.00     0.000 C 
ENDROOT
BRANCH   1   2
ATOM      2  C   UNL     1      17.707 -56.090  -1.841  1.00  0.00     0.006 C 
BRANCH   2   3
ATOM      3  C   UNL     1      16.939 -56.062  -3.169  1.00  0.00     0.053 C 
BRANCH   3   4
ATOM      4  C   UNL     1      17.527 -55.075  -4.131  1.00  0.00     0.041 C 
ATOM      5  O   UNL     1      17.637 -53.863  -3.807  1.00  0.00    -0.550 OA
ATOM      6  O   UNL     1      17.986 -55.500  -5.371  1.00  0.00    -0.550 OA
ENDBRANCH   3   4
ENDBRANCH   2   3
ENDBRANCH   1   2
BRANCH   1   7
ATOM      7  C   UNL     1      18.787 -58.257  -2.671  1.00  0.00     0.000 C 
BRANCH   7   8
ATOM      8  C   UNL     1      18.080 -59.592  -2.951  1.00  0.00    -0.000 C 
BRANCH   8   9
ATOM      9  C   UNL     1      19.069 -60.636  -3.485  1.00  0.00    -0.000 C 
BRANCH   9  10
ATOM     10  C   UNL     1      19.125 -61.861  -2.566  1.00  0.00    -0.003 C 
ATOM     11  C   UNL     1      19.035 -63.156  -3.367  1.00  0.00     0.004 C 
ENDBRANCH   9  10
ENDBRANCH   8   9
ENDBRANCH   7   8
ENDBRANCH   1   7
TORSDOF 7
ENDMDL
MODEL 3
REMARK VINA RESULT:     4.231     20.272     21.325
REMARK INTER + INTRA:           5.996
REMARK INTER:                   6.405
REMARK INTRA:                  -0.409
REMARK UNBOUND:                 0.033
REMARK SMILES CCCCCCCCC(=O)[O-]
REMARK SMILES IDX 6 1 7 2 8 3 9 4 10 5 11 6 5 7 4 8 3 9 2 10 1 11
REMARK H PARENT
REMARK Flexibility Score: inf
ROOT
ATOM      1  C   UNL     1      18.453 -57.321  -1.389  1.00  0.00     0.000 C 
ENDROOT
BRANCH   1   2
ATOM      2  C   UNL     1      17.603 -56.062  -1.635  1.00  0.00     0.006 C 
BRANCH   2   3
ATOM      3  C   UNL     1      16.960 -56.060  -3.028  1.00  0.00     0.053 C 
BRANCH   3   4
ATOM      4  C   UNL     1      17.532 -54.987  -3.903  1.00  0.00     0.041 C 
ATOM      5  O   UNL     1      17.996 -53.934  -3.393  1.00  0.00    -0.550 OA
ATOM      6  O   UNL     1      17.586 -55.166  -5.280  1.00  0.00    -0.550 OA
ENDBRANCH   3   4
ENDBRANCH   2   3
ENDBRANCH   1   2
BRANCH   1   7
ATOM      7  C   UNL     1      19.015 -57.919  -2.688  1.00  0.00     0.000 C 
BRANCH   7   8
ATOM      8  C   UNL     1      19.125 -59.450  -2.635  1.00  0.00    -0.000 C 
BRANCH   8   9
ATOM      9  C   UNL     1      17.934 -60.110  -3.342  1.00  0.00    -0.000 C 
BRANCH   9  10
ATOM     10  C   UNL     1      16.623 -59.810  -2.608  1.00  0.00    -0.003 C 
ATOM     11  C   UNL     1      15.545 -59.333  -3.576  1.00  0.00     0.004 C 
ENDBRANCH   9  10
ENDBRANCH   8   9
ENDBRANCH   7   8
ENDBRANCH   1   7
TORSDOF 7
ENDMDL
MODEL 4
REMARK VINA RESULT:     4.262     20.364     21.840
REMARK INTER + INTRA:           6.039
REMARK INTER:                   6.081
REMARK INTRA:                  -0.042
REMARK UNBOUND:                 0.033
REMARK SMILES CCCCCCCCC(=O)[O-]
REMARK SMILES IDX 6 1 7 2 8 3 9 4 10 5 11 6 5 7 4 8 3 9 2 10 1 11
REMARK H PARENT
REMARK Flexibility Score: inf
ROOT
ATOM      1  C   UNL     1      18.153 -56.951  -1.223  1.00  0.00     0.000 C 
ENDROOT
BRANCH   1   2
ATOM      2  C   UNL     1      19.091 -58.156  -1.410  1.00  0.00     0.006 C 
BRANCH   2   3
ATOM      3  C   UNL     1      19.125 -58.644  -2.864  1.00  0.00     0.053 C 
BRANCH   3   4
ATOM      4  C   UNL     1      18.453 -59.975  -3.019  1.00  0.00     0.041 C 
ATOM      5  O   UNL     1      19.106 -60.969  -3.430  1.00  0.00    -0.550 OA
ATOM      6  O   UNL     1      17.115 -60.123  -2.676  1.00  0.00    -0.550 OA
ENDBRANCH   3   4
ENDBRANCH   2   3
ENDBRANCH   1   2
BRANCH   1   7
ATOM      7  C   UNL     1      16.849 -57.086  -2.024  1.00  0.00     0.000 C 
BRANCH   7   8
ATOM      8  C   UNL     1      16.843 -56.223  -3.295  1.00  0.00    -0.000 C 
BRANCH   8   9
ATOM      9  C   UNL     1      17.259 -54.780  -2.980  1.00  0.00    -0.000 C 
BRANCH   9  10
ATOM     10  C   UNL     1      17.617 -54.020  -4.261  1.00  0.00    -0.003 C 
ATOM     11  C   UNL     1      17.652 -54.955  -5.466  1.00  0.00     0.004 C 
ENDBRANCH   9  10
ENDBRANCH   8   9
ENDBRANCH   7   8
ENDBRANCH   1   7
TORSDOF 7
ENDMDL
MODEL 5
REMARK VINA RESULT:     4.356     20.255     21.482
REMARK INTER + INTRA:           6.172
REMARK INTER:                   6.590
REMARK INTRA:                  -0.418
REMARK UNBOUND:                 0.033
REMARK SMILES CCCCCCCCC(=O)[O-]
REMARK SMILES IDX 6 1 7 2 8 3 9 4 10 5 11 6 5 7 4 8 3 9 2 10 1 11
REMARK H PARENT
REMARK Flexibility Score: inf
ROOT
ATOM      1  C   UNL     1      19.117 -58.091  -2.959  1.00  0.00     0.000 C 
ENDROOT
BRANCH   1   2
ATOM      2  C   UNL     1      19.125 -59.615  -2.740  1.00  0.00     0.006 C 
BRANCH   2   3
ATOM      3  C   UNL     1      17.932 -60.303  -3.415  1.00  0.00     0.053 C 
BRANCH   3   4
ATOM      4  C   UNL     1      16.625 -59.810  -2.873  1.00  0.00     0.041 C 
ATOM      5  O   UNL     1      16.468 -59.669  -1.632  1.00  0.00    -0.550 OA
ATOM      6  O   UNL     1      15.594 -59.471  -3.741  1.00  0.00    -0.550 OA
ENDBRANCH   3   4
ENDBRANCH   2   3
ENDBRANCH   1   2
BRANCH   1   7
ATOM      7  C   UNL     1      19.035 -57.304  -1.642  1.00  0.00     0.000 C 
BRANCH   7   8
ATOM      8  C   UNL     1      17.676 -56.614  -1.451  1.00  0.00    -0.000 C 
BRANCH   8   9
ATOM      9  C   UNL     1      16.996 -56.357  -2.802  1.00  0.00    -0.000 C 
BRANCH   9  10
ATOM     10  C   UNL     1      17.326 -54.956  -3.326  1.00  0.00    -0.003 C 
ATOM     11  C   UNL     1      17.602 -54.979  -4.827  1.00  0.00     0.004 C 
ENDBRANCH   9  10
ENDBRANCH   8   9
ENDBRANCH   7   8
ENDBRANCH   1   7
TORSDOF 7
ENDMDL
MODEL 6
REMARK VINA RESULT:     5.124     17.799     20.491
REMARK INTER + INTRA:           7.254
REMARK INTER:                   7.353
REMARK INTRA:                  -0.099
REMARK UNBOUND:                 0.033
REMARK SMILES CCCCCCCCC(=O)[O-]
REMARK SMILES IDX 6 1 7 2 8 3 9 4 10 5 11 6 5 7 4 8 3 9 2 10 1 11
REMARK H PARENT
REMARK Flexibility Score: inf
ROOT
ATOM      1  C   UNL     1      16.766 -59.428  -2.426  1.00  0.00     0.000 C 
ENDROOT
BRANCH   1   2
ATOM      2  C   UNL     1      18.173 -59.169  -2.993  1.00  0.00     0.006 C 
BRANCH   2   3
ATOM      3  C   UNL     1      18.874 -57.999  -2.292  1.00  0.00     0.053 C 
BRANCH   3   4
ATOM      4  C   UNL     1      17.892 -56.988  -1.783  1.00  0.00     0.041 C 
ATOM      5  O   UNL     1      17.343 -56.182  -2.579  1.00  0.00    -0.550 OA
ATOM      6  O   UNL     1      17.558 -56.959  -0.434  1.00  0.00    -0.550 OA
ENDBRANCH   3   4
ENDBRANCH   2   3
ENDBRANCH   1   2
BRANCH   1   7
ATOM      7  C   UNL     1      15.693 -59.515  -3.523  1.00  0.00     0.000 C 
BRANCH   7   8
ATOM      8  C   UNL     1      15.033 -58.159  -3.813  1.00  0.00    -0.000 C 
BRANCH   8   9
ATOM      9  C   UNL     1      13.517 -58.313  -3.994  1.00  0.00    -0.000 C 
BRANCH   9  10
ATOM     10  C   UNL     1      12.768 -57.110  -3.411  1.00  0.00    -0.003 C 
ATOM     11  C   UNL     1      11.350 -57.492  -2.997  1.00  0.00     0.004 C 
ENDBRANCH   9  10
ENDBRANCH   8   9
ENDBRANCH   7   8
ENDBRANCH   1   7
TORSDOF 7
ENDMDL
