MODEL 1
REMARK VINA RESULT:    -4.790      0.000      0.000
REMARK INTER + INTRA:          -6.164
REMARK INTER:                  -5.911
REMARK INTRA:                  -0.254
REMARK UNBOUND:                -0.254
REMARK SMILES CCCCC=CC(C)=O
REMARK SMILES IDX 4 1 3 2 2 3 1 4 5 5 6 6 7 7 9 8 8 9
REMARK H PARENT
REMARK Flexibility Score: inf
ROOT
ATOM      1  C   UNL     1     -26.532  20.630 -34.606  1.00  0.00     0.027 C 
ENDROOT
BRANCH   1   2
ATOM      2  C   UNL     1     -27.489  19.986 -33.596  1.00  0.00     0.004 C 
BRANCH   2   3
ATOM      3  C   UNL     1     -28.556  20.986 -33.136  1.00  0.00    -0.003 C 
ATOM      4  C   UNL     1     -28.012  22.412 -33.138  1.00  0.00     0.004 C 
ENDBRANCH   2   3
ENDBRANCH   1   2
BRANCH   1   5
ATOM      5  C   UNL     1     -25.108  20.246 -34.327  1.00  0.00    -0.023 C 
ATOM      6  C   UNL     1     -24.391  20.861 -33.381  1.00  0.00     0.042 C 
BRANCH   6   7
ATOM      7  C   UNL     1     -22.995  20.492 -33.082  1.00  0.00     0.152 C 
ATOM      8  O   UNL     1     -22.132  20.433 -34.000  1.00  0.00    -0.295 OA
ATOM      9  C   UNL     1     -22.595  20.185 -31.675  1.00  0.00     0.093 C 
ENDBRANCH   6   7
ENDBRANCH   1   5
TORSDOF 4
ENDMDL
MODEL 2
REMARK VINA RESULT:    -4.693      1.293      1.293
REMARK INTER + INTRA:          -6.044
REMARK INTER:                  -5.788
REMARK INTRA:                  -0.255
REMARK UNBOUND:                -0.254
REMARK SMILES CCCCC=CC(C)=O
REMARK SMILES IDX 4 1 3 2 2 3 1 4 5 5 6 6 7 7 9 8 8 9
REMARK H PARENT
REMARK Flexibility Score: inf
ROOT
ATOM      1  C   UNL     1     -26.536  20.600 -34.499  1.00  0.00     0.027 C 
ENDROOT
BRANCH   1   2
ATOM      2  C   UNL     1     -27.603  19.986 -33.585  1.00  0.00     0.004 C 
BRANCH   2   3
ATOM      3  C   UNL     1     -28.653  21.030 -33.190  1.00  0.00    -0.003 C 
ATOM      4  C   UNL     1     -28.046  22.429 -33.132  1.00  0.00     0.004 C 
ENDBRANCH   2   3
ENDBRANCH   1   2
BRANCH   1   5
ATOM      5  C   UNL     1     -25.155  20.360 -33.961  1.00  0.00    -0.023 C 
ATOM      6  C   UNL     1     -24.943  19.562 -32.909  1.00  0.00     0.042 C 
BRANCH   6   7
ATOM      7  C   UNL     1     -23.594  19.302 -32.373  1.00  0.00     0.152 C 
ATOM      8  O   UNL     1     -23.219  18.127 -32.109  1.00  0.00    -0.295 OA
ATOM      9  C   UNL     1     -22.657  20.444 -32.142  1.00  0.00     0.093 C 
ENDBRANCH   6   7
ENDBRANCH   1   5
TORSDOF 4
ENDMDL
MODEL 3
REMARK VINA RESULT:    -4.557      2.575      4.978
REMARK INTER + INTRA:          -5.876
REMARK INTER:                  -5.721
REMARK INTRA:                  -0.155
REMARK UNBOUND:                -0.254
REMARK SMILES CCCCC=CC(C)=O
REMARK SMILES IDX 4 1 3 2 2 3 1 4 5 5 6 6 7 7 9 8 8 9
REMARK H PARENT
REMARK Flexibility Score: inf
ROOT
ATOM      1  C   UNL     1     -25.288  20.625 -34.318  1.00  0.00     0.027 C 
ENDROOT
BRANCH   1   2
ATOM      2  C   UNL     1     -23.827  20.342 -33.950  1.00  0.00     0.004 C 
BRANCH   2   3
ATOM      3  C   UNL     1     -23.373  21.229 -32.785  1.00  0.00    -0.003 C 
ATOM      4  C   UNL     1     -22.653  20.411 -31.717  1.00  0.00     0.004 C 
ENDBRANCH   2   3
ENDBRANCH   1   2
BRANCH   1   5
ATOM      5  C   UNL     1     -26.231  19.848 -33.444  1.00  0.00    -0.023 C 
ATOM      6  C   UNL     1     -27.504  19.642 -33.799  1.00  0.00     0.042 C 
BRANCH   6   7
ATOM      7  C   UNL     1     -28.442  18.872 -32.962  1.00  0.00     0.152 C 
ATOM      8  O   UNL     1     -28.034  17.919 -32.244  1.00  0.00    -0.295 OA
ATOM      9  C   UNL     1     -29.894  19.226 -32.960  1.00  0.00     0.093 C 
ENDBRANCH   6   7
ENDBRANCH   1   5
TORSDOF 4
ENDMDL
MODEL 4
REMARK VINA RESULT:    -4.346      2.423      4.787
REMARK INTER + INTRA:          -5.616
REMARK INTER:                  -5.396
REMARK INTRA:                  -0.219
REMARK UNBOUND:                -0.254
REMARK SMILES CCCCC=CC(C)=O
REMARK SMILES IDX 4 1 3 2 2 3 1 4 5 5 6 6 7 7 9 8 8 9
REMARK H PARENT
REMARK Flexibility Score: inf
ROOT
ATOM      1  C   UNL     1     -24.761  20.128 -34.768  1.00  0.00     0.027 C 
ENDROOT
BRANCH   1   2
ATOM      2  C   UNL     1     -23.357  20.317 -34.183  1.00  0.00     0.004 C 
BRANCH   2   3
ATOM      3  C   UNL     1     -23.412  21.101 -32.867  1.00  0.00    -0.003 C 
ATOM      4  C   UNL     1     -22.720  20.337 -31.741  1.00  0.00     0.004 C 
ENDBRANCH   2   3
ENDBRANCH   1   2
BRANCH   1   5
ATOM      5  C   UNL     1     -25.813  20.674 -33.847  1.00  0.00    -0.023 C 
ATOM      6  C   UNL     1     -27.101  20.722 -34.207  1.00  0.00     0.042 C 
BRANCH   6   7
ATOM      7  C   UNL     1     -28.152  21.242 -33.313  1.00  0.00     0.152 C 
ATOM      8  O   UNL     1     -29.002  20.467 -32.796  1.00  0.00    -0.295 OA
ATOM      9  C   UNL     1     -28.211  22.705 -33.013  1.00  0.00     0.093 C 
ENDBRANCH   6   7
ENDBRANCH   1   5
TORSDOF 4
ENDMDL
MODEL 5
REMARK VINA RESULT:    -3.993      7.573      8.215
REMARK INTER + INTRA:          -5.181
REMARK INTER:                  -4.948
REMARK INTRA:                  -0.233
REMARK UNBOUND:                -0.254
REMARK SMILES CCCCC=CC(C)=O
REMARK SMILES IDX 4 1 3 2 2 3 1 4 5 5 6 6 7 7 9 8 8 9
REMARK H PARENT
REMARK Flexibility Score: inf
ROOT
ATOM      1  C   UNL     1     -27.160  12.234 -30.370  1.00  0.00     0.027 C 
ENDROOT
BRANCH   1   2
ATOM      2  C   UNL     1     -27.417  12.403 -28.869  1.00  0.00     0.004 C 
BRANCH   2   3
ATOM      3  C   UNL     1     -28.920  12.483 -28.575  1.00  0.00    -0.003 C 
ATOM      4  C   UNL     1     -29.743  12.220 -29.833  1.00  0.00     0.004 C 
ENDBRANCH   2   3
ENDBRANCH   1   2
BRANCH   1   5
ATOM      5  C   UNL     1     -26.202  13.273 -30.879  1.00  0.00    -0.023 C 
ATOM      6  C   UNL     1     -25.427  13.976 -30.046  1.00  0.00     0.042 C 
BRANCH   6   7
ATOM      7  C   UNL     1     -24.472  14.992 -30.525  1.00  0.00     0.152 C 
ATOM      8  O   UNL     1     -24.870  16.130 -30.895  1.00  0.00    -0.295 OA
ATOM      9  C   UNL     1     -23.012  14.673 -30.569  1.00  0.00     0.093 C 
ENDBRANCH   6   7
ENDBRANCH   1   5
TORSDOF 4
ENDMDL
MODEL 6
REMARK VINA RESULT:    -3.497     11.387     12.130
REMARK INTER + INTRA:          -4.569
REMARK INTER:                  -4.363
REMARK INTRA:                  -0.205
REMARK UNBOUND:                -0.254
REMARK SMILES CCCCC=CC(C)=O
REMARK SMILES IDX 4 1 3 2 2 3 1 4 5 5 6 6 7 7 9 8 8 9
REMARK H PARENT
REMARK Flexibility Score: inf
ROOT
ATOM      1  C   UNL     1     -16.453  12.616 -30.130  1.00  0.00     0.027 C 
ENDROOT
BRANCH   1   2
ATOM      2  C   UNL     1     -17.885  13.028 -30.492  1.00  0.00     0.004 C 
BRANCH   2   3
ATOM      3  C   UNL     1     -18.898  12.380 -29.542  1.00  0.00    -0.003 C 
ATOM      4  C   UNL     1     -18.427  11.000 -29.090  1.00  0.00     0.004 C 
ENDBRANCH   2   3
ENDBRANCH   1   2
BRANCH   1   5
ATOM      5  C   UNL     1     -15.458  13.213 -31.083  1.00  0.00    -0.023 C 
ATOM      6  C   UNL     1     -15.847  13.845 -32.196  1.00  0.00     0.042 C 
BRANCH   6   7
ATOM      7  C   UNL     1     -14.887  14.449 -33.138  1.00  0.00     0.152 C 
ATOM      8  O   UNL     1     -14.673  13.926 -34.266  1.00  0.00    -0.295 OA
ATOM      9  C   UNL     1     -14.161  15.698 -32.756  1.00  0.00     0.093 C 
ENDBRANCH   6   7
ENDBRANCH   1   5
TORSDOF 4
ENDMDL
MODEL 7
REMARK VINA RESULT:    -3.486     11.619     14.282
REMARK INTER + INTRA:          -4.555
REMARK INTER:                  -4.300
REMARK INTRA:                  -0.255
REMARK UNBOUND:                -0.254
REMARK SMILES CCCCC=CC(C)=O
REMARK SMILES IDX 4 1 3 2 2 3 1 4 5 5 6 6 7 7 9 8 8 9
REMARK H PARENT
REMARK Flexibility Score: inf
ROOT
ATOM      1  C   UNL     1     -12.528  15.681 -30.072  1.00  0.00     0.027 C 
ENDROOT
BRANCH   1   2
ATOM      2  C   UNL     1     -11.790  14.579 -29.303  1.00  0.00     0.004 C 
BRANCH   2   3
ATOM      3  C   UNL     1     -10.720  13.920 -30.179  1.00  0.00    -0.003 C 
ATOM      4  C   UNL     1     -10.001  14.953 -31.043  1.00  0.00     0.004 C 
ENDBRANCH   2   3
ENDBRANCH   1   2
BRANCH   1   5
ATOM      5  C   UNL     1     -13.734  15.137 -30.781  1.00  0.00    -0.023 C 
ATOM      6  C   UNL     1     -14.111  15.603 -31.977  1.00  0.00     0.042 C 
BRANCH   6   7
ATOM      7  C   UNL     1     -15.285  15.074 -32.696  1.00  0.00     0.152 C 
ATOM      8  O   UNL     1     -15.566  15.478 -33.858  1.00  0.00    -0.295 OA
ATOM      9  C   UNL     1     -16.151  14.045 -32.044  1.00  0.00     0.093 C 
ENDBRANCH   6   7
ENDBRANCH   1   5
TORSDOF 4
ENDMDL
MODEL 8
REMARK VINA RESULT:    -3.484      8.002      9.413
REMARK INTER + INTRA:          -4.552
REMARK INTER:                  -4.393
REMARK INTRA:                  -0.159
REMARK UNBOUND:                -0.254
REMARK SMILES CCCCC=CC(C)=O
REMARK SMILES IDX 4 1 3 2 2 3 1 4 5 5 6 6 7 7 9 8 8 9
REMARK H PARENT
REMARK Flexibility Score: inf
ROOT
ATOM      1  C   UNL     1     -24.512  12.815 -29.626  1.00  0.00     0.027 C 
ENDROOT
BRANCH   1   2
ATOM      2  C   UNL     1     -24.477  14.252 -30.158  1.00  0.00     0.004 C 
BRANCH   2   3
ATOM      3  C   UNL     1     -23.048  14.667 -30.525  1.00  0.00    -0.003 C 
ATOM      4  C   UNL     1     -23.042  15.676 -31.670  1.00  0.00     0.004 C 
ENDBRANCH   2   3
ENDBRANCH   1   2
BRANCH   1   5
ATOM      5  C   UNL     1     -25.923  12.316 -29.499  1.00  0.00    -0.023 C 
ATOM      6  C   UNL     1     -26.969  13.099 -29.782  1.00  0.00     0.042 C 
BRANCH   6   7
ATOM      7  C   UNL     1     -28.362  12.625 -29.676  1.00  0.00     0.152 C 
ATOM      8  O   UNL     1     -29.025  12.334 -30.709  1.00  0.00    -0.295 OA
ATOM      9  C   UNL     1     -28.995  12.483 -28.330  1.00  0.00     0.093 C 
ENDBRANCH   6   7
ENDBRANCH   1   5
TORSDOF 4
ENDMDL
MODEL 9
REMARK VINA RESULT:    -3.420     10.999     12.360
REMARK INTER + INTRA:          -4.473
REMARK INTER:                  -4.199
REMARK INTRA:                  -0.274
REMARK UNBOUND:                -0.254
REMARK SMILES CCCCC=CC(C)=O
REMARK SMILES IDX 4 1 3 2 2 3 1 4 5 5 6 6 7 7 9 8 8 9
REMARK H PARENT
REMARK Flexibility Score: inf
ROOT
ATOM      1  C   UNL     1     -15.149  13.906 -32.608  1.00  0.00     0.027 C 
ENDROOT
BRANCH   1   2
ATOM      2  C   UNL     1     -14.819  15.358 -32.976  1.00  0.00     0.004 C 
BRANCH   2   3
ATOM      3  C   UNL     1     -13.540  15.825 -32.273  1.00  0.00    -0.003 C 
ATOM      4  C   UNL     1     -13.858  16.523 -30.954  1.00  0.00     0.004 C 
ENDBRANCH   2   3
ENDBRANCH   1   2
BRANCH   1   5
ATOM      5  C   UNL     1     -16.324  13.834 -31.677  1.00  0.00    -0.023 C 
ATOM      6  C   UNL     1     -16.172  13.547 -30.380  1.00  0.00     0.042 C 
BRANCH   6   7
ATOM      7  C   UNL     1     -17.311  13.484 -29.445  1.00  0.00     0.152 C 
ATOM      8  O   UNL     1     -17.141  13.656 -28.208  1.00  0.00    -0.295 OA
ATOM      9  C   UNL     1     -18.684  13.215 -29.970  1.00  0.00     0.093 C 
ENDBRANCH   6   7
ENDBRANCH   1   5
TORSDOF 4
ENDMDL
