MODEL 1
REMARK VINA RESULT:    -4.028      0.000      0.000
REMARK INTER + INTRA:          -5.478
REMARK INTER:                  -5.677
REMARK INTRA:                   0.199
REMARK UNBOUND:                 0.199
REMARK SMILES CC1=CCC(=C(C)C)C(=O)CC(C)=CCC1
REMARK SMILES IDX 12 1 14 2 13 3 15 4 16 5 2 6 1 7 3 8 11 10 9 11 10 12 5 13
REMARK SMILES IDX 6 14 7 15 8 16 4 17
REMARK H PARENT
REMARK Flexibility Score: 60.00
ROOT
ATOM      1  C   UNL     1     -13.340   0.527  29.117  1.00  0.00    -0.070 C 
ATOM      2  C   UNL     1     -12.873  -0.018  30.262  1.00  0.00    -0.027 C 
ATOM      3  C   UNL     1     -12.638   0.174  27.830  1.00  0.00     0.039 C 
ENDROOT
BRANCH   2   4
ATOM      4  C   UNL     1     -13.378   0.287  31.655  1.00  0.00     0.032 C 
BRANCH   4   5
ATOM      5  C   UNL     1     -12.662   1.457  32.362  1.00  0.00     0.034 C 
BRANCH   5   6
ATOM      6  C   UNL     1     -13.605   2.350  33.147  1.00  0.00    -0.077 C 
ATOM      7  C   UNL     1     -14.111   1.841  34.473  1.00  0.00     0.039 C 
ATOM      8  C   UNL     1     -14.077   3.541  32.703  1.00  0.00    -0.023 CG0
ATOM      9  G   UNL     1     -13.697   4.253  31.419  1.00  0.00     0.000 G0
ENDBRANCH   5   6
ENDBRANCH   4   5
ENDBRANCH   2   4
BRANCH   1  10
ATOM     10  C   UNL     1     -14.466   1.540  29.076  1.00  0.00     0.111 C 
BRANCH  10  11
ATOM     11  C   UNL     1     -13.954   2.947  29.246  1.00  0.00     0.163 C 
ATOM     12  O   UNL     1     -12.960   3.304  28.557  1.00  0.00    -0.294 OA
BRANCH  11  13
ATOM     13  C   UNL     1     -14.541   3.899  30.235  1.00  0.00    -0.002 C 
ATOM     14  C   UNL     1     -15.766   4.466  30.017  1.00  0.00    -0.069 C 
ATOM     15  C   UNL     1     -16.317   5.552  30.916  1.00  0.00     0.039 C 
ATOM     16  C   UNL     1     -16.636   4.034  28.857  1.00  0.00     0.039 C 
BRANCH  13  17
ATOM     17  C   UNL     1     -13.681   4.278  31.430  1.00  0.00     0.066 CG0
ATOM     18  G   UNL     1     -14.092   3.543  32.691  1.00  0.00     0.000 G0
ENDBRANCH  13  17
ENDBRANCH  11  13
ENDBRANCH  10  11
ENDBRANCH   1  10
TORSDOF 0
ENDMDL
MODEL 2
REMARK VINA RESULT:    -3.781      5.558      7.078
REMARK INTER + INTRA:          -5.130
REMARK INTER:                  -5.373
REMARK INTRA:                   0.243
REMARK UNBOUND:                 0.199
REMARK SMILES CC1=CCC(=C(C)C)C(=O)CC(C)=CCC1
REMARK SMILES IDX 12 1 14 2 13 3 15 4 16 5 2 6 1 7 3 8 11 10 9 11 10 12 5 13
REMARK SMILES IDX 6 14 7 15 8 16 4 17
REMARK H PARENT
REMARK Flexibility Score: 60.00
ROOT
ATOM      1  C   UNL     1     -10.209   8.575  33.847  1.00  0.00    -0.070 C 
ATOM      2  C   UNL     1     -10.795   7.593  34.567  1.00  0.00    -0.027 C 
ATOM      3  C   UNL     1      -8.702   8.633  33.828  1.00  0.00     0.039 C 
ENDROOT
BRANCH   2   4
ATOM      4  C   UNL     1     -12.282   7.426  34.788  1.00  0.00     0.032 C 
BRANCH   4   5
ATOM      5  C   UNL     1     -13.009   6.604  33.702  1.00  0.00     0.034 C 
BRANCH   5   6
ATOM      6  C   UNL     1     -14.269   7.277  33.186  1.00  0.00    -0.077 C 
ATOM      7  C   UNL     1     -15.496   7.228  34.060  1.00  0.00     0.039 C 
ATOM      8  C   UNL     1     -14.381   7.854  31.966  1.00  0.00    -0.023 CG0
ATOM      9  G   UNL     1     -13.285   8.034  30.934  1.00  0.00     0.000 G0
ENDBRANCH   5   6
ENDBRANCH   4   5
ENDBRANCH   2   4
BRANCH   1  10
ATOM     10  C   UNL     1     -10.987   9.666  33.141  1.00  0.00     0.111 C 
BRANCH  10  11
ATOM     11  C   UNL     1     -11.197   9.346  31.685  1.00  0.00     0.163 C 
ATOM     12  O   UNL     1     -10.182   9.108  30.976  1.00  0.00    -0.294 OA
BRANCH  11  13
ATOM     13  C   UNL     1     -12.548   9.360  31.048  1.00  0.00    -0.002 C 
ATOM     14  C   UNL     1     -13.130  10.538  30.669  1.00  0.00    -0.069 C 
ATOM     15  C   UNL     1     -14.557  10.602  30.170  1.00  0.00     0.039 C 
ATOM     16  C   UNL     1     -12.370  11.845  30.734  1.00  0.00     0.039 C 
BRANCH  13  17
ATOM     17  C   UNL     1     -13.276   8.031  30.931  1.00  0.00     0.066 CG0
ATOM     18  G   UNL     1     -14.374   7.883  31.967  1.00  0.00     0.000 G0
ENDBRANCH  13  17
ENDBRANCH  11  13
ENDBRANCH  10  11
ENDBRANCH   1  10
TORSDOF 0
ENDMDL
MODEL 3
REMARK VINA RESULT:    -3.766      1.371      3.995
REMARK INTER + INTRA:          -5.108
REMARK INTER:                  -5.397
REMARK INTRA:                   0.289
REMARK UNBOUND:                 0.199
REMARK SMILES CC1=CCC(=C(C)C)C(=O)CC(C)=CCC1
REMARK SMILES IDX 12 1 14 2 13 3 15 4 16 5 2 6 1 7 3 8 11 10 9 11 10 12 5 13
REMARK SMILES IDX 6 14 7 15 8 16 4 17
REMARK H PARENT
REMARK Flexibility Score: 60.00
ROOT
ATOM      1  C   UNL     1     -16.334   3.349  27.290  1.00  0.00    -0.070 C 
ATOM      2  C   UNL     1     -17.121   4.358  27.726  1.00  0.00    -0.027 C 
ATOM      3  C   UNL     1     -16.221   3.135  25.802  1.00  0.00     0.039 C 
ENDROOT
BRANCH   2   4
ATOM      4  C   UNL     1     -17.438   4.670  29.172  1.00  0.00     0.032 C 
BRANCH   4   5
ATOM      5  C   UNL     1     -16.359   5.492  29.908  1.00  0.00     0.034 C 
BRANCH   5   6
ATOM      6  C   UNL     1     -15.954   4.889  31.241  1.00  0.00    -0.077 C 
ATOM      7  C   UNL     1     -16.961   4.929  32.363  1.00  0.00     0.039 C 
ATOM      8  C   UNL     1     -14.726   4.381  31.509  1.00  0.00    -0.023 CG0
ATOM      9  G   UNL     1     -13.571   4.223  30.540  1.00  0.00     0.000 G0
ENDBRANCH   5   6
ENDBRANCH   4   5
ENDBRANCH   2   4
BRANCH   1  10
ATOM     10  C   UNL     1     -15.644   2.372  28.220  1.00  0.00     0.111 C 
BRANCH  10  11
ATOM     11  C   UNL     1     -14.214   2.768  28.478  1.00  0.00     0.163 C 
ATOM     12  O   UNL     1     -13.474   3.003  27.485  1.00  0.00    -0.294 OA
BRANCH  11  13
ATOM     13  C   UNL     1     -13.635   2.829  29.854  1.00  0.00    -0.002 C 
ATOM     14  C   UNL     1     -13.253   1.688  30.503  1.00  0.00    -0.069 C 
ATOM     15  C   UNL     1     -12.814   1.700  31.951  1.00  0.00     0.039 C 
ATOM     16  C   UNL     1     -13.254   0.348  29.801  1.00  0.00     0.039 C 
BRANCH  13  17
ATOM     17  C   UNL     1     -13.582   4.192  30.525  1.00  0.00     0.066 CG0
ATOM     18  G   UNL     1     -14.715   4.391  31.514  1.00  0.00     0.000 G0
ENDBRANCH  13  17
ENDBRANCH  11  13
ENDBRANCH  10  11
ENDBRANCH   1  10
TORSDOF 0
ENDMDL
MODEL 4
REMARK VINA RESULT:    -3.717      1.360      3.186
REMARK INTER + INTRA:          -5.039
REMARK INTER:                  -5.499
REMARK INTRA:                   0.460
REMARK UNBOUND:                 0.199
REMARK SMILES CC1=CCC(=C(C)C)C(=O)CC(C)=CCC1
REMARK SMILES IDX 12 1 14 2 13 3 15 4 16 5 2 6 1 7 3 8 11 10 9 11 10 12 5 13
REMARK SMILES IDX 6 14 7 15 8 16 4 17
REMARK H PARENT
REMARK Flexibility Score: 60.00
ROOT
ATOM      1  C   UNL     1     -13.173   1.737  32.329  1.00  0.00    -0.070 C 
ATOM      2  C   UNL     1     -13.984   2.109  33.344  1.00  0.00    -0.027 C 
ATOM      3  C   UNL     1     -13.129   0.276  31.960  1.00  0.00     0.039 C 
ENDROOT
BRANCH   2   4
ATOM      4  C   UNL     1     -14.094   3.503  33.922  1.00  0.00     0.032 C 
BRANCH   4   5
ATOM      5  C   UNL     1     -14.031   4.642  32.882  1.00  0.00     0.034 C 
BRANCH   5   6
ATOM      6  C   UNL     1     -15.320   4.807  32.098  1.00  0.00    -0.077 C 
ATOM      7  C   UNL     1     -16.598   4.977  32.879  1.00  0.00     0.039 C 
ATOM      8  C   UNL     1     -15.406   4.743  30.747  1.00  0.00    -0.023 CG0
ATOM      9  G   UNL     1     -14.260   4.597  29.764  1.00  0.00     0.000 G0
ENDBRANCH   5   6
ENDBRANCH   4   5
ENDBRANCH   2   4
BRANCH   1  10
ATOM     10  C   UNL     1     -12.244   2.696  31.613  1.00  0.00     0.111 C 
BRANCH  10  11
ATOM     11  C   UNL     1     -12.514   2.729  30.131  1.00  0.00     0.163 C 
ATOM     12  O   UNL     1     -11.564   2.459  29.348  1.00  0.00    -0.294 OA
BRANCH  11  13
ATOM     13  C   UNL     1     -13.839   3.127  29.567  1.00  0.00    -0.002 C 
ATOM     14  C   UNL     1     -14.585   2.240  28.842  1.00  0.00    -0.069 C 
ATOM     15  C   UNL     1     -15.850   2.656  28.125  1.00  0.00     0.039 C 
ATOM     16  C   UNL     1     -14.177   0.788  28.720  1.00  0.00     0.039 C 
BRANCH  13  17
ATOM     17  C   UNL     1     -14.266   4.574  29.751  1.00  0.00     0.066 CG0
ATOM     18  G   UNL     1     -15.396   4.719  30.751  1.00  0.00     0.000 G0
ENDBRANCH  13  17
ENDBRANCH  11  13
ENDBRANCH  10  11
ENDBRANCH   1  10
TORSDOF 0
ENDMDL
MODEL 5
REMARK VINA RESULT:    -3.565      1.517      3.665
REMARK INTER + INTRA:          -4.824
REMARK INTER:                  -5.501
REMARK INTRA:                   0.677
REMARK UNBOUND:                 0.199
REMARK SMILES CC1=CCC(=C(C)C)C(=O)CC(C)=CCC1
REMARK SMILES IDX 12 1 14 2 13 3 15 4 16 5 2 6 1 7 3 8 11 10 9 11 10 12 5 13
REMARK SMILES IDX 6 14 7 15 8 16 4 17
REMARK H PARENT
REMARK Flexibility Score: 60.00
ROOT
ATOM      1  C   UNL     1     -13.255   0.682  30.452  1.00  0.00    -0.070 C 
ATOM      2  C   UNL     1     -14.046   0.667  29.357  1.00  0.00    -0.027 C 
ATOM      3  C   UNL     1     -13.692  -0.124  31.649  1.00  0.00     0.039 C 
ENDROOT
BRANCH   2   4
ATOM      4  C   UNL     1     -13.831   1.482  28.100  1.00  0.00     0.032 C 
BRANCH   4   5
ATOM      5  C   UNL     1     -13.744   3.006  28.324  1.00  0.00     0.034 C 
BRANCH   5   6
ATOM      6  C   UNL     1     -14.894   3.556  29.147  1.00  0.00    -0.077 C 
ATOM      7  C   UNL     1     -16.285   3.436  28.577  1.00  0.00     0.039 C 
ATOM      8  C   UNL     1     -14.747   4.209  30.326  1.00  0.00    -0.023 CG0
ATOM      9  G   UNL     1     -13.457   4.431  31.093  1.00  0.00     0.000 G0
ENDBRANCH   5   6
ENDBRANCH   4   5
ENDBRANCH   2   4
BRANCH   1  10
ATOM     10  C   UNL     1     -12.009   1.536  30.567  1.00  0.00     0.111 C 
BRANCH  10  11
ATOM     11  C   UNL     1     -12.038   2.396  31.803  1.00  0.00     0.163 C 
ATOM     12  O   UNL     1     -11.088   2.287  32.625  1.00  0.00    -0.294 OA
BRANCH  11  13
ATOM     13  C   UNL     1     -13.172   3.318  32.112  1.00  0.00    -0.002 C 
ATOM     14  C   UNL     1     -13.965   3.108  33.205  1.00  0.00    -0.069 C 
ATOM     15  C   UNL     1     -15.213   3.926  33.458  1.00  0.00     0.039 C 
ATOM     16  C   UNL     1     -13.633   2.038  34.222  1.00  0.00     0.039 C 
BRANCH  13  17
ATOM     17  C   UNL     1     -13.457   4.428  31.113  1.00  0.00     0.066 CG0
ATOM     18  G   UNL     1     -14.740   4.191  30.340  1.00  0.00     0.000 G0
ENDBRANCH  13  17
ENDBRANCH  11  13
ENDBRANCH  10  11
ENDBRANCH   1  10
TORSDOF 0
ENDMDL
MODEL 6
REMARK VINA RESULT:    -3.562      1.668      4.704
REMARK INTER + INTRA:          -4.821
REMARK INTER:                  -5.378
REMARK INTRA:                   0.557
REMARK UNBOUND:                 0.199
REMARK SMILES CC1=CCC(=C(C)C)C(=O)CC(C)=CCC1
REMARK SMILES IDX 12 1 14 2 13 3 15 4 16 5 2 6 1 7 3 8 11 10 9 11 10 12 5 13
REMARK SMILES IDX 6 14 7 15 8 16 4 17
REMARK H PARENT
REMARK Flexibility Score: 60.00
ROOT
ATOM      1  C   UNL     1     -14.284   3.596  33.449  1.00  0.00    -0.070 C 
ATOM      2  C   UNL     1     -15.524   4.119  33.321  1.00  0.00    -0.027 C 
ATOM      3  C   UNL     1     -14.104   2.428  34.386  1.00  0.00     0.039 C 
ENDROOT
BRANCH   2   4
ATOM      4  C   UNL     1     -15.887   5.343  32.511  1.00  0.00     0.032 C 
BRANCH   4   5
ATOM      5  C   UNL     1     -15.067   5.530  31.216  1.00  0.00     0.034 C 
BRANCH   5   6
ATOM      6  C   UNL     1     -15.584   4.699  30.056  1.00  0.00    -0.077 C 
ATOM      7  C   UNL     1     -17.045   4.824  29.701  1.00  0.00     0.039 C 
ATOM      8  C   UNL     1     -14.838   3.804  29.365  1.00  0.00    -0.023 CG0
ATOM      9  G   UNL     1     -13.357   3.524  29.533  1.00  0.00     0.000 G0
ENDBRANCH   5   6
ENDBRANCH   4   5
ENDBRANCH   2   4
BRANCH   1  10
ATOM     10  C   UNL     1     -13.061   4.182  32.774  1.00  0.00     0.111 C 
BRANCH  10  11
ATOM     11  C   UNL     1     -12.380   3.175  31.885  1.00  0.00     0.163 C 
ATOM     12  O   UNL     1     -11.185   2.866  32.144  1.00  0.00    -0.294 OA
BRANCH  11  13
ATOM     13  C   UNL     1     -13.046   2.583  30.687  1.00  0.00    -0.002 C 
ATOM     14  C   UNL     1     -13.289   1.240  30.613  1.00  0.00    -0.069 C 
ATOM     15  C   UNL     1     -13.814   0.589  29.352  1.00  0.00     0.039 C 
ATOM     16  C   UNL     1     -13.039   0.331  31.797  1.00  0.00     0.039 C 
BRANCH  13  17
ATOM     17  C   UNL     1     -13.349   3.519  29.528  1.00  0.00     0.066 CG0
ATOM     18  G   UNL     1     -14.834   3.786  29.376  1.00  0.00     0.000 G0
ENDBRANCH  13  17
ENDBRANCH  11  13
ENDBRANCH  10  11
ENDBRANCH   1  10
TORSDOF 0
ENDMDL
MODEL 7
REMARK VINA RESULT:    -3.552     10.184     11.704
REMARK INTER + INTRA:          -4.806
REMARK INTER:                  -5.312
REMARK INTRA:                   0.506
REMARK UNBOUND:                 0.199
REMARK SMILES CC1=CCC(=C(C)C)C(=O)CC(C)=CCC1
REMARK SMILES IDX 12 1 14 2 13 3 15 4 16 5 2 6 1 7 3 8 11 10 9 11 10 12 5 13
REMARK SMILES IDX 6 14 7 15 8 16 4 17
REMARK H PARENT
REMARK Flexibility Score: 60.00
ROOT
ATOM      1  C   UNL     1      -2.384   0.373  27.084  1.00  0.00    -0.070 C 
ATOM      2  C   UNL     1      -2.126   1.605  26.592  1.00  0.00    -0.027 C 
ATOM      3  C   UNL     1      -1.457  -0.750  26.695  1.00  0.00     0.039 C 
ENDROOT
BRANCH   2   4
ATOM      4  C   UNL     1      -2.989   2.833  26.787  1.00  0.00     0.032 C 
BRANCH   4   5
ATOM      5  C   UNL     1      -2.291   4.007  27.504  1.00  0.00     0.034 C 
BRANCH   5   6
ATOM      6  C   UNL     1      -1.622   3.602  28.805  1.00  0.00    -0.077 C 
ATOM      7  C   UNL     1      -0.136   3.825  28.928  1.00  0.00     0.039 C 
ATOM      8  C   UNL     1      -2.259   2.990  29.833  1.00  0.00    -0.023 CG0
ATOM      9  G   UNL     1      -3.740   2.682  29.938  1.00  0.00     0.000 G0
ENDBRANCH   5   6
ENDBRANCH   4   5
ENDBRANCH   2   4
BRANCH   1  10
ATOM     10  C   UNL     1      -3.604   0.051  27.922  1.00  0.00     0.111 C 
BRANCH  10  11
ATOM     11  C   UNL     1      -3.319   0.192  29.395  1.00  0.00     0.163 C 
ATOM     12  O   UNL     1      -2.507  -0.616  29.922  1.00  0.00    -0.294 OA
BRANCH  11  13
ATOM     13  C   UNL     1      -4.005   1.205  30.251  1.00  0.00    -0.002 C 
ATOM     14  C   UNL     1      -4.896   0.819  31.213  1.00  0.00    -0.069 C 
ATOM     15  C   UNL     1      -5.724   1.822  31.986  1.00  0.00     0.039 C 
ATOM     16  C   UNL     1      -5.101  -0.641  31.553  1.00  0.00     0.039 C 
BRANCH  13  17
ATOM     17  C   UNL     1      -3.744   2.670  29.939  1.00  0.00     0.066 CG0
ATOM     18  G   UNL     1      -2.263   2.981  29.836  1.00  0.00     0.000 G0
ENDBRANCH  13  17
ENDBRANCH  11  13
ENDBRANCH  10  11
ENDBRANCH   1  10
TORSDOF 0
ENDMDL
MODEL 8
REMARK VINA RESULT:    -3.478      1.817      3.835
REMARK INTER + INTRA:          -4.703
REMARK INTER:                  -5.142
REMARK INTRA:                   0.439
REMARK UNBOUND:                 0.199
REMARK SMILES CC1=CCC(=C(C)C)C(=O)CC(C)=CCC1
REMARK SMILES IDX 12 1 14 2 13 3 15 4 16 5 2 6 1 7 3 8 11 10 9 11 10 12 5 13
REMARK SMILES IDX 6 14 7 15 8 16 4 17
REMARK H PARENT
REMARK Flexibility Score: 60.00
ROOT
ATOM      1  C   UNL     1     -12.974   1.513  32.807  1.00  0.00    -0.070 C 
ATOM      2  C   UNL     1     -12.963   0.313  32.187  1.00  0.00    -0.027 C 
ATOM      3  C   UNL     1     -13.391   1.555  34.256  1.00  0.00     0.039 C 
ENDROOT
BRANCH   2   4
ATOM      4  C   UNL     1     -12.670   0.078  30.721  1.00  0.00     0.032 C 
BRANCH   4   5
ATOM      5  C   UNL     1     -13.800   0.501  29.759  1.00  0.00     0.034 C 
BRANCH   5   6
ATOM      6  C   UNL     1     -13.357   1.522  28.727  1.00  0.00    -0.077 C 
ATOM      7  C   UNL     1     -12.301   1.103  27.736  1.00  0.00     0.039 C 
ATOM      8  C   UNL     1     -13.797   2.803  28.683  1.00  0.00    -0.023 CG0
ATOM      9  G   UNL     1     -14.860   3.437  29.560  1.00  0.00     0.000 G0
ENDBRANCH   5   6
ENDBRANCH   4   5
ENDBRANCH   2   4
BRANCH   1  10
ATOM     10  C   UNL     1     -12.681   2.819  32.097  1.00  0.00     0.111 C 
BRANCH  10  11
ATOM     11  C   UNL     1     -13.924   3.655  31.938  1.00  0.00     0.163 C 
ATOM     12  O   UNL     1     -14.708   3.748  32.921  1.00  0.00    -0.294 OA
BRANCH  11  13
ATOM     13  C   UNL     1     -14.283   4.320  30.649  1.00  0.00    -0.002 C 
ATOM     14  C   UNL     1     -14.169   5.675  30.507  1.00  0.00    -0.069 C 
ATOM     15  C   UNL     1     -14.673   6.395  29.275  1.00  0.00     0.039 C 
ATOM     16  C   UNL     1     -13.532   6.527  31.583  1.00  0.00     0.039 C 
BRANCH  13  17
ATOM     17  C   UNL     1     -14.864   3.443  29.553  1.00  0.00     0.066 CG0
ATOM     18  G   UNL     1     -13.789   2.811  28.690  1.00  0.00     0.000 G0
ENDBRANCH  13  17
ENDBRANCH  11  13
ENDBRANCH  10  11
ENDBRANCH   1  10
TORSDOF 0
ENDMDL
MODEL 9
REMARK VINA RESULT:    -3.458      2.069      5.271
REMARK INTER + INTRA:          -4.674
REMARK INTER:                  -4.815
REMARK INTRA:                   0.141
REMARK UNBOUND:                 0.199
REMARK SMILES CC1=CCC(=C(C)C)C(=O)CC(C)=CCC1
REMARK SMILES IDX 12 1 14 2 13 3 15 4 16 5 2 6 1 7 3 8 11 10 9 11 10 12 5 13
REMARK SMILES IDX 6 14 7 15 8 16 4 17
REMARK H PARENT
REMARK Flexibility Score: 60.00
ROOT
ATOM      1  C   UNL     1     -15.538   6.331  31.913  1.00  0.00    -0.070 C 
ATOM      2  C   UNL     1     -15.548   6.548  30.579  1.00  0.00    -0.027 C 
ATOM      3  C   UNL     1     -15.482   7.532  32.823  1.00  0.00     0.039 C 
ENDROOT
BRANCH   2   4
ATOM      4  C   UNL     1     -15.505   5.478  29.510  1.00  0.00     0.032 C 
BRANCH   4   5
ATOM      5  C   UNL     1     -14.094   4.945  29.184  1.00  0.00     0.034 C 
BRANCH   5   6
ATOM      6  C   UNL     1     -14.029   3.431  29.106  1.00  0.00    -0.077 C 
ATOM      7  C   UNL     1     -14.733   2.759  27.954  1.00  0.00     0.039 C 
ATOM      8  C   UNL     1     -13.442   2.642  30.038  1.00  0.00    -0.023 CG0
ATOM      9  G   UNL     1     -12.667   3.092  31.261  1.00  0.00     0.000 G0
ENDBRANCH   5   6
ENDBRANCH   4   5
ENDBRANCH   2   4
BRANCH   1  10
ATOM     10  C   UNL     1     -15.484   4.949  32.531  1.00  0.00     0.111 C 
BRANCH  10  11
ATOM     11  C   UNL     1     -14.071   4.542  32.860  1.00  0.00     0.163 C 
ATOM     12  O   UNL     1     -13.318   5.395  33.402  1.00  0.00    -0.294 OA
BRANCH  11  13
ATOM     13  C   UNL     1     -13.523   3.197  32.512  1.00  0.00    -0.002 C 
ATOM     14  C   UNL     1     -13.731   2.124  33.334  1.00  0.00    -0.069 C 
ATOM     15  C   UNL     1     -13.059   0.790  33.095  1.00  0.00     0.039 C 
ATOM     16  C   UNL     1     -14.649   2.220  34.533  1.00  0.00     0.039 C 
BRANCH  13  17
ATOM     17  C   UNL     1     -12.653   3.100  31.270  1.00  0.00     0.066 CG0
ATOM     18  G   UNL     1     -13.435   2.641  30.054  1.00  0.00     0.000 G0
ENDBRANCH  13  17
ENDBRANCH  11  13
ENDBRANCH  10  11
ENDBRANCH   1  10
TORSDOF 0
ENDMDL
