MODEL 1
REMARK VINA RESULT:    -2.591      0.000      0.000
REMARK INTER + INTRA:          -3.078
REMARK INTER:                  -3.045
REMARK INTRA:                  -0.033
REMARK UNBOUND:                -0.033
REMARK SMILES O=C([O-])CCC(=O)[O-]
REMARK SMILES IDX 4 1 2 2 1 3 3 4 5 5 6 6 7 7 8 8
REMARK H PARENT
REMARK Flexibility Score: inf
ROOT
ATOM      1  C   UNL     1      55.592  28.785  50.501  1.00  0.00     0.059 C 
ENDROOT
BRANCH   1   2
ATOM      2  C   UNL     1      54.478  27.978  49.907  1.00  0.00     0.042 C 
ATOM      3  O   UNL     1      54.658  26.768  49.613  1.00  0.00    -0.550 OA
ATOM      4  O   UNL     1      53.252  28.575  49.643  1.00  0.00    -0.550 OA
ENDBRANCH   1   2
BRANCH   1   5
ATOM      5  C   UNL     1      56.962  28.191  50.160  1.00  0.00     0.059 C 
BRANCH   5   6
ATOM      6  C   UNL     1      58.010  29.255  50.037  1.00  0.00     0.042 C 
ATOM      7  O   UNL     1      58.391  29.890  51.056  1.00  0.00    -0.550 OA
ATOM      8  O   UNL     1      58.594  29.517  48.805  1.00  0.00    -0.550 OA
ENDBRANCH   5   6
ENDBRANCH   1   5
TORSDOF 3
ENDMDL
MODEL 2
REMARK VINA RESULT:    -2.587      1.647      4.234
REMARK INTER + INTRA:          -3.074
REMARK INTER:                  -2.961
REMARK INTRA:                  -0.112
REMARK UNBOUND:                -0.033
REMARK SMILES O=C([O-])CCC(=O)[O-]
REMARK SMILES IDX 4 1 2 2 1 3 3 4 5 5 6 6 7 7 8 8
REMARK H PARENT
REMARK Flexibility Score: inf
ROOT
ATOM      1  C   UNL     1      57.950  28.478  50.640  1.00  0.00     0.059 C 
ENDROOT
BRANCH   1   2
ATOM      2  C   UNL     1      58.771  28.666  49.400  1.00  0.00     0.042 C 
ATOM      3  O   UNL     1      58.606  29.684  48.679  1.00  0.00    -0.550 OA
ATOM      4  O   UNL     1      59.690  27.696  49.023  1.00  0.00    -0.550 OA
ENDBRANCH   1   2
BRANCH   1   5
ATOM      5  C   UNL     1      56.485  28.177  50.306  1.00  0.00     0.059 C 
BRANCH   5   6
ATOM      6  C   UNL     1      56.258  26.712  50.089  1.00  0.00     0.042 C 
ATOM      7  O   UNL     1      57.088  25.871  50.525  1.00  0.00    -0.550 OA
ATOM      8  O   UNL     1      55.111  26.274  49.442  1.00  0.00    -0.550 OA
ENDBRANCH   5   6
ENDBRANCH   1   5
TORSDOF 3
ENDMDL
MODEL 3
REMARK VINA RESULT:    -2.585     17.722     19.076
REMARK INTER + INTRA:          -3.072
REMARK INTER:                  -2.956
REMARK INTRA:                  -0.116
REMARK UNBOUND:                -0.033
REMARK SMILES O=C([O-])CCC(=O)[O-]
REMARK SMILES IDX 4 1 2 2 1 3 3 4 5 5 6 6 7 7 8 8
REMARK H PARENT
REMARK Flexibility Score: inf
ROOT
ATOM      1  C   UNL     1      72.372  31.851  60.519  1.00  0.00     0.059 C 
ENDROOT
BRANCH   1   2
ATOM      2  C   UNL     1      71.928  30.968  61.646  1.00  0.00     0.042 C 
ATOM      3  O   UNL     1      72.757  30.575  62.508  1.00  0.00    -0.550 OA
ATOM      4  O   UNL     1      70.607  30.547  61.719  1.00  0.00    -0.550 OA
ENDBRANCH   1   2
BRANCH   1   5
ATOM      5  C   UNL     1      71.722  33.236  60.599  1.00  0.00     0.059 C 
BRANCH   5   6
ATOM      6  C   UNL     1      70.858  33.511  59.407  1.00  0.00     0.042 C 
ATOM      7  O   UNL     1      70.348  32.558  58.761  1.00  0.00    -0.550 OA
ATOM      8  O   UNL     1      70.584  34.820  59.032  1.00  0.00    -0.550 OA
ENDBRANCH   5   6
ENDBRANCH   1   5
TORSDOF 3
ENDMDL
MODEL 4
REMARK VINA RESULT:    -2.576      0.141      4.264
REMARK INTER + INTRA:          -3.060
REMARK INTER:                  -3.028
REMARK INTRA:                  -0.032
REMARK UNBOUND:                -0.033
REMARK SMILES O=C([O-])CCC(=O)[O-]
REMARK SMILES IDX 4 1 2 2 1 3 3 4 5 5 6 6 7 7 8 8
REMARK H PARENT
REMARK Flexibility Score: inf
ROOT
ATOM      1  C   UNL     1      56.858  28.178  50.155  1.00  0.00     0.059 C 
ENDROOT
BRANCH   1   2
ATOM      2  C   UNL     1      57.915  29.240  50.112  1.00  0.00     0.042 C 
ATOM      3  O   UNL     1      58.169  29.924  51.137  1.00  0.00    -0.550 OA
ATOM      4  O   UNL     1      58.591  29.499  48.926  1.00  0.00    -0.550 OA
ENDBRANCH   1   2
BRANCH   1   5
ATOM      5  C   UNL     1      55.493  28.757  50.542  1.00  0.00     0.059 C 
BRANCH   5   6
ATOM      6  C   UNL     1      54.371  28.005  49.893  1.00  0.00     0.042 C 
ATOM      7  O   UNL     1      54.519  26.796  49.575  1.00  0.00    -0.550 OA
ATOM      8  O   UNL     1      53.149  28.629  49.676  1.00  0.00    -0.550 OA
ENDBRANCH   5   6
ENDBRANCH   1   5
TORSDOF 3
ENDMDL
MODEL 5
REMARK VINA RESULT:    -2.568      9.719     10.768
REMARK INTER + INTRA:          -3.051
REMARK INTER:                  -2.963
REMARK INTRA:                  -0.088
REMARK UNBOUND:                -0.033
REMARK SMILES O=C([O-])CCC(=O)[O-]
REMARK SMILES IDX 4 1 2 2 1 3 3 4 5 5 6 6 7 7 8 8
REMARK H PARENT
REMARK Flexibility Score: inf
ROOT
ATOM      1  C   UNL     1      57.539  17.513  50.541  1.00  0.00     0.059 C 
ENDROOT
BRANCH   1   2
ATOM      2  C   UNL     1      58.262  17.912  49.290  1.00  0.00     0.042 C 
ATOM      3  O   UNL     1      58.888  19.003  49.239  1.00  0.00    -0.550 OA
ATOM      4  O   UNL     1      58.210  17.095  48.168  1.00  0.00    -0.550 OA
ENDBRANCH   1   2
BRANCH   1   5
ATOM      5  C   UNL     1      57.246  18.723  51.433  1.00  0.00     0.059 C 
BRANCH   5   6
ATOM      6  C   UNL     1      55.800  19.108  51.384  1.00  0.00     0.042 C 
ATOM      7  O   UNL     1      55.193  19.428  52.440  1.00  0.00    -0.550 OA
ATOM      8  O   UNL     1      55.131  19.152  50.167  1.00  0.00    -0.550 OA
ENDBRANCH   5   6
ENDBRANCH   1   5
TORSDOF 3
ENDMDL
MODEL 6
REMARK VINA RESULT:    -2.565     17.544     19.013
REMARK INTER + INTRA:          -3.048
REMARK INTER:                  -2.926
REMARK INTRA:                  -0.122
REMARK UNBOUND:                -0.033
REMARK SMILES O=C([O-])CCC(=O)[O-]
REMARK SMILES IDX 4 1 2 2 1 3 3 4 5 5 6 6 7 7 8 8
REMARK H PARENT
REMARK Flexibility Score: inf
ROOT
ATOM      1  C   UNL     1      71.650  33.161  60.563  1.00  0.00     0.059 C 
ENDROOT
BRANCH   1   2
ATOM      2  C   UNL     1      70.843  33.339  59.313  1.00  0.00     0.042 C 
ATOM      3  O   UNL     1      70.843  34.444  58.710  1.00  0.00    -0.550 OA
ATOM      4  O   UNL     1      70.060  32.295  58.837  1.00  0.00    -0.550 OA
ENDBRANCH   1   2
BRANCH   1   5
ATOM      5  C   UNL     1      72.420  31.836  60.553  1.00  0.00     0.059 C 
BRANCH   5   6
ATOM      6  C   UNL     1      71.962  30.923  61.649  1.00  0.00     0.042 C 
ATOM      7  O   UNL     1      72.779  30.513  62.515  1.00  0.00    -0.550 OA
ATOM      8  O   UNL     1      70.625  30.557  61.737  1.00  0.00    -0.550 OA
ENDBRANCH   5   6
ENDBRANCH   1   5
TORSDOF 3
ENDMDL
MODEL 7
REMARK VINA RESULT:    -2.565      1.323      4.125
REMARK INTER + INTRA:          -3.047
REMARK INTER:                  -2.971
REMARK INTRA:                  -0.076
REMARK UNBOUND:                -0.033
REMARK SMILES O=C([O-])CCC(=O)[O-]
REMARK SMILES IDX 4 1 2 2 1 3 3 4 5 5 6 6 7 7 8 8
REMARK H PARENT
REMARK Flexibility Score: inf
ROOT
ATOM      1  C   UNL     1      58.058  27.956  50.405  1.00  0.00     0.059 C 
ENDROOT
BRANCH   1   2
ATOM      2  C   UNL     1      58.935  28.499  49.317  1.00  0.00     0.042 C 
ATOM      3  O   UNL     1      59.997  27.902  49.001  1.00  0.00    -0.550 OA
ATOM      4  O   UNL     1      58.596  29.685  48.679  1.00  0.00    -0.550 OA
ENDBRANCH   1   2
BRANCH   1   5
ATOM      5  C   UNL     1      56.679  28.625  50.404  1.00  0.00     0.059 C 
BRANCH   5   6
ATOM      6  C   UNL     1      55.595  27.652  50.056  1.00  0.00     0.042 C 
ATOM      7  O   UNL     1      54.412  28.052  49.894  1.00  0.00    -0.550 OA
ATOM      8  O   UNL     1      55.897  26.308  49.873  1.00  0.00    -0.550 OA
ENDBRANCH   5   6
ENDBRANCH   1   5
TORSDOF 3
ENDMDL
MODEL 8
REMARK VINA RESULT:    -2.556      9.647     10.614
REMARK INTER + INTRA:          -3.036
REMARK INTER:                  -2.935
REMARK INTRA:                  -0.102
REMARK UNBOUND:                -0.033
REMARK SMILES O=C([O-])CCC(=O)[O-]
REMARK SMILES IDX 4 1 2 2 1 3 3 4 5 5 6 6 7 7 8 8
REMARK H PARENT
REMARK Flexibility Score: inf
ROOT
ATOM      1  C   UNL     1      57.586  18.692  51.080  1.00  0.00     0.059 C 
ENDROOT
BRANCH   1   2
ATOM      2  C   UNL     1      56.139  19.079  51.102  1.00  0.00     0.042 C 
ATOM      3  O   UNL     1      55.397  18.818  50.118  1.00  0.00    -0.550 OA
ATOM      4  O   UNL     1      55.619  19.763  52.193  1.00  0.00    -0.550 OA
ENDBRANCH   1   2
BRANCH   1   5
ATOM      5  C   UNL     1      58.193  18.857  49.683  1.00  0.00     0.059 C 
BRANCH   5   6
ATOM      6  C   UNL     1      58.625  17.542  49.110  1.00  0.00     0.042 C 
ATOM      7  O   UNL     1      59.711  17.019  49.472  1.00  0.00    -0.550 OA
ATOM      8  O   UNL     1      57.809  16.875  48.205  1.00  0.00    -0.550 OA
ENDBRANCH   5   6
ENDBRANCH   1   5
TORSDOF 3
ENDMDL
MODEL 9
REMARK VINA RESULT:    -2.488     12.895     13.577
REMARK INTER + INTRA:          -2.957
REMARK INTER:                  -2.838
REMARK INTRA:                  -0.119
REMARK UNBOUND:                -0.033
REMARK SMILES O=C([O-])CCC(=O)[O-]
REMARK SMILES IDX 4 1 2 2 1 3 3 4 5 5 6 6 7 7 8 8
REMARK H PARENT
REMARK Flexibility Score: inf
ROOT
ATOM      1  C   UNL     1      61.847  32.220  60.236  1.00  0.00     0.059 C 
ENDROOT
BRANCH   1   2
ATOM      2  C   UNL     1      61.596  31.352  61.431  1.00  0.00     0.042 C 
ATOM      3  O   UNL     1      62.449  30.497  61.784  1.00  0.00    -0.550 OA
ATOM      4  O   UNL     1      60.401  31.462  62.131  1.00  0.00    -0.550 OA
ENDBRANCH   1   2
BRANCH   1   5
ATOM      5  C   UNL     1      62.229  33.646  60.646  1.00  0.00     0.059 C 
BRANCH   5   6
ATOM      6  C   UNL     1      63.702  33.776  60.885  1.00  0.00     0.042 C 
ATOM      7  O   UNL     1      64.505  32.966  60.352  1.00  0.00    -0.550 OA
ATOM      8  O   UNL     1      64.192  34.815  61.666  1.00  0.00    -0.550 OA
ENDBRANCH   5   6
ENDBRANCH   1   5
TORSDOF 3
ENDMDL
