MODEL 1
REMARK VINA RESULT:    -6.314      0.000      0.000
REMARK INTER + INTRA:          -9.316
REMARK INTER:                  -8.529
REMARK INTRA:                  -0.787
REMARK UNBOUND:                -0.787
REMARK SMILES O=c1c(-c2ccc(O)cc2)coc2c([C@H]3O[C@@H](CO)[C@@H](O)[C@@H](O)[C@@H]3O)c(O)ccc12
REMARK SMILES IDX 3 1 11 2 12 3 13 4 30 5 2 6 1 7 29 8 28 9 26 10 14 11 4 12
REMARK SMILES IDX 5 13 6 14 7 15 10 16 9 17 8 18 15 20 24 21 16 22 22 23 17 24
REMARK SMILES IDX 20 25 25 26 23 28 18 30 19 31 21 33 27 35
REMARK H PARENT 8 19 25 27 23 29 19 32 21 34 27 36
REMARK Flexibility Score: inf
ROOT
ATOM      1  C   UNL     1       3.445  52.957   7.325  1.00  0.00     0.065 A 
ATOM      2  C   UNL     1       2.067  52.749   7.386  1.00  0.00     0.208 A 
ATOM      3  O   UNL     1       1.498  52.298   8.492  1.00  0.00    -0.463 OA
ATOM      4  C   UNL     1       2.169  52.050   9.617  1.00  0.00     0.147 A 
ATOM      5  C   UNL     1       3.571  52.231   9.638  1.00  0.00     0.066 A 
ATOM      6  C   UNL     1       4.209  52.695   8.469  1.00  0.00     0.200 A 
ATOM      7  O   UNL     1       5.455  52.909   8.460  1.00  0.00    -0.288 OA
ATOM      8  C   UNL     1       4.280  51.966  10.812  1.00  0.00     0.020 A 
ATOM      9  C   UNL     1       3.616  51.495  11.935  1.00  0.00     0.047 A 
ATOM     10  C   UNL     1       2.228  51.297  11.940  1.00  0.00     0.125 A 
ATOM     11  C   UNL     1       1.460  51.640  10.781  1.00  0.00     0.069 A 
ENDROOT
BRANCH   1  12
ATOM     12  C   UNL     1       4.054  53.486   6.092  1.00  0.00    -0.011 A 
ATOM     13  C   UNL     1       5.346  53.080   5.710  1.00  0.00     0.013 A 
ATOM     14  C   UNL     1       5.937  53.608   4.556  1.00  0.00     0.047 A 
ATOM     15  C   UNL     1       5.262  54.572   3.794  1.00  0.00     0.115 A 
ATOM     16  C   UNL     1       3.368  54.428   5.312  1.00  0.00     0.013 A 
ATOM     17  C   UNL     1       3.976  54.981   4.176  1.00  0.00     0.047 A 
BRANCH  15  18
ATOM     18  O   UNL     1       5.880  55.120   2.668  1.00  0.00    -0.508 OA
ATOM     19  H   UNL     1       6.880  55.276   2.636  1.00  0.00     0.293 HD
ENDBRANCH  15  18
ENDBRANCH   1  12
BRANCH  11  20
ATOM     20  C   UNL     1      -0.075  51.615  10.638  1.00  0.00     0.188 C 
ATOM     21  C   UNL     1      -0.929  52.874  10.922  1.00  0.00     0.179 C 
ATOM     22  O   UNL     1      -0.600  50.513  11.353  1.00  0.00    -0.362 OA
ATOM     23  C   UNL     1      -2.370  52.617  10.434  1.00  0.00     0.177 C 
ATOM     24  C   UNL     1      -1.866  50.136  10.821  1.00  0.00     0.176 C 
ATOM     25  C   UNL     1      -2.915  51.272  10.990  1.00  0.00     0.177 C 
BRANCH  21  26
ATOM     26  O   UNL     1      -0.390  54.020  10.308  1.00  0.00    -0.387 OA
ATOM     27  H   UNL     1      -0.292  53.828   9.338  1.00  0.00     0.211 HD
ENDBRANCH  21  26
BRANCH  23  28
ATOM     28  O   UNL     1      -3.200  53.682  10.816  1.00  0.00    -0.387 OA
ATOM     29  H   UNL     1      -2.622  54.491  10.869  1.00  0.00     0.211 HD
ENDBRANCH  23  28
BRANCH  24  30
ATOM     30  C   UNL     1      -2.281  48.797  11.456  1.00  0.00     0.191 C 
BRANCH  30  31
ATOM     31  O   UNL     1      -1.992  48.760  12.834  1.00  0.00    -0.394 OA
ATOM     32  H   UNL     1      -1.724  47.832  13.065  1.00  0.00     0.210 HD
ENDBRANCH  30  31
ENDBRANCH  24  30
BRANCH  25  33
ATOM     33  O   UNL     1      -3.357  51.397  12.323  1.00  0.00    -0.388 OA
ATOM     34  H   UNL     1      -2.777  52.065  12.778  1.00  0.00     0.211 HD
ENDBRANCH  25  33
ENDBRANCH  11  20
BRANCH  10  35
ATOM     35  O   UNL     1       1.715  50.741  13.112  1.00  0.00    -0.507 OA
ATOM     36  H   UNL     1       2.110  49.968  13.615  1.00  0.00     0.293 HD
ENDBRANCH  10  35
TORSDOF 9
ENDMDL
MODEL 2
REMARK VINA RESULT:    -6.294      4.096      8.456
REMARK INTER + INTRA:          -9.289
REMARK INTER:                  -8.255
REMARK INTRA:                  -1.033
REMARK UNBOUND:                -0.787
REMARK SMILES O=c1c(-c2ccc(O)cc2)coc2c([C@H]3O[C@@H](CO)[C@@H](O)[C@@H](O)[C@@H]3O)c(O)ccc12
REMARK SMILES IDX 3 1 11 2 12 3 13 4 30 5 2 6 1 7 29 8 28 9 26 10 14 11 4 12
REMARK SMILES IDX 5 13 6 14 7 15 10 16 9 17 8 18 15 20 24 21 16 22 22 23 17 24
REMARK SMILES IDX 20 25 25 26 23 28 18 30 19 31 21 33 27 35
REMARK H PARENT 8 19 25 27 23 29 19 32 21 34 27 36
REMARK Flexibility Score: inf
ROOT
ATOM      1  C   UNL     1      -0.202  57.166  10.783  1.00  0.00     0.065 A 
ATOM      2  C   UNL     1       0.050  56.176   9.833  1.00  0.00     0.208 A 
ATOM      3  O   UNL     1       1.289  55.809   9.550  1.00  0.00    -0.463 OA
ATOM      4  C   UNL     1       2.364  56.311  10.158  1.00  0.00     0.147 A 
ATOM      5  C   UNL     1       2.195  57.324  11.130  1.00  0.00     0.066 A 
ATOM      6  C   UNL     1       0.888  57.748  11.443  1.00  0.00     0.200 A 
ATOM      7  O   UNL     1       0.693  58.621  12.336  1.00  0.00    -0.288 OA
ATOM      8  C   UNL     1       3.318  57.859  11.765  1.00  0.00     0.020 A 
ATOM      9  C   UNL     1       4.589  57.425  11.417  1.00  0.00     0.047 A 
ATOM     10  C   UNL     1       4.786  56.430  10.450  1.00  0.00     0.125 A 
ATOM     11  C   UNL     1       3.654  55.799   9.841  1.00  0.00     0.069 A 
ENDROOT
BRANCH   1  12
ATOM     12  C   UNL     1      -1.591  57.540  11.103  1.00  0.00    -0.011 A 
ATOM     13  C   UNL     1      -2.168  58.683  10.520  1.00  0.00     0.013 A 
ATOM     14  C   UNL     1      -3.477  59.056  10.850  1.00  0.00     0.047 A 
ATOM     15  C   UNL     1      -4.207  58.317  11.791  1.00  0.00     0.115 A 
ATOM     16  C   UNL     1      -2.333  56.784  12.022  1.00  0.00     0.013 A 
ATOM     17  C   UNL     1      -3.631  57.180  12.376  1.00  0.00     0.047 A 
BRANCH  15  18
ATOM     18  O   UNL     1      -5.495  58.724  12.140  1.00  0.00    -0.508 OA
ATOM     19  H   UNL     1      -5.716  59.037  13.078  1.00  0.00     0.293 HD
ENDBRANCH  15  18
ENDBRANCH   1  12
BRANCH  11  20
ATOM     20  C   UNL     1       3.663  54.609   8.860  1.00  0.00     0.188 C 
ATOM     21  C   UNL     1       4.497  53.338   9.148  1.00  0.00     0.179 C 
ATOM     22  O   UNL     1       3.940  55.074   7.553  1.00  0.00    -0.362 OA
ATOM     23  C   UNL     1       4.090  52.240   8.143  1.00  0.00     0.177 C 
ATOM     24  C   UNL     1       3.430  54.162   6.586  1.00  0.00     0.176 C 
ATOM     25  C   UNL     1       4.129  52.777   6.686  1.00  0.00     0.177 C 
BRANCH  21  26
ATOM     26  O   UNL     1       4.329  52.891  10.472  1.00  0.00    -0.387 OA
ATOM     27  H   UNL     1       4.897  52.084  10.595  1.00  0.00     0.211 HD
ENDBRANCH  21  26
BRANCH  23  28
ATOM     28  O   UNL     1       4.937  51.129   8.282  1.00  0.00    -0.387 OA
ATOM     29  H   UNL     1       4.547  50.401   7.727  1.00  0.00     0.211 HD
ENDBRANCH  23  28
BRANCH  24  30
ATOM     30  C   UNL     1       3.530  54.820   5.198  1.00  0.00     0.191 C 
BRANCH  30  31
ATOM     31  O   UNL     1       3.898  53.891   4.205  1.00  0.00    -0.394 OA
ATOM     32  H   UNL     1       3.830  54.344   3.323  1.00  0.00     0.210 HD
ENDBRANCH  30  31
ENDBRANCH  24  30
BRANCH  25  33
ATOM     33  O   UNL     1       5.442  52.804   6.171  1.00  0.00    -0.388 OA
ATOM     34  H   UNL     1       5.597  51.953   5.680  1.00  0.00     0.211 HD
ENDBRANCH  25  33
ENDBRANCH  11  20
BRANCH  10  35
ATOM     35  O   UNL     1       6.120  56.158  10.146  1.00  0.00    -0.507 OA
ATOM     36  H   UNL     1       6.897  56.260  10.773  1.00  0.00     0.293 HD
ENDBRANCH  10  35
TORSDOF 9
ENDMDL
MODEL 3
REMARK VINA RESULT:    -6.286      1.723      2.343
REMARK INTER + INTRA:          -9.278
REMARK INTER:                  -8.651
REMARK INTRA:                  -0.627
REMARK UNBOUND:                -0.787
REMARK SMILES O=c1c(-c2ccc(O)cc2)coc2c([C@H]3O[C@@H](CO)[C@@H](O)[C@@H](O)[C@@H]3O)c(O)ccc12
REMARK SMILES IDX 3 1 11 2 12 3 13 4 30 5 2 6 1 7 29 8 28 9 26 10 14 11 4 12
REMARK SMILES IDX 5 13 6 14 7 15 10 16 9 17 8 18 15 20 24 21 16 22 22 23 17 24
REMARK SMILES IDX 20 25 25 26 23 28 18 30 19 31 21 33 27 35
REMARK H PARENT 8 19 25 27 23 29 19 32 21 34 27 36
REMARK Flexibility Score: inf
ROOT
ATOM      1  C   UNL     1       2.932  53.049   6.982  1.00  0.00     0.065 A 
ATOM      2  C   UNL     1       1.897  53.872   7.425  1.00  0.00     0.208 A 
ATOM      3  O   UNL     1       1.090  53.480   8.397  1.00  0.00    -0.463 OA
ATOM      4  C   UNL     1       1.218  52.319   9.039  1.00  0.00     0.147 A 
ATOM      5  C   UNL     1       2.239  51.424   8.646  1.00  0.00     0.066 A 
ATOM      6  C   UNL     1       3.106  51.806   7.602  1.00  0.00     0.200 A 
ATOM      7  O   UNL     1       4.058  51.051   7.250  1.00  0.00    -0.288 OA
ATOM      8  C   UNL     1       2.374  50.202   9.310  1.00  0.00     0.020 A 
ATOM      9  C   UNL     1       1.489  49.857  10.321  1.00  0.00     0.047 A 
ATOM     10  C   UNL     1       0.462  50.721  10.724  1.00  0.00     0.125 A 
ATOM     11  C   UNL     1       0.347  52.016  10.124  1.00  0.00     0.069 A 
ENDROOT
BRANCH   1  12
ATOM     12  C   UNL     1       3.837  53.516   5.917  1.00  0.00    -0.011 A 
ATOM     13  C   UNL     1       5.166  53.056   5.864  1.00  0.00     0.013 A 
ATOM     14  C   UNL     1       6.034  53.526   4.871  1.00  0.00     0.047 A 
ATOM     15  C   UNL     1       5.598  54.485   3.947  1.00  0.00     0.115 A 
ATOM     16  C   UNL     1       3.394  54.454   4.973  1.00  0.00     0.013 A 
ATOM     17  C   UNL     1       4.275  54.948   4.001  1.00  0.00     0.047 A 
BRANCH  15  18
ATOM     18  O   UNL     1       6.486  54.975   2.988  1.00  0.00    -0.508 OA
ATOM     19  H   UNL     1       7.373  54.521   2.805  1.00  0.00     0.293 HD
ENDBRANCH  15  18
ENDBRANCH   1  12
BRANCH  11  20
ATOM     20  C   UNL     1      -0.627  53.145  10.517  1.00  0.00     0.188 C 
ATOM     21  C   UNL     1      -0.208  54.258  11.506  1.00  0.00     0.179 C 
ATOM     22  O   UNL     1      -1.861  52.586  10.923  1.00  0.00    -0.362 OA
ATOM     23  C   UNL     1      -1.278  55.370  11.484  1.00  0.00     0.177 C 
ATOM     24  C   UNL     1      -2.910  53.535  10.760  1.00  0.00     0.176 C 
ATOM     25  C   UNL     1      -2.701  54.776  11.673  1.00  0.00     0.177 C 
BRANCH  21  26
ATOM     26  O   UNL     1       1.062  54.781  11.199  1.00  0.00    -0.387 OA
ATOM     27  H   UNL     1       0.939  55.717  10.887  1.00  0.00     0.211 HD
ENDBRANCH  21  26
BRANCH  23  28
ATOM     28  O   UNL     1      -1.002  56.317  12.483  1.00  0.00    -0.387 OA
ATOM     29  H   UNL     1      -0.367  56.973  12.086  1.00  0.00     0.211 HD
ENDBRANCH  23  28
BRANCH  24  30
ATOM     30  C   UNL     1      -4.254  52.815  10.974  1.00  0.00     0.191 C 
BRANCH  30  31
ATOM     31  O   UNL     1      -4.358  52.279  12.272  1.00  0.00    -0.394 OA
ATOM     32  H   UNL     1      -4.013  52.956  12.911  1.00  0.00     0.210 HD
ENDBRANCH  30  31
ENDBRANCH  24  30
BRANCH  25  33
ATOM     33  O   UNL     1      -2.978  54.496  13.027  1.00  0.00    -0.388 OA
ATOM     34  H   UNL     1      -2.408  53.729  13.304  1.00  0.00     0.211 HD
ENDBRANCH  25  33
ENDBRANCH  11  20
BRANCH  10  35
ATOM     35  O   UNL     1      -0.399  50.203  11.693  1.00  0.00    -0.507 OA
ATOM     36  H   UNL     1      -0.928  50.741  12.355  1.00  0.00     0.293 HD
ENDBRANCH  10  35
TORSDOF 9
ENDMDL
MODEL 4
REMARK VINA RESULT:    -6.249      2.576      8.460
REMARK INTER + INTRA:          -9.228
REMARK INTER:                  -8.281
REMARK INTRA:                  -0.946
REMARK UNBOUND:                -0.787
REMARK SMILES O=c1c(-c2ccc(O)cc2)coc2c([C@H]3O[C@@H](CO)[C@@H](O)[C@@H](O)[C@@H]3O)c(O)ccc12
REMARK SMILES IDX 3 1 11 2 12 3 13 4 30 5 2 6 1 7 29 8 28 9 26 10 14 11 4 12
REMARK SMILES IDX 5 13 6 14 7 15 10 16 9 17 8 18 15 20 24 21 16 22 22 23 17 24
REMARK SMILES IDX 20 25 25 26 23 28 18 30 19 31 21 33 27 35
REMARK H PARENT 8 19 25 27 23 29 19 32 21 34 27 36
REMARK Flexibility Score: inf
ROOT
ATOM      1  C   UNL     1      -0.765  54.156  10.933  1.00  0.00     0.065 A 
ATOM      2  C   UNL     1      -0.185  53.403   9.912  1.00  0.00     0.208 A 
ATOM      3  O   UNL     1       0.966  53.768   9.371  1.00  0.00    -0.463 OA
ATOM      4  C   UNL     1       1.663  54.831   9.770  1.00  0.00     0.147 A 
ATOM      5  C   UNL     1       1.142  55.651  10.797  1.00  0.00     0.066 A 
ATOM      6  C   UNL     1      -0.091  55.297  11.383  1.00  0.00     0.200 A 
ATOM      7  O   UNL     1      -0.570  55.981  12.332  1.00  0.00    -0.288 OA
ATOM      8  C   UNL     1       1.865  56.771  11.215  1.00  0.00     0.020 A 
ATOM      9  C   UNL     1       3.066  57.094  10.601  1.00  0.00     0.047 A 
ATOM     10  C   UNL     1       3.602  56.304   9.574  1.00  0.00     0.125 A 
ATOM     11  C   UNL     1       2.930  55.103   9.179  1.00  0.00     0.069 A 
ENDROOT
BRANCH   1  12
ATOM     12  C   UNL     1      -2.033  53.716  11.540  1.00  0.00    -0.011 A 
ATOM     13  C   UNL     1      -2.118  52.462  12.173  1.00  0.00     0.013 A 
ATOM     14  C   UNL     1      -3.332  52.032  12.721  1.00  0.00     0.047 A 
ATOM     15  C   UNL     1      -4.480  52.828  12.610  1.00  0.00     0.115 A 
ATOM     16  C   UNL     1      -3.176  54.525  11.456  1.00  0.00     0.013 A 
ATOM     17  C   UNL     1      -4.398  54.076  11.976  1.00  0.00     0.047 A 
BRANCH  15  18
ATOM     18  O   UNL     1      -5.693  52.368  13.125  1.00  0.00    -0.508 OA
ATOM     19  H   UNL     1      -5.955  52.529  14.090  1.00  0.00     0.293 HD
ENDBRANCH  15  18
ENDBRANCH   1  12
BRANCH  11  20
ATOM     20  C   UNL     1       3.421  54.046   8.169  1.00  0.00     0.188 C 
ATOM     21  C   UNL     1       4.180  52.782   8.636  1.00  0.00     0.179 C 
ATOM     22  O   UNL     1       4.146  54.682   7.134  1.00  0.00    -0.362 OA
ATOM     23  C   UNL     1       4.292  51.804   7.447  1.00  0.00     0.177 C 
ATOM     24  C   UNL     1       4.131  53.880   5.957  1.00  0.00     0.176 C 
ATOM     25  C   UNL     1       4.851  52.521   6.187  1.00  0.00     0.177 C 
BRANCH  21  26
ATOM     26  O   UNL     1       3.548  52.166   9.732  1.00  0.00    -0.387 OA
ATOM     27  H   UNL     1       4.005  52.473  10.559  1.00  0.00     0.211 HD
ENDBRANCH  21  26
BRANCH  23  28
ATOM     28  O   UNL     1       5.108  50.717   7.799  1.00  0.00    -0.387 OA
ATOM     29  H   UNL     1       5.902  51.095   8.265  1.00  0.00     0.211 HD
ENDBRANCH  23  28
BRANCH  24  30
ATOM     30  C   UNL     1       4.710  54.710   4.797  1.00  0.00     0.191 C 
BRANCH  30  31
ATOM     31  O   UNL     1       3.949  54.565   3.621  1.00  0.00    -0.394 OA
ATOM     32  H   UNL     1       3.398  55.384   3.511  1.00  0.00     0.210 HD
ENDBRANCH  30  31
ENDBRANCH  24  30
BRANCH  25  33
ATOM     33  O   UNL     1       6.253  52.661   6.242  1.00  0.00    -0.388 OA
ATOM     34  H   UNL     1       6.577  52.196   7.059  1.00  0.00     0.211 HD
ENDBRANCH  25  33
ENDBRANCH  11  20
BRANCH  10  35
ATOM     35  O   UNL     1       4.771  56.800   8.997  1.00  0.00    -0.507 OA
ATOM     36  H   UNL     1       5.649  56.316   8.944  1.00  0.00     0.293 HD
ENDBRANCH  10  35
TORSDOF 9
ENDMDL
MODEL 5
REMARK VINA RESULT:    -5.985      4.061      7.739
REMARK INTER + INTRA:          -8.872
REMARK INTER:                  -8.411
REMARK INTRA:                  -0.461
REMARK UNBOUND:                -0.787
REMARK SMILES O=c1c(-c2ccc(O)cc2)coc2c([C@H]3O[C@@H](CO)[C@@H](O)[C@@H](O)[C@@H]3O)c(O)ccc12
REMARK SMILES IDX 3 1 11 2 12 3 13 4 30 5 2 6 1 7 29 8 28 9 26 10 14 11 4 12
REMARK SMILES IDX 5 13 6 14 7 15 10 16 9 17 8 18 15 20 24 21 16 22 22 23 17 24
REMARK SMILES IDX 20 25 25 26 23 28 18 30 19 31 21 33 27 35
REMARK H PARENT 8 19 25 27 23 29 19 32 21 34 27 36
REMARK Flexibility Score: inf
ROOT
ATOM      1  C   UNL     1      -0.447  57.083  10.668  1.00  0.00     0.065 A 
ATOM      2  C   UNL     1      -0.276  56.040   9.757  1.00  0.00     0.208 A 
ATOM      3  O   UNL     1       0.935  55.615   9.435  1.00  0.00    -0.463 OA
ATOM      4  C   UNL     1       2.054  56.106   9.966  1.00  0.00     0.147 A 
ATOM      5  C   UNL     1       1.967  57.170  10.894  1.00  0.00     0.066 A 
ATOM      6  C   UNL     1       0.692  57.656  11.246  1.00  0.00     0.200 A 
ATOM      7  O   UNL     1       0.570  58.577  12.103  1.00  0.00    -0.288 OA
ATOM      8  C   UNL     1       3.137  57.694  11.449  1.00  0.00     0.020 A 
ATOM      9  C   UNL     1       4.374  57.197  11.064  1.00  0.00     0.047 A 
ATOM     10  C   UNL     1       4.490  56.151  10.139  1.00  0.00     0.125 A 
ATOM     11  C   UNL     1       3.309  55.534   9.615  1.00  0.00     0.069 A 
ENDROOT
BRANCH   1  12
ATOM     12  C   UNL     1      -1.806  57.523  11.033  1.00  0.00    -0.011 A 
ATOM     13  C   UNL     1      -2.341  58.702  10.482  1.00  0.00     0.013 A 
ATOM     14  C   UNL     1      -3.618  59.135  10.856  1.00  0.00     0.047 A 
ATOM     15  C   UNL     1      -4.358  58.420  11.808  1.00  0.00     0.115 A 
ATOM     16  C   UNL     1      -2.559  56.792  11.964  1.00  0.00     0.013 A 
ATOM     17  C   UNL     1      -3.824  57.247  12.361  1.00  0.00     0.047 A 
BRANCH  15  18
ATOM     18  O   UNL     1      -5.613  58.887  12.201  1.00  0.00    -0.508 OA
ATOM     19  H   UNL     1      -5.833  59.876  12.207  1.00  0.00     0.293 HD
ENDBRANCH  15  18
ENDBRANCH   1  12
BRANCH  11  20
ATOM     20  C   UNL     1       3.230  54.299   8.695  1.00  0.00     0.188 C 
ATOM     21  C   UNL     1       3.160  54.446   7.156  1.00  0.00     0.179 C 
ATOM     22  O   UNL     1       2.195  53.443   9.139  1.00  0.00    -0.362 OA
ATOM     23  C   UNL     1       3.365  53.058   6.514  1.00  0.00     0.177 C 
ATOM     24  C   UNL     1       2.437  52.109   8.704  1.00  0.00     0.176 C 
ATOM     25  C   UNL     1       2.418  52.004   7.152  1.00  0.00     0.177 C 
BRANCH  21  26
ATOM     26  O   UNL     1       4.111  55.366   6.674  1.00  0.00    -0.387 OA
ATOM     27  H   UNL     1       4.432  55.036   5.793  1.00  0.00     0.211 HD
ENDBRANCH  21  26
BRANCH  23  28
ATOM     28  O   UNL     1       3.154  53.138   5.129  1.00  0.00    -0.387 OA
ATOM     29  H   UNL     1       2.430  53.807   4.988  1.00  0.00     0.211 HD
ENDBRANCH  23  28
BRANCH  24  30
ATOM     30  C   UNL     1       1.434  51.178   9.409  1.00  0.00     0.191 C 
BRANCH  30  31
ATOM     31  O   UNL     1       1.233  49.985   8.689  1.00  0.00    -0.394 OA
ATOM     32  H   UNL     1       0.258  49.794   8.680  1.00  0.00     0.210 HD
ENDBRANCH  30  31
ENDBRANCH  24  30
BRANCH  25  33
ATOM     33  O   UNL     1       1.112  52.087   6.627  1.00  0.00    -0.388 OA
ATOM     34  H   UNL     1       0.719  51.173   6.636  1.00  0.00     0.211 HD
ENDBRANCH  25  33
ENDBRANCH  11  20
BRANCH  10  35
ATOM     35  O   UNL     1       5.798  55.816   9.786  1.00  0.00    -0.507 OA
ATOM     36  H   UNL     1       6.122  55.616   8.858  1.00  0.00     0.293 HD
ENDBRANCH  10  35
TORSDOF 9
ENDMDL
MODEL 6
REMARK VINA RESULT:    -5.847     11.423     13.695
REMARK INTER + INTRA:          -8.685
REMARK INTER:                  -7.953
REMARK INTRA:                  -0.732
REMARK UNBOUND:                -0.787
REMARK SMILES O=c1c(-c2ccc(O)cc2)coc2c([C@H]3O[C@@H](CO)[C@@H](O)[C@@H](O)[C@@H]3O)c(O)ccc12
REMARK SMILES IDX 3 1 11 2 12 3 13 4 30 5 2 6 1 7 29 8 28 9 26 10 14 11 4 12
REMARK SMILES IDX 5 13 6 14 7 15 10 16 9 17 8 18 15 20 24 21 16 22 22 23 17 24
REMARK SMILES IDX 20 25 25 26 23 28 18 30 19 31 21 33 27 35
REMARK H PARENT 8 19 25 27 23 29 19 32 21 34 27 36
REMARK Flexibility Score: inf
ROOT
ATOM      1  C   UNL     1      -5.513  62.232   4.739  1.00  0.00     0.065 A 
ATOM      2  C   UNL     1      -4.733  61.585   5.698  1.00  0.00     0.208 A 
ATOM      3  O   UNL     1      -4.139  62.270   6.662  1.00  0.00    -0.463 OA
ATOM      4  C   UNL     1      -4.264  63.588   6.814  1.00  0.00     0.147 A 
ATOM      5  C   UNL     1      -5.033  64.320   5.880  1.00  0.00     0.066 A 
ATOM      6  C   UNL     1      -5.666  63.621   4.832  1.00  0.00     0.200 A 
ATOM      7  O   UNL     1      -6.396  64.233   4.002  1.00  0.00    -0.288 OA
ATOM      8  C   UNL     1      -5.161  65.703   6.030  1.00  0.00     0.020 A 
ATOM      9  C   UNL     1      -4.509  66.355   7.066  1.00  0.00     0.047 A 
ATOM     10  C   UNL     1      -3.731  65.656   8.000  1.00  0.00     0.125 A 
ATOM     11  C   UNL     1      -3.648  64.228   7.927  1.00  0.00     0.069 A 
ENDROOT
BRANCH   1  12
ATOM     12  C   UNL     1      -6.189  61.447   3.691  1.00  0.00    -0.011 A 
ATOM     13  C   UNL     1      -7.453  61.841   3.216  1.00  0.00     0.013 A 
ATOM     14  C   UNL     1      -8.108  61.076   2.243  1.00  0.00     0.047 A 
ATOM     15  C   UNL     1      -7.527  59.894   1.764  1.00  0.00     0.115 A 
ATOM     16  C   UNL     1      -5.595  60.280   3.188  1.00  0.00     0.013 A 
ATOM     17  C   UNL     1      -6.269  59.498   2.240  1.00  0.00     0.047 A 
BRANCH  15  18
ATOM     18  O   UNL     1      -8.210  59.120   0.824  1.00  0.00    -0.508 OA
ATOM     19  H   UNL     1      -9.222  59.072   0.811  1.00  0.00     0.293 HD
ENDBRANCH  15  18
ENDBRANCH   1  12
BRANCH  11  20
ATOM     20  C   UNL     1      -2.955  63.280   8.926  1.00  0.00     0.188 C 
ATOM     21  C   UNL     1      -3.746  62.602  10.070  1.00  0.00     0.179 C 
ATOM     22  O   UNL     1      -1.801  63.907   9.452  1.00  0.00    -0.362 OA
ATOM     23  C   UNL     1      -2.855  61.521  10.716  1.00  0.00     0.177 C 
ATOM     24  C   UNL     1      -0.874  62.929   9.912  1.00  0.00     0.176 C 
ATOM     25  C   UNL     1      -1.461  62.097  11.087  1.00  0.00     0.177 C 
BRANCH  21  26
ATOM     26  O   UNL     1      -4.955  62.045   9.611  1.00  0.00    -0.387 OA
ATOM     27  H   UNL     1      -4.819  61.756   8.670  1.00  0.00     0.211 HD
ENDBRANCH  21  26
BRANCH  23  28
ATOM     28  O   UNL     1      -3.490  60.996  11.853  1.00  0.00    -0.387 OA
ATOM     29  H   UNL     1      -4.451  61.249  11.785  1.00  0.00     0.211 HD
ENDBRANCH  23  28
BRANCH  24  30
ATOM     30  C   UNL     1       0.453  63.636  10.242  1.00  0.00     0.191 C 
BRANCH  30  31
ATOM     31  O   UNL     1       0.258  64.751  11.078  1.00  0.00    -0.394 OA
ATOM     32  H   UNL     1       0.245  64.430  12.019  1.00  0.00     0.210 HD
ENDBRANCH  30  31
ENDBRANCH  24  30
BRANCH  25  33
ATOM     33  O   UNL     1      -1.499  62.829  12.292  1.00  0.00    -0.388 OA
ATOM     34  H   UNL     1      -2.416  62.753  12.669  1.00  0.00     0.211 HD
ENDBRANCH  25  33
ENDBRANCH  11  20
BRANCH  10  35
ATOM     35  O   UNL     1      -3.069  66.455   8.933  1.00  0.00    -0.507 OA
ATOM     36  H   UNL     1      -2.690  66.142   9.808  1.00  0.00     0.293 HD
ENDBRANCH  10  35
TORSDOF 9
ENDMDL
MODEL 7
REMARK VINA RESULT:    -5.760      1.686      2.633
REMARK INTER + INTRA:          -8.568
REMARK INTER:                  -8.709
REMARK INTRA:                   0.141
REMARK UNBOUND:                -0.787
REMARK SMILES O=c1c(-c2ccc(O)cc2)coc2c([C@H]3O[C@@H](CO)[C@@H](O)[C@@H](O)[C@@H]3O)c(O)ccc12
REMARK SMILES IDX 3 1 11 2 12 3 13 4 30 5 2 6 1 7 29 8 28 9 26 10 14 11 4 12
REMARK SMILES IDX 5 13 6 14 7 15 10 16 9 17 8 18 15 20 24 21 16 22 22 23 17 24
REMARK SMILES IDX 20 25 25 26 23 28 18 30 19 31 21 33 27 35
REMARK H PARENT 8 19 25 27 23 29 19 32 21 34 27 36
REMARK Flexibility Score: inf
ROOT
ATOM      1  C   UNL     1       3.327  51.941   7.914  1.00  0.00     0.065 A 
ATOM      2  C   UNL     1       1.965  51.840   8.200  1.00  0.00     0.208 A 
ATOM      3  O   UNL     1       1.541  51.133   9.235  1.00  0.00    -0.463 OA
ATOM      4  C   UNL     1       2.357  50.509  10.085  1.00  0.00     0.147 A 
ATOM      5  C   UNL     1       3.752  50.557   9.862  1.00  0.00     0.066 A 
ATOM      6  C   UNL     1       4.234  51.290   8.758  1.00  0.00     0.200 A 
ATOM      7  O   UNL     1       5.477  51.392   8.550  1.00  0.00    -0.288 OA
ATOM      8  C   UNL     1       4.611  49.900  10.746  1.00  0.00     0.020 A 
ATOM      9  C   UNL     1       4.095  49.176  11.811  1.00  0.00     0.047 A 
ATOM     10  C   UNL     1       2.715  49.103  12.049  1.00  0.00     0.125 A 
ATOM     11  C   UNL     1       1.812  49.835  11.214  1.00  0.00     0.069 A 
ENDROOT
BRANCH   1  12
ATOM     12  C   UNL     1       3.779  52.756   6.773  1.00  0.00    -0.011 A 
ATOM     13  C   UNL     1       2.883  53.626   6.125  1.00  0.00     0.013 A 
ATOM     14  C   UNL     1       3.306  54.376   5.020  1.00  0.00     0.047 A 
ATOM     15  C   UNL     1       4.611  54.238   4.529  1.00  0.00     0.115 A 
ATOM     16  C   UNL     1       5.094  52.641   6.299  1.00  0.00     0.013 A 
ATOM     17  C   UNL     1       5.504  53.367   5.172  1.00  0.00     0.047 A 
BRANCH  15  18
ATOM     18  O   UNL     1       5.006  54.960   3.403  1.00  0.00    -0.508 OA
ATOM     19  H   UNL     1       5.938  54.871   3.015  1.00  0.00     0.293 HD
ENDBRANCH  15  18
ENDBRANCH   1  12
BRANCH  11  20
ATOM     20  C   UNL     1       0.287  49.982  11.392  1.00  0.00     0.188 C 
ATOM     21  C   UNL     1      -0.701  49.451  10.326  1.00  0.00     0.179 C 
ATOM     22  O   UNL     1      -0.026  51.326  11.703  1.00  0.00    -0.362 OA
ATOM     23  C   UNL     1      -2.130  49.498  10.907  1.00  0.00     0.177 C 
ATOM     24  C   UNL     1      -1.269  51.397  12.393  1.00  0.00     0.176 C 
ATOM     25  C   UNL     1      -2.443  50.898  11.503  1.00  0.00     0.177 C 
BRANCH  21  26
ATOM     26  O   UNL     1      -0.372  48.146   9.912  1.00  0.00    -0.387 OA
ATOM     27  H   UNL     1      -1.011  47.520  10.345  1.00  0.00     0.211 HD
ENDBRANCH  21  26
BRANCH  23  28
ATOM     28  O   UNL     1      -3.061  49.167   9.910  1.00  0.00    -0.387 OA
ATOM     29  H   UNL     1      -2.537  48.864   9.119  1.00  0.00     0.211 HD
ENDBRANCH  23  28
BRANCH  24  30
ATOM     30  C   UNL     1      -1.449  52.830  12.925  1.00  0.00     0.191 C 
BRANCH  30  31
ATOM     31  O   UNL     1      -1.122  53.794  11.952  1.00  0.00    -0.394 OA
ATOM     32  H   UNL     1      -0.143  53.745  11.790  1.00  0.00     0.210 HD
ENDBRANCH  30  31
ENDBRANCH  24  30
BRANCH  25  33
ATOM     33  O   UNL     1      -2.787  51.830  10.502  1.00  0.00    -0.388 OA
ATOM     34  H   UNL     1      -3.129  51.324   9.716  1.00  0.00     0.211 HD
ENDBRANCH  25  33
ENDBRANCH  11  20
BRANCH  10  35
ATOM     35  O   UNL     1       2.342  48.271  13.105  1.00  0.00    -0.507 OA
ATOM     36  H   UNL     1       2.497  47.280  13.154  1.00  0.00     0.293 HD
ENDBRANCH  10  35
TORSDOF 9
ENDMDL
MODEL 8
REMARK VINA RESULT:    -5.723      1.829      2.077
REMARK INTER + INTRA:          -8.517
REMARK INTER:                  -7.678
REMARK INTRA:                  -0.839
REMARK UNBOUND:                -0.787
REMARK SMILES O=c1c(-c2ccc(O)cc2)coc2c([C@H]3O[C@@H](CO)[C@@H](O)[C@@H](O)[C@@H]3O)c(O)ccc12
REMARK SMILES IDX 3 1 11 2 12 3 13 4 30 5 2 6 1 7 29 8 28 9 26 10 14 11 4 12
REMARK SMILES IDX 5 13 6 14 7 15 10 16 9 17 8 18 15 20 24 21 16 22 22 23 17 24
REMARK SMILES IDX 20 25 25 26 23 28 18 30 19 31 21 33 27 35
REMARK H PARENT 8 19 25 27 23 29 19 32 21 34 27 36
REMARK Flexibility Score: inf
ROOT
ATOM      1  C   UNL     1       3.058  54.021   7.374  1.00  0.00     0.065 A 
ATOM      2  C   UNL     1       2.001  53.120   7.494  1.00  0.00     0.208 A 
ATOM      3  O   UNL     1       1.277  53.069   8.601  1.00  0.00    -0.463 OA
ATOM      4  C   UNL     1       1.469  53.876   9.644  1.00  0.00     0.147 A 
ATOM      5  C   UNL     1       2.525  54.815   9.604  1.00  0.00     0.066 A 
ATOM      6  C   UNL     1       3.324  54.883   8.445  1.00  0.00     0.200 A 
ATOM      7  O   UNL     1       4.251  55.737   8.354  1.00  0.00    -0.288 OA
ATOM      8  C   UNL     1       2.735  55.659  10.698  1.00  0.00     0.020 A 
ATOM      9  C   UNL     1       1.936  55.549  11.826  1.00  0.00     0.047 A 
ATOM     10  C   UNL     1       0.889  54.620  11.897  1.00  0.00     0.125 A 
ATOM     11  C   UNL     1       0.591  53.798  10.763  1.00  0.00     0.069 A 
ENDROOT
BRANCH   1  12
ATOM     12  C   UNL     1       3.834  54.080   6.122  1.00  0.00    -0.011 A 
ATOM     13  C   UNL     1       5.059  53.397   6.015  1.00  0.00     0.013 A 
ATOM     14  C   UNL     1       5.810  53.482   4.836  1.00  0.00     0.047 A 
ATOM     15  C   UNL     1       5.367  54.275   3.770  1.00  0.00     0.115 A 
ATOM     16  C   UNL     1       3.376  54.850   5.042  1.00  0.00     0.013 A 
ATOM     17  C   UNL     1       4.148  54.960   3.877  1.00  0.00     0.047 A 
BRANCH  15  18
ATOM     18  O   UNL     1       6.146  54.382   2.617  1.00  0.00    -0.508 OA
ATOM     19  H   UNL     1       6.082  53.703   1.868  1.00  0.00     0.293 HD
ENDBRANCH  15  18
ENDBRANCH   1  12
BRANCH  11  20
ATOM     20  C   UNL     1      -0.588  52.818  10.603  1.00  0.00     0.188 C 
ATOM     21  C   UNL     1      -2.019  53.203  11.050  1.00  0.00     0.179 C 
ATOM     22  O   UNL     1      -0.239  51.563  11.153  1.00  0.00    -0.362 OA
ATOM     23  C   UNL     1      -3.007  52.144  10.517  1.00  0.00     0.177 C 
ATOM     24  C   UNL     1      -1.020  50.530  10.561  1.00  0.00     0.176 C 
ATOM     25  C   UNL     1      -2.532  50.709  10.876  1.00  0.00     0.177 C 
BRANCH  21  26
ATOM     26  O   UNL     1      -2.377  54.490  10.606  1.00  0.00    -0.387 OA
ATOM     27  H   UNL     1      -2.615  55.032  11.405  1.00  0.00     0.211 HD
ENDBRANCH  21  26
BRANCH  23  28
ATOM     28  O   UNL     1      -4.289  52.385  11.035  1.00  0.00    -0.387 OA
ATOM     29  H   UNL     1      -4.164  52.905  11.875  1.00  0.00     0.211 HD
ENDBRANCH  23  28
BRANCH  24  30
ATOM     30  C   UNL     1      -0.443  49.172  11.000  1.00  0.00     0.191 C 
BRANCH  30  31
ATOM     31  O   UNL     1      -0.672  48.170  10.038  1.00  0.00    -0.394 OA
ATOM     32  H   UNL     1      -0.710  48.607   9.146  1.00  0.00     0.210 HD
ENDBRANCH  30  31
ENDBRANCH  24  30
BRANCH  25  33
ATOM     33  O   UNL     1      -2.844  50.372  12.209  1.00  0.00    -0.388 OA
ATOM     34  H   UNL     1      -3.676  49.827  12.202  1.00  0.00     0.211 HD
ENDBRANCH  25  33
ENDBRANCH  11  20
BRANCH  10  35
ATOM     35  O   UNL     1       0.228  54.567  13.125  1.00  0.00    -0.507 OA
ATOM     36  H   UNL     1       0.668  54.535  14.026  1.00  0.00     0.293 HD
ENDBRANCH  10  35
TORSDOF 9
ENDMDL
MODEL 9
REMARK VINA RESULT:    -5.714     13.042     15.490
REMARK INTER + INTRA:          -8.505
REMARK INTER:                  -7.609
REMARK INTRA:                  -0.896
REMARK UNBOUND:                -0.787
REMARK SMILES O=c1c(-c2ccc(O)cc2)coc2c([C@H]3O[C@@H](CO)[C@@H](O)[C@@H](O)[C@@H]3O)c(O)ccc12
REMARK SMILES IDX 3 1 11 2 12 3 13 4 30 5 2 6 1 7 29 8 28 9 26 10 14 11 4 12
REMARK SMILES IDX 5 13 6 14 7 15 10 16 9 17 8 18 15 20 24 21 16 22 22 23 17 24
REMARK SMILES IDX 20 25 25 26 23 28 18 30 19 31 21 33 27 35
REMARK H PARENT 8 19 25 27 23 29 19 32 21 34 27 36
REMARK Flexibility Score: inf
ROOT
ATOM      1  C   UNL     1      -3.741  63.334   7.583  1.00  0.00     0.065 A 
ATOM      2  C   UNL     1      -4.376  64.509   7.182  1.00  0.00     0.208 A 
ATOM      3  O   UNL     1      -5.322  64.487   6.258  1.00  0.00    -0.463 OA
ATOM      4  C   UNL     1      -5.760  63.369   5.679  1.00  0.00     0.147 A 
ATOM      5  C   UNL     1      -5.164  62.134   6.026  1.00  0.00     0.066 A 
ATOM      6  C   UNL     1      -4.142  62.127   6.996  1.00  0.00     0.200 A 
ATOM      7  O   UNL     1      -3.614  61.039   7.364  1.00  0.00    -0.288 OA
ATOM      8  C   UNL     1      -5.614  60.960   5.417  1.00  0.00     0.020 A 
ATOM      9  C   UNL     1      -6.611  61.012   4.454  1.00  0.00     0.047 A 
ATOM     10  C   UNL     1      -7.212  62.224   4.084  1.00  0.00     0.125 A 
ATOM     11  C   UNL     1      -6.836  63.434   4.748  1.00  0.00     0.069 A 
ENDROOT
BRANCH   1  12
ATOM     12  C   UNL     1      -2.710  63.378   8.635  1.00  0.00    -0.011 A 
ATOM     13  C   UNL     1      -1.347  63.426   8.288  1.00  0.00     0.013 A 
ATOM     14  C   UNL     1      -0.367  63.435   9.288  1.00  0.00     0.047 A 
ATOM     15  C   UNL     1      -0.733  63.358  10.638  1.00  0.00     0.115 A 
ATOM     16  C   UNL     1      -3.076  63.332   9.988  1.00  0.00     0.013 A 
ATOM     17  C   UNL     1      -2.091  63.306  10.985  1.00  0.00     0.047 A 
BRANCH  15  18
ATOM     18  O   UNL     1       0.256  63.326  11.622  1.00  0.00    -0.508 OA
ATOM     19  H   UNL     1       0.776  62.481  11.824  1.00  0.00     0.293 HD
ENDBRANCH  15  18
ENDBRANCH   1  12
BRANCH  11  20
ATOM     20  C   UNL     1      -7.466  64.831   4.574  1.00  0.00     0.188 C 
ATOM     21  C   UNL     1      -8.357  65.453   5.675  1.00  0.00     0.179 C 
ATOM     22  O   UNL     1      -8.132  64.898   3.328  1.00  0.00    -0.362 OA
ATOM     23  C   UNL     1      -8.605  66.937   5.332  1.00  0.00     0.177 C 
ATOM     24  C   UNL     1      -8.234  66.250   2.894  1.00  0.00     0.176 C 
ATOM     25  C   UNL     1      -9.102  67.096   3.869  1.00  0.00     0.177 C 
BRANCH  21  26
ATOM     26  O   UNL     1      -7.778  65.325   6.951  1.00  0.00    -0.387 OA
ATOM     27  H   UNL     1      -7.858  64.372   7.227  1.00  0.00     0.211 HD
ENDBRANCH  21  26
BRANCH  23  28
ATOM     28  O   UNL     1      -9.534  67.485   6.231  1.00  0.00    -0.387 OA
ATOM     29  H   UNL     1      -9.043  68.162   6.772  1.00  0.00     0.211 HD
ENDBRANCH  23  28
BRANCH  24  30
ATOM     30  C   UNL     1      -8.735  66.257   1.439  1.00  0.00     0.191 C 
BRANCH  30  31
ATOM     31  O   UNL     1     -10.086  65.870   1.349  1.00  0.00    -0.394 OA
ATOM     32  H   UNL     1     -10.265  65.601   0.409  1.00  0.00     0.210 HD
ENDBRANCH  30  31
ENDBRANCH  24  30
BRANCH  25  33
ATOM     33  O   UNL     1     -10.476  66.807   3.747  1.00  0.00    -0.388 OA
ATOM     34  H   UNL     1     -10.593  65.823   3.835  1.00  0.00     0.211 HD
ENDBRANCH  25  33
ENDBRANCH  11  20
BRANCH  10  35
ATOM     35  O   UNL     1      -8.138  62.130   3.044  1.00  0.00    -0.507 OA
ATOM     36  H   UNL     1      -8.595  62.902   2.595  1.00  0.00     0.293 HD
ENDBRANCH  10  35
TORSDOF 9
ENDMDL
