MODEL 1
REMARK VINA RESULT:    -2.984      0.000      0.000
REMARK INTER + INTRA:          -3.767
REMARK INTER:                  -3.682
REMARK INTRA:                  -0.085
REMARK UNBOUND:                -0.085
REMARK SMILES CCCCCC(=O)[O-]
REMARK SMILES IDX 4 1 5 2 6 3 7 4 8 5 3 6 2 7 1 8
REMARK H PARENT
REMARK Flexibility Score: inf
ROOT
ATOM      1  C   UNL     1      43.671  31.335  88.987  1.00  0.00     0.006 C 
ENDROOT
BRANCH   1   2
ATOM      2  C   UNL     1      43.973  30.546  90.266  1.00  0.00     0.053 C 
BRANCH   2   3
ATOM      3  C   UNL     1      44.883  31.329  91.160  1.00  0.00     0.041 C 
ATOM      4  O   UNL     1      46.042  31.633  90.773  1.00  0.00    -0.550 OA
ATOM      5  O   UNL     1      44.469  31.680  92.438  1.00  0.00    -0.550 OA
ENDBRANCH   2   3
ENDBRANCH   1   2
BRANCH   1   6
ATOM      6  C   UNL     1      42.822  30.540  87.978  1.00  0.00     0.000 C 
BRANCH   6   7
ATOM      7  C   UNL     1      41.540  31.252  87.510  1.00  0.00    -0.003 C 
ATOM      8  C   UNL     1      40.292  30.791  88.263  1.00  0.00     0.004 C 
ENDBRANCH   6   7
ENDBRANCH   1   6
TORSDOF 4
ENDMDL
MODEL 2
REMARK VINA RESULT:    -2.951      1.193      1.622
REMARK INTER + INTRA:          -3.727
REMARK INTER:                  -3.546
REMARK INTRA:                  -0.181
REMARK UNBOUND:                -0.085
REMARK SMILES CCCCCC(=O)[O-]
REMARK SMILES IDX 4 1 5 2 6 3 7 4 8 5 3 6 2 7 1 8
REMARK H PARENT
REMARK Flexibility Score: inf
ROOT
ATOM      1  C   UNL     1      42.990  30.435  88.262  1.00  0.00     0.006 C 
ENDROOT
BRANCH   1   2
ATOM      2  C   UNL     1      43.969  31.338  89.023  1.00  0.00     0.053 C 
BRANCH   2   3
ATOM      3  C   UNL     1      44.229  30.789  90.392  1.00  0.00     0.041 C 
ATOM      4  O   UNL     1      43.766  29.666  90.721  1.00  0.00    -0.550 OA
ATOM      5  O   UNL     1      44.938  31.541  91.319  1.00  0.00    -0.550 OA
ENDBRANCH   2   3
ENDBRANCH   1   2
BRANCH   1   6
ATOM      6  C   UNL     1      41.839  31.219  87.606  1.00  0.00     0.000 C 
BRANCH   6   7
ATOM      7  C   UNL     1      40.433  30.843  88.107  1.00  0.00    -0.003 C 
ATOM      8  C   UNL     1      40.457  30.039  89.406  1.00  0.00     0.004 C 
ENDBRANCH   6   7
ENDBRANCH   1   6
TORSDOF 4
ENDMDL
MODEL 3
REMARK VINA RESULT:    -2.935     16.447     17.287
REMARK INTER + INTRA:          -3.707
REMARK INTER:                  -3.598
REMARK INTRA:                  -0.108
REMARK UNBOUND:                -0.085
REMARK SMILES CCCCCC(=O)[O-]
REMARK SMILES IDX 4 1 5 2 6 3 7 4 8 5 3 6 2 7 1 8
REMARK H PARENT
REMARK Flexibility Score: inf
ROOT
ATOM      1  C   UNL     1      53.759  18.342  85.383  1.00  0.00     0.006 C 
ENDROOT
BRANCH   1   2
ATOM      2  C   UNL     1      52.466  18.216  84.569  1.00  0.00     0.053 C 
BRANCH   2   3
ATOM      3  C   UNL     1      51.353  18.961  85.238  1.00  0.00     0.041 C 
ATOM      4  O   UNL     1      51.599  20.001  85.904  1.00  0.00    -0.550 OA
ATOM      5  O   UNL     1      50.052  18.480  85.166  1.00  0.00    -0.550 OA
ENDBRANCH   2   3
ENDBRANCH   1   2
BRANCH   1   6
ATOM      6  C   UNL     1      54.996  18.609  84.506  1.00  0.00     0.000 C 
BRANCH   6   7
ATOM      7  C   UNL     1      55.891  17.382  84.261  1.00  0.00    -0.003 C 
ATOM      8  C   UNL     1      56.125  16.552  85.523  1.00  0.00     0.004 C 
ENDBRANCH   6   7
ENDBRANCH   1   6
TORSDOF 4
ENDMDL
MODEL 4
REMARK VINA RESULT:    -2.848     16.752     17.368
REMARK INTER + INTRA:          -3.600
REMARK INTER:                  -3.500
REMARK INTRA:                  -0.100
REMARK UNBOUND:                -0.085
REMARK SMILES CCCCCC(=O)[O-]
REMARK SMILES IDX 4 1 5 2 6 3 7 4 8 5 3 6 2 7 1 8
REMARK H PARENT
REMARK Flexibility Score: inf
ROOT
ATOM      1  C   UNL     1      54.184  19.020  84.595  1.00  0.00     0.006 C 
ENDROOT
BRANCH   1   2
ATOM      2  C   UNL     1      55.220  17.891  84.526  1.00  0.00     0.053 C 
BRANCH   2   3
ATOM      3  C   UNL     1      55.461  17.321  85.889  1.00  0.00     0.041 C 
ATOM      4  O   UNL     1      55.161  17.986  86.915  1.00  0.00    -0.550 OA
ATOM      5  O   UNL     1      56.063  16.077  86.026  1.00  0.00    -0.550 OA
ENDBRANCH   2   3
ENDBRANCH   1   2
BRANCH   1   6
ATOM      6  C   UNL     1      52.750  18.537  84.312  1.00  0.00     0.000 C 
BRANCH   6   7
ATOM      7  C   UNL     1      51.668  19.164  85.209  1.00  0.00    -0.003 C 
ATOM      8  C   UNL     1      50.320  18.451  85.105  1.00  0.00     0.004 C 
ENDBRANCH   6   7
ENDBRANCH   1   6
TORSDOF 4
ENDMDL
MODEL 5
REMARK VINA RESULT:    -2.829      1.355      2.047
REMARK INTER + INTRA:          -3.576
REMARK INTER:                  -3.473
REMARK INTRA:                  -0.102
REMARK UNBOUND:                -0.085
REMARK SMILES CCCCCC(=O)[O-]
REMARK SMILES IDX 4 1 5 2 6 3 7 4 8 5 3 6 2 7 1 8
REMARK H PARENT
REMARK Flexibility Score: inf
ROOT
ATOM      1  C   UNL     1      42.273  29.748  89.664  1.00  0.00     0.006 C 
ENDROOT
BRANCH   1   2
ATOM      2  C   UNL     1      42.686  29.618  91.136  1.00  0.00     0.053 C 
BRANCH   2   3
ATOM      3  C   UNL     1      43.873  30.483  91.423  1.00  0.00     0.041 C 
ATOM      4  O   UNL     1      44.267  30.642  92.608  1.00  0.00    -0.550 OA
ATOM      5  O   UNL     1      44.513  31.152  90.388  1.00  0.00    -0.550 OA
ENDBRANCH   2   3
ENDBRANCH   1   2
BRANCH   1   6
ATOM      6  C   UNL     1      40.759  29.953  89.482  1.00  0.00     0.000 C 
BRANCH   6   7
ATOM      7  C   UNL     1      40.360  30.738  88.220  1.00  0.00    -0.003 C 
ATOM      8  C   UNL     1      41.564  31.256  87.433  1.00  0.00     0.004 C 
ENDBRANCH   6   7
ENDBRANCH   1   6
TORSDOF 4
ENDMDL
MODEL 6
REMARK VINA RESULT:    -2.747      3.037      4.486
REMARK INTER + INTRA:          -3.475
REMARK INTER:                  -3.372
REMARK INTRA:                  -0.103
REMARK UNBOUND:                -0.085
REMARK SMILES CCCCCC(=O)[O-]
REMARK SMILES IDX 4 1 5 2 6 3 7 4 8 5 3 6 2 7 1 8
REMARK H PARENT
REMARK Flexibility Score: inf
ROOT
ATOM      1  C   UNL     1      43.801  31.389  88.985  1.00  0.00     0.006 C 
ENDROOT
BRANCH   1   2
ATOM      2  C   UNL     1      42.588  30.452  88.967  1.00  0.00     0.053 C 
BRANCH   2   3
ATOM      3  C   UNL     1      41.529  30.986  88.053  1.00  0.00     0.041 C 
ATOM      4  O   UNL     1      41.850  31.665  87.042  1.00  0.00    -0.550 OA
ATOM      5  O   UNL     1      40.188  30.775  88.344  1.00  0.00    -0.550 OA
ENDBRANCH   2   3
ENDBRANCH   1   2
BRANCH   1   6
ATOM      6  C   UNL     1      44.883  30.949  89.987  1.00  0.00     0.000 C 
BRANCH   6   7
ATOM      7  C   UNL     1      44.490  31.095  91.468  1.00  0.00    -0.003 C 
ATOM      8  C   UNL     1      44.665  29.801  92.263  1.00  0.00     0.004 C 
ENDBRANCH   6   7
ENDBRANCH   1   6
TORSDOF 4
ENDMDL
MODEL 7
REMARK VINA RESULT:    -2.673     15.248     15.974
REMARK INTER + INTRA:          -3.383
REMARK INTER:                  -3.275
REMARK INTRA:                  -0.108
REMARK UNBOUND:                -0.085
REMARK SMILES CCCCCC(=O)[O-]
REMARK SMILES IDX 4 1 5 2 6 3 7 4 8 5 3 6 2 7 1 8
REMARK H PARENT
REMARK Flexibility Score: inf
ROOT
ATOM      1  C   UNL     1      40.020  19.769  79.170  1.00  0.00     0.006 C 
ENDROOT
BRANCH   1   2
ATOM      2  C   UNL     1      38.895  20.514  79.898  1.00  0.00     0.053 C 
BRANCH   2   3
ATOM      3  C   UNL     1      37.914  19.542  80.475  1.00  0.00     0.041 C 
ATOM      4  O   UNL     1      37.361  19.782  81.580  1.00  0.00    -0.550 OA
ATOM      5  O   UNL     1      37.648  18.349  79.816  1.00  0.00    -0.550 OA
ENDBRANCH   2   3
ENDBRANCH   1   2
BRANCH   1   6
ATOM      6  C   UNL     1      41.415  20.086  79.739  1.00  0.00     0.000 C 
BRANCH   6   7
ATOM      7  C   UNL     1      42.390  20.732  78.739  1.00  0.00    -0.003 C 
ATOM      8  C   UNL     1      41.707  21.196  77.454  1.00  0.00     0.004 C 
ENDBRANCH   6   7
ENDBRANCH   1   6
TORSDOF 4
ENDMDL
MODEL 8
REMARK VINA RESULT:    -2.625     17.195     18.133
REMARK INTER + INTRA:          -3.324
REMARK INTER:                  -3.244
REMARK INTRA:                  -0.080
REMARK UNBOUND:                -0.085
REMARK SMILES CCCCCC(=O)[O-]
REMARK SMILES IDX 4 1 5 2 6 3 7 4 8 5 3 6 2 7 1 8
REMARK H PARENT
REMARK Flexibility Score: inf
ROOT
ATOM      1  C   UNL     1      47.014  20.047  77.576  1.00  0.00     0.006 C 
ENDROOT
BRANCH   1   2
ATOM      2  C   UNL     1      45.827  19.085  77.438  1.00  0.00     0.053 C 
BRANCH   2   3
ATOM      3  C   UNL     1      46.082  18.095  76.345  1.00  0.00     0.041 C 
ATOM      4  O   UNL     1      46.306  18.492  75.171  1.00  0.00    -0.550 OA
ATOM      5  O   UNL     1      46.024  16.734  76.613  1.00  0.00    -0.550 OA
ENDBRANCH   2   3
ENDBRANCH   1   2
BRANCH   1   6
ATOM      6  C   UNL     1      48.098  19.525  78.536  1.00  0.00     0.000 C 
BRANCH   6   7
ATOM      7  C   UNL     1      48.972  20.617  79.179  1.00  0.00    -0.003 C 
ATOM      8  C   UNL     1      50.386  20.667  78.601  1.00  0.00     0.004 C 
ENDBRANCH   6   7
ENDBRANCH   1   6
TORSDOF 4
ENDMDL
MODEL 9
REMARK VINA RESULT:    -2.615      4.043      5.293
REMARK INTER + INTRA:          -3.311
REMARK INTER:                  -3.032
REMARK INTRA:                  -0.280
REMARK UNBOUND:                -0.085
REMARK SMILES CCCCCC(=O)[O-]
REMARK SMILES IDX 4 1 5 2 6 3 7 4 8 5 3 6 2 7 1 8
REMARK H PARENT
REMARK Flexibility Score: inf
ROOT
ATOM      1  C   UNL     1      40.164  30.483  88.612  1.00  0.00     0.006 C 
ENDROOT
BRANCH   1   2
ATOM      2  C   UNL     1      39.283  29.442  87.909  1.00  0.00     0.053 C 
BRANCH   2   3
ATOM      3  C   UNL     1      40.127  28.349  87.330  1.00  0.00     0.041 C 
ATOM      4  O   UNL     1      40.848  27.642  88.081  1.00  0.00    -0.550 OA
ATOM      5  O   UNL     1      40.153  28.145  85.957  1.00  0.00    -0.550 OA
ENDBRANCH   2   3
ENDBRANCH   1   2
BRANCH   1   6
ATOM      6  C   UNL     1      41.099  31.229  87.642  1.00  0.00     0.000 C 
BRANCH   6   7
ATOM      7  C   UNL     1      42.598  31.103  87.965  1.00  0.00    -0.003 C 
ATOM      8  C   UNL     1      42.867  30.368  89.278  1.00  0.00     0.004 C 
ENDBRANCH   6   7
ENDBRANCH   1   6
TORSDOF 4
ENDMDL
