MODEL 1
REMARK VINA RESULT:    -4.173      0.000      0.000
REMARK INTER + INTRA:          -4.846
REMARK INTER:                  -5.027
REMARK INTRA:                   0.180
REMARK UNBOUND:                 0.180
REMARK SMILES CC[C@@H](C)[C@H]([NH3+])C(=O)[O-]
REMARK SMILES IDX 3 1 4 2 5 3 6 4 7 8 8 9 9 10 2 11 1 12
REMARK H PARENT 6 5 6 6 6 7
REMARK Flexibility Score: inf
ROOT
ATOM      1  C   UNL     1     -23.585   7.373 -14.844  1.00  0.00     0.050 C 
ATOM      2  C   UNL     1     -22.423   6.361 -14.799  1.00  0.00     0.014 C 
ENDROOT
BRANCH   1   3
ATOM      3  C   UNL     1     -24.798   6.843 -14.017  1.00  0.00     0.230 C 
BRANCH   3   4
ATOM      4  N   UNL     1     -24.415   6.485 -12.642  1.00  0.00    -0.350 N 
ATOM      5  H   UNL     1     -25.269   6.207 -12.106  1.00  0.00     0.345 HD
ATOM      6  H   UNL     1     -23.741   5.687 -12.624  1.00  0.00     0.345 HD
ATOM      7  H   UNL     1     -23.986   7.309 -12.163  1.00  0.00     0.345 HD
ENDBRANCH   3   4
BRANCH   3   8
ATOM      8  C   UNL     1     -25.508   5.696 -14.696  1.00  0.00     0.099 C 
ATOM      9  O   UNL     1     -26.692   5.824 -15.106  1.00  0.00    -0.544 OA
ATOM     10  O   UNL     1     -24.864   4.473 -14.839  1.00  0.00    -0.544 OA
ENDBRANCH   3   8
ENDBRANCH   1   3
BRANCH   1  11
ATOM     11  C   UNL     1     -23.116   8.784 -14.402  1.00  0.00     0.006 C 
ATOM     12  C   UNL     1     -23.748   9.907 -15.228  1.00  0.00     0.004 C 
ENDBRANCH   1  11
TORSDOF 4
ENDMDL
MODEL 2
REMARK VINA RESULT:    -4.163      2.438      3.105
REMARK INTER + INTRA:          -4.835
REMARK INTER:                  -4.988
REMARK INTRA:                   0.153
REMARK UNBOUND:                 0.180
REMARK SMILES CC[C@@H](C)[C@H]([NH3+])C(=O)[O-]
REMARK SMILES IDX 3 1 4 2 5 3 6 4 7 8 8 9 9 10 2 11 1 12
REMARK H PARENT 6 5 6 6 6 7
REMARK Flexibility Score: inf
ROOT
ATOM      1  C   UNL     1     -24.111   5.184 -14.500  1.00  0.00     0.050 C 
ATOM      2  C   UNL     1     -25.350   6.090 -14.357  1.00  0.00     0.014 C 
ENDROOT
BRANCH   1   3
ATOM      3  C   UNL     1     -24.453   3.929 -15.362  1.00  0.00     0.230 C 
BRANCH   3   4
ATOM      4  N   UNL     1     -23.589   2.783 -15.036  1.00  0.00    -0.350 N 
ATOM      5  H   UNL     1     -23.110   2.959 -14.123  1.00  0.00     0.345 HD
ATOM      6  H   UNL     1     -24.136   1.897 -14.955  1.00  0.00     0.345 HD
ATOM      7  H   UNL     1     -22.854   2.668 -15.771  1.00  0.00     0.345 HD
ENDBRANCH   3   4
BRANCH   3   8
ATOM      8  C   UNL     1     -24.431   4.217 -16.843  1.00  0.00     0.099 C 
ATOM      9  O   UNL     1     -25.503   4.389 -17.483  1.00  0.00    -0.544 OA
ATOM     10  O   UNL     1     -23.219   4.260 -17.521  1.00  0.00    -0.544 OA
ENDBRANCH   3   8
ENDBRANCH   1   3
BRANCH   1  11
ATOM     11  C   UNL     1     -22.895   5.982 -15.040  1.00  0.00     0.006 C 
ATOM     12  C   UNL     1     -22.952   7.469 -14.684  1.00  0.00     0.004 C 
ENDBRANCH   1  11
TORSDOF 4
ENDMDL
MODEL 3
REMARK VINA RESULT:    -4.120      1.975      2.621
REMARK INTER + INTRA:          -4.782
REMARK INTER:                  -4.696
REMARK INTRA:                  -0.086
REMARK UNBOUND:                 0.180
REMARK SMILES CC[C@@H](C)[C@H]([NH3+])C(=O)[O-]
REMARK SMILES IDX 3 1 4 2 5 3 6 4 7 8 8 9 9 10 2 11 1 12
REMARK H PARENT 6 5 6 6 6 7
REMARK Flexibility Score: inf
ROOT
ATOM      1  C   UNL     1     -24.168   6.152 -14.233  1.00  0.00     0.050 C 
ATOM      2  C   UNL     1     -25.153   7.170 -13.627  1.00  0.00     0.014 C 
ENDROOT
BRANCH   1   3
ATOM      3  C   UNL     1     -24.872   5.310 -15.343  1.00  0.00     0.230 C 
BRANCH   3   4
ATOM      4  N   UNL     1     -26.225   4.891 -14.944  1.00  0.00    -0.350 N 
ATOM      5  H   UNL     1     -26.847   5.731 -14.893  1.00  0.00     0.345 HD
ATOM      6  H   UNL     1     -26.638   4.217 -15.626  1.00  0.00     0.345 HD
ATOM      7  H   UNL     1     -26.199   4.450 -13.996  1.00  0.00     0.345 HD
ENDBRANCH   3   4
BRANCH   3   8
ATOM      8  C   UNL     1     -24.048   4.124 -15.784  1.00  0.00     0.099 C 
ATOM      9  O   UNL     1     -23.859   3.148 -15.010  1.00  0.00    -0.544 OA
ATOM     10  O   UNL     1     -23.460   4.121 -17.043  1.00  0.00    -0.544 OA
ENDBRANCH   3   8
ENDBRANCH   1   3
BRANCH   1  11
ATOM     11  C   UNL     1     -22.874   6.851 -14.728  1.00  0.00     0.006 C 
ATOM     12  C   UNL     1     -23.016   8.373 -14.813  1.00  0.00     0.004 C 
ENDBRANCH   1  11
TORSDOF 4
ENDMDL
MODEL 4
REMARK VINA RESULT:    -4.017      2.315      3.871
REMARK INTER + INTRA:          -4.658
REMARK INTER:                  -4.549
REMARK INTRA:                  -0.109
REMARK UNBOUND:                 0.180
REMARK SMILES CC[C@@H](C)[C@H]([NH3+])C(=O)[O-]
REMARK SMILES IDX 3 1 4 2 5 3 6 4 7 8 8 9 9 10 2 11 1 12
REMARK H PARENT 6 5 6 6 6 7
REMARK Flexibility Score: inf
ROOT
ATOM      1  C   UNL     1     -25.153   5.615 -15.136  1.00  0.00     0.050 C 
ATOM      2  C   UNL     1     -26.683   5.469 -15.014  1.00  0.00     0.014 C 
ENDROOT
BRANCH   1   3
ATOM      3  C   UNL     1     -24.603   6.535 -14.001  1.00  0.00     0.230 C 
BRANCH   3   4
ATOM      4  N   UNL     1     -25.679   7.259 -13.306  1.00  0.00    -0.350 N 
ATOM      5  H   UNL     1     -25.259   7.944 -12.637  1.00  0.00     0.345 HD
ATOM      6  H   UNL     1     -26.287   7.783 -13.975  1.00  0.00     0.345 HD
ATOM      7  H   UNL     1     -26.266   6.589 -12.759  1.00  0.00     0.345 HD
ENDBRANCH   3   4
BRANCH   3   8
ATOM      8  C   UNL     1     -23.539   7.488 -14.490  1.00  0.00     0.099 C 
ATOM      9  O   UNL     1     -22.385   7.073 -14.777  1.00  0.00    -0.544 OA
ATOM     10  O   UNL     1     -23.822   8.845 -14.593  1.00  0.00    -0.544 OA
ENDBRANCH   3   8
ENDBRANCH   1   3
BRANCH   1  11
ATOM     11  C   UNL     1     -24.461   4.226 -15.185  1.00  0.00     0.006 C 
ATOM     12  C   UNL     1     -23.701   3.986 -16.491  1.00  0.00     0.004 C 
ENDBRANCH   1  11
TORSDOF 4
ENDMDL
MODEL 5
REMARK VINA RESULT:    -3.988      2.801      3.347
REMARK INTER + INTRA:          -4.624
REMARK INTER:                  -4.726
REMARK INTRA:                   0.102
REMARK UNBOUND:                 0.180
REMARK SMILES CC[C@@H](C)[C@H]([NH3+])C(=O)[O-]
REMARK SMILES IDX 3 1 4 2 5 3 6 4 7 8 8 9 9 10 2 11 1 12
REMARK H PARENT 6 5 6 6 6 7
REMARK Flexibility Score: inf
ROOT
ATOM      1  C   UNL     1     -24.091   5.620 -15.164  1.00  0.00     0.050 C 
ATOM      2  C   UNL     1     -22.569   5.860 -15.128  1.00  0.00     0.014 C 
ENDROOT
BRANCH   1   3
ATOM      3  C   UNL     1     -24.404   4.218 -15.775  1.00  0.00     0.230 C 
BRANCH   3   4
ATOM      4  N   UNL     1     -23.591   3.155 -15.164  1.00  0.00    -0.350 N 
ATOM      5  H   UNL     1     -24.086   2.239 -15.264  1.00  0.00     0.345 HD
ATOM      6  H   UNL     1     -22.654   3.074 -15.620  1.00  0.00     0.345 HD
ATOM      7  H   UNL     1     -23.461   3.343 -14.144  1.00  0.00     0.345 HD
ENDBRANCH   3   4
BRANCH   3   8
ATOM      8  C   UNL     1     -24.278   4.198 -17.279  1.00  0.00     0.099 C 
ATOM      9  O   UNL     1     -23.148   4.269 -17.831  1.00  0.00    -0.544 OA
ATOM     10  O   UNL     1     -25.420   4.136 -18.068  1.00  0.00    -0.544 OA
ENDBRANCH   3   8
ENDBRANCH   1   3
BRANCH   1  11
ATOM     11  C   UNL     1     -24.723   5.829 -13.762  1.00  0.00     0.006 C 
ATOM     12  C   UNL     1     -25.521   7.131 -13.658  1.00  0.00     0.004 C 
ENDBRANCH   1  11
TORSDOF 4
ENDMDL
MODEL 6
REMARK VINA RESULT:    -3.977      2.128      3.529
REMARK INTER + INTRA:          -4.611
REMARK INTER:                  -4.715
REMARK INTRA:                   0.104
REMARK UNBOUND:                 0.180
REMARK SMILES CC[C@@H](C)[C@H]([NH3+])C(=O)[O-]
REMARK SMILES IDX 3 1 4 2 5 3 6 4 7 8 8 9 9 10 2 11 1 12
REMARK H PARENT 6 5 6 6 6 7
REMARK Flexibility Score: inf
ROOT
ATOM      1  C   UNL     1     -24.906   5.044 -14.478  1.00  0.00     0.050 C 
ATOM      2  C   UNL     1     -23.826   4.646 -15.503  1.00  0.00     0.014 C 
ENDROOT
BRANCH   1   3
ATOM      3  C   UNL     1     -24.376   6.175 -13.542  1.00  0.00     0.230 C 
BRANCH   3   4
ATOM      4  N   UNL     1     -25.335   6.504 -12.475  1.00  0.00    -0.350 N 
ATOM      5  H   UNL     1     -25.475   5.666 -11.865  1.00  0.00     0.345 HD
ATOM      6  H   UNL     1     -24.996   7.292 -11.879  1.00  0.00     0.345 HD
ATOM      7  H   UNL     1     -26.260   6.760 -12.890  1.00  0.00     0.345 HD
ENDBRANCH   3   4
BRANCH   3   8
ATOM      8  C   UNL     1     -23.969   7.414 -14.302  1.00  0.00     0.099 C 
ATOM      9  O   UNL     1     -22.810   7.522 -14.785  1.00  0.00    -0.544 OA
ATOM     10  O   UNL     1     -24.866   8.466 -14.442  1.00  0.00    -0.544 OA
ENDBRANCH   3   8
ENDBRANCH   1   3
BRANCH   1  11
ATOM     11  C   UNL     1     -26.239   5.411 -15.183  1.00  0.00     0.006 C 
ATOM     12  C   UNL     1     -26.433   4.671 -16.509  1.00  0.00     0.004 C 
ENDBRANCH   1  11
TORSDOF 4
ENDMDL
MODEL 7
REMARK VINA RESULT:    -3.797      1.696      2.818
REMARK INTER + INTRA:          -4.394
REMARK INTER:                  -4.392
REMARK INTRA:                  -0.002
REMARK UNBOUND:                 0.180
REMARK SMILES CC[C@@H](C)[C@H]([NH3+])C(=O)[O-]
REMARK SMILES IDX 3 1 4 2 5 3 6 4 7 8 8 9 9 10 2 11 1 12
REMARK H PARENT 6 5 6 6 6 7
REMARK Flexibility Score: inf
ROOT
ATOM      1  C   UNL     1     -24.445   6.935 -14.631  1.00  0.00     0.050 C 
ATOM      2  C   UNL     1     -23.469   8.127 -14.609  1.00  0.00     0.014 C 
ENDROOT
BRANCH   1   3
ATOM      3  C   UNL     1     -23.660   5.588 -14.546  1.00  0.00     0.230 C 
BRANCH   3   4
ATOM      4  N   UNL     1     -22.306   5.702 -15.111  1.00  0.00    -0.350 N 
ATOM      5  H   UNL     1     -22.373   5.969 -16.119  1.00  0.00     0.345 HD
ATOM      6  H   UNL     1     -21.740   6.425 -14.615  1.00  0.00     0.345 HD
ATOM      7  H   UNL     1     -21.815   4.781 -15.052  1.00  0.00     0.345 HD
ENDBRANCH   3   4
BRANCH   3   8
ATOM      8  C   UNL     1     -24.411   4.437 -15.171  1.00  0.00     0.099 C 
ATOM      9  O   UNL     1     -23.930   3.273 -15.161  1.00  0.00    -0.544 OA
ATOM     10  O   UNL     1     -25.630   4.666 -15.797  1.00  0.00    -0.544 OA
ENDBRANCH   3   8
ENDBRANCH   1   3
BRANCH   1  11
ATOM     11  C   UNL     1     -25.529   7.079 -13.530  1.00  0.00     0.006 C 
ATOM     12  C   UNL     1     -25.174   6.328 -12.244  1.00  0.00     0.004 C 
ENDBRANCH   1  11
TORSDOF 4
ENDMDL
MODEL 8
REMARK VINA RESULT:    -3.779      1.931      2.433
REMARK INTER + INTRA:          -4.372
REMARK INTER:                  -4.733
REMARK INTRA:                   0.361
REMARK UNBOUND:                 0.180
REMARK SMILES CC[C@@H](C)[C@H]([NH3+])C(=O)[O-]
REMARK SMILES IDX 3 1 4 2 5 3 6 4 7 8 8 9 9 10 2 11 1 12
REMARK H PARENT 6 5 6 6 6 7
REMARK Flexibility Score: inf
ROOT
ATOM      1  C   UNL     1     -23.317   6.796 -14.322  1.00  0.00     0.050 C 
ATOM      2  C   UNL     1     -24.854   6.720 -14.417  1.00  0.00     0.014 C 
ENDROOT
BRANCH   1   3
ATOM      3  C   UNL     1     -22.668   5.580 -15.055  1.00  0.00     0.230 C 
BRANCH   3   4
ATOM      4  N   UNL     1     -21.754   6.005 -16.127  1.00  0.00    -0.350 N 
ATOM      5  H   UNL     1     -21.435   5.166 -16.664  1.00  0.00     0.345 HD
ATOM      6  H   UNL     1     -22.218   6.664 -16.792  1.00  0.00     0.345 HD
ATOM      7  H   UNL     1     -20.910   6.467 -15.718  1.00  0.00     0.345 HD
ENDBRANCH   3   4
BRANCH   3   8
ATOM      8  C   UNL     1     -23.691   4.600 -15.575  1.00  0.00     0.099 C 
ATOM      9  O   UNL     1     -23.889   4.471 -16.813  1.00  0.00    -0.544 OA
ATOM     10  O   UNL     1     -24.452   3.856 -14.682  1.00  0.00    -0.544 OA
ENDBRANCH   3   8
ENDBRANCH   1   3
BRANCH   1  11
ATOM     11  C   UNL     1     -22.793   8.165 -14.831  1.00  0.00     0.006 C 
ATOM     12  C   UNL     1     -23.847   9.272 -14.751  1.00  0.00     0.004 C 
ENDBRANCH   1  11
TORSDOF 4
ENDMDL
MODEL 9
REMARK VINA RESULT:    -3.765      2.556      3.080
REMARK INTER + INTRA:          -4.355
REMARK INTER:                  -4.426
REMARK INTRA:                   0.071
REMARK UNBOUND:                 0.180
REMARK SMILES CC[C@@H](C)[C@H]([NH3+])C(=O)[O-]
REMARK SMILES IDX 3 1 4 2 5 3 6 4 7 8 8 9 9 10 2 11 1 12
REMARK H PARENT 6 5 6 6 6 7
REMARK Flexibility Score: inf
ROOT
ATOM      1  C   UNL     1     -24.471   5.238 -15.200  1.00  0.00     0.050 C 
ATOM      2  C   UNL     1     -24.160   3.728 -15.182  1.00  0.00     0.014 C 
ENDROOT
BRANCH   1   3
ATOM      3  C   UNL     1     -25.795   5.530 -14.426  1.00  0.00     0.230 C 
BRANCH   3   4
ATOM      4  N   UNL     1     -26.948   5.655 -15.332  1.00  0.00    -0.350 N 
ATOM      5  H   UNL     1     -27.831   5.509 -14.791  1.00  0.00     0.345 HD
ATOM      6  H   UNL     1     -26.988   6.599 -15.778  1.00  0.00     0.345 HD
ATOM      7  H   UNL     1     -26.900   4.923 -16.077  1.00  0.00     0.345 HD
ENDBRANCH   3   4
BRANCH   3   8
ATOM      8  C   UNL     1     -25.685   6.733 -13.521  1.00  0.00     0.099 C 
ATOM      9  O   UNL     1     -25.406   6.597 -12.300  1.00  0.00    -0.544 OA
ATOM     10  O   UNL     1     -25.930   8.004 -14.028  1.00  0.00    -0.544 OA
ENDBRANCH   3   8
ENDBRANCH   1   3
BRANCH   1  11
ATOM     11  C   UNL     1     -23.265   6.063 -14.678  1.00  0.00     0.006 C 
ATOM     12  C   UNL     1     -22.055   6.006 -15.613  1.00  0.00     0.004 C 
ENDBRANCH   1  11
TORSDOF 4
ENDMDL
