MODEL 1
REMARK VINA RESULT:    -2.845      0.000      0.000
REMARK INTER + INTRA:          -3.241
REMARK INTER:                  -3.178
REMARK INTRA:                  -0.063
REMARK UNBOUND:                -0.063
REMARK SMILES CCCC(=O)[O-]
REMARK SMILES IDX 3 1 4 2 5 3 6 4 2 5 1 6
REMARK H PARENT
REMARK Flexibility Score: inf
ROOT
ATOM      1  C   UNL     1       4.750  11.119  39.215  1.00  0.00     0.052 C 
ENDROOT
BRANCH   1   2
ATOM      2  C   UNL     1       5.973  11.266  40.064  1.00  0.00     0.041 C 
ATOM      3  O   UNL     1       7.115  11.268  39.534  1.00  0.00    -0.550 OA
ATOM      4  O   UNL     1       5.855  11.355  41.446  1.00  0.00    -0.550 OA
ENDBRANCH   1   2
BRANCH   1   5
ATOM      5  C   UNL     1       4.842   9.854  38.359  1.00  0.00     0.003 C 
ATOM      6  C   UNL     1       4.863   8.600  39.228  1.00  0.00     0.004 C 
ENDBRANCH   1   5
TORSDOF 2
ENDMDL
MODEL 2
REMARK VINA RESULT:    -2.717      2.291      3.233
REMARK INTER + INTRA:          -3.098
REMARK INTER:                  -3.092
REMARK INTRA:                  -0.006
REMARK UNBOUND:                -0.063
REMARK SMILES CCCC(=O)[O-]
REMARK SMILES IDX 3 1 4 2 5 3 6 4 2 5 1 6
REMARK H PARENT
REMARK Flexibility Score: inf
ROOT
ATOM      1  C   UNL     1       6.241  10.433  39.041  1.00  0.00     0.052 C 
ENDROOT
BRANCH   1   2
ATOM      2  C   UNL     1       4.902   9.770  38.954  1.00  0.00     0.041 C 
ATOM      3  O   UNL     1       3.875  10.449  38.694  1.00  0.00    -0.550 OA
ATOM      4  O   UNL     1       4.783   8.409  39.209  1.00  0.00    -0.550 OA
ENDBRANCH   1   2
BRANCH   1   5
ATOM      5  C   UNL     1       6.295  11.375  40.246  1.00  0.00     0.003 C 
ATOM      6  C   UNL     1       7.698  11.941  40.440  1.00  0.00     0.004 C 
ENDBRANCH   1   5
TORSDOF 2
ENDMDL
MODEL 3
REMARK VINA RESULT:    -2.487     25.419     25.979
REMARK INTER + INTRA:          -2.840
REMARK INTER:                  -2.785
REMARK INTRA:                  -0.055
REMARK UNBOUND:                -0.063
REMARK SMILES CCCC(=O)[O-]
REMARK SMILES IDX 3 1 4 2 5 3 6 4 2 5 1 6
REMARK H PARENT
REMARK Flexibility Score: inf
ROOT
ATOM      1  C   UNL     1      21.887  -5.076  51.744  1.00  0.00     0.052 C 
ENDROOT
BRANCH   1   2
ATOM      2  C   UNL     1      20.632  -5.713  51.234  1.00  0.00     0.041 C 
ATOM      3  O   UNL     1      20.630  -6.306  50.124  1.00  0.00    -0.550 OA
ATOM      4  O   UNL     1      19.454  -5.610  51.963  1.00  0.00    -0.550 OA
ENDBRANCH   1   2
BRANCH   1   5
ATOM      5  C   UNL     1      22.245  -5.632  53.125  1.00  0.00     0.003 C 
ATOM      6  C   UNL     1      23.006  -6.949  53.008  1.00  0.00     0.004 C 
ENDBRANCH   1   5
TORSDOF 2
ENDMDL
MODEL 4
REMARK VINA RESULT:    -2.436     13.982     14.637
REMARK INTER + INTRA:          -2.783
REMARK INTER:                  -2.726
REMARK INTRA:                  -0.058
REMARK UNBOUND:                -0.063
REMARK SMILES CCCC(=O)[O-]
REMARK SMILES IDX 3 1 4 2 5 3 6 4 2 5 1 6
REMARK H PARENT
REMARK Flexibility Score: inf
ROOT
ATOM      1  C   UNL     1      15.503  -0.434  35.439  1.00  0.00     0.052 C 
ENDROOT
BRANCH   1   2
ATOM      2  C   UNL     1      15.088   0.745  36.262  1.00  0.00     0.041 C 
ATOM      3  O   UNL     1      14.248   0.606  37.188  1.00  0.00    -0.550 OA
ATOM      4  O   UNL     1      15.596   2.006  35.975  1.00  0.00    -0.550 OA
ENDBRANCH   1   2
BRANCH   1   5
ATOM      5  C   UNL     1      15.601  -0.046  33.961  1.00  0.00     0.003 C 
ATOM      6  C   UNL     1      14.232  -0.085  33.289  1.00  0.00     0.004 C 
ENDBRANCH   1   5
TORSDOF 2
ENDMDL
MODEL 5
REMARK VINA RESULT:    -2.425      1.843      2.881
REMARK INTER + INTRA:          -2.771
REMARK INTER:                  -2.700
REMARK INTRA:                  -0.071
REMARK UNBOUND:                -0.063
REMARK SMILES CCCC(=O)[O-]
REMARK SMILES IDX 3 1 4 2 5 3 6 4 2 5 1 6
REMARK H PARENT
REMARK Flexibility Score: inf
ROOT
ATOM      1  C   UNL     1       4.392  10.445  40.278  1.00  0.00     0.052 C 
ENDROOT
BRANCH   1   2
ATOM      2  C   UNL     1       5.278  10.270  39.085  1.00  0.00     0.041 C 
ATOM      3  O   UNL     1       4.825   9.754  38.030  1.00  0.00    -0.550 OA
ATOM      4  O   UNL     1       6.617  10.634  39.154  1.00  0.00    -0.550 OA
ENDBRANCH   1   2
BRANCH   1   5
ATOM      5  C   UNL     1       4.446  11.891  40.778  1.00  0.00     0.003 C 
ATOM      6  C   UNL     1       3.876  12.854  39.741  1.00  0.00     0.004 C 
ENDBRANCH   1   5
TORSDOF 2
ENDMDL
MODEL 6
REMARK VINA RESULT:    -2.424     13.983     14.644
REMARK INTER + INTRA:          -2.770
REMARK INTER:                  -2.721
REMARK INTRA:                  -0.049
REMARK UNBOUND:                -0.063
REMARK SMILES CCCC(=O)[O-]
REMARK SMILES IDX 3 1 4 2 5 3 6 4 2 5 1 6
REMARK H PARENT
REMARK Flexibility Score: inf
ROOT
ATOM      1  C   UNL     1      15.660  -0.406  35.487  1.00  0.00     0.052 C 
ENDROOT
BRANCH   1   2
ATOM      2  C   UNL     1      15.108   0.767  36.236  1.00  0.00     0.041 C 
ATOM      3  O   UNL     1      15.467   1.935  35.936  1.00  0.00    -0.550 OA
ATOM      4  O   UNL     1      14.232   0.566  37.296  1.00  0.00    -0.550 OA
ENDBRANCH   1   2
BRANCH   1   5
ATOM      5  C   UNL     1      15.738  -0.096  33.990  1.00  0.00     0.003 C 
ATOM      6  C   UNL     1      14.362  -0.183  33.337  1.00  0.00     0.004 C 
ENDBRANCH   1   5
TORSDOF 2
ENDMDL
MODEL 7
REMARK VINA RESULT:    -2.376      9.451     10.467
REMARK INTER + INTRA:          -2.717
REMARK INTER:                  -2.705
REMARK INTRA:                  -0.012
REMARK UNBOUND:                -0.063
REMARK SMILES CCCC(=O)[O-]
REMARK SMILES IDX 3 1 4 2 5 3 6 4 2 5 1 6
REMARK H PARENT
REMARK Flexibility Score: inf
ROOT
ATOM      1  C   UNL     1       6.570   1.010  44.484  1.00  0.00     0.052 C 
ENDROOT
BRANCH   1   2
ATOM      2  C   UNL     1       5.666   2.097  43.994  1.00  0.00     0.041 C 
ATOM      3  O   UNL     1       6.120   3.252  43.784  1.00  0.00    -0.550 OA
ATOM      4  O   UNL     1       4.311   1.845  43.814  1.00  0.00    -0.550 OA
ENDBRANCH   1   2
BRANCH   1   5
ATOM      5  C   UNL     1       7.858   1.605  45.060  1.00  0.00     0.003 C 
ATOM      6  C   UNL     1       8.816   0.508  45.516  1.00  0.00     0.004 C 
ENDBRANCH   1   5
TORSDOF 2
ENDMDL
MODEL 8
REMARK VINA RESULT:    -2.372      1.805      2.079
REMARK INTER + INTRA:          -2.712
REMARK INTER:                  -2.691
REMARK INTRA:                  -0.021
REMARK UNBOUND:                -0.063
REMARK SMILES CCCC(=O)[O-]
REMARK SMILES IDX 3 1 4 2 5 3 6 4 2 5 1 6
REMARK H PARENT
REMARK Flexibility Score: inf
ROOT
ATOM      1  C   UNL     1       3.937  10.803  40.229  1.00  0.00     0.052 C 
ENDROOT
BRANCH   1   2
ATOM      2  C   UNL     1       4.404  12.220  40.118  1.00  0.00     0.041 C 
ATOM      3  O   UNL     1       5.229  12.681  40.949  1.00  0.00    -0.550 OA
ATOM      4  O   UNL     1       3.892  13.045  39.124  1.00  0.00    -0.550 OA
ENDBRANCH   1   2
BRANCH   1   5
ATOM      5  C   UNL     1       4.269  10.028  38.952  1.00  0.00     0.003 C 
ATOM      6  C   UNL     1       5.368   9.000  39.200  1.00  0.00     0.004 C 
ENDBRANCH   1   5
TORSDOF 2
ENDMDL
MODEL 9
REMARK VINA RESULT:    -2.322     15.344     16.169
REMARK INTER + INTRA:          -2.656
REMARK INTER:                  -2.618
REMARK INTRA:                  -0.038
REMARK UNBOUND:                -0.063
REMARK SMILES CCCC(=O)[O-]
REMARK SMILES IDX 3 1 4 2 5 3 6 4 2 5 1 6
REMARK H PARENT
REMARK Flexibility Score: inf
ROOT
ATOM      1  C   UNL     1      16.044   0.389  33.217  1.00  0.00     0.052 C 
ENDROOT
BRANCH   1   2
ATOM      2  C   UNL     1      14.769  -0.019  33.886  1.00  0.00     0.041 C 
ATOM      3  O   UNL     1      14.767  -0.344  35.102  1.00  0.00    -0.550 OA
ATOM      4  O   UNL     1      13.590  -0.086  33.153  1.00  0.00    -0.550 OA
ENDBRANCH   1   2
BRANCH   1   5
ATOM      5  C   UNL     1      17.046  -0.768  33.225  1.00  0.00     0.003 C 
ATOM      6  C   UNL     1      18.213  -0.480  34.165  1.00  0.00     0.004 C 
ENDBRANCH   1   5
TORSDOF 2
ENDMDL
