MODEL 1
REMARK VINA RESULT:    -4.009      0.000      0.000
REMARK INTER + INTRA:          -9.677
REMARK INTER:                  -7.291
REMARK INTRA:                  -2.386
REMARK UNBOUND:                -2.386
REMARK SMILES CCCCCCCCCCCCCC[C@H](C)C(=O)[O-]
REMARK SMILES IDX 9 1 10 2 11 3 12 4 13 5 14 6 15 7 16 8 17 9 18 10 19 11 8 12
REMARK SMILES IDX 7 13 6 14 5 15 4 16 3 17 2 18 1 19
REMARK H PARENT
REMARK Flexibility Score: inf
ROOT
ATOM      1  C   UNL     1      -2.765  -4.889   8.244  1.00  0.00     0.000 C 
ENDROOT
BRANCH   1   2
ATOM      2  C   UNL     1      -3.690  -4.964   9.472  1.00  0.00     0.000 C 
BRANCH   2   3
ATOM      3  C   UNL     1      -5.018  -4.196   9.333  1.00  0.00     0.000 C 
BRANCH   3   4
ATOM      4  C   UNL     1      -6.154  -4.976   8.644  1.00  0.00     0.000 C 
BRANCH   4   5
ATOM      5  C   UNL     1      -7.448  -4.157   8.459  1.00  0.00     0.001 C 
BRANCH   5   6
ATOM      6  C   UNL     1      -7.374  -2.777   9.137  1.00  0.00     0.009 C 
BRANCH   6   7
ATOM      7  C   UNL     1      -8.698  -2.396   9.830  1.00  0.00     0.032 C 
ATOM      8  C   UNL     1      -9.828  -3.331   9.384  1.00  0.00     0.014 C 
BRANCH   7   9
ATOM      9  C   UNL     1      -9.077  -0.969   9.541  1.00  0.00     0.044 C 
ATOM     10  O   UNL     1      -8.930  -0.497   8.382  1.00  0.00    -0.550 OA
ATOM     11  O   UNL     1      -9.589  -0.160  10.549  1.00  0.00    -0.550 OA
ENDBRANCH   7   9
ENDBRANCH   6   7
ENDBRANCH   5   6
ENDBRANCH   4   5
ENDBRANCH   3   4
ENDBRANCH   2   3
ENDBRANCH   1   2
BRANCH   1  12
ATOM     12  C   UNL     1      -1.477  -4.096   8.511  1.00  0.00     0.000 C 
BRANCH  12  13
ATOM     13  C   UNL     1      -1.557  -3.356   9.851  1.00  0.00    -0.000 C 
BRANCH  13  14
ATOM     14  C   UNL     1      -1.654  -1.837   9.639  1.00  0.00    -0.000 C 
BRANCH  14  15
ATOM     15  C   UNL     1      -3.061  -1.286   9.952  1.00  0.00    -0.000 C 
BRANCH  15  16
ATOM     16  C   UNL     1      -3.693  -0.501   8.786  1.00  0.00    -0.000 C 
BRANCH  16  17
ATOM     17  C   UNL     1      -3.512  -1.141   7.397  1.00  0.00    -0.000 C 
BRANCH  17  18
ATOM     18  C   UNL     1      -4.819  -1.584   6.714  1.00  0.00    -0.003 C 
ATOM     19  C   UNL     1      -4.651  -2.843   5.865  1.00  0.00     0.004 C 
ENDBRANCH  17  18
ENDBRANCH  16  17
ENDBRANCH  15  16
ENDBRANCH  14  15
ENDBRANCH  13  14
ENDBRANCH  12  13
ENDBRANCH   1  12
TORSDOF 14
ENDMDL
MODEL 2
REMARK VINA RESULT:    -3.994     11.212     14.500
REMARK INTER + INTRA:          -9.649
REMARK INTER:                  -7.026
REMARK INTRA:                  -2.623
REMARK UNBOUND:                -2.386
REMARK SMILES CCCCCCCCCCCCCC[C@H](C)C(=O)[O-]
REMARK SMILES IDX 9 1 10 2 11 3 12 4 13 5 14 6 15 7 16 8 17 9 18 10 19 11 8 12
REMARK SMILES IDX 7 13 6 14 5 15 4 16 3 17 2 18 1 19
REMARK H PARENT
REMARK Flexibility Score: inf
ROOT
ATOM      1  C   UNL     1       6.948   0.422   9.270  1.00  0.00     0.000 C 
ENDROOT
BRANCH   1   2
ATOM      2  C   UNL     1       8.426   0.720   9.580  1.00  0.00     0.000 C 
BRANCH   2   3
ATOM      3  C   UNL     1       8.666   1.931  10.501  1.00  0.00     0.000 C 
BRANCH   3   4
ATOM      4  C   UNL     1       9.625   2.998   9.941  1.00  0.00     0.000 C 
BRANCH   4   5
ATOM      5  C   UNL     1       9.014   3.851   8.809  1.00  0.00     0.001 C 
BRANCH   5   6
ATOM      6  C   UNL     1       9.528   3.439   7.418  1.00  0.00     0.009 C 
BRANCH   6   7
ATOM      7  C   UNL     1       8.382   3.038   6.469  1.00  0.00     0.032 C 
ATOM      8  C   UNL     1       8.589   1.613   5.943  1.00  0.00     0.014 C 
BRANCH   7   9
ATOM      9  C   UNL     1       8.269   3.994   5.312  1.00  0.00     0.044 C 
ATOM     10  O   UNL     1       7.159   4.518   5.031  1.00  0.00    -0.550 OA
ATOM     11  O   UNL     1       9.385   4.302   4.543  1.00  0.00    -0.550 OA
ENDBRANCH   7   9
ENDBRANCH   6   7
ENDBRANCH   5   6
ENDBRANCH   4   5
ENDBRANCH   3   4
ENDBRANCH   2   3
ENDBRANCH   1   2
BRANCH   1  12
ATOM     12  C   UNL     1       6.074   1.684   9.247  1.00  0.00     0.000 C 
BRANCH  12  13
ATOM     13  C   UNL     1       5.311   1.799   7.922  1.00  0.00    -0.000 C 
BRANCH  13  14
ATOM     14  C   UNL     1       5.010   3.267   7.583  1.00  0.00    -0.000 C 
BRANCH  14  15
ATOM     15  C   UNL     1       5.296   4.216   8.766  1.00  0.00    -0.000 C 
BRANCH  15  16
ATOM     16  C   UNL     1       4.238   5.323   8.942  1.00  0.00    -0.000 C 
BRANCH  16  17
ATOM     17  C   UNL     1       2.872   4.842   9.466  1.00  0.00    -0.000 C 
BRANCH  17  18
ATOM     18  C   UNL     1       2.943   3.870  10.658  1.00  0.00    -0.003 C 
ATOM     19  C   UNL     1       2.467   2.461  10.307  1.00  0.00     0.004 C 
ENDBRANCH  17  18
ENDBRANCH  16  17
ENDBRANCH  15  16
ENDBRANCH  14  15
ENDBRANCH  13  14
ENDBRANCH  12  13
ENDBRANCH   1  12
TORSDOF 14
ENDMDL
MODEL 3
REMARK VINA RESULT:    -3.944      2.330      4.425
REMARK INTER + INTRA:          -9.558
REMARK INTER:                  -7.202
REMARK INTRA:                  -2.356
REMARK UNBOUND:                -2.386
REMARK SMILES CCCCCCCCCCCCCC[C@H](C)C(=O)[O-]
REMARK SMILES IDX 9 1 10 2 11 3 12 4 13 5 14 6 15 7 16 8 17 9 18 10 19 11 8 12
REMARK SMILES IDX 7 13 6 14 5 15 4 16 3 17 2 18 1 19
REMARK H PARENT
REMARK Flexibility Score: inf
ROOT
ATOM      1  C   UNL     1      -4.870  -0.682   8.737  1.00  0.00     0.000 C 
ENDROOT
BRANCH   1   2
ATOM      2  C   UNL     1      -6.051  -1.179   9.590  1.00  0.00     0.000 C 
BRANCH   2   3
ATOM      3  C   UNL     1      -7.443  -0.942   8.975  1.00  0.00     0.000 C 
BRANCH   3   4
ATOM      4  C   UNL     1      -8.615  -1.575   9.749  1.00  0.00     0.000 C 
BRANCH   4   5
ATOM      5  C   UNL     1      -8.862  -3.058   9.402  1.00  0.00     0.001 C 
BRANCH   5   6
ATOM      6  C   UNL     1      -8.547  -3.379   7.929  1.00  0.00     0.009 C 
BRANCH   6   7
ATOM      7  C   UNL     1      -7.834  -4.736   7.768  1.00  0.00     0.032 C 
ATOM      8  C   UNL     1      -6.556  -4.778   8.613  1.00  0.00     0.014 C 
BRANCH   7   9
ATOM      9  C   UNL     1      -7.498  -5.011   6.327  1.00  0.00     0.044 C 
ATOM     10  O   UNL     1      -7.946  -6.042   5.759  1.00  0.00    -0.550 OA
ATOM     11  O   UNL     1      -6.691  -4.133   5.614  1.00  0.00    -0.550 OA
ENDBRANCH   7   9
ENDBRANCH   6   7
ENDBRANCH   5   6
ENDBRANCH   4   5
ENDBRANCH   3   4
ENDBRANCH   2   3
ENDBRANCH   1   2
BRANCH   1  12
ATOM     12  C   UNL     1      -4.721  -1.450   7.415  1.00  0.00     0.000 C 
BRANCH  12  13
ATOM     13  C   UNL     1      -3.314  -1.271   6.833  1.00  0.00    -0.000 C 
BRANCH  13  14
ATOM     14  C   UNL     1      -2.581  -2.618   6.735  1.00  0.00    -0.000 C 
BRANCH  14  15
ATOM     15  C   UNL     1      -3.475  -3.807   7.148  1.00  0.00    -0.000 C 
BRANCH  15  16
ATOM     16  C   UNL     1      -2.778  -4.808   8.090  1.00  0.00    -0.000 C 
BRANCH  16  17
ATOM     17  C   UNL     1      -2.249  -4.206   9.405  1.00  0.00    -0.000 C 
BRANCH  17  18
ATOM     18  C   UNL     1      -3.337  -3.672  10.355  1.00  0.00    -0.003 C 
ATOM     19  C   UNL     1      -2.835  -2.557  11.270  1.00  0.00     0.004 C 
ENDBRANCH  17  18
ENDBRANCH  16  17
ENDBRANCH  15  16
ENDBRANCH  14  15
ENDBRANCH  13  14
ENDBRANCH  12  13
ENDBRANCH   1  12
TORSDOF 14
ENDMDL
MODEL 4
REMARK VINA RESULT:    -3.940      2.526      4.533
REMARK INTER + INTRA:          -9.552
REMARK INTER:                  -7.073
REMARK INTRA:                  -2.479
REMARK UNBOUND:                -2.386
REMARK SMILES CCCCCCCCCCCCCC[C@H](C)C(=O)[O-]
REMARK SMILES IDX 9 1 10 2 11 3 12 4 13 5 14 6 15 7 16 8 17 9 18 10 19 11 8 12
REMARK SMILES IDX 7 13 6 14 5 15 4 16 3 17 2 18 1 19
REMARK H PARENT
REMARK Flexibility Score: inf
ROOT
ATOM      1  C   UNL     1      -6.503  -0.178   8.591  1.00  0.00     0.000 C 
ENDROOT
BRANCH   1   2
ATOM      2  C   UNL     1      -7.314  -0.471   9.867  1.00  0.00     0.000 C 
BRANCH   2   3
ATOM      3  C   UNL     1      -8.810  -0.756   9.635  1.00  0.00     0.000 C 
BRANCH   3   4
ATOM      4  C   UNL     1      -9.294  -2.135  10.119  1.00  0.00     0.000 C 
BRANCH   4   5
ATOM      5  C   UNL     1      -8.935  -3.293   9.163  1.00  0.00     0.001 C 
BRANCH   5   6
ATOM      6  C   UNL     1      -9.362  -3.011   7.711  1.00  0.00     0.009 C 
BRANCH   6   7
ATOM      7  C   UNL     1      -8.171  -3.057   6.734  1.00  0.00     0.032 C 
ATOM      8  C   UNL     1      -8.256  -1.906   5.726  1.00  0.00     0.014 C 
BRANCH   7   9
ATOM      9  C   UNL     1      -8.114  -4.370   6.000  1.00  0.00     0.044 C 
ATOM     10  O   UNL     1      -7.461  -5.334   6.480  1.00  0.00    -0.550 OA
ATOM     11  O   UNL     1      -8.778  -4.528   4.790  1.00  0.00    -0.550 OA
ENDBRANCH   7   9
ENDBRANCH   6   7
ENDBRANCH   5   6
ENDBRANCH   4   5
ENDBRANCH   3   4
ENDBRANCH   2   3
ENDBRANCH   1   2
BRANCH   1  12
ATOM     12  C   UNL     1      -5.494  -1.286   8.255  1.00  0.00     0.000 C 
BRANCH  12  13
ATOM     13  C   UNL     1      -5.374  -2.287   9.410  1.00  0.00    -0.000 C 
BRANCH  13  14
ATOM     14  C   UNL     1      -5.288  -3.728   8.885  1.00  0.00    -0.000 C 
BRANCH  14  15
ATOM     15  C   UNL     1      -4.187  -4.548   9.590  1.00  0.00    -0.000 C 
BRANCH  15  16
ATOM     16  C   UNL     1      -3.116  -3.682  10.281  1.00  0.00    -0.000 C 
BRANCH  16  17
ATOM     17  C   UNL     1      -1.674  -3.913   9.789  1.00  0.00    -0.000 C 
BRANCH  17  18
ATOM     18  C   UNL     1      -1.460  -3.678   8.282  1.00  0.00    -0.003 C 
ATOM     19  C   UNL     1      -1.800  -2.254   7.847  1.00  0.00     0.004 C 
ENDBRANCH  17  18
ENDBRANCH  16  17
ENDBRANCH  15  16
ENDBRANCH  14  15
ENDBRANCH  13  14
ENDBRANCH  12  13
ENDBRANCH   1  12
TORSDOF 14
ENDMDL
MODEL 5
REMARK VINA RESULT:    -3.919      9.586     12.984
REMARK INTER + INTRA:          -9.513
REMARK INTER:                  -7.071
REMARK INTRA:                  -2.442
REMARK UNBOUND:                -2.386
REMARK SMILES CCCCCCCCCCCCCC[C@H](C)C(=O)[O-]
REMARK SMILES IDX 9 1 10 2 11 3 12 4 13 5 14 6 15 7 16 8 17 9 18 10 19 11 8 12
REMARK SMILES IDX 7 13 6 14 5 15 4 16 3 17 2 18 1 19
REMARK H PARENT
REMARK Flexibility Score: inf
ROOT
ATOM      1  C   UNL     1       1.096   4.172   7.987  1.00  0.00     0.000 C 
ENDROOT
BRANCH   1   2
ATOM      2  C   UNL     1       2.067   5.334   8.266  1.00  0.00     0.000 C 
BRANCH   2   3
ATOM      3  C   UNL     1       3.528   5.073   7.853  1.00  0.00     0.000 C 
BRANCH   3   4
ATOM      4  C   UNL     1       4.580   5.411   8.927  1.00  0.00     0.000 C 
BRANCH   4   5
ATOM      5  C   UNL     1       6.035   5.338   8.418  1.00  0.00     0.001 C 
BRANCH   5   6
ATOM      6  C   UNL     1       6.630   3.923   8.532  1.00  0.00     0.009 C 
BRANCH   6   7
ATOM      7  C   UNL     1       6.463   3.115   7.230  1.00  0.00     0.032 C 
ATOM      8  C   UNL     1       6.818   1.642   7.461  1.00  0.00     0.014 C 
BRANCH   7   9
ATOM      9  C   UNL     1       7.317   3.675   6.125  1.00  0.00     0.044 C 
ATOM     10  O   UNL     1       8.569   3.719   6.253  1.00  0.00    -0.550 OA
ATOM     11  O   UNL     1       6.732   4.150   4.957  1.00  0.00    -0.550 OA
ENDBRANCH   7   9
ENDBRANCH   6   7
ENDBRANCH   5   6
ENDBRANCH   4   5
ENDBRANCH   3   4
ENDBRANCH   2   3
ENDBRANCH   1   2
BRANCH   1  12
ATOM     12  C   UNL     1       1.792   2.940   7.392  1.00  0.00     0.000 C 
BRANCH  12  13
ATOM     13  C   UNL     1       1.100   1.648   7.844  1.00  0.00    -0.000 C 
BRANCH  13  14
ATOM     14  C   UNL     1       1.980   0.866   8.832  1.00  0.00    -0.000 C 
BRANCH  14  15
ATOM     15  C   UNL     1       3.425   1.404   8.888  1.00  0.00    -0.000 C 
BRANCH  15  16
ATOM     16  C   UNL     1       3.769   2.123  10.207  1.00  0.00    -0.000 C 
BRANCH  16  17
ATOM     17  C   UNL     1       2.578   2.337  11.162  1.00  0.00    -0.000 C 
BRANCH  17  18
ATOM     18  C   UNL     1       2.341   3.799  11.581  1.00  0.00    -0.003 C 
ATOM     19  C   UNL     1       2.321   3.989  13.097  1.00  0.00     0.004 C 
ENDBRANCH  17  18
ENDBRANCH  16  17
ENDBRANCH  15  16
ENDBRANCH  14  15
ENDBRANCH  13  14
ENDBRANCH  12  13
ENDBRANCH   1  12
TORSDOF 14
ENDMDL
MODEL 6
REMARK VINA RESULT:    -3.918     11.125     13.583
REMARK INTER + INTRA:          -9.511
REMARK INTER:                  -6.753
REMARK INTRA:                  -2.758
REMARK UNBOUND:                -2.386
REMARK SMILES CCCCCCCCCCCCCC[C@H](C)C(=O)[O-]
REMARK SMILES IDX 9 1 10 2 11 3 12 4 13 5 14 6 15 7 16 8 17 9 18 10 19 11 8 12
REMARK SMILES IDX 7 13 6 14 5 15 4 16 3 17 2 18 1 19
REMARK H PARENT
REMARK Flexibility Score: inf
ROOT
ATOM      1  C   UNL     1       8.810   2.294  10.314  1.00  0.00     0.000 C 
ENDROOT
BRANCH   1   2
ATOM      2  C   UNL     1       9.516   3.444   9.574  1.00  0.00     0.000 C 
BRANCH   2   3
ATOM      3  C   UNL     1       8.634   4.211   8.571  1.00  0.00     0.000 C 
BRANCH   3   4
ATOM      4  C   UNL     1       7.117   4.097   8.816  1.00  0.00     0.000 C 
BRANCH   4   5
ATOM      5  C   UNL     1       6.323   5.353   8.399  1.00  0.00     0.001 C 
BRANCH   5   6
ATOM      6  C   UNL     1       4.895   5.019   7.932  1.00  0.00     0.009 C 
BRANCH   6   7
ATOM      7  C   UNL     1       4.262   3.882   8.759  1.00  0.00     0.032 C 
ATOM      8  C   UNL     1       3.777   2.753   7.842  1.00  0.00     0.014 C 
BRANCH   7   9
ATOM      9  C   UNL     1       3.116   4.384   9.595  1.00  0.00     0.044 C 
ATOM     10  O   UNL     1       3.021   4.048  10.805  1.00  0.00    -0.550 OA
ATOM     11  O   UNL     1       2.154   5.219   9.039  1.00  0.00    -0.550 OA
ENDBRANCH   7   9
ENDBRANCH   6   7
ENDBRANCH   5   6
ENDBRANCH   4   5
ENDBRANCH   3   4
ENDBRANCH   2   3
ENDBRANCH   1   2
BRANCH   1  12
ATOM     12  C   UNL     1       9.075   0.921   9.681  1.00  0.00     0.000 C 
BRANCH  12  13
ATOM     13  C   UNL     1       7.760   0.208   9.345  1.00  0.00    -0.000 C 
BRANCH  13  14
ATOM     14  C   UNL     1       7.306   0.532   7.913  1.00  0.00    -0.000 C 
BRANCH  14  15
ATOM     15  C   UNL     1       8.495   0.751   6.953  1.00  0.00    -0.000 C 
BRANCH  15  16
ATOM     16  C   UNL     1       8.230   1.818   5.872  1.00  0.00    -0.000 C 
BRANCH  16  17
ATOM     17  C   UNL     1       6.745   2.160   5.644  1.00  0.00    -0.000 C 
BRANCH  17  18
ATOM     18  C   UNL     1       6.489   3.554   5.043  1.00  0.00    -0.003 C 
ATOM     19  C   UNL     1       7.747   4.420   4.986  1.00  0.00     0.004 C 
ENDBRANCH  17  18
ENDBRANCH  16  17
ENDBRANCH  15  16
ENDBRANCH  14  15
ENDBRANCH  13  14
ENDBRANCH  12  13
ENDBRANCH   1  12
TORSDOF 14
ENDMDL
MODEL 7
REMARK VINA RESULT:    -3.912     10.709     13.118
REMARK INTER + INTRA:          -9.500
REMARK INTER:                  -6.885
REMARK INTRA:                  -2.615
REMARK UNBOUND:                -2.386
REMARK SMILES CCCCCCCCCCCCCC[C@H](C)C(=O)[O-]
REMARK SMILES IDX 9 1 10 2 11 3 12 4 13 5 14 6 15 7 16 8 17 9 18 10 19 11 8 12
REMARK SMILES IDX 7 13 6 14 5 15 4 16 3 17 2 18 1 19
REMARK H PARENT
REMARK Flexibility Score: inf
ROOT
ATOM      1  C   UNL     1       7.962   2.959   5.467  1.00  0.00     0.000 C 
ENDROOT
BRANCH   1   2
ATOM      2  C   UNL     1       6.728   3.731   4.967  1.00  0.00     0.000 C 
BRANCH   2   3
ATOM      3  C   UNL     1       5.382   3.012   5.177  1.00  0.00     0.000 C 
BRANCH   3   4
ATOM      4  C   UNL     1       5.242   2.268   6.518  1.00  0.00     0.000 C 
BRANCH   4   5
ATOM      5  C   UNL     1       4.361   3.005   7.550  1.00  0.00     0.001 C 
BRANCH   5   6
ATOM      6  C   UNL     1       3.691   4.260   6.963  1.00  0.00     0.009 C 
BRANCH   6   7
ATOM      7  C   UNL     1       3.117   5.180   8.058  1.00  0.00     0.032 C 
ATOM      8  C   UNL     1       4.154   5.421   9.160  1.00  0.00     0.014 C 
BRANCH   7   9
ATOM      9  C   UNL     1       1.864   4.601   8.659  1.00  0.00     0.044 C 
ATOM     10  O   UNL     1       0.883   4.315   7.923  1.00  0.00    -0.550 OA
ATOM     11  O   UNL     1       1.780   4.379  10.029  1.00  0.00    -0.550 OA
ENDBRANCH   7   9
ENDBRANCH   6   7
ENDBRANCH   5   6
ENDBRANCH   4   5
ENDBRANCH   3   4
ENDBRANCH   2   3
ENDBRANCH   1   2
BRANCH   1  12
ATOM     12  C   UNL     1       8.739   3.712   6.556  1.00  0.00     0.000 C 
BRANCH  12  13
ATOM     13  C   UNL     1       7.834   4.713   7.283  1.00  0.00    -0.000 C 
BRANCH  13  14
ATOM     14  C   UNL     1       7.688   4.348   8.769  1.00  0.00    -0.000 C 
BRANCH  14  15
ATOM     15  C   UNL     1       8.953   3.671   9.337  1.00  0.00    -0.000 C 
BRANCH  15  16
ATOM     16  C   UNL     1       8.713   2.235   9.842  1.00  0.00    -0.000 C 
BRANCH  16  17
ATOM     17  C   UNL     1       7.331   1.647   9.502  1.00  0.00    -0.000 C 
BRANCH  17  18
ATOM     18  C   UNL     1       7.364   0.238   8.880  1.00  0.00    -0.003 C 
ATOM     19  C   UNL     1       8.350   0.122   7.719  1.00  0.00     0.004 C 
ENDBRANCH  17  18
ENDBRANCH  16  17
ENDBRANCH  15  16
ENDBRANCH  14  15
ENDBRANCH  13  14
ENDBRANCH  12  13
ENDBRANCH   1  12
TORSDOF 14
ENDMDL
MODEL 8
REMARK VINA RESULT:    -3.909      9.230     11.972
REMARK INTER + INTRA:          -9.495
REMARK INTER:                  -7.225
REMARK INTRA:                  -2.270
REMARK UNBOUND:                -2.386
REMARK SMILES CCCCCCCCCCCCCC[C@H](C)C(=O)[O-]
REMARK SMILES IDX 9 1 10 2 11 3 12 4 13 5 14 6 15 7 16 8 17 9 18 10 19 11 8 12
REMARK SMILES IDX 7 13 6 14 5 15 4 16 3 17 2 18 1 19
REMARK H PARENT
REMARK Flexibility Score: inf
ROOT
ATOM      1  C   UNL     1       5.646   4.183   8.774  1.00  0.00     0.000 C 
ENDROOT
BRANCH   1   2
ATOM      2  C   UNL     1       4.560   5.274   8.751  1.00  0.00     0.000 C 
BRANCH   2   3
ATOM      3  C   UNL     1       3.508   5.120   7.636  1.00  0.00     0.000 C 
BRANCH   3   4
ATOM      4  C   UNL     1       2.060   5.431   8.059  1.00  0.00     0.000 C 
BRANCH   4   5
ATOM      5  C   UNL     1       1.140   4.192   8.085  1.00  0.00     0.001 C 
BRANCH   5   6
ATOM      6  C   UNL     1       1.433   3.265   9.278  1.00  0.00     0.009 C 
BRANCH   6   7
ATOM      7  C   UNL     1       1.415   4.021  10.621  1.00  0.00     0.032 C 
ATOM      8  C   UNL     1       2.619   3.623  11.481  1.00  0.00     0.014 C 
BRANCH   7   9
ATOM      9  C   UNL     1       0.142   3.759  11.380  1.00  0.00     0.044 C 
ATOM     10  O   UNL     1      -0.736   2.995  10.898  1.00  0.00    -0.550 OA
ATOM     11  O   UNL     1      -0.077   4.359  12.615  1.00  0.00    -0.550 OA
ENDBRANCH   7   9
ENDBRANCH   6   7
ENDBRANCH   5   6
ENDBRANCH   4   5
ENDBRANCH   3   4
ENDBRANCH   2   3
ENDBRANCH   1   2
BRANCH   1  12
ATOM     12  C   UNL     1       5.182   2.862   8.143  1.00  0.00     0.000 C 
BRANCH  12  13
ATOM     13  C   UNL     1       4.864   1.821   9.222  1.00  0.00    -0.000 C 
BRANCH  13  14
ATOM     14  C   UNL     1       6.116   1.015   9.599  1.00  0.00    -0.000 C 
BRANCH  14  15
ATOM     15  C   UNL     1       7.039   0.757   8.389  1.00  0.00    -0.000 C 
BRANCH  15  16
ATOM     16  C   UNL     1       8.515   1.113   8.648  1.00  0.00    -0.000 C 
BRANCH  16  17
ATOM     17  C   UNL     1       8.821   1.636  10.064  1.00  0.00    -0.000 C 
BRANCH  17  18
ATOM     18  C   UNL     1       9.277   3.106  10.125  1.00  0.00    -0.003 C 
ATOM     19  C   UNL     1       9.336   3.769   8.751  1.00  0.00     0.004 C 
ENDBRANCH  17  18
ENDBRANCH  16  17
ENDBRANCH  15  16
ENDBRANCH  14  15
ENDBRANCH  13  14
ENDBRANCH  12  13
ENDBRANCH   1  12
TORSDOF 14
ENDMDL
MODEL 9
REMARK VINA RESULT:    -3.882      3.316      6.144
REMARK INTER + INTRA:          -9.445
REMARK INTER:                  -6.904
REMARK INTRA:                  -2.541
REMARK UNBOUND:                -2.386
REMARK SMILES CCCCCCCCCCCCCC[C@H](C)C(=O)[O-]
REMARK SMILES IDX 9 1 10 2 11 3 12 4 13 5 14 6 15 7 16 8 17 9 18 10 19 11 8 12
REMARK SMILES IDX 7 13 6 14 5 15 4 16 3 17 2 18 1 19
REMARK H PARENT
REMARK Flexibility Score: inf
ROOT
ATOM      1  C   UNL     1      -7.182  -2.276   9.191  1.00  0.00     0.000 C 
ENDROOT
BRANCH   1   2
ATOM      2  C   UNL     1      -5.722  -2.734   9.020  1.00  0.00     0.000 C 
BRANCH   2   3
ATOM      3  C   UNL     1      -5.518  -4.261   9.005  1.00  0.00     0.000 C 
BRANCH   3   4
ATOM      4  C   UNL     1      -4.166  -4.744   9.565  1.00  0.00     0.000 C 
BRANCH   4   5
ATOM      5  C   UNL     1      -3.137  -5.112   8.475  1.00  0.00     0.001 C 
BRANCH   5   6
ATOM      6  C   UNL     1      -1.870  -4.240   8.544  1.00  0.00     0.009 C 
BRANCH   6   7
ATOM      7  C   UNL     1      -2.012  -3.084   9.554  1.00  0.00     0.032 C 
ATOM      8  C   UNL     1      -2.102  -1.739   8.825  1.00  0.00     0.014 C 
BRANCH   7   9
ATOM      9  C   UNL     1      -0.861  -3.059  10.523  1.00  0.00     0.044 C 
ATOM     10  O   UNL     1       0.297  -2.765  10.123  1.00  0.00    -0.550 OA
ATOM     11  O   UNL     1      -1.065  -3.361  11.864  1.00  0.00    -0.550 OA
ENDBRANCH   7   9
ENDBRANCH   6   7
ENDBRANCH   5   6
ENDBRANCH   4   5
ENDBRANCH   3   4
ENDBRANCH   2   3
ENDBRANCH   1   2
BRANCH   1  12
ATOM     12  C   UNL     1      -8.193  -3.418   9.017  1.00  0.00     0.000 C 
BRANCH  12  13
ATOM     13  C   UNL     1      -9.342  -2.997   8.094  1.00  0.00    -0.000 C 
BRANCH  13  14
ATOM     14  C   UNL     1      -8.841  -2.760   6.661  1.00  0.00    -0.000 C 
BRANCH  14  15
ATOM     15  C   UNL     1      -8.115  -3.992   6.078  1.00  0.00    -0.000 C 
BRANCH  15  16
ATOM     16  C   UNL     1      -6.743  -3.666   5.457  1.00  0.00    -0.000 C 
BRANCH  16  17
ATOM     17  C   UNL     1      -6.403  -2.166   5.378  1.00  0.00    -0.000 C 
BRANCH  17  18
ATOM     18  C   UNL     1      -4.917  -1.827   5.600  1.00  0.00    -0.003 C 
ATOM     19  C   UNL     1      -4.013  -3.058   5.554  1.00  0.00     0.004 C 
ENDBRANCH  17  18
ENDBRANCH  16  17
ENDBRANCH  15  16
ENDBRANCH  14  15
ENDBRANCH  13  14
ENDBRANCH  12  13
ENDBRANCH   1  12
TORSDOF 14
ENDMDL
