MODEL 1
REMARK VINA RESULT:    -7.037      0.000      0.000
REMARK INTER + INTRA:         -11.640
REMARK INTER:                 -10.123
REMARK INTRA:                  -1.517
REMARK UNBOUND:                -1.517
REMARK SMILES CC(C)=CCCC(C)=CCCC(C)=CCO
REMARK SMILES IDX 10 1 9 2 7 3 8 4 6 5 5 6 4 7 1 8 2 9 3 10 11 11 12 12 14 13
REMARK SMILES IDX 13 14 15 15 16 16
REMARK H PARENT 16 17
REMARK Flexibility Score: inf
ROOT
ATOM      1  C   UNL     1     -16.991   1.931  -7.347  1.00  0.00     0.032 C 
ENDROOT
BRANCH   1   2
ATOM      2  C   UNL     1     -16.793   2.768  -6.104  1.00  0.00    -0.028 C 
ATOM      3  C   UNL     1     -17.036   2.306  -4.858  1.00  0.00    -0.077 C 
ATOM      4  C   UNL     1     -17.538   0.900  -4.623  1.00  0.00     0.039 C 
BRANCH   3   5
ATOM      5  C   UNL     1     -16.802   3.217  -3.670  1.00  0.00     0.034 C 
BRANCH   5   6
ATOM      6  C   UNL     1     -15.349   3.709  -3.603  1.00  0.00     0.032 C 
BRANCH   6   7
ATOM      7  C   UNL     1     -14.421   2.641  -3.073  1.00  0.00    -0.028 C 
ATOM      8  C   UNL     1     -12.599   0.995  -3.127  1.00  0.00     0.039 C 
ATOM      9  C   UNL     1     -13.486   2.002  -3.811  1.00  0.00    -0.080 C 
ATOM     10  C   UNL     1     -13.321   2.256  -5.291  1.00  0.00     0.039 C 
ENDBRANCH   6   7
ENDBRANCH   5   6
ENDBRANCH   3   5
ENDBRANCH   1   2
BRANCH   1  11
ATOM     11  C   UNL     1     -15.815   2.056  -8.326  1.00  0.00     0.034 C 
BRANCH  11  12
ATOM     12  C   UNL     1     -15.003   0.778  -8.399  1.00  0.00    -0.075 C 
ATOM     13  C   UNL     1     -14.167   0.574  -9.443  1.00  0.00    -0.000 C 
ATOM     14  C   UNL     1     -15.183  -0.259  -7.317  1.00  0.00     0.039 C 
BRANCH  13  15
ATOM     15  C   UNL     1     -13.341  -0.669  -9.624  1.00  0.00     0.183 C 
BRANCH  15  16
ATOM     16  O   UNL     1     -13.763  -1.357 -10.768  1.00  0.00    -0.392 OA
ATOM     17  H   UNL     1     -13.913  -0.667 -11.465  1.00  0.00     0.210 HD
ENDBRANCH  15  16
ENDBRANCH  13  15
ENDBRANCH  11  12
ENDBRANCH   1  11
TORSDOF 8
ENDMDL
MODEL 2
REMARK VINA RESULT:    -6.899      1.404      2.135
REMARK INTER + INTRA:         -11.441
REMARK INTER:                 -10.545
REMARK INTRA:                  -0.896
REMARK UNBOUND:                -1.517
REMARK SMILES CC(C)=CCCC(C)=CCCC(C)=CCO
REMARK SMILES IDX 10 1 9 2 7 3 8 4 6 5 5 6 4 7 1 8 2 9 3 10 11 11 12 12 14 13
REMARK SMILES IDX 13 14 15 15 16 16
REMARK H PARENT 16 17
REMARK Flexibility Score: inf
ROOT
ATOM      1  C   UNL     1     -16.597   1.975  -5.767  1.00  0.00     0.032 C 
ENDROOT
BRANCH   1   2
ATOM      2  C   UNL     1     -15.811   2.790  -4.764  1.00  0.00    -0.028 C 
ATOM      3  C   UNL     1     -16.385   3.426  -3.720  1.00  0.00    -0.077 C 
ATOM      4  C   UNL     1     -17.877   3.371  -3.488  1.00  0.00     0.039 C 
BRANCH   3   5
ATOM      5  C   UNL     1     -15.516   4.213  -2.762  1.00  0.00     0.034 C 
BRANCH   5   6
ATOM      6  C   UNL     1     -14.024   3.906  -2.958  1.00  0.00     0.032 C 
BRANCH   6   7
ATOM      7  C   UNL     1     -13.488   3.014  -1.863  1.00  0.00    -0.028 C 
ATOM      8  C   UNL     1     -12.275   1.120  -0.875  1.00  0.00     0.039 C 
ATOM      9  C   UNL     1     -12.788   1.877  -2.073  1.00  0.00    -0.080 C 
ATOM     10  C   UNL     1     -12.526   1.341  -3.461  1.00  0.00     0.039 C 
ENDBRANCH   6   7
ENDBRANCH   5   6
ENDBRANCH   3   5
ENDBRANCH   1   2
BRANCH   1  11
ATOM     11  C   UNL     1     -16.939   2.779  -7.030  1.00  0.00     0.034 C 
BRANCH  11  12
ATOM     12  C   UNL     1     -16.423   2.105  -8.285  1.00  0.00    -0.075 C 
ATOM     13  C   UNL     1     -15.167   1.604  -8.308  1.00  0.00    -0.000 C 
ATOM     14  C   UNL     1     -17.317   2.049  -9.499  1.00  0.00     0.039 C 
BRANCH  13  15
ATOM     15  C   UNL     1     -14.549   0.944  -9.509  1.00  0.00     0.183 C 
BRANCH  15  16
ATOM     16  O   UNL     1     -13.276   0.461  -9.185  1.00  0.00    -0.392 OA
ATOM     17  H   UNL     1     -12.759   1.245  -8.863  1.00  0.00     0.210 HD
ENDBRANCH  15  16
ENDBRANCH  13  15
ENDBRANCH  11  12
ENDBRANCH   1  11
TORSDOF 8
ENDMDL
MODEL 3
REMARK VINA RESULT:    -6.778      2.383      3.805
REMARK INTER + INTRA:         -11.266
REMARK INTER:                 -10.443
REMARK INTRA:                  -0.823
REMARK UNBOUND:                -1.517
REMARK SMILES CC(C)=CCCC(C)=CCCC(C)=CCO
REMARK SMILES IDX 10 1 9 2 7 3 8 4 6 5 5 6 4 7 1 8 2 9 3 10 11 11 12 12 14 13
REMARK SMILES IDX 13 14 15 15 16 16
REMARK H PARENT 16 17
REMARK Flexibility Score: inf
ROOT
ATOM      1  C   UNL     1     -16.612   1.886  -5.723  1.00  0.00     0.032 C 
ENDROOT
BRANCH   1   2
ATOM      2  C   UNL     1     -15.848   2.599  -4.631  1.00  0.00    -0.028 C 
ATOM      3  C   UNL     1     -16.453   3.289  -3.639  1.00  0.00    -0.077 C 
ATOM      4  C   UNL     1     -17.957   3.400  -3.561  1.00  0.00     0.039 C 
BRANCH   3   5
ATOM      5  C   UNL     1     -15.604   3.966  -2.582  1.00  0.00     0.034 C 
BRANCH   5   6
ATOM      6  C   UNL     1     -15.109   5.345  -3.042  1.00  0.00     0.032 C 
BRANCH   6   7
ATOM      7  C   UNL     1     -15.477   6.429  -2.056  1.00  0.00    -0.028 C 
ATOM      8  C   UNL     1     -16.796   8.266  -1.097  1.00  0.00     0.039 C 
ATOM      9  C   UNL     1     -16.527   7.268  -2.194  1.00  0.00    -0.080 C 
ATOM     10  C   UNL     1     -17.418   7.243  -3.413  1.00  0.00     0.039 C 
ENDBRANCH   6   7
ENDBRANCH   5   6
ENDBRANCH   3   5
ENDBRANCH   1   2
BRANCH   1  11
ATOM     11  C   UNL     1     -16.812   2.767  -6.965  1.00  0.00     0.034 C 
BRANCH  11  12
ATOM     12  C   UNL     1     -16.325   2.083  -8.227  1.00  0.00    -0.075 C 
ATOM     13  C   UNL     1     -15.048   1.647  -8.301  1.00  0.00    -0.000 C 
ATOM     14  C   UNL     1     -17.276   1.946  -9.391  1.00  0.00     0.039 C 
BRANCH  13  15
ATOM     15  C   UNL     1     -14.458   0.983  -9.515  1.00  0.00     0.183 C 
BRANCH  15  16
ATOM     16  O   UNL     1     -13.260   0.346  -9.173  1.00  0.00    -0.392 OA
ATOM     17  H   UNL     1     -12.696   0.363  -9.990  1.00  0.00     0.210 HD
ENDBRANCH  15  16
ENDBRANCH  13  15
ENDBRANCH  11  12
ENDBRANCH   1  11
TORSDOF 8
ENDMDL
MODEL 4
REMARK VINA RESULT:    -6.772      1.428      1.603
REMARK INTER + INTRA:         -11.258
REMARK INTER:                 -10.047
REMARK INTRA:                  -1.211
REMARK UNBOUND:                -1.517
REMARK SMILES CC(C)=CCCC(C)=CCCC(C)=CCO
REMARK SMILES IDX 10 1 9 2 7 3 8 4 6 5 5 6 4 7 1 8 2 9 3 10 11 11 12 12 14 13
REMARK SMILES IDX 13 14 15 15 16 16
REMARK H PARENT 16 17
REMARK Flexibility Score: inf
ROOT
ATOM      1  C   UNL     1     -16.467   2.092  -7.925  1.00  0.00     0.032 C 
ENDROOT
BRANCH   1   2
ATOM      2  C   UNL     1     -16.568   2.689  -6.540  1.00  0.00    -0.028 C 
ATOM      3  C   UNL     1     -16.856   1.958  -5.441  1.00  0.00    -0.077 C 
ATOM      4  C   UNL     1     -17.107   0.470  -5.530  1.00  0.00     0.039 C 
BRANCH   3   5
ATOM      5  C   UNL     1     -16.929   2.642  -4.092  1.00  0.00     0.034 C 
BRANCH   5   6
ATOM      6  C   UNL     1     -15.669   3.472  -3.802  1.00  0.00     0.032 C 
BRANCH   6   7
ATOM      7  C   UNL     1     -14.632   2.670  -3.052  1.00  0.00    -0.028 C 
ATOM      8  C   UNL     1     -12.546   1.416  -2.717  1.00  0.00     0.039 C 
ATOM      9  C   UNL     1     -13.515   2.151  -3.608  1.00  0.00    -0.080 C 
ATOM     10  C   UNL     1     -13.224   2.271  -5.085  1.00  0.00     0.039 C 
ENDBRANCH   6   7
ENDBRANCH   5   6
ENDBRANCH   3   5
ENDBRANCH   1   2
BRANCH   1  11
ATOM     11  C   UNL     1     -15.029   1.690  -8.282  1.00  0.00     0.034 C 
BRANCH  11  12
ATOM     12  C   UNL     1     -14.994   0.544  -9.274  1.00  0.00    -0.075 C 
ATOM     13  C   UNL     1     -16.134   0.156  -9.890  1.00  0.00    -0.000 C 
ATOM     14  C   UNL     1     -13.684  -0.165  -9.517  1.00  0.00     0.039 C 
BRANCH  13  15
ATOM     15  C   UNL     1     -16.212  -0.984 -10.866  1.00  0.00     0.183 C 
BRANCH  15  16
ATOM     16  O   UNL     1     -17.518  -1.100 -11.359  1.00  0.00    -0.392 OA
ATOM     17  H   UNL     1     -17.541  -1.944 -11.880  1.00  0.00     0.210 HD
ENDBRANCH  15  16
ENDBRANCH  13  15
ENDBRANCH  11  12
ENDBRANCH   1  11
TORSDOF 8
ENDMDL
MODEL 5
REMARK VINA RESULT:    -6.724      2.146      3.513
REMARK INTER + INTRA:         -11.188
REMARK INTER:                 -10.482
REMARK INTRA:                  -0.706
REMARK UNBOUND:                -1.517
REMARK SMILES CC(C)=CCCC(C)=CCCC(C)=CCO
REMARK SMILES IDX 10 1 9 2 7 3 8 4 6 5 5 6 4 7 1 8 2 9 3 10 11 11 12 12 14 13
REMARK SMILES IDX 13 14 15 15 16 16
REMARK H PARENT 16 17
REMARK Flexibility Score: inf
ROOT
ATOM      1  C   UNL     1     -15.283   0.956  -5.853  1.00  0.00     0.032 C 
ENDROOT
BRANCH   1   2
ATOM      2  C   UNL     1     -15.934   1.983  -4.955  1.00  0.00    -0.028 C 
ATOM      3  C   UNL     1     -17.114   1.776  -4.332  1.00  0.00    -0.077 C 
ATOM      4  C   UNL     1     -17.877   0.483  -4.501  1.00  0.00     0.039 C 
BRANCH   3   5
ATOM      5  C   UNL     1     -17.686   2.862  -3.444  1.00  0.00     0.034 C 
BRANCH   5   6
ATOM      6  C   UNL     1     -17.756   4.215  -4.167  1.00  0.00     0.032 C 
BRANCH   6   7
ATOM      7  C   UNL     1     -17.632   5.371  -3.203  1.00  0.00    -0.028 C 
ATOM      8  C   UNL     1     -16.498   7.055  -1.820  1.00  0.00     0.039 C 
ATOM      9  C   UNL     1     -16.461   5.862  -2.739  1.00  0.00    -0.080 C 
ATOM     10  C   UNL     1     -15.132   5.240  -3.100  1.00  0.00     0.039 C 
ENDBRANCH   6   7
ENDBRANCH   5   6
ENDBRANCH   3   5
ENDBRANCH   1   2
BRANCH   1  11
ATOM     11  C   UNL     1     -14.429   1.602  -6.953  1.00  0.00     0.034 C 
BRANCH  11  12
ATOM     12  C   UNL     1     -15.160   1.649  -8.280  1.00  0.00    -0.075 C 
ATOM     13  C   UNL     1     -16.406   2.170  -8.339  1.00  0.00    -0.000 C 
ATOM     14  C   UNL     1     -14.486   1.071  -9.501  1.00  0.00     0.039 C 
BRANCH  13  15
ATOM     15  C   UNL     1     -17.227   2.238  -9.597  1.00  0.00     0.183 C 
BRANCH  15  16
ATOM     16  O   UNL     1     -17.841   1.002  -9.832  1.00  0.00    -0.392 OA
ATOM     17  H   UNL     1     -18.443   1.137 -10.610  1.00  0.00     0.210 HD
ENDBRANCH  15  16
ENDBRANCH  13  15
ENDBRANCH  11  12
ENDBRANCH   1  11
TORSDOF 8
ENDMDL
MODEL 6
REMARK VINA RESULT:    -6.635      2.142      3.247
REMARK INTER + INTRA:         -11.060
REMARK INTER:                  -9.850
REMARK INTRA:                  -1.210
REMARK UNBOUND:                -1.517
REMARK SMILES CC(C)=CCCC(C)=CCCC(C)=CCO
REMARK SMILES IDX 10 1 9 2 7 3 8 4 6 5 5 6 4 7 1 8 2 9 3 10 11 11 12 12 14 13
REMARK SMILES IDX 13 14 15 15 16 16
REMARK H PARENT 16 17
REMARK Flexibility Score: inf
ROOT
ATOM      1  C   UNL     1     -17.186   2.024  -5.216  1.00  0.00     0.032 C 
ENDROOT
BRANCH   1   2
ATOM      2  C   UNL     1     -17.375   2.511  -3.797  1.00  0.00    -0.028 C 
ATOM      3  C   UNL     1     -17.991   3.674  -3.493  1.00  0.00    -0.077 C 
ATOM      4  C   UNL     1     -18.534   4.583  -4.570  1.00  0.00     0.039 C 
BRANCH   3   5
ATOM      5  C   UNL     1     -18.140   4.076  -2.040  1.00  0.00     0.034 C 
BRANCH   5   6
ATOM      6  C   UNL     1     -16.788   4.101  -1.311  1.00  0.00     0.032 C 
BRANCH   6   7
ATOM      7  C   UNL     1     -15.849   5.122  -1.907  1.00  0.00    -0.028 C 
ATOM      8  C   UNL     1     -13.861   5.954  -3.087  1.00  0.00     0.039 C 
ATOM      9  C   UNL     1     -14.665   4.828  -2.490  1.00  0.00    -0.080 C 
ATOM     10  C   UNL     1     -14.125   3.419  -2.541  1.00  0.00     0.039 C 
ENDBRANCH   6   7
ENDBRANCH   5   6
ENDBRANCH   3   5
ENDBRANCH   1   2
BRANCH   1  11
ATOM     11  C   UNL     1     -15.821   2.425  -5.793  1.00  0.00     0.034 C 
BRANCH  11  12
ATOM     12  C   UNL     1     -15.706   2.078  -7.264  1.00  0.00    -0.075 C 
ATOM     13  C   UNL     1     -16.788   2.196  -8.066  1.00  0.00    -0.000 C 
ATOM     14  C   UNL     1     -14.387   1.564  -7.788  1.00  0.00     0.039 C 
BRANCH  13  15
ATOM     15  C   UNL     1     -16.788   1.851  -9.530  1.00  0.00     0.183 C 
BRANCH  15  16
ATOM     16  O   UNL     1     -18.035   1.330  -9.896  1.00  0.00    -0.392 OA
ATOM     17  H   UNL     1     -18.433   0.960  -9.065  1.00  0.00     0.210 HD
ENDBRANCH  15  16
ENDBRANCH  13  15
ENDBRANCH  11  12
ENDBRANCH   1  11
TORSDOF 8
ENDMDL
MODEL 7
REMARK VINA RESULT:    -6.629      1.807      3.841
REMARK INTER + INTRA:         -11.052
REMARK INTER:                  -9.927
REMARK INTRA:                  -1.125
REMARK UNBOUND:                -1.517
REMARK SMILES CC(C)=CCCC(C)=CCCC(C)=CCO
REMARK SMILES IDX 10 1 9 2 7 3 8 4 6 5 5 6 4 7 1 8 2 9 3 10 11 11 12 12 14 13
REMARK SMILES IDX 13 14 15 15 16 16
REMARK H PARENT 16 17
REMARK Flexibility Score: inf
ROOT
ATOM      1  C   UNL     1     -13.767   2.070  -6.205  1.00  0.00     0.032 C 
ENDROOT
BRANCH   1   2
ATOM      2  C   UNL     1     -14.114   3.019  -5.080  1.00  0.00    -0.028 C 
ATOM      3  C   UNL     1     -13.712   2.828  -3.805  1.00  0.00    -0.077 C 
ATOM      4  C   UNL     1     -12.881   1.629  -3.412  1.00  0.00     0.039 C 
BRANCH   3   5
ATOM      5  C   UNL     1     -14.102   3.838  -2.745  1.00  0.00     0.034 C 
BRANCH   5   6
ATOM      6  C   UNL     1     -15.520   3.588  -2.210  1.00  0.00     0.032 C 
BRANCH   6   7
ATOM      7  C   UNL     1     -16.560   4.332  -3.014  1.00  0.00    -0.028 C 
ATOM      8  C   UNL     1     -18.533   4.620  -4.448  1.00  0.00     0.039 C 
ATOM      9  C   UNL     1     -17.536   3.741  -3.739  1.00  0.00    -0.080 C 
ATOM     10  C   UNL     1     -17.640   2.240  -3.869  1.00  0.00     0.039 C 
ENDBRANCH   6   7
ENDBRANCH   5   6
ENDBRANCH   3   5
ENDBRANCH   1   2
BRANCH   1  11
ATOM     11  C   UNL     1     -14.959   1.194  -6.616  1.00  0.00     0.034 C 
BRANCH  11  12
ATOM     12  C   UNL     1     -15.423   1.497  -8.027  1.00  0.00    -0.075 C 
ATOM     13  C   UNL     1     -16.660   2.004  -8.230  1.00  0.00    -0.000 C 
ATOM     14  C   UNL     1     -14.499   1.181  -9.178  1.00  0.00     0.039 C 
BRANCH  13  15
ATOM     15  C   UNL     1     -17.226   2.312  -9.589  1.00  0.00     0.183 C 
BRANCH  15  16
ATOM     16  O   UNL     1     -18.127   1.309  -9.967  1.00  0.00    -0.392 OA
ATOM     17  H   UNL     1     -18.069   1.246 -10.956  1.00  0.00     0.210 HD
ENDBRANCH  15  16
ENDBRANCH  13  15
ENDBRANCH  11  12
ENDBRANCH   1  11
TORSDOF 8
ENDMDL
MODEL 8
REMARK VINA RESULT:    -6.531      3.087      6.293
REMARK INTER + INTRA:         -10.911
REMARK INTER:                  -9.811
REMARK INTRA:                  -1.100
REMARK UNBOUND:                -1.517
REMARK SMILES CC(C)=CCCC(C)=CCCC(C)=CCO
REMARK SMILES IDX 10 1 9 2 7 3 8 4 6 5 5 6 4 7 1 8 2 9 3 10 11 11 12 12 14 13
REMARK SMILES IDX 13 14 15 15 16 16
REMARK H PARENT 16 17
REMARK Flexibility Score: inf
ROOT
ATOM      1  C   UNL     1     -12.267   1.841  -3.532  1.00  0.00     0.032 C 
ENDROOT
BRANCH   1   2
ATOM      2  C   UNL     1     -13.514   1.063  -3.888  1.00  0.00    -0.028 C 
ATOM      3  C   UNL     1     -14.224   1.285  -5.015  1.00  0.00    -0.077 C 
ATOM      4  C   UNL     1     -13.817   2.350  -6.006  1.00  0.00     0.039 C 
BRANCH   3   5
ATOM      5  C   UNL     1     -15.457   0.449  -5.291  1.00  0.00     0.034 C 
BRANCH   5   6
ATOM      6  C   UNL     1     -15.505  -0.038  -6.747  1.00  0.00     0.032 C 
BRANCH   6   7
ATOM      7  C   UNL     1     -16.487   0.760  -7.572  1.00  0.00    -0.028 C 
ATOM      8  C   UNL     1     -17.308   2.042  -9.499  1.00  0.00     0.039 C 
ATOM      9  C   UNL     1     -16.206   1.317  -8.771  1.00  0.00    -0.080 C 
ATOM     10  C   UNL     1     -14.828   1.248  -9.385  1.00  0.00     0.039 C 
ENDBRANCH   6   7
ENDBRANCH   5   6
ENDBRANCH   3   5
ENDBRANCH   1   2
BRANCH   1  11
ATOM     11  C   UNL     1     -12.530   2.902  -2.454  1.00  0.00     0.034 C 
BRANCH  11  12
ATOM     12  C   UNL     1     -12.818   4.262  -3.059  1.00  0.00    -0.075 C 
ATOM     13  C   UNL     1     -11.800   5.004  -3.551  1.00  0.00    -0.000 C 
ATOM     14  C   UNL     1     -14.238   4.772  -3.055  1.00  0.00     0.039 C 
BRANCH  13  15
ATOM     15  C   UNL     1     -11.973   6.374  -4.145  1.00  0.00     0.183 C 
BRANCH  15  16
ATOM     16  O   UNL     1     -11.473   6.394  -5.452  1.00  0.00    -0.392 OA
ATOM     17  H   UNL     1     -11.140   5.476  -5.632  1.00  0.00     0.210 HD
ENDBRANCH  15  16
ENDBRANCH  13  15
ENDBRANCH  11  12
ENDBRANCH   1  11
TORSDOF 8
ENDMDL
MODEL 9
REMARK VINA RESULT:    -6.395      1.490      2.393
REMARK INTER + INTRA:         -10.716
REMARK INTER:                  -9.727
REMARK INTRA:                  -0.989
REMARK UNBOUND:                -1.517
REMARK SMILES CC(C)=CCCC(C)=CCCC(C)=CCO
REMARK SMILES IDX 10 1 9 2 7 3 8 4 6 5 5 6 4 7 1 8 2 9 3 10 11 11 12 12 14 13
REMARK SMILES IDX 13 14 15 15 16 16
REMARK H PARENT 16 17
REMARK Flexibility Score: inf
ROOT
ATOM      1  C   UNL     1     -14.943   1.264  -6.401  1.00  0.00     0.032 C 
ENDROOT
BRANCH   1   2
ATOM      2  C   UNL     1     -15.816   2.412  -5.949  1.00  0.00    -0.028 C 
ATOM      3  C   UNL     1     -16.914   2.246  -5.181  1.00  0.00    -0.077 C 
ATOM      4  C   UNL     1     -17.353   0.875  -4.721  1.00  0.00     0.039 C 
BRANCH   3   5
ATOM      5  C   UNL     1     -17.723   3.458  -4.770  1.00  0.00     0.034 C 
BRANCH   5   6
ATOM      6  C   UNL     1     -17.522   3.807  -3.288  1.00  0.00     0.032 C 
BRANCH   6   7
ATOM      7  C   UNL     1     -16.561   4.958  -3.109  1.00  0.00    -0.028 C 
ATOM      8  C   UNL     1     -14.402   6.067  -2.732  1.00  0.00     0.039 C 
ATOM      9  C   UNL     1     -15.245   4.823  -2.830  1.00  0.00    -0.080 C 
ATOM     10  C   UNL     1     -14.609   3.472  -2.600  1.00  0.00     0.039 C 
ENDBRANCH   6   7
ENDBRANCH   5   6
ENDBRANCH   3   5
ENDBRANCH   1   2
BRANCH   1  11
ATOM     11  C   UNL     1     -14.120   1.613  -7.649  1.00  0.00     0.034 C 
BRANCH  11  12
ATOM     12  C   UNL     1     -14.706   0.997  -8.903  1.00  0.00    -0.075 C 
ATOM     13  C   UNL     1     -14.108  -0.079  -9.463  1.00  0.00    -0.000 C 
ATOM     14  C   UNL     1     -15.927   1.633  -9.522  1.00  0.00     0.039 C 
BRANCH  13  15
ATOM     15  C   UNL     1     -14.592  -0.747 -10.720  1.00  0.00     0.183 C 
BRANCH  15  16
ATOM     16  O   UNL     1     -13.635  -1.664 -11.170  1.00  0.00    -0.392 OA
ATOM     17  H   UNL     1     -13.926  -1.943 -12.077  1.00  0.00     0.210 HD
ENDBRANCH  15  16
ENDBRANCH  13  15
ENDBRANCH  11  12
ENDBRANCH   1  11
TORSDOF 8
ENDMDL
