MODEL 1
REMARK VINA RESULT:    -3.248      0.000      0.000
REMARK INTER + INTRA:          -5.403
REMARK INTER:                  -4.958
REMARK INTRA:                  -0.446
REMARK UNBOUND:                -0.446
REMARK SMILES CC1=CCC[C@H](C)C(=O)C[C@H](C(C)C)C(=O)C1
REMARK SMILES IDX 8 1 9 2 6 3 7 4 5 5 4 6 3 7 2 8 1 9 10 11 11 12 15 13 16 14
REMARK SMILES IDX 17 15 12 17 13 18 14 19
REMARK H PARENT
REMARK Flexibility Score: 70.00
ROOT
ATOM      1  C   UNL     1      86.559  35.780  25.470  1.00  0.00     0.136 C 
ATOM      2  O   UNL     1      86.683  34.721  24.871  1.00  0.00    -0.299 OA
ENDROOT
BRANCH   1   3
ATOM      3  C   UNL     1      86.775  37.094  24.736  1.00  0.00     0.053 C 
ATOM      4  C   UNL     1      88.230  37.269  24.275  1.00  0.00     0.016 C 
BRANCH   3   5
ATOM      5  C   UNL     1      85.770  37.327  23.580  1.00  0.00     0.015 C 
BRANCH   5   6
ATOM      6  C   UNL     1      84.309  36.864  23.773  1.00  0.00     0.028 C 
BRANCH   6   7
ATOM      7  C   UNL     1      83.350  37.826  24.436  1.00  0.00    -0.028 C 
ATOM      8  C   UNL     1      83.026  37.870  25.751  1.00  0.00    -0.070 CG0
ATOM      9  C   UNL     1      82.197  39.037  26.228  1.00  0.00     0.039 C 
ATOM     10  G   UNL     1      83.372  36.782  26.749  1.00  0.00     0.000 G0
ENDBRANCH   6   7
ENDBRANCH   5   6
ENDBRANCH   3   5
ENDBRANCH   1   3
BRANCH   1  11
ATOM     11  C   UNL     1      86.208  35.740  26.944  1.00  0.00     0.087 C 
BRANCH  11  12
ATOM     12  C   UNL     1      85.859  37.133  27.526  1.00  0.00     0.066 C 
BRANCH  12  13
ATOM     13  C   UNL     1      84.365  37.275  27.769  1.00  0.00     0.140 C 
ATOM     14  O   UNL     1      83.965  37.746  28.823  1.00  0.00    -0.299 OA
BRANCH  13  15
ATOM     15  C   UNL     1      83.356  36.766  26.764  1.00  0.00     0.106 CG0
ATOM     16  G   UNL     1      83.015  37.861  25.773  1.00  0.00     0.000 G0
ENDBRANCH  13  15
ENDBRANCH  12  13
BRANCH  12  17
ATOM     17  C   UNL     1      86.738  37.515  28.759  1.00  0.00    -0.006 C 
ATOM     18  C   UNL     1      87.086  36.271  29.593  1.00  0.00     0.008 C 
ATOM     19  C   UNL     1      88.023  38.297  28.432  1.00  0.00     0.008 C 
ENDBRANCH  12  17
ENDBRANCH  11  12
ENDBRANCH   1  11
TORSDOF 1
ENDMDL
MODEL 2
REMARK VINA RESULT:    -3.149      2.438      4.789
REMARK INTER + INTRA:          -5.252
REMARK INTER:                  -4.824
REMARK INTRA:                  -0.429
REMARK UNBOUND:                -0.446
REMARK SMILES CC1=CCC[C@H](C)C(=O)C[C@H](C(C)C)C(=O)C1
REMARK SMILES IDX 8 1 9 2 6 3 7 4 5 5 4 6 3 7 2 8 1 9 10 11 11 12 15 13 16 14
REMARK SMILES IDX 17 15 12 17 13 18 14 19
REMARK H PARENT
REMARK Flexibility Score: 70.00
ROOT
ATOM      1  C   UNL     1      85.569  36.753  26.945  1.00  0.00     0.136 C 
ATOM      2  O   UNL     1      84.494  37.010  27.467  1.00  0.00    -0.299 OA
ENDROOT
BRANCH   1   3
ATOM      3  C   UNL     1      86.632  36.001  27.732  1.00  0.00     0.053 C 
ATOM      4  C   UNL     1      87.142  36.807  28.936  1.00  0.00     0.016 C 
BRANCH   3   5
ATOM      5  C   UNL     1      86.202  34.568  28.136  1.00  0.00     0.015 C 
BRANCH   5   6
ATOM      6  C   UNL     1      86.245  33.459  27.062  1.00  0.00     0.028 C 
BRANCH   6   7
ATOM      7  C   UNL     1      84.988  33.211  26.260  1.00  0.00    -0.028 C 
ATOM      8  C   UNL     1      84.868  33.246  24.910  1.00  0.00    -0.070 CG0
ATOM      9  C   UNL     1      83.566  32.776  24.312  1.00  0.00     0.039 C 
ATOM     10  G   UNL     1      85.924  33.805  23.977  1.00  0.00     0.000 G0
ENDBRANCH   6   7
ENDBRANCH   5   6
ENDBRANCH   3   5
ENDBRANCH   1   3
BRANCH   1  11
ATOM     11  C   UNL     1      85.811  37.215  25.522  1.00  0.00     0.087 C 
BRANCH  11  12
ATOM     12  C   UNL     1      86.679  36.229  24.700  1.00  0.00     0.066 C 
BRANCH  12  13
ATOM     13  C   UNL     1      85.818  35.310  23.849  1.00  0.00     0.140 C 
ATOM     14  O   UNL     1      84.972  35.787  23.107  1.00  0.00    -0.299 OA
BRANCH  13  15
ATOM     15  C   UNL     1      85.928  33.805  23.963  1.00  0.00     0.106 CG0
ATOM     16  G   UNL     1      84.865  33.279  24.907  1.00  0.00     0.000 G0
ENDBRANCH  13  15
ENDBRANCH  12  13
BRANCH  12  17
ATOM     17  C   UNL     1      87.820  36.941  23.905  1.00  0.00    -0.006 C 
ATOM     18  C   UNL     1      88.413  38.104  24.716  1.00  0.00     0.008 C 
ATOM     19  C   UNL     1      88.951  36.018  23.415  1.00  0.00     0.008 C 
ENDBRANCH  12  17
ENDBRANCH  11  12
ENDBRANCH   1  11
TORSDOF 1
ENDMDL
MODEL 3
REMARK VINA RESULT:    -3.125      2.079      5.228
REMARK INTER + INTRA:          -5.215
REMARK INTER:                  -4.831
REMARK INTRA:                  -0.383
REMARK UNBOUND:                -0.446
REMARK SMILES CC1=CCC[C@H](C)C(=O)C[C@H](C(C)C)C(=O)C1
REMARK SMILES IDX 8 1 9 2 6 3 7 4 5 5 4 6 3 7 2 8 1 9 10 11 11 12 15 13 16 14
REMARK SMILES IDX 17 15 12 17 13 18 14 19
REMARK H PARENT
REMARK Flexibility Score: 70.00
ROOT
ATOM      1  C   UNL     1      85.519  37.146  27.815  1.00  0.00     0.136 C 
ATOM      2  O   UNL     1      84.637  37.695  28.459  1.00  0.00    -0.299 OA
ENDROOT
BRANCH   1   3
ATOM      3  C   UNL     1      86.865  36.865  28.463  1.00  0.00     0.053 C 
ATOM      4  C   UNL     1      87.724  38.132  28.589  1.00  0.00     0.016 C 
BRANCH   3   5
ATOM      5  C   UNL     1      86.756  36.104  29.809  1.00  0.00     0.015 C 
BRANCH   5   6
ATOM      6  C   UNL     1      86.121  34.696  29.806  1.00  0.00     0.028 C 
BRANCH   6   7
ATOM      7  C   UNL     1      86.839  33.605  29.047  1.00  0.00    -0.028 C 
ATOM      8  C   UNL     1      86.641  33.251  27.753  1.00  0.00    -0.070 CG0
ATOM      9  C   UNL     1      87.605  32.265  27.142  1.00  0.00     0.039 C 
ATOM     10  G   UNL     1      85.468  33.719  26.915  1.00  0.00     0.000 G0
ENDBRANCH   6   7
ENDBRANCH   5   6
ENDBRANCH   3   5
ENDBRANCH   1   3
BRANCH   1  11
ATOM     11  C   UNL     1      85.237  36.776  26.372  1.00  0.00     0.087 C 
BRANCH  11  12
ATOM     12  C   UNL     1      86.356  35.915  25.733  1.00  0.00     0.066 C 
BRANCH  12  13
ATOM     13  C   UNL     1      85.964  34.447  25.682  1.00  0.00     0.140 C 
ATOM     14  O   UNL     1      85.990  33.850  24.616  1.00  0.00    -0.299 OA
BRANCH  13  15
ATOM     15  C   UNL     1      85.461  33.726  26.913  1.00  0.00     0.106 CG0
ATOM     16  G   UNL     1      86.632  33.276  27.764  1.00  0.00     0.000 G0
ENDBRANCH  13  15
ENDBRANCH  12  13
BRANCH  12  17
ATOM     17  C   UNL     1      86.856  36.484  24.368  1.00  0.00    -0.006 C 
ATOM     18  C   UNL     1      85.726  37.218  23.630  1.00  0.00     0.008 C 
ATOM     19  C   UNL     1      88.098  37.390  24.450  1.00  0.00     0.008 C 
ENDBRANCH  12  17
ENDBRANCH  11  12
ENDBRANCH   1  11
TORSDOF 1
ENDMDL
MODEL 4
REMARK VINA RESULT:    -3.025      2.468      3.565
REMARK INTER + INTRA:          -5.063
REMARK INTER:                  -5.387
REMARK INTRA:                   0.324
REMARK UNBOUND:                -0.446
REMARK SMILES CC1=CCC[C@H](C)C(=O)C[C@H](C(C)C)C(=O)C1
REMARK SMILES IDX 8 1 9 2 6 3 7 4 5 5 4 6 3 7 2 8 1 9 10 11 11 12 15 13 16 14
REMARK SMILES IDX 17 15 12 17 13 18 14 19
REMARK H PARENT
REMARK Flexibility Score: 70.00
ROOT
ATOM      1  C   UNL     1      87.988  38.259  27.948  1.00  0.00     0.136 C 
ATOM      2  O   UNL     1      87.837  38.955  28.941  1.00  0.00    -0.299 OA
ENDROOT
BRANCH   1   3
ATOM      3  C   UNL     1      88.595  38.858  26.690  1.00  0.00     0.053 C 
ATOM      4  C   UNL     1      90.086  39.183  26.862  1.00  0.00     0.016 C 
BRANCH   3   5
ATOM      5  C   UNL     1      88.330  38.016  25.416  1.00  0.00     0.015 C 
BRANCH   5   6
ATOM      6  C   UNL     1      86.871  37.852  24.935  1.00  0.00     0.028 C 
BRANCH   6   7
ATOM      7  C   UNL     1      86.529  36.607  24.149  1.00  0.00    -0.028 C 
ATOM      8  C   UNL     1      86.183  35.398  24.655  1.00  0.00    -0.070 CG0
ATOM      9  C   UNL     1      85.691  34.350  23.688  1.00  0.00     0.039 C 
ATOM     10  G   UNL     1      86.338  35.011  26.113  1.00  0.00     0.000 G0
ENDBRANCH   6   7
ENDBRANCH   5   6
ENDBRANCH   3   5
ENDBRANCH   1   3
BRANCH   1  11
ATOM     11  C   UNL     1      87.543  36.811  28.005  1.00  0.00     0.087 C 
BRANCH  11  12
ATOM     12  C   UNL     1      86.008  36.649  28.139  1.00  0.00     0.066 C 
BRANCH  12  13
ATOM     13  C   UNL     1      85.433  35.840  26.988  1.00  0.00     0.140 C 
ATOM     14  O   UNL     1      84.226  35.827  26.799  1.00  0.00    -0.299 OA
BRANCH  13  15
ATOM     15  C   UNL     1      86.320  34.978  26.115  1.00  0.00     0.106 CG0
ATOM     16  G   UNL     1      86.194  35.407  24.667  1.00  0.00     0.000 G0
ENDBRANCH  13  15
ENDBRANCH  12  13
BRANCH  12  17
ATOM     17  C   UNL     1      85.571  36.140  29.549  1.00  0.00    -0.006 C 
ATOM     18  C   UNL     1      86.741  35.457  30.275  1.00  0.00     0.008 C 
ATOM     19  C   UNL     1      84.940  37.205  30.465  1.00  0.00     0.008 C 
ENDBRANCH  12  17
ENDBRANCH  11  12
ENDBRANCH   1  11
TORSDOF 1
ENDMDL
MODEL 5
REMARK VINA RESULT:    -2.988      2.274      3.854
REMARK INTER + INTRA:          -5.006
REMARK INTER:                  -5.026
REMARK INTRA:                   0.020
REMARK UNBOUND:                -0.446
REMARK SMILES CC1=CCC[C@H](C)C(=O)C[C@H](C(C)C)C(=O)C1
REMARK SMILES IDX 8 1 9 2 6 3 7 4 5 5 4 6 3 7 2 8 1 9 10 11 11 12 15 13 16 14
REMARK SMILES IDX 17 15 12 17 13 18 14 19
REMARK H PARENT
REMARK Flexibility Score: 70.00
ROOT
ATOM      1  C   UNL     1      84.388  36.740  21.574  1.00  0.00     0.136 C 
ATOM      2  O   UNL     1      84.142  36.329  20.449  1.00  0.00    -0.299 OA
ENDROOT
BRANCH   1   3
ATOM      3  C   UNL     1      84.115  38.194  21.924  1.00  0.00     0.053 C 
ATOM      4  C   UNL     1      84.090  39.096  20.680  1.00  0.00     0.016 C 
BRANCH   3   5
ATOM      5  C   UNL     1      82.857  38.391  22.807  1.00  0.00     0.015 C 
BRANCH   5   6
ATOM      6  C   UNL     1      83.023  39.092  24.174  1.00  0.00     0.028 C 
BRANCH   6   7
ATOM      7  C   UNL     1      82.480  38.384  25.394  1.00  0.00    -0.028 C 
ATOM      8  C   UNL     1      83.195  37.701  26.321  1.00  0.00    -0.070 CG0
ATOM      9  C   UNL     1      82.472  37.240  27.561  1.00  0.00     0.039 C 
ATOM     10  G   UNL     1      84.648  37.302  26.148  1.00  0.00     0.000 G0
ENDBRANCH   6   7
ENDBRANCH   5   6
ENDBRANCH   3   5
ENDBRANCH   1   3
BRANCH   1  11
ATOM     11  C   UNL     1      84.978  35.775  22.583  1.00  0.00     0.087 C 
BRANCH  11  12
ATOM     12  C   UNL     1      85.596  36.483  23.815  1.00  0.00     0.066 C 
BRANCH  12  13
ATOM     13  C   UNL     1      84.773  36.233  25.068  1.00  0.00     0.140 C 
ATOM     14  O   UNL     1      84.136  35.196  25.177  1.00  0.00    -0.299 OA
BRANCH  13  15
ATOM     15  C   UNL     1      84.658  37.281  26.154  1.00  0.00     0.106 CG0
ATOM     16  G   UNL     1      83.209  37.693  26.322  1.00  0.00     0.000 G0
ENDBRANCH  13  15
ENDBRANCH  12  13
BRANCH  12  17
ATOM     17  C   UNL     1      87.119  36.184  23.988  1.00  0.00    -0.006 C 
ATOM     18  C   UNL     1      87.648  35.332  22.824  1.00  0.00     0.008 C 
ATOM     19  C   UNL     1      88.014  37.424  24.175  1.00  0.00     0.008 C 
ENDBRANCH  12  17
ENDBRANCH  11  12
ENDBRANCH   1  11
TORSDOF 1
ENDMDL
MODEL 6
REMARK VINA RESULT:    -2.976      2.571      4.375
REMARK INTER + INTRA:          -4.987
REMARK INTER:                  -5.025
REMARK INTRA:                   0.038
REMARK UNBOUND:                -0.446
REMARK SMILES CC1=CCC[C@H](C)C(=O)C[C@H](C(C)C)C(=O)C1
REMARK SMILES IDX 8 1 9 2 6 3 7 4 5 5 4 6 3 7 2 8 1 9 10 11 11 12 15 13 16 14
REMARK SMILES IDX 17 15 12 17 13 18 14 19
REMARK H PARENT
REMARK Flexibility Score: 70.00
ROOT
ATOM      1  C   UNL     1      87.946  37.817  25.395  1.00  0.00     0.136 C 
ATOM      2  O   UNL     1      88.594  37.893  24.362  1.00  0.00    -0.299 OA
ENDROOT
BRANCH   1   3
ATOM      3  C   UNL     1      88.577  38.229  26.716  1.00  0.00     0.053 C 
ATOM      4  C   UNL     1      89.554  39.403  26.552  1.00  0.00     0.016 C 
BRANCH   3   5
ATOM      5  C   UNL     1      87.543  38.490  27.840  1.00  0.00     0.015 C 
BRANCH   5   6
ATOM      6  C   UNL     1      87.502  37.518  29.040  1.00  0.00     0.028 C 
BRANCH   6   7
ATOM      7  C   UNL     1      86.144  37.109  29.564  1.00  0.00    -0.028 C 
ATOM      8  C   UNL     1      85.471  35.970  29.268  1.00  0.00    -0.070 CG0
ATOM      9  C   UNL     1      84.219  35.674  30.056  1.00  0.00     0.039 C 
ATOM     10  G   UNL     1      85.850  35.026  28.145  1.00  0.00     0.000 G0
ENDBRANCH   6   7
ENDBRANCH   5   6
ENDBRANCH   3   5
ENDBRANCH   1   3
BRANCH   1  11
ATOM     11  C   UNL     1      86.525  37.293  25.321  1.00  0.00     0.087 C 
BRANCH  11  12
ATOM     12  C   UNL     1      86.411  35.789  25.675  1.00  0.00     0.066 C 
BRANCH  12  13
ATOM     13  C   UNL     1      85.410  35.558  26.796  1.00  0.00     0.140 C 
ATOM     14  O   UNL     1      84.242  35.883  26.641  1.00  0.00    -0.299 OA
BRANCH  13  15
ATOM     15  C   UNL     1      85.846  35.008  28.136  1.00  0.00     0.106 CG0
ATOM     16  G   UNL     1      85.473  35.979  29.239  1.00  0.00     0.000 G0
ENDBRANCH  13  15
ENDBRANCH  12  13
BRANCH  12  17
ATOM     17  C   UNL     1      86.177  34.886  24.423  1.00  0.00    -0.006 C 
ATOM     18  C   UNL     1      86.256  35.709  23.128  1.00  0.00     0.008 C 
ATOM     19  C   UNL     1      87.102  33.659  24.317  1.00  0.00     0.008 C 
ENDBRANCH  12  17
ENDBRANCH  11  12
ENDBRANCH   1  11
TORSDOF 1
ENDMDL
MODEL 7
REMARK VINA RESULT:    -2.888      1.937      5.106
REMARK INTER + INTRA:          -4.852
REMARK INTER:                  -4.631
REMARK INTRA:                  -0.222
REMARK UNBOUND:                -0.446
REMARK SMILES CC1=CCC[C@H](C)C(=O)C[C@H](C(C)C)C(=O)C1
REMARK SMILES IDX 8 1 9 2 6 3 7 4 5 5 4 6 3 7 2 8 1 9 10 11 11 12 15 13 16 14
REMARK SMILES IDX 17 15 12 17 13 18 14 19
REMARK H PARENT
REMARK Flexibility Score: 70.00
ROOT
ATOM      1  C   UNL     1      84.090  38.976  29.966  1.00  0.00     0.136 C 
ATOM      2  O   UNL     1      83.766  40.108  30.293  1.00  0.00    -0.299 OA
ENDROOT
BRANCH   1   3
ATOM      3  C   UNL     1      85.445  38.426  30.384  1.00  0.00     0.053 C 
ATOM      4  C   UNL     1      85.377  36.939  30.762  1.00  0.00     0.016 C 
BRANCH   3   5
ATOM      5  C   UNL     1      86.570  38.711  29.357  1.00  0.00     0.015 C 
BRANCH   5   6
ATOM      6  C   UNL     1      87.258  37.510  28.670  1.00  0.00     0.028 C 
BRANCH   6   7
ATOM      7  C   UNL     1      87.120  37.388  27.170  1.00  0.00    -0.028 C 
ATOM      8  C   UNL     1      85.990  37.095  26.481  1.00  0.00    -0.070 CG0
ATOM      9  C   UNL     1      86.038  37.216  24.978  1.00  0.00     0.039 C 
ATOM     10  G   UNL     1      84.717  36.575  27.118  1.00  0.00     0.000 G0
ENDBRANCH   6   7
ENDBRANCH   5   6
ENDBRANCH   3   5
ENDBRANCH   1   3
BRANCH   1  11
ATOM     11  C   UNL     1      83.123  38.159  29.132  1.00  0.00     0.087 C 
BRANCH  11  12
ATOM     12  C   UNL     1      83.073  38.601  27.648  1.00  0.00     0.066 C 
BRANCH  12  13
ATOM     13  C   UNL     1      83.535  37.488  26.722  1.00  0.00     0.140 C 
ATOM     14  O   UNL     1      82.930  37.275  25.682  1.00  0.00    -0.299 OA
BRANCH  13  15
ATOM     15  C   UNL     1      84.683  36.579  27.101  1.00  0.00     0.106 CG0
ATOM     16  G   UNL     1      85.972  37.090  26.488  1.00  0.00     0.000 G0
ENDBRANCH  13  15
ENDBRANCH  12  13
BRANCH  12  17
ATOM     17  C   UNL     1      81.701  39.229  27.246  1.00  0.00    -0.006 C 
ATOM     18  C   UNL     1      80.706  39.173  28.417  1.00  0.00     0.008 C 
ATOM     19  C   UNL     1      81.772  40.663  26.691  1.00  0.00     0.008 C 
ENDBRANCH  12  17
ENDBRANCH  11  12
ENDBRANCH   1  11
TORSDOF 1
ENDMDL
MODEL 8
REMARK VINA RESULT:    -2.841      2.732      4.782
REMARK INTER + INTRA:          -4.782
REMARK INTER:                  -4.568
REMARK INTRA:                  -0.214
REMARK UNBOUND:                -0.446
REMARK SMILES CC1=CCC[C@H](C)C(=O)C[C@H](C(C)C)C(=O)C1
REMARK SMILES IDX 8 1 9 2 6 3 7 4 5 5 4 6 3 7 2 8 1 9 10 11 11 12 15 13 16 14
REMARK SMILES IDX 17 15 12 17 13 18 14 19
REMARK H PARENT
REMARK Flexibility Score: 70.00
ROOT
ATOM      1  C   UNL     1      86.090  35.463  30.768  1.00  0.00     0.136 C 
ATOM      2  O   UNL     1      85.776  35.620  31.939  1.00  0.00    -0.299 OA
ENDROOT
BRANCH   1   3
ATOM      3  C   UNL     1      87.212  34.503  30.408  1.00  0.00     0.053 C 
ATOM      4  C   UNL     1      88.072  34.131  31.626  1.00  0.00     0.016 C 
BRANCH   3   5
ATOM      5  C   UNL     1      86.728  33.248  29.638  1.00  0.00     0.015 C 
BRANCH   5   6
ATOM      6  C   UNL     1      87.067  33.134  28.135  1.00  0.00     0.028 C 
BRANCH   6   7
ATOM      7  C   UNL     1      85.927  33.246  27.149  1.00  0.00    -0.028 C 
ATOM      8  C   UNL     1      85.711  34.256  26.271  1.00  0.00    -0.070 CG0
ATOM      9  C   UNL     1      84.621  34.069  25.245  1.00  0.00     0.039 C 
ATOM     10  G   UNL     1      86.437  35.586  26.310  1.00  0.00     0.000 G0
ENDBRANCH   6   7
ENDBRANCH   5   6
ENDBRANCH   3   5
ENDBRANCH   1   3
BRANCH   1  11
ATOM     11  C   UNL     1      85.349  36.255  29.708  1.00  0.00     0.087 C 
BRANCH  11  12
ATOM     12  C   UNL     1      86.283  36.843  28.622  1.00  0.00     0.066 C 
BRANCH  12  13
ATOM     13  C   UNL     1      85.752  36.567  27.225  1.00  0.00     0.140 C 
ATOM     14  O   UNL     1      84.706  37.085  26.861  1.00  0.00    -0.299 OA
BRANCH  13  15
ATOM     15  C   UNL     1      86.448  35.594  26.299  1.00  0.00     0.106 CG0
ATOM     16  G   UNL     1      85.702  34.274  26.280  1.00  0.00     0.000 G0
ENDBRANCH  13  15
ENDBRANCH  12  13
BRANCH  12  17
ATOM     17  C   UNL     1      86.644  38.341  28.876  1.00  0.00    -0.006 C 
ATOM     18  C   UNL     1      85.940  38.871  30.135  1.00  0.00     0.008 C 
ATOM     19  C   UNL     1      88.151  38.649  28.954  1.00  0.00     0.008 C 
ENDBRANCH  12  17
ENDBRANCH  11  12
ENDBRANCH   1  11
TORSDOF 1
ENDMDL
MODEL 9
REMARK VINA RESULT:    -2.676      3.389      5.082
REMARK INTER + INTRA:          -4.529
REMARK INTER:                  -4.173
REMARK INTRA:                  -0.356
REMARK UNBOUND:                -0.446
REMARK SMILES CC1=CCC[C@H](C)C(=O)C[C@H](C(C)C)C(=O)C1
REMARK SMILES IDX 8 1 9 2 6 3 7 4 5 5 4 6 3 7 2 8 1 9 10 11 11 12 15 13 16 14
REMARK SMILES IDX 17 15 12 17 13 18 14 19
REMARK H PARENT
REMARK Flexibility Score: 70.00
ROOT
ATOM      1  C   UNL     1      86.719  36.450  29.575  1.00  0.00     0.136 C 
ATOM      2  O   UNL     1      87.494  36.953  28.774  1.00  0.00    -0.299 OA
ENDROOT
BRANCH   1   3
ATOM      3  C   UNL     1      85.402  37.142  29.890  1.00  0.00     0.053 C 
ATOM      4  C   UNL     1      85.607  38.578  30.395  1.00  0.00     0.016 C 
BRANCH   3   5
ATOM      5  C   UNL     1      84.378  37.078  28.728  1.00  0.00     0.015 C 
BRANCH   5   6
ATOM      6  C   UNL     1      84.545  35.971  27.663  1.00  0.00     0.028 C 
BRANCH   6   7
ATOM      7  C   UNL     1      83.649  34.758  27.768  1.00  0.00    -0.028 C 
ATOM      8  C   UNL     1      83.926  33.599  28.415  1.00  0.00    -0.070 CG0
ATOM      9  C   UNL     1      82.810  32.594  28.557  1.00  0.00     0.039 C 
ATOM     10  G   UNL     1      85.301  33.219  28.926  1.00  0.00     0.000 G0
ENDBRANCH   6   7
ENDBRANCH   5   6
ENDBRANCH   3   5
ENDBRANCH   1   3
BRANCH   1  11
ATOM     11  C   UNL     1      87.115  35.149  30.244  1.00  0.00     0.087 C 
BRANCH  11  12
ATOM     12  C   UNL     1      85.986  34.543  31.116  1.00  0.00     0.066 C 
BRANCH  12  13
ATOM     13  C   UNL     1      85.356  33.333  30.444  1.00  0.00     0.140 C 
ATOM     14  O   UNL     1      84.936  32.411  31.128  1.00  0.00    -0.299 OA
BRANCH  13  15
ATOM     15  C   UNL     1      85.313  33.206  28.938  1.00  0.00     0.106 CG0
ATOM     16  G   UNL     1      83.940  33.592  28.425  1.00  0.00     0.000 G0
ENDBRANCH  13  15
ENDBRANCH  12  13
BRANCH  12  17
ATOM     17  C   UNL     1      86.428  34.288  32.592  1.00  0.00    -0.006 C 
ATOM     18  C   UNL     1      87.960  34.283  32.715  1.00  0.00     0.008 C 
ATOM     19  C   UNL     1      85.825  35.250  33.632  1.00  0.00     0.008 C 
ENDBRANCH  12  17
ENDBRANCH  11  12
ENDBRANCH   1  11
TORSDOF 1
ENDMDL
