MODEL 1
REMARK VINA RESULT:    -6.574      0.000      0.000
REMARK INTER + INTRA:          -9.336
REMARK INTER:                  -8.303
REMARK INTRA:                  -1.033
REMARK UNBOUND:                -1.033
REMARK SMILES O=C(C=Cc1ccc(O)cc1)c1ccc(O)cc1O
REMARK SMILES IDX 4 1 3 2 5 3 6 4 7 5 8 6 11 7 10 8 9 9 2 11 1 12 12 13 18 14
REMARK SMILES IDX 13 15 17 16 14 17 15 18 19 19 16 21
REMARK H PARENT 9 10 19 20 16 22
REMARK Flexibility Score: inf
ROOT
ATOM      1  C   UNL     1       7.463  -5.387  48.332  1.00  0.00     0.012 C 
ATOM      2  C   UNL     1       6.707  -5.718  47.273  1.00  0.00     0.053 C 
ENDROOT
BRANCH   1   3
ATOM      3  C   UNL     1       7.135  -4.339  49.321  1.00  0.00    -0.025 A 
ATOM      4  C   UNL     1       7.791  -3.100  49.255  1.00  0.00     0.012 A 
ATOM      5  C   UNL     1       7.464  -2.079  50.152  1.00  0.00     0.047 A 
ATOM      6  C   UNL     1       6.461  -2.280  51.111  1.00  0.00     0.115 A 
ATOM      7  C   UNL     1       6.109  -4.524  50.264  1.00  0.00     0.012 A 
ATOM      8  C   UNL     1       5.783  -3.502  51.160  1.00  0.00     0.047 A 
BRANCH   6   9
ATOM      9  O   UNL     1       6.127  -1.270  52.011  1.00  0.00    -0.508 OA
ATOM     10  H   UNL     1       6.137  -1.427  53.011  1.00  0.00     0.293 HD
ENDBRANCH   6   9
ENDBRANCH   1   3
BRANCH   2  11
ATOM     11  C   UNL     1       5.333  -5.226  47.012  1.00  0.00     0.189 C 
ATOM     12  O   UNL     1       4.333  -5.859  47.447  1.00  0.00    -0.289 OA
BRANCH  11  13
ATOM     13  C   UNL     1       5.114  -4.030  46.171  1.00  0.00     0.064 A 
ATOM     14  C   UNL     1       4.546  -4.126  44.877  1.00  0.00     0.130 A 
ATOM     15  C   UNL     1       5.516  -2.768  46.648  1.00  0.00     0.020 A 
ATOM     16  C   UNL     1       4.413  -2.977  44.090  1.00  0.00     0.093 A 
ATOM     17  C   UNL     1       5.366  -1.628  45.856  1.00  0.00     0.047 A 
ATOM     18  C   UNL     1       4.817  -1.731  44.574  1.00  0.00     0.119 A 
BRANCH  14  19
ATOM     19  O   UNL     1       4.086  -5.338  44.356  1.00  0.00    -0.507 OA
ATOM     20  H   UNL     1       4.035  -6.190  44.896  1.00  0.00     0.293 HD
ENDBRANCH  14  19
BRANCH  18  21
ATOM     21  O   UNL     1       4.669  -0.600  43.773  1.00  0.00    -0.508 OA
ATOM     22  H   UNL     1       5.250  -0.448  42.958  1.00  0.00     0.293 HD
ENDBRANCH  18  21
ENDBRANCH  11  13
ENDBRANCH   2  11
TORSDOF 6
ENDMDL
MODEL 2
REMARK VINA RESULT:    -6.192      2.181      4.221
REMARK INTER + INTRA:          -8.854
REMARK INTER:                  -7.557
REMARK INTRA:                  -1.297
REMARK UNBOUND:                -1.033
REMARK SMILES O=C(C=Cc1ccc(O)cc1)c1ccc(O)cc1O
REMARK SMILES IDX 4 1 3 2 5 3 6 4 7 5 8 6 11 7 10 8 9 9 2 11 1 12 12 13 18 14
REMARK SMILES IDX 13 15 17 16 14 17 15 18 19 19 16 21
REMARK H PARENT 9 10 19 20 16 22
REMARK Flexibility Score: inf
ROOT
ATOM      1  C   UNL     1       5.469  -2.829  50.816  1.00  0.00     0.012 C 
ATOM      2  C   UNL     1       5.514  -4.087  51.284  1.00  0.00     0.053 C 
ENDROOT
BRANCH   1   3
ATOM      3  C   UNL     1       6.090  -2.364  49.558  1.00  0.00    -0.025 A 
ATOM      4  C   UNL     1       5.273  -2.049  48.462  1.00  0.00     0.012 A 
ATOM      5  C   UNL     1       5.836  -1.564  47.277  1.00  0.00     0.047 A 
ATOM      6  C   UNL     1       7.221  -1.368  47.186  1.00  0.00     0.115 A 
ATOM      7  C   UNL     1       7.475  -2.136  49.471  1.00  0.00     0.012 A 
ATOM      8  C   UNL     1       8.036  -1.652  48.287  1.00  0.00     0.047 A 
BRANCH   6   9
ATOM      9  O   UNL     1       7.793  -0.887  46.011  1.00  0.00    -0.508 OA
ATOM     10  H   UNL     1       8.790  -0.955  45.840  1.00  0.00     0.293 HD
ENDBRANCH   6   9
ENDBRANCH   1   3
BRANCH   2  11
ATOM     11  C   UNL     1       6.028  -5.262  50.542  1.00  0.00     0.189 C 
ATOM     12  O   UNL     1       6.860  -6.043  51.077  1.00  0.00    -0.289 OA
BRANCH  11  13
ATOM     13  C   UNL     1       5.632  -5.490  49.136  1.00  0.00     0.064 A 
ATOM     14  C   UNL     1       6.589  -5.538  48.094  1.00  0.00     0.130 A 
ATOM     15  C   UNL     1       4.268  -5.623  48.817  1.00  0.00     0.020 A 
ATOM     16  C   UNL     1       6.167  -5.695  46.769  1.00  0.00     0.093 A 
ATOM     17  C   UNL     1       3.860  -5.791  47.492  1.00  0.00     0.047 A 
ATOM     18  C   UNL     1       4.810  -5.824  46.464  1.00  0.00     0.119 A 
BRANCH  14  19
ATOM     19  O   UNL     1       7.962  -5.457  48.341  1.00  0.00    -0.507 OA
ATOM     20  H   UNL     1       8.353  -5.339  49.265  1.00  0.00     0.293 HD
ENDBRANCH  14  19
BRANCH  18  21
ATOM     21  O   UNL     1       4.414  -5.984  45.138  1.00  0.00    -0.508 OA
ATOM     22  H   UNL     1       4.740  -5.362  44.408  1.00  0.00     0.293 HD
ENDBRANCH  18  21
ENDBRANCH  11  13
ENDBRANCH   2  11
TORSDOF 6
ENDMDL
MODEL 3
REMARK VINA RESULT:    -6.150      2.178      3.964
REMARK INTER + INTRA:          -8.800
REMARK INTER:                  -7.415
REMARK INTRA:                  -1.385
REMARK UNBOUND:                -1.033
REMARK SMILES O=C(C=Cc1ccc(O)cc1)c1ccc(O)cc1O
REMARK SMILES IDX 4 1 3 2 5 3 6 4 7 5 8 6 11 7 10 8 9 9 2 11 1 12 12 13 18 14
REMARK SMILES IDX 13 15 17 16 14 17 15 18 19 19 16 21
REMARK H PARENT 9 10 19 20 16 22
REMARK Flexibility Score: inf
ROOT
ATOM      1  C   UNL     1       7.825  -5.227  49.378  1.00  0.00     0.012 C 
ATOM      2  C   UNL     1       8.522  -4.106  49.623  1.00  0.00     0.053 C 
ENDROOT
BRANCH   1   3
ATOM      3  C   UNL     1       6.352  -5.318  49.302  1.00  0.00    -0.025 A 
ATOM      4  C   UNL     1       5.599  -5.289  50.486  1.00  0.00     0.012 A 
ATOM      5  C   UNL     1       4.202  -5.327  50.435  1.00  0.00     0.047 A 
ATOM      6  C   UNL     1       3.545  -5.372  49.198  1.00  0.00     0.115 A 
ATOM      7  C   UNL     1       5.687  -5.331  48.064  1.00  0.00     0.012 A 
ATOM      8  C   UNL     1       4.291  -5.370  48.015  1.00  0.00     0.047 A 
BRANCH   6   9
ATOM      9  O   UNL     1       2.153  -5.412  49.135  1.00  0.00    -0.508 OA
ATOM     10  H   UNL     1       1.653  -6.283  49.003  1.00  0.00     0.293 HD
ENDBRANCH   6   9
ENDBRANCH   1   3
BRANCH   2  11
ATOM     11  C   UNL     1       7.955  -2.737  49.676  1.00  0.00     0.189 C 
ATOM     12  O   UNL     1       7.993  -2.070  50.745  1.00  0.00    -0.289 OA
BRANCH  11  13
ATOM     13  C   UNL     1       7.270  -2.166  48.497  1.00  0.00     0.064 A 
ATOM     14  C   UNL     1       5.913  -1.765  48.551  1.00  0.00     0.130 A 
ATOM     15  C   UNL     1       7.967  -2.055  47.280  1.00  0.00     0.020 A 
ATOM     16  C   UNL     1       5.284  -1.286  47.396  1.00  0.00     0.093 A 
ATOM     17  C   UNL     1       7.331  -1.564  46.138  1.00  0.00     0.047 A 
ATOM     18  C   UNL     1       5.986  -1.182  46.193  1.00  0.00     0.119 A 
BRANCH  14  19
ATOM     19  O   UNL     1       5.171  -1.807  49.734  1.00  0.00    -0.507 OA
ATOM     20  H   UNL     1       4.861  -2.668  50.163  1.00  0.00     0.293 HD
ENDBRANCH  14  19
BRANCH  18  21
ATOM     21  O   UNL     1       5.340  -0.698  45.058  1.00  0.00    -0.508 OA
ATOM     22  H   UNL     1       4.414  -1.017  44.797  1.00  0.00     0.293 HD
ENDBRANCH  18  21
ENDBRANCH  11  13
ENDBRANCH   2  11
TORSDOF 6
ENDMDL
MODEL 4
REMARK VINA RESULT:    -6.067      9.060     10.324
REMARK INTER + INTRA:          -8.696
REMARK INTER:                  -7.601
REMARK INTRA:                  -1.096
REMARK UNBOUND:                -1.033
REMARK SMILES O=C(C=Cc1ccc(O)cc1)c1ccc(O)cc1O
REMARK SMILES IDX 4 1 3 2 5 3 6 4 7 5 8 6 11 7 10 8 9 9 2 11 1 12 12 13 18 14
REMARK SMILES IDX 13 15 17 16 14 17 15 18 19 19 16 21
REMARK H PARENT 9 10 19 20 16 22
REMARK Flexibility Score: inf
ROOT
ATOM      1  C   UNL     1       9.585   5.303  53.936  1.00  0.00     0.012 C 
ATOM      2  C   UNL     1      10.736   5.163  53.258  1.00  0.00     0.053 C 
ENDROOT
BRANCH   1   3
ATOM      3  C   UNL     1       8.346   4.539  53.681  1.00  0.00    -0.025 A 
ATOM      4  C   UNL     1       8.199   3.260  54.240  1.00  0.00     0.012 A 
ATOM      5  C   UNL     1       7.016   2.539  54.049  1.00  0.00     0.047 A 
ATOM      6  C   UNL     1       5.961   3.099  53.316  1.00  0.00     0.115 A 
ATOM      7  C   UNL     1       7.273   5.108  52.974  1.00  0.00     0.012 A 
ATOM      8  C   UNL     1       6.092   4.386  52.784  1.00  0.00     0.047 A 
BRANCH   6   9
ATOM      9  O   UNL     1       4.778   2.389  53.119  1.00  0.00    -0.508 OA
ATOM     10  H   UNL     1       4.783   1.394  52.932  1.00  0.00     0.293 HD
ENDBRANCH   6   9
ENDBRANCH   1   3
BRANCH   2  11
ATOM     11  C   UNL     1      11.025   4.098  52.267  1.00  0.00     0.189 C 
ATOM     12  O   UNL     1      11.321   2.934  52.647  1.00  0.00    -0.289 OA
BRANCH  11  13
ATOM     13  C   UNL     1      11.047   4.409  50.822  1.00  0.00     0.064 A 
ATOM     14  C   UNL     1      12.233   4.298  50.057  1.00  0.00     0.130 A 
ATOM     15  C   UNL     1       9.871   4.864  50.197  1.00  0.00     0.020 A 
ATOM     16  C   UNL     1      12.224   4.660  48.705  1.00  0.00     0.093 A 
ATOM     17  C   UNL     1       9.873   5.211  48.844  1.00  0.00     0.047 A 
ATOM     18  C   UNL     1      11.052   5.112  48.096  1.00  0.00     0.119 A 
BRANCH  14  19
ATOM     19  O   UNL     1      13.425   3.812  50.600  1.00  0.00    -0.507 OA
ATOM     20  H   UNL     1      14.278   3.714  50.066  1.00  0.00     0.293 HD
ENDBRANCH  14  19
BRANCH  18  21
ATOM     21  O   UNL     1      11.067   5.462  46.747  1.00  0.00    -0.508 OA
ATOM     22  H   UNL     1      11.680   5.000  46.086  1.00  0.00     0.293 HD
ENDBRANCH  18  21
ENDBRANCH  11  13
ENDBRANCH   2  11
TORSDOF 6
ENDMDL
MODEL 5
REMARK VINA RESULT:    -5.898     12.652     14.848
REMARK INTER + INTRA:          -8.482
REMARK INTER:                  -7.537
REMARK INTRA:                  -0.945
REMARK UNBOUND:                -1.033
REMARK SMILES O=C(C=Cc1ccc(O)cc1)c1ccc(O)cc1O
REMARK SMILES IDX 4 1 3 2 5 3 6 4 7 5 8 6 11 7 10 8 9 9 2 11 1 12 12 13 18 14
REMARK SMILES IDX 13 15 17 16 14 17 15 18 19 19 16 21
REMARK H PARENT 9 10 19 20 16 22
REMARK Flexibility Score: inf
ROOT
ATOM      1  C   UNL     1       8.477  11.192  46.378  1.00  0.00     0.012 C 
ATOM      2  C   UNL     1       7.372  11.948  46.266  1.00  0.00     0.053 C 
ENDROOT
BRANCH   1   3
ATOM      3  C   UNL     1       8.494   9.747  46.684  1.00  0.00    -0.025 A 
ATOM      4  C   UNL     1       8.555   8.821  45.631  1.00  0.00     0.012 A 
ATOM      5  C   UNL     1       8.618   7.450  45.899  1.00  0.00     0.047 A 
ATOM      6  C   UNL     1       8.644   6.994  47.224  1.00  0.00     0.115 A 
ATOM      7  C   UNL     1       8.552   9.285  48.010  1.00  0.00     0.012 A 
ATOM      8  C   UNL     1       8.616   7.914  48.276  1.00  0.00     0.047 A 
BRANCH   6   9
ATOM      9  O   UNL     1       8.706   5.630  47.504  1.00  0.00    -0.508 OA
ATOM     10  H   UNL     1       8.377   4.938  46.841  1.00  0.00     0.293 HD
ENDBRANCH   6   9
ENDBRANCH   1   3
BRANCH   2  11
ATOM     11  C   UNL     1       5.980  11.438  46.245  1.00  0.00     0.189 C 
ATOM     12  O   UNL     1       5.578  10.718  45.292  1.00  0.00    -0.289 OA
BRANCH  11  13
ATOM     13  C   UNL     1       5.024  11.830  47.301  1.00  0.00     0.064 A 
ATOM     14  C   UNL     1       4.024  12.806  47.072  1.00  0.00     0.130 A 
ATOM     15  C   UNL     1       5.133  11.251  48.580  1.00  0.00     0.020 A 
ATOM     16  C   UNL     1       3.178  13.193  48.117  1.00  0.00     0.093 A 
ATOM     17  C   UNL     1       4.274  11.638  49.611  1.00  0.00     0.047 A 
ATOM     18  C   UNL     1       3.296  12.613  49.382  1.00  0.00     0.119 A 
BRANCH  14  19
ATOM     19  O   UNL     1       3.830  13.391  45.818  1.00  0.00    -0.507 OA
ATOM     20  H   UNL     1       4.564  13.861  45.306  1.00  0.00     0.293 HD
ENDBRANCH  14  19
BRANCH  18  21
ATOM     21  O   UNL     1       2.439  13.011  50.406  1.00  0.00    -0.508 OA
ATOM     22  H   UNL     1       1.852  13.832  50.317  1.00  0.00     0.293 HD
ENDBRANCH  18  21
ENDBRANCH  11  13
ENDBRANCH   2  11
TORSDOF 6
ENDMDL
MODEL 6
REMARK VINA RESULT:    -5.891      2.101      2.892
REMARK INTER + INTRA:          -8.474
REMARK INTER:                  -7.474
REMARK INTRA:                  -0.999
REMARK UNBOUND:                -1.033
REMARK SMILES O=C(C=Cc1ccc(O)cc1)c1ccc(O)cc1O
REMARK SMILES IDX 4 1 3 2 5 3 6 4 7 5 8 6 11 7 10 8 9 9 2 11 1 12 12 13 18 14
REMARK SMILES IDX 13 15 17 16 14 17 15 18 19 19 16 21
REMARK H PARENT 9 10 19 20 16 22
REMARK Flexibility Score: inf
ROOT
ATOM      1  C   UNL     1       5.687  -4.687  50.877  1.00  0.00     0.012 C 
ATOM      2  C   UNL     1       4.544  -5.101  50.306  1.00  0.00     0.053 C 
ENDROOT
BRANCH   1   3
ATOM      3  C   UNL     1       6.933  -4.360  50.154  1.00  0.00    -0.025 A 
ATOM      4  C   UNL     1       7.673  -5.392  49.557  1.00  0.00     0.012 A 
ATOM      5  C   UNL     1       8.831  -5.101  48.829  1.00  0.00     0.047 A 
ATOM      6  C   UNL     1       9.248  -3.772  48.674  1.00  0.00     0.115 A 
ATOM      7  C   UNL     1       7.339  -3.027  49.968  1.00  0.00     0.012 A 
ATOM      8  C   UNL     1       8.496  -2.738  49.241  1.00  0.00     0.047 A 
BRANCH   6   9
ATOM      9  O   UNL     1      10.400  -3.470  47.952  1.00  0.00    -0.508 OA
ATOM     10  H   UNL     1      11.184  -2.993  48.381  1.00  0.00     0.293 HD
ENDBRANCH   6   9
ENDBRANCH   1   3
BRANCH   2  11
ATOM     11  C   UNL     1       4.272  -5.125  48.848  1.00  0.00     0.189 C 
ATOM     12  O   UNL     1       3.715  -6.124  48.318  1.00  0.00    -0.289 OA
BRANCH  11  13
ATOM     13  C   UNL     1       4.721  -4.012  47.986  1.00  0.00     0.064 A 
ATOM     14  C   UNL     1       5.509  -4.239  46.832  1.00  0.00     0.130 A 
ATOM     15  C   UNL     1       4.392  -2.690  48.339  1.00  0.00     0.020 A 
ATOM     16  C   UNL     1       5.964  -3.152  46.076  1.00  0.00     0.093 A 
ATOM     17  C   UNL     1       4.844  -1.615  47.570  1.00  0.00     0.047 A 
ATOM     18  C   UNL     1       5.634  -1.844  46.438  1.00  0.00     0.119 A 
BRANCH  14  19
ATOM     19  O   UNL     1       5.837  -5.525  46.397  1.00  0.00    -0.507 OA
ATOM     20  H   UNL     1       6.715  -5.977  46.614  1.00  0.00     0.293 HD
ENDBRANCH  14  19
BRANCH  18  21
ATOM     21  O   UNL     1       6.094  -0.778  45.668  1.00  0.00    -0.508 OA
ATOM     22  H   UNL     1       6.566   0.014  46.086  1.00  0.00     0.293 HD
ENDBRANCH  18  21
ENDBRANCH  11  13
ENDBRANCH   2  11
TORSDOF 6
ENDMDL
MODEL 7
REMARK VINA RESULT:    -5.852     13.092     15.194
REMARK INTER + INTRA:          -8.424
REMARK INTER:                  -7.320
REMARK INTRA:                  -1.104
REMARK UNBOUND:                -1.033
REMARK SMILES O=C(C=Cc1ccc(O)cc1)c1ccc(O)cc1O
REMARK SMILES IDX 4 1 3 2 5 3 6 4 7 5 8 6 11 7 10 8 9 9 2 11 1 12 12 13 18 14
REMARK SMILES IDX 13 15 17 16 14 17 15 18 19 19 16 21
REMARK H PARENT 9 10 19 20 16 22
REMARK Flexibility Score: inf
ROOT
ATOM      1  C   UNL     1       8.354  13.351  47.492  1.00  0.00     0.012 C 
ATOM      2  C   UNL     1       8.741  13.140  46.223  1.00  0.00     0.053 C 
ENDROOT
BRANCH   1   3
ATOM      3  C   UNL     1       7.187  12.722  48.144  1.00  0.00    -0.025 A 
ATOM      4  C   UNL     1       7.326  11.453  48.728  1.00  0.00     0.012 A 
ATOM      5  C   UNL     1       6.248  10.859  49.390  1.00  0.00     0.047 A 
ATOM      6  C   UNL     1       5.026  11.538  49.494  1.00  0.00     0.115 A 
ATOM      7  C   UNL     1       5.969  13.411  48.279  1.00  0.00     0.012 A 
ATOM      8  C   UNL     1       4.892  12.815  48.941  1.00  0.00     0.047 A 
BRANCH   6   9
ATOM      9  O   UNL     1       3.944  10.955  50.151  1.00  0.00    -0.508 OA
ATOM     10  H   UNL     1       3.800  11.076  51.146  1.00  0.00     0.293 HD
ENDBRANCH   6   9
ENDBRANCH   1   3
BRANCH   2  11
ATOM     11  C   UNL     1       8.184  12.108  45.316  1.00  0.00     0.189 C 
ATOM     12  O   UNL     1       7.166  12.354  44.616  1.00  0.00    -0.289 OA
BRANCH  11  13
ATOM     13  C   UNL     1       8.770  10.751  45.279  1.00  0.00     0.064 A 
ATOM     14  C   UNL     1       8.010   9.606  45.619  1.00  0.00     0.130 A 
ATOM     15  C   UNL     1      10.126  10.595  44.938  1.00  0.00     0.020 A 
ATOM     16  C   UNL     1       8.619   8.346  45.629  1.00  0.00     0.093 A 
ATOM     17  C   UNL     1      10.719   9.330  44.941  1.00  0.00     0.047 A 
ATOM     18  C   UNL     1       9.967   8.203  45.291  1.00  0.00     0.119 A 
BRANCH  14  19
ATOM     19  O   UNL     1       6.649   9.681  45.926  1.00  0.00    -0.507 OA
ATOM     20  H   UNL     1       5.919   9.585  45.234  1.00  0.00     0.293 HD
ENDBRANCH  14  19
BRANCH  18  21
ATOM     21  O   UNL     1      10.550   6.938  45.304  1.00  0.00    -0.508 OA
ATOM     22  H   UNL     1      11.215   6.668  46.018  1.00  0.00     0.293 HD
ENDBRANCH  18  21
ENDBRANCH  11  13
ENDBRANCH   2  11
TORSDOF 6
ENDMDL
MODEL 8
REMARK VINA RESULT:    -5.747     12.116     14.313
REMARK INTER + INTRA:          -8.292
REMARK INTER:                  -7.593
REMARK INTRA:                  -0.699
REMARK UNBOUND:                -1.033
REMARK SMILES O=C(C=Cc1ccc(O)cc1)c1ccc(O)cc1O
REMARK SMILES IDX 4 1 3 2 5 3 6 4 7 5 8 6 11 7 10 8 9 9 2 11 1 12 12 13 18 14
REMARK SMILES IDX 13 15 17 16 14 17 15 18 19 19 16 21
REMARK H PARENT 9 10 19 20 16 22
REMARK Flexibility Score: inf
ROOT
ATOM      1  C   UNL     1       8.811  10.032  48.713  1.00  0.00     0.012 C 
ATOM      2  C   UNL     1       7.758  10.855  48.845  1.00  0.00     0.053 C 
ENDROOT
BRANCH   1   3
ATOM      3  C   UNL     1       9.114   9.218  47.518  1.00  0.00    -0.025 A 
ATOM      4  C   UNL     1      10.241   9.528  46.741  1.00  0.00     0.012 A 
ATOM      5  C   UNL     1      10.572   8.744  45.632  1.00  0.00     0.047 A 
ATOM      6  C   UNL     1       9.791   7.627  45.303  1.00  0.00     0.115 A 
ATOM      7  C   UNL     1       8.353   8.079  47.201  1.00  0.00     0.012 A 
ATOM      8  C   UNL     1       8.686   7.296  46.092  1.00  0.00     0.047 A 
BRANCH   6   9
ATOM      9  O   UNL     1      10.111   6.839  44.199  1.00  0.00    -0.508 OA
ATOM     10  H   UNL     1      11.036   6.855  43.786  1.00  0.00     0.293 HD
ENDBRANCH   6   9
ENDBRANCH   1   3
BRANCH   2  11
ATOM     11  C   UNL     1       6.823  11.233  47.758  1.00  0.00     0.189 C 
ATOM     12  O   UNL     1       7.260  11.694  46.670  1.00  0.00    -0.289 OA
BRANCH  11  13
ATOM     13  C   UNL     1       5.362  11.149  47.966  1.00  0.00     0.064 A 
ATOM     14  C   UNL     1       4.484  10.774  46.920  1.00  0.00     0.130 A 
ATOM     15  C   UNL     1       4.823  11.488  49.222  1.00  0.00     0.020 A 
ATOM     16  C   UNL     1       3.102  10.766  47.142  1.00  0.00     0.093 A 
ATOM     17  C   UNL     1       3.443  11.464  49.433  1.00  0.00     0.047 A 
ATOM     18  C   UNL     1       2.579  11.106  48.392  1.00  0.00     0.119 A 
BRANCH  14  19
ATOM     19  O   UNL     1       4.950  10.384  45.662  1.00  0.00    -0.507 OA
ATOM     20  H   UNL     1       4.352   9.997  44.946  1.00  0.00     0.293 HD
ENDBRANCH  14  19
BRANCH  18  21
ATOM     21  O   UNL     1       1.200  11.085  48.590  1.00  0.00    -0.508 OA
ATOM     22  H   UNL     1       0.553  11.296  47.840  1.00  0.00     0.293 HD
ENDBRANCH  18  21
ENDBRANCH  11  13
ENDBRANCH   2  11
TORSDOF 6
ENDMDL
MODEL 9
REMARK VINA RESULT:    -5.707      8.981     11.112
REMARK INTER + INTRA:          -8.241
REMARK INTER:                  -6.984
REMARK INTRA:                  -1.257
REMARK UNBOUND:                -1.033
REMARK SMILES O=C(C=Cc1ccc(O)cc1)c1ccc(O)cc1O
REMARK SMILES IDX 4 1 3 2 5 3 6 4 7 5 8 6 11 7 10 8 9 9 2 11 1 12 12 13 18 14
REMARK SMILES IDX 13 15 17 16 14 17 15 18 19 19 16 21
REMARK H PARENT 9 10 19 20 16 22
REMARK Flexibility Score: inf
ROOT
ATOM      1  C   UNL     1      11.333   4.261  51.621  1.00  0.00     0.012 C 
ATOM      2  C   UNL     1      10.917   3.910  52.849  1.00  0.00     0.053 C 
ENDROOT
BRANCH   1   3
ATOM      3  C   UNL     1      10.645   5.215  50.727  1.00  0.00    -0.025 A 
ATOM      4  C   UNL     1       9.726   4.734  49.783  1.00  0.00     0.012 A 
ATOM      5  C   UNL     1       9.030   5.623  48.957  1.00  0.00     0.047 A 
ATOM      6  C   UNL     1       9.231   7.004  49.085  1.00  0.00     0.115 A 
ATOM      7  C   UNL     1      10.819   6.603  50.872  1.00  0.00     0.012 A 
ATOM      8  C   UNL     1      10.123   7.490  50.046  1.00  0.00     0.047 A 
BRANCH   6   9
ATOM      9  O   UNL     1       8.544   7.900  48.268  1.00  0.00    -0.508 OA
ATOM     10  H   UNL     1       8.553   8.896  48.449  1.00  0.00     0.293 HD
ENDBRANCH   6   9
ENDBRANCH   1   3
BRANCH   2  11
ATOM     11  C   UNL     1       9.807   4.550  53.595  1.00  0.00     0.189 C 
ATOM     12  O   UNL     1      10.040   5.474  54.419  1.00  0.00    -0.289 OA
BRANCH  11  13
ATOM     13  C   UNL     1       8.421   4.060  53.439  1.00  0.00     0.064 A 
ATOM     14  C   UNL     1       7.405   4.873  52.882  1.00  0.00     0.130 A 
ATOM     15  C   UNL     1       8.091   2.768  53.891  1.00  0.00     0.020 A 
ATOM     16  C   UNL     1       6.092   4.392  52.809  1.00  0.00     0.093 A 
ATOM     17  C   UNL     1       6.780   2.297  53.801  1.00  0.00     0.047 A 
ATOM     18  C   UNL     1       5.777   3.110  53.262  1.00  0.00     0.119 A 
BRANCH  14  19
ATOM     19  O   UNL     1       7.668   6.148  52.374  1.00  0.00    -0.507 OA
ATOM     20  H   UNL     1       8.394   6.750  52.736  1.00  0.00     0.293 HD
ENDBRANCH  14  19
BRANCH  18  21
ATOM     21  O   UNL     1       4.464   2.651  53.174  1.00  0.00    -0.508 OA
ATOM     22  H   UNL     1       3.706   3.264  52.897  1.00  0.00     0.293 HD
ENDBRANCH  18  21
ENDBRANCH  11  13
ENDBRANCH   2  11
TORSDOF 6
ENDMDL
