MODEL 1
REMARK VINA RESULT:    -4.023      0.000      0.000
REMARK INTER + INTRA:         -15.488
REMARK INTER:                 -10.607
REMARK INTRA:                  -4.880
REMARK UNBOUND:                -4.880
REMARK SMILES CCCCCCCCCCCCCCCCCCCCCCCCCCCCCC(=O)[O-]
REMARK SMILES IDX 16 1 17 2 18 3 19 4 20 5 21 6 22 7 23 8 24 9 25 10 26 11
REMARK SMILES IDX 27 12 28 13 29 14 30 15 31 16 32 17 15 18 14 19 13 20 12 21
REMARK SMILES IDX 11 22 10 23 9 24 8 25 7 26 6 27 5 28 4 29 3 30 2 31 1 32
REMARK H PARENT
REMARK Flexibility Score: inf
ROOT
ATOM      1  C   UNL     1      31.514  35.208  19.793  1.00  0.00     0.000 C 
ENDROOT
BRANCH   1   2
ATOM      2  C   UNL     1      31.892  36.314  20.796  1.00  0.00     0.000 C 
BRANCH   2   3
ATOM      3  C   UNL     1      33.110  36.004  21.689  1.00  0.00     0.000 C 
BRANCH   3   4
ATOM      4  C   UNL     1      32.729  35.328  23.016  1.00  0.00     0.000 C 
BRANCH   4   5
ATOM      5  C   UNL     1      32.611  33.799  22.884  1.00  0.00     0.000 C 
BRANCH   5   6
ATOM      6  C   UNL     1      33.844  33.138  22.228  1.00  0.00     0.000 C 
BRANCH   6   7
ATOM      7  C   UNL     1      33.473  32.306  20.988  1.00  0.00     0.000 C 
BRANCH   7   8
ATOM      8  C   UNL     1      34.348  32.655  19.773  1.00  0.00     0.000 C 
BRANCH   8   9
ATOM      9  C   UNL     1      33.632  32.366  18.446  1.00  0.00     0.000 C 
BRANCH   9  10
ATOM     10  C   UNL     1      34.181  31.100  17.770  1.00  0.00     0.000 C 
BRANCH  10  11
ATOM     11  C   UNL     1      34.185  31.202  16.236  1.00  0.00     0.000 C 
BRANCH  11  12
ATOM     12  C   UNL     1      35.234  32.192  15.705  1.00  0.00     0.000 C 
BRANCH  12  13
ATOM     13  C   UNL     1      34.653  33.075  14.593  1.00  0.00     0.006 C 
BRANCH  13  14
ATOM     14  C   UNL     1      33.142  32.854  14.456  1.00  0.00     0.053 C 
BRANCH  14  15
ATOM     15  C   UNL     1      32.376  34.076  14.860  1.00  0.00     0.041 C 
ATOM     16  O   UNL     1      32.105  34.282  16.073  1.00  0.00    -0.550 OA
ATOM     17  O   UNL     1      31.982  35.001  13.902  1.00  0.00    -0.550 OA
ENDBRANCH  14  15
ENDBRANCH  13  14
ENDBRANCH  12  13
ENDBRANCH  11  12
ENDBRANCH  10  11
ENDBRANCH   9  10
ENDBRANCH   8   9
ENDBRANCH   7   8
ENDBRANCH   6   7
ENDBRANCH   5   6
ENDBRANCH   4   5
ENDBRANCH   3   4
ENDBRANCH   2   3
ENDBRANCH   1   2
BRANCH   1  18
ATOM     18  C   UNL     1      30.071  34.704  19.963  1.00  0.00     0.000 C 
BRANCH  18  19
ATOM     19  C   UNL     1      29.972  33.171  19.911  1.00  0.00     0.000 C 
BRANCH  19  20
ATOM     20  C   UNL     1      28.881  32.614  20.845  1.00  0.00     0.000 C 
BRANCH  20  21
ATOM     21  C   UNL     1      29.309  32.578  22.324  1.00  0.00     0.000 C 
BRANCH  21  22
ATOM     22  C   UNL     1      28.401  33.376  23.277  1.00  0.00     0.000 C 
BRANCH  22  23
ATOM     23  C   UNL     1      29.117  34.567  23.933  1.00  0.00     0.000 C 
BRANCH  23  24
ATOM     24  C   UNL     1      28.142  35.526  24.657  1.00  0.00    -0.000 C 
BRANCH  24  25
ATOM     25  C   UNL     1      27.726  36.740  23.805  1.00  0.00    -0.000 C 
BRANCH  25  26
ATOM     26  C   UNL     1      28.512  36.896  22.492  1.00  0.00    -0.000 C 
BRANCH  26  27
ATOM     27  C   UNL     1      27.746  37.690  21.411  1.00  0.00    -0.000 C 
BRANCH  27  28
ATOM     28  C   UNL     1      27.299  36.807  20.237  1.00  0.00    -0.000 C 
BRANCH  28  29
ATOM     29  C   UNL     1      26.710  35.482  20.737  1.00  0.00    -0.000 C 
BRANCH  29  30
ATOM     30  C   UNL     1      26.232  34.612  19.566  1.00  0.00    -0.000 C 
BRANCH  30  31
ATOM     31  C   UNL     1      25.098  33.656  19.965  1.00  0.00    -0.003 C 
ATOM     32  C   UNL     1      25.350  32.215  19.520  1.00  0.00     0.004 C 
ENDBRANCH  30  31
ENDBRANCH  29  30
ENDBRANCH  28  29
ENDBRANCH  27  28
ENDBRANCH  26  27
ENDBRANCH  25  26
ENDBRANCH  24  25
ENDBRANCH  23  24
ENDBRANCH  22  23
ENDBRANCH  21  22
ENDBRANCH  20  21
ENDBRANCH  19  20
ENDBRANCH  18  19
ENDBRANCH   1  18
TORSDOF 28
ENDMDL
MODEL 2
REMARK VINA RESULT:    -3.896      2.521      7.810
REMARK INTER + INTRA:         -15.155
REMARK INTER:                  -9.086
REMARK INTRA:                  -6.068
REMARK UNBOUND:                -4.880
REMARK SMILES CCCCCCCCCCCCCCCCCCCCCCCCCCCCCC(=O)[O-]
REMARK SMILES IDX 16 1 17 2 18 3 19 4 20 5 21 6 22 7 23 8 24 9 25 10 26 11
REMARK SMILES IDX 27 12 28 13 29 14 30 15 31 16 32 17 15 18 14 19 13 20 12 21
REMARK SMILES IDX 11 22 10 23 9 24 8 25 7 26 6 27 5 28 4 29 3 30 2 31 1 32
REMARK H PARENT
REMARK Flexibility Score: inf
ROOT
ATOM      1  C   UNL     1      31.385  35.783  20.120  1.00  0.00     0.000 C 
ENDROOT
BRANCH   1   2
ATOM      2  C   UNL     1      31.295  34.813  18.927  1.00  0.00     0.000 C 
BRANCH   2   3
ATOM      3  C   UNL     1      31.519  33.327  19.267  1.00  0.00     0.000 C 
BRANCH   3   4
ATOM      4  C   UNL     1      32.726  32.716  18.537  1.00  0.00     0.000 C 
BRANCH   4   5
ATOM      5  C   UNL     1      34.030  32.846  19.345  1.00  0.00     0.000 C 
BRANCH   5   6
ATOM      6  C   UNL     1      33.881  32.440  20.828  1.00  0.00     0.000 C 
BRANCH   6   7
ATOM      7  C   UNL     1      34.319  33.560  21.789  1.00  0.00     0.000 C 
BRANCH   7   8
ATOM      8  C   UNL     1      33.153  34.065  22.657  1.00  0.00     0.000 C 
BRANCH   8   9
ATOM      9  C   UNL     1      32.072  32.993  22.849  1.00  0.00     0.000 C 
BRANCH   9  10
ATOM     10  C   UNL     1      30.693  33.619  23.111  1.00  0.00     0.000 C 
BRANCH  10  11
ATOM     11  C   UNL     1      29.548  32.600  22.995  1.00  0.00     0.000 C 
BRANCH  11  12
ATOM     12  C   UNL     1      28.204  33.249  22.625  1.00  0.00     0.000 C 
BRANCH  12  13
ATOM     13  C   UNL     1      28.355  34.191  21.425  1.00  0.00     0.006 C 
BRANCH  13  14
ATOM     14  C   UNL     1      27.961  33.484  20.122  1.00  0.00     0.053 C 
BRANCH  14  15
ATOM     15  C   UNL     1      26.503  33.656  19.830  1.00  0.00     0.041 C 
ATOM     16  O   UNL     1      26.117  34.560  19.042  1.00  0.00    -0.550 OA
ATOM     17  O   UNL     1      25.569  32.806  20.408  1.00  0.00    -0.550 OA
ENDBRANCH  14  15
ENDBRANCH  13  14
ENDBRANCH  12  13
ENDBRANCH  11  12
ENDBRANCH  10  11
ENDBRANCH   9  10
ENDBRANCH   8   9
ENDBRANCH   7   8
ENDBRANCH   6   7
ENDBRANCH   5   6
ENDBRANCH   4   5
ENDBRANCH   3   4
ENDBRANCH   2   3
ENDBRANCH   1   2
BRANCH   1  18
ATOM     18  C   UNL     1      32.628  36.688  20.071  1.00  0.00     0.000 C 
BRANCH  18  19
ATOM     19  C   UNL     1      32.955  37.162  18.646  1.00  0.00     0.000 C 
BRANCH  19  20
ATOM     20  C   UNL     1      34.403  36.838  18.230  1.00  0.00     0.000 C 
BRANCH  20  21
ATOM     21  C   UNL     1      35.283  36.379  19.408  1.00  0.00     0.000 C 
BRANCH  21  22
ATOM     22  C   UNL     1      36.459  35.466  19.017  1.00  0.00     0.000 C 
BRANCH  22  23
ATOM     23  C   UNL     1      36.515  35.172  17.510  1.00  0.00     0.000 C 
BRANCH  23  24
ATOM     24  C   UNL     1      36.831  33.688  17.202  1.00  0.00    -0.000 C 
BRANCH  24  25
ATOM     25  C   UNL     1      36.184  33.178  15.900  1.00  0.00    -0.000 C 
BRANCH  25  26
ATOM     26  C   UNL     1      35.381  31.874  16.058  1.00  0.00    -0.000 C 
BRANCH  26  27
ATOM     27  C   UNL     1      34.362  31.643  14.921  1.00  0.00    -0.000 C 
BRANCH  27  28
ATOM     28  C   UNL     1      34.434  32.727  13.835  1.00  0.00    -0.000 C 
BRANCH  28  29
ATOM     29  C   UNL     1      33.061  33.367  13.604  1.00  0.00    -0.000 C 
BRANCH  29  30
ATOM     30  C   UNL     1      32.340  33.628  14.935  1.00  0.00    -0.000 C 
BRANCH  30  31
ATOM     31  C   UNL     1      32.715  34.984  15.553  1.00  0.00    -0.003 C 
ATOM     32  C   UNL     1      33.044  36.045  14.504  1.00  0.00     0.004 C 
ENDBRANCH  30  31
ENDBRANCH  29  30
ENDBRANCH  28  29
ENDBRANCH  27  28
ENDBRANCH  26  27
ENDBRANCH  25  26
ENDBRANCH  24  25
ENDBRANCH  23  24
ENDBRANCH  22  23
ENDBRANCH  21  22
ENDBRANCH  20  21
ENDBRANCH  19  20
ENDBRANCH  18  19
ENDBRANCH   1  18
TORSDOF 28
ENDMDL
MODEL 3
REMARK VINA RESULT:    -3.823      2.558      5.853
REMARK INTER + INTRA:         -14.960
REMARK INTER:                  -9.483
REMARK INTRA:                  -5.478
REMARK UNBOUND:                -4.880
REMARK SMILES CCCCCCCCCCCCCCCCCCCCCCCCCCCCCC(=O)[O-]
REMARK SMILES IDX 16 1 17 2 18 3 19 4 20 5 21 6 22 7 23 8 24 9 25 10 26 11
REMARK SMILES IDX 27 12 28 13 29 14 30 15 31 16 32 17 15 18 14 19 13 20 12 21
REMARK SMILES IDX 11 22 10 23 9 24 8 25 7 26 6 27 5 28 4 29 3 30 2 31 1 32
REMARK H PARENT
REMARK Flexibility Score: inf
ROOT
ATOM      1  C   UNL     1      32.592  35.240  17.617  1.00  0.00     0.000 C 
ENDROOT
BRANCH   1   2
ATOM      2  C   UNL     1      32.363  33.905  16.883  1.00  0.00     0.000 C 
BRANCH   2   3
ATOM      3  C   UNL     1      32.484  33.969  15.348  1.00  0.00     0.000 C 
BRANCH   3   4
ATOM      4  C   UNL     1      33.219  32.758  14.751  1.00  0.00     0.000 C 
BRANCH   4   5
ATOM      5  C   UNL     1      33.865  31.871  15.830  1.00  0.00     0.000 C 
BRANCH   5   6
ATOM      6  C   UNL     1      35.346  31.531  15.546  1.00  0.00     0.000 C 
BRANCH   6   7
ATOM      7  C   UNL     1      35.786  31.961  14.135  1.00  0.00     0.000 C 
BRANCH   7   8
ATOM      8  C   UNL     1      37.268  32.374  14.093  1.00  0.00     0.000 C 
BRANCH   8   9
ATOM      9  C   UNL     1      37.908  32.362  15.488  1.00  0.00     0.000 C 
BRANCH   9  10
ATOM     10  C   UNL     1      38.306  33.777  15.940  1.00  0.00     0.000 C 
BRANCH  10  11
ATOM     11  C   UNL     1      37.695  34.158  17.298  1.00  0.00     0.000 C 
BRANCH  11  12
ATOM     12  C   UNL     1      36.219  34.575  17.194  1.00  0.00     0.000 C 
BRANCH  12  13
ATOM     13  C   UNL     1      35.943  35.323  15.884  1.00  0.00     0.006 C 
BRANCH  13  14
ATOM     14  C   UNL     1      35.687  36.812  16.151  1.00  0.00     0.053 C 
BRANCH  14  15
ATOM     15  C   UNL     1      36.664  37.671  15.409  1.00  0.00     0.041 C 
ATOM     16  O   UNL     1      37.600  38.245  16.027  1.00  0.00    -0.550 OA
ATOM     17  O   UNL     1      36.558  37.821  14.032  1.00  0.00    -0.550 OA
ENDBRANCH  14  15
ENDBRANCH  13  14
ENDBRANCH  12  13
ENDBRANCH  11  12
ENDBRANCH  10  11
ENDBRANCH   9  10
ENDBRANCH   8   9
ENDBRANCH   7   8
ENDBRANCH   6   7
ENDBRANCH   5   6
ENDBRANCH   4   5
ENDBRANCH   3   4
ENDBRANCH   2   3
ENDBRANCH   1   2
BRANCH   1  18
ATOM     18  C   UNL     1      31.829  35.337  18.950  1.00  0.00     0.000 C 
BRANCH  18  19
ATOM     19  C   UNL     1      30.976  34.088  19.231  1.00  0.00     0.000 C 
BRANCH  19  20
ATOM     20  C   UNL     1      29.707  34.408  20.045  1.00  0.00     0.000 C 
BRANCH  20  21
ATOM     21  C   UNL     1      28.874  33.158  20.384  1.00  0.00     0.000 C 
BRANCH  21  22
ATOM     22  C   UNL     1      27.852  33.354  21.519  1.00  0.00     0.000 C 
BRANCH  22  23
ATOM     23  C   UNL     1      28.443  33.089  22.912  1.00  0.00     0.000 C 
BRANCH  23  24
ATOM     24  C   UNL     1      28.768  34.391  23.682  1.00  0.00    -0.000 C 
BRANCH  24  25
ATOM     25  C   UNL     1      30.269  34.738  23.702  1.00  0.00    -0.000 C 
BRANCH  25  26
ATOM     26  C   UNL     1      31.194  33.578  23.294  1.00  0.00    -0.000 C 
BRANCH  26  27
ATOM     27  C   UNL     1      32.509  34.049  22.632  1.00  0.00    -0.000 C 
BRANCH  27  28
ATOM     28  C   UNL     1      33.264  32.903  21.943  1.00  0.00    -0.000 C 
BRANCH  28  29
ATOM     29  C   UNL     1      34.305  33.445  20.956  1.00  0.00    -0.000 C 
BRANCH  29  30
ATOM     30  C   UNL     1      34.379  32.571  19.695  1.00  0.00    -0.000 C 
BRANCH  30  31
ATOM     31  C   UNL     1      35.649  31.708  19.649  1.00  0.00    -0.003 C 
ATOM     32  C   UNL     1      36.810  32.314  20.437  1.00  0.00     0.004 C 
ENDBRANCH  30  31
ENDBRANCH  29  30
ENDBRANCH  28  29
ENDBRANCH  27  28
ENDBRANCH  26  27
ENDBRANCH  25  26
ENDBRANCH  24  25
ENDBRANCH  23  24
ENDBRANCH  22  23
ENDBRANCH  21  22
ENDBRANCH  20  21
ENDBRANCH  19  20
ENDBRANCH  18  19
ENDBRANCH   1  18
TORSDOF 28
ENDMDL
MODEL 4
REMARK VINA RESULT:    -3.802      3.538      8.729
REMARK INTER + INTRA:         -14.905
REMARK INTER:                  -9.746
REMARK INTRA:                  -5.159
REMARK UNBOUND:                -4.880
REMARK SMILES CCCCCCCCCCCCCCCCCCCCCCCCCCCCCC(=O)[O-]
REMARK SMILES IDX 16 1 17 2 18 3 19 4 20 5 21 6 22 7 23 8 24 9 25 10 26 11
REMARK SMILES IDX 27 12 28 13 29 14 30 15 31 16 32 17 15 18 14 19 13 20 12 21
REMARK SMILES IDX 11 22 10 23 9 24 8 25 7 26 6 27 5 28 4 29 3 30 2 31 1 32
REMARK H PARENT
REMARK Flexibility Score: inf
ROOT
ATOM      1  C   UNL     1      32.462  33.718  22.644  1.00  0.00     0.000 C 
ENDROOT
BRANCH   1   2
ATOM      2  C   UNL     1      31.159  32.917  22.824  1.00  0.00     0.000 C 
BRANCH   2   3
ATOM      3  C   UNL     1      29.957  33.724  23.352  1.00  0.00     0.000 C 
BRANCH   3   4
ATOM      4  C   UNL     1      28.602  33.144  22.917  1.00  0.00     0.000 C 
BRANCH   4   5
ATOM      5  C   UNL     1      28.695  32.359  21.597  1.00  0.00     0.000 C 
BRANCH   5   6
ATOM      6  C   UNL     1      28.406  33.217  20.344  1.00  0.00     0.000 C 
BRANCH   6   7
ATOM      7  C   UNL     1      26.904  33.498  20.160  1.00  0.00     0.000 C 
BRANCH   7   8
ATOM      8  C   UNL     1      26.611  35.000  20.004  1.00  0.00     0.000 C 
BRANCH   8   9
ATOM      9  C   UNL     1      27.772  35.868  20.513  1.00  0.00     0.000 C 
BRANCH   9  10
ATOM     10  C   UNL     1      27.274  37.005  21.419  1.00  0.00     0.000 C 
BRANCH  10  11
ATOM     11  C   UNL     1      27.498  36.715  22.912  1.00  0.00     0.000 C 
BRANCH  11  12
ATOM     12  C   UNL     1      28.887  37.153  23.405  1.00  0.00     0.000 C 
BRANCH  12  13
ATOM     13  C   UNL     1      28.968  37.123  24.935  1.00  0.00     0.006 C 
BRANCH  13  14
ATOM     14  C   UNL     1      28.182  35.934  25.500  1.00  0.00     0.053 C 
BRANCH  14  15
ATOM     15  C   UNL     1      27.869  36.131  26.952  1.00  0.00     0.041 C 
ATOM     16  O   UNL     1      28.759  35.940  27.823  1.00  0.00    -0.550 OA
ATOM     17  O   UNL     1      26.604  36.547  27.343  1.00  0.00    -0.550 OA
ENDBRANCH  14  15
ENDBRANCH  13  14
ENDBRANCH  12  13
ENDBRANCH  11  12
ENDBRANCH  10  11
ENDBRANCH   9  10
ENDBRANCH   8   9
ENDBRANCH   7   8
ENDBRANCH   6   7
ENDBRANCH   5   6
ENDBRANCH   4   5
ENDBRANCH   3   4
ENDBRANCH   2   3
ENDBRANCH   1   2
BRANCH   1  18
ATOM     18  C   UNL     1      32.230  35.134  22.090  1.00  0.00     0.000 C 
BRANCH  18  19
ATOM     19  C   UNL     1      31.396  35.132  20.798  1.00  0.00     0.000 C 
BRANCH  19  20
ATOM     20  C   UNL     1      32.230  34.771  19.554  1.00  0.00     0.000 C 
BRANCH  20  21
ATOM     21  C   UNL     1      31.774  33.464  18.878  1.00  0.00     0.000 C 
BRANCH  21  22
ATOM     22  C   UNL     1      32.802  32.319  18.930  1.00  0.00     0.000 C 
BRANCH  22  23
ATOM     23  C   UNL     1      34.085  32.697  19.686  1.00  0.00     0.000 C 
BRANCH  23  24
ATOM     24  C   UNL     1      35.354  32.065  19.065  1.00  0.00    -0.000 C 
BRANCH  24  25
ATOM     25  C   UNL     1      36.303  33.094  18.421  1.00  0.00    -0.000 C 
BRANCH  25  26
ATOM     26  C   UNL     1      35.608  34.369  17.913  1.00  0.00    -0.000 C 
BRANCH  26  27
ATOM     27  C   UNL     1      36.169  34.876  16.565  1.00  0.00    -0.000 C 
BRANCH  27  28
ATOM     28  C   UNL     1      35.177  34.689  15.408  1.00  0.00    -0.000 C 
BRANCH  28  29
ATOM     29  C   UNL     1      33.749  34.495  15.932  1.00  0.00    -0.000 C 
BRANCH  29  30
ATOM     30  C   UNL     1      33.143  33.183  15.414  1.00  0.00    -0.000 C 
BRANCH  30  31
ATOM     31  C   UNL     1      34.193  32.253  14.788  1.00  0.00    -0.003 C 
ATOM     32  C   UNL     1      34.526  31.052  15.673  1.00  0.00     0.004 C 
ENDBRANCH  30  31
ENDBRANCH  29  30
ENDBRANCH  28  29
ENDBRANCH  27  28
ENDBRANCH  26  27
ENDBRANCH  25  26
ENDBRANCH  24  25
ENDBRANCH  23  24
ENDBRANCH  22  23
ENDBRANCH  21  22
ENDBRANCH  20  21
ENDBRANCH  19  20
ENDBRANCH  18  19
ENDBRANCH   1  18
TORSDOF 28
ENDMDL
MODEL 5
REMARK VINA RESULT:    -3.793      2.298      5.161
REMARK INTER + INTRA:         -14.881
REMARK INTER:                  -9.786
REMARK INTRA:                  -5.095
REMARK UNBOUND:                -4.880
REMARK SMILES CCCCCCCCCCCCCCCCCCCCCCCCCCCCCC(=O)[O-]
REMARK SMILES IDX 16 1 17 2 18 3 19 4 20 5 21 6 22 7 23 8 24 9 25 10 26 11
REMARK SMILES IDX 27 12 28 13 29 14 30 15 31 16 32 17 15 18 14 19 13 20 12 21
REMARK SMILES IDX 11 22 10 23 9 24 8 25 7 26 6 27 5 28 4 29 3 30 2 31 1 32
REMARK H PARENT
REMARK Flexibility Score: inf
ROOT
ATOM      1  C   UNL     1      31.505  34.203  18.989  1.00  0.00     0.000 C 
ENDROOT
BRANCH   1   2
ATOM      2  C   UNL     1      32.005  34.045  17.540  1.00  0.00     0.000 C 
BRANCH   2   3
ATOM      3  C   UNL     1      32.573  35.325  16.897  1.00  0.00     0.000 C 
BRANCH   3   4
ATOM      4  C   UNL     1      32.438  35.341  15.365  1.00  0.00     0.000 C 
BRANCH   4   5
ATOM      5  C   UNL     1      32.394  33.925  14.764  1.00  0.00     0.000 C 
BRANCH   5   6
ATOM      6  C   UNL     1      33.473  33.678  13.684  1.00  0.00     0.000 C 
BRANCH   6   7
ATOM      7  C   UNL     1      34.341  32.446  13.995  1.00  0.00     0.000 C 
BRANCH   7   8
ATOM      8  C   UNL     1      34.680  32.339  15.492  1.00  0.00     0.000 C 
BRANCH   8   9
ATOM      9  C   UNL     1      34.271  30.980  16.078  1.00  0.00     0.000 C 
BRANCH   9  10
ATOM     10  C   UNL     1      34.072  31.057  17.600  1.00  0.00     0.000 C 
BRANCH  10  11
ATOM     11  C   UNL     1      34.932  32.151  18.255  1.00  0.00     0.000 C 
BRANCH  11  12
ATOM     12  C   UNL     1      35.006  32.019  19.785  1.00  0.00     0.000 C 
BRANCH  12  13
ATOM     13  C   UNL     1      35.434  33.339  20.437  1.00  0.00     0.006 C 
BRANCH  13  14
ATOM     14  C   UNL     1      36.789  33.185  21.140  1.00  0.00     0.053 C 
BRANCH  14  15
ATOM     15  C   UNL     1      37.904  33.062  20.148  1.00  0.00     0.041 C 
ATOM     16  O   UNL     1      38.577  31.999  20.080  1.00  0.00    -0.550 OA
ATOM     17  O   UNL     1      38.187  34.110  19.282  1.00  0.00    -0.550 OA
ENDBRANCH  14  15
ENDBRANCH  13  14
ENDBRANCH  12  13
ENDBRANCH  11  12
ENDBRANCH  10  11
ENDBRANCH   9  10
ENDBRANCH   8   9
ENDBRANCH   7   8
ENDBRANCH   6   7
ENDBRANCH   5   6
ENDBRANCH   4   5
ENDBRANCH   3   4
ENDBRANCH   2   3
ENDBRANCH   1   2
BRANCH   1  18
ATOM     18  C   UNL     1      31.660  35.635  19.529  1.00  0.00     0.000 C 
BRANCH  18  19
ATOM     19  C   UNL     1      32.649  35.717  20.704  1.00  0.00     0.000 C 
BRANCH  19  20
ATOM     20  C   UNL     1      32.015  35.294  22.043  1.00  0.00     0.000 C 
BRANCH  20  21
ATOM     21  C   UNL     1      32.578  33.968  22.588  1.00  0.00     0.000 C 
BRANCH  21  22
ATOM     22  C   UNL     1      31.515  32.905  22.921  1.00  0.00     0.000 C 
BRANCH  22  23
ATOM     23  C   UNL     1      30.165  33.513  23.332  1.00  0.00     0.000 C 
BRANCH  23  24
ATOM     24  C   UNL     1      28.958  32.731  22.761  1.00  0.00    -0.000 C 
BRANCH  24  25
ATOM     25  C   UNL     1      28.939  32.663  21.222  1.00  0.00    -0.000 C 
BRANCH  25  26
ATOM     26  C   UNL     1      27.831  33.502  20.562  1.00  0.00    -0.000 C 
BRANCH  26  27
ATOM     27  C   UNL     1      28.178  35.005  20.466  1.00  0.00    -0.000 C 
BRANCH  27  28
ATOM     28  C   UNL     1      26.989  35.907  20.827  1.00  0.00    -0.000 C 
BRANCH  28  29
ATOM     29  C   UNL     1      27.444  37.111  21.661  1.00  0.00    -0.000 C 
BRANCH  29  30
ATOM     30  C   UNL     1      28.792  36.834  22.342  1.00  0.00    -0.000 C 
BRANCH  30  31
ATOM     31  C   UNL     1      28.720  36.964  23.871  1.00  0.00    -0.003 C 
ATOM     32  C   UNL     1      27.764  35.956  24.509  1.00  0.00     0.004 C 
ENDBRANCH  30  31
ENDBRANCH  29  30
ENDBRANCH  28  29
ENDBRANCH  27  28
ENDBRANCH  26  27
ENDBRANCH  25  26
ENDBRANCH  24  25
ENDBRANCH  23  24
ENDBRANCH  22  23
ENDBRANCH  21  22
ENDBRANCH  20  21
ENDBRANCH  19  20
ENDBRANCH  18  19
ENDBRANCH   1  18
TORSDOF 28
ENDMDL
MODEL 6
REMARK VINA RESULT:    -3.790      2.963      4.880
REMARK INTER + INTRA:         -14.875
REMARK INTER:                  -8.617
REMARK INTRA:                  -6.258
REMARK UNBOUND:                -4.880
REMARK SMILES CCCCCCCCCCCCCCCCCCCCCCCCCCCCCC(=O)[O-]
REMARK SMILES IDX 16 1 17 2 18 3 19 4 20 5 21 6 22 7 23 8 24 9 25 10 26 11
REMARK SMILES IDX 27 12 28 13 29 14 30 15 31 16 32 17 15 18 14 19 13 20 12 21
REMARK SMILES IDX 11 22 10 23 9 24 8 25 7 26 6 27 5 28 4 29 3 30 2 31 1 32
REMARK H PARENT
REMARK Flexibility Score: inf
ROOT
ATOM      1  C   UNL     1      30.980  33.062  22.528  1.00  0.00     0.000 C 
ENDROOT
BRANCH   1   2
ATOM      2  C   UNL     1      32.249  33.863  22.877  1.00  0.00     0.000 C 
BRANCH   2   3
ATOM      3  C   UNL     1      32.014  35.340  23.249  1.00  0.00     0.000 C 
BRANCH   3   4
ATOM      4  C   UNL     1      32.908  36.310  22.460  1.00  0.00     0.000 C 
BRANCH   4   5
ATOM      5  C   UNL     1      32.248  36.790  21.155  1.00  0.00     0.000 C 
BRANCH   5   6
ATOM      6  C   UNL     1      33.092  36.505  19.893  1.00  0.00     0.000 C 
BRANCH   6   7
ATOM      7  C   UNL     1      32.285  35.783  18.799  1.00  0.00     0.000 C 
BRANCH   7   8
ATOM      8  C   UNL     1      31.300  34.758  19.387  1.00  0.00     0.000 C 
BRANCH   8   9
ATOM      9  C   UNL     1      31.477  33.367  18.763  1.00  0.00     0.000 C 
BRANCH   9  10
ATOM     10  C   UNL     1      32.962  32.993  18.623  1.00  0.00     0.000 C 
BRANCH  10  11
ATOM     11  C   UNL     1      33.441  32.047  19.735  1.00  0.00     0.000 C 
BRANCH  11  12
ATOM     12  C   UNL     1      34.962  32.101  19.954  1.00  0.00     0.000 C 
BRANCH  12  13
ATOM     13  C   UNL     1      35.488  33.537  19.842  1.00  0.00     0.006 C 
BRANCH  13  14
ATOM     14  C   UNL     1      35.625  34.177  21.229  1.00  0.00     0.053 C 
BRANCH  14  15
ATOM     15  C   UNL     1      36.747  33.558  22.004  1.00  0.00     0.041 C 
ATOM     16  O   UNL     1      36.575  33.214  23.203  1.00  0.00    -0.550 OA
ATOM     17  O   UNL     1      37.977  33.339  21.397  1.00  0.00    -0.550 OA
ENDBRANCH  14  15
ENDBRANCH  13  14
ENDBRANCH  12  13
ENDBRANCH  11  12
ENDBRANCH  10  11
ENDBRANCH   9  10
ENDBRANCH   8   9
ENDBRANCH   7   8
ENDBRANCH   6   7
ENDBRANCH   5   6
ENDBRANCH   4   5
ENDBRANCH   3   4
ENDBRANCH   2   3
ENDBRANCH   1   2
BRANCH   1  18
ATOM     18  C   UNL     1      29.756  33.475  23.364  1.00  0.00     0.000 C 
BRANCH  18  19
ATOM     19  C   UNL     1      28.427  33.116  22.678  1.00  0.00     0.000 C 
BRANCH  19  20
ATOM     20  C   UNL     1      28.615  32.676  21.214  1.00  0.00     0.000 C 
BRANCH  20  21
ATOM     21  C   UNL     1      27.939  33.623  20.205  1.00  0.00     0.000 C 
BRANCH  21  22
ATOM     22  C   UNL     1      26.859  34.541  20.807  1.00  0.00     0.000 C 
BRANCH  22  23
ATOM     23  C   UNL     1      27.194  36.034  20.670  1.00  0.00     0.000 C 
BRANCH  23  24
ATOM     24  C   UNL     1      28.623  36.373  21.157  1.00  0.00    -0.000 C 
BRANCH  24  25
ATOM     25  C   UNL     1      28.695  37.653  22.013  1.00  0.00    -0.000 C 
BRANCH  25  26
ATOM     26  C   UNL     1      27.393  38.472  22.042  1.00  0.00    -0.000 C 
BRANCH  26  27
ATOM     27  C   UNL     1      26.813  38.647  23.463  1.00  0.00    -0.000 C 
BRANCH  27  28
ATOM     28  C   UNL     1      26.360  37.317  24.082  1.00  0.00    -0.000 C 
BRANCH  28  29
ATOM     29  C   UNL     1      27.064  37.064  25.420  1.00  0.00    -0.000 C 
BRANCH  29  30
ATOM     30  C   UNL     1      28.054  35.895  25.312  1.00  0.00    -0.000 C 
BRANCH  30  31
ATOM     31  C   UNL     1      29.440  36.239  25.879  1.00  0.00    -0.003 C 
ATOM     32  C   UNL     1      29.942  37.611  25.427  1.00  0.00     0.004 C 
ENDBRANCH  30  31
ENDBRANCH  29  30
ENDBRANCH  28  29
ENDBRANCH  27  28
ENDBRANCH  26  27
ENDBRANCH  25  26
ENDBRANCH  24  25
ENDBRANCH  23  24
ENDBRANCH  22  23
ENDBRANCH  21  22
ENDBRANCH  20  21
ENDBRANCH  19  20
ENDBRANCH  18  19
ENDBRANCH   1  18
TORSDOF 28
ENDMDL
MODEL 7
REMARK VINA RESULT:    -3.753      2.780      5.094
REMARK INTER + INTRA:         -14.777
REMARK INTER:                  -8.777
REMARK INTRA:                  -6.000
REMARK UNBOUND:                -4.880
REMARK SMILES CCCCCCCCCCCCCCCCCCCCCCCCCCCCCC(=O)[O-]
REMARK SMILES IDX 16 1 17 2 18 3 19 4 20 5 21 6 22 7 23 8 24 9 25 10 26 11
REMARK SMILES IDX 27 12 28 13 29 14 30 15 31 16 32 17 15 18 14 19 13 20 12 21
REMARK SMILES IDX 11 22 10 23 9 24 8 25 7 26 6 27 5 28 4 29 3 30 2 31 1 32
REMARK H PARENT
REMARK Flexibility Score: inf
ROOT
ATOM      1  C   UNL     1      31.980  34.566  23.420  1.00  0.00     0.000 C 
ENDROOT
BRANCH   1   2
ATOM      2  C   UNL     1      32.438  35.704  22.488  1.00  0.00     0.000 C 
BRANCH   2   3
ATOM      3  C   UNL     1      31.418  36.123  21.411  1.00  0.00     0.000 C 
BRANCH   3   4
ATOM      4  C   UNL     1      32.079  36.652  20.128  1.00  0.00     0.000 C 
BRANCH   4   5
ATOM      5  C   UNL     1      31.869  35.712  18.927  1.00  0.00     0.000 C 
BRANCH   5   6
ATOM      6  C   UNL     1      31.048  34.448  19.268  1.00  0.00     0.000 C 
BRANCH   6   7
ATOM      7  C   UNL     1      31.690  33.165  18.711  1.00  0.00     0.000 C 
BRANCH   7   8
ATOM      8  C   UNL     1      32.725  33.466  17.614  1.00  0.00     0.000 C 
BRANCH   8   9
ATOM      9  C   UNL     1      33.768  32.346  17.485  1.00  0.00     0.000 C 
BRANCH   9  10
ATOM     10  C   UNL     1      35.055  32.679  18.258  1.00  0.00     0.000 C 
BRANCH  10  11
ATOM     11  C   UNL     1      35.138  31.951  19.609  1.00  0.00     0.000 C 
BRANCH  11  12
ATOM     12  C   UNL     1      34.748  32.845  20.797  1.00  0.00     0.000 C 
BRANCH  12  13
ATOM     13  C   UNL     1      35.179  34.298  20.563  1.00  0.00     0.006 C 
BRANCH  13  14
ATOM     14  C   UNL     1      36.588  34.545  21.116  1.00  0.00     0.053 C 
BRANCH  14  15
ATOM     15  C   UNL     1      36.566  34.706  22.605  1.00  0.00     0.041 C 
ATOM     16  O   UNL     1      35.921  35.652  23.130  1.00  0.00    -0.550 OA
ATOM     17  O   UNL     1      37.236  33.799  23.416  1.00  0.00    -0.550 OA
ENDBRANCH  14  15
ENDBRANCH  13  14
ENDBRANCH  12  13
ENDBRANCH  11  12
ENDBRANCH  10  11
ENDBRANCH   9  10
ENDBRANCH   8   9
ENDBRANCH   7   8
ENDBRANCH   6   7
ENDBRANCH   5   6
ENDBRANCH   4   5
ENDBRANCH   3   4
ENDBRANCH   2   3
ENDBRANCH   1   2
BRANCH   1  18
ATOM     18  C   UNL     1      31.769  33.230  22.685  1.00  0.00     0.000 C 
BRANCH  18  19
ATOM     19  C   UNL     1      30.421  32.576  23.029  1.00  0.00     0.000 C 
BRANCH  19  20
ATOM     20  C   UNL     1      29.329  33.610  23.365  1.00  0.00     0.000 C 
BRANCH  20  21
ATOM     21  C   UNL     1      28.049  33.433  22.525  1.00  0.00     0.000 C 
BRANCH  21  22
ATOM     22  C   UNL     1      28.291  33.040  21.057  1.00  0.00     0.000 C 
BRANCH  22  23
ATOM     23  C   UNL     1      27.463  33.875  20.067  1.00  0.00     0.000 C 
BRANCH  23  24
ATOM     24  C   UNL     1      26.864  35.147  20.713  1.00  0.00    -0.000 C 
BRANCH  24  25
ATOM     25  C   UNL     1      27.635  36.435  20.368  1.00  0.00    -0.000 C 
BRANCH  25  26
ATOM     26  C   UNL     1      28.016  37.294  21.587  1.00  0.00    -0.000 C 
BRANCH  26  27
ATOM     27  C   UNL     1      27.254  36.902  22.873  1.00  0.00    -0.000 C 
BRANCH  27  28
ATOM     28  C   UNL     1      27.857  37.540  24.133  1.00  0.00    -0.000 C 
BRANCH  28  29
ATOM     29  C   UNL     1      29.323  37.930  23.904  1.00  0.00    -0.000 C 
BRANCH  29  30
ATOM     30  C   UNL     1      30.223  37.371  25.016  1.00  0.00    -0.000 C 
BRANCH  30  31
ATOM     31  C   UNL     1      29.534  36.273  25.839  1.00  0.00    -0.003 C 
ATOM     32  C   UNL     1      29.540  36.562  27.340  1.00  0.00     0.004 C 
ENDBRANCH  30  31
ENDBRANCH  29  30
ENDBRANCH  28  29
ENDBRANCH  27  28
ENDBRANCH  26  27
ENDBRANCH  25  26
ENDBRANCH  24  25
ENDBRANCH  23  24
ENDBRANCH  22  23
ENDBRANCH  21  22
ENDBRANCH  20  21
ENDBRANCH  19  20
ENDBRANCH  18  19
ENDBRANCH   1  18
TORSDOF 28
ENDMDL
MODEL 8
REMARK VINA RESULT:    -3.740      1.903      5.550
REMARK INTER + INTRA:         -14.743
REMARK INTER:                  -8.876
REMARK INTRA:                  -5.866
REMARK UNBOUND:                -4.880
REMARK SMILES CCCCCCCCCCCCCCCCCCCCCCCCCCCCCC(=O)[O-]
REMARK SMILES IDX 16 1 17 2 18 3 19 4 20 5 21 6 22 7 23 8 24 9 25 10 26 11
REMARK SMILES IDX 27 12 28 13 29 14 30 15 31 16 32 17 15 18 14 19 13 20 12 21
REMARK SMILES IDX 11 22 10 23 9 24 8 25 7 26 6 27 5 28 4 29 3 30 2 31 1 32
REMARK H PARENT
REMARK Flexibility Score: inf
ROOT
ATOM      1  C   UNL     1      27.950  35.915  24.070  1.00  0.00     0.000 C 
ENDROOT
BRANCH   1   2
ATOM      2  C   UNL     1      29.186  35.832  24.986  1.00  0.00     0.000 C 
BRANCH   2   3
ATOM      3  C   UNL     1      30.324  36.815  24.647  1.00  0.00     0.000 C 
BRANCH   3   4
ATOM      4  C   UNL     1      31.719  36.174  24.730  1.00  0.00     0.000 C 
BRANCH   4   5
ATOM      5  C   UNL     1      32.681  36.718  23.659  1.00  0.00     0.000 C 
BRANCH   5   6
ATOM      6  C   UNL     1      32.067  36.760  22.241  1.00  0.00     0.000 C 
BRANCH   6   7
ATOM      7  C   UNL     1      33.130  36.970  21.148  1.00  0.00     0.000 C 
BRANCH   7   8
ATOM      8  C   UNL     1      32.911  36.040  19.942  1.00  0.00     0.000 C 
BRANCH   8   9
ATOM      9  C   UNL     1      31.429  35.687  19.750  1.00  0.00     0.000 C 
BRANCH   9  10
ATOM     10  C   UNL     1      31.256  34.366  18.984  1.00  0.00     0.000 C 
BRANCH  10  11
ATOM     11  C   UNL     1      32.329  34.165  17.902  1.00  0.00     0.000 C 
BRANCH  11  12
ATOM     12  C   UNL     1      33.110  32.851  18.070  1.00  0.00     0.000 C 
BRANCH  12  13
ATOM     13  C   UNL     1      34.601  33.048  17.773  1.00  0.00     0.006 C 
BRANCH  13  14
ATOM     14  C   UNL     1      34.834  33.266  16.273  1.00  0.00     0.053 C 
BRANCH  14  15
ATOM     15  C   UNL     1      35.350  32.021  15.618  1.00  0.00     0.041 C 
ATOM     16  O   UNL     1      36.523  31.986  15.160  1.00  0.00    -0.550 OA
ATOM     17  O   UNL     1      34.546  30.892  15.534  1.00  0.00    -0.550 OA
ENDBRANCH  14  15
ENDBRANCH  13  14
ENDBRANCH  12  13
ENDBRANCH  11  12
ENDBRANCH  10  11
ENDBRANCH   9  10
ENDBRANCH   8   9
ENDBRANCH   7   8
ENDBRANCH   6   7
ENDBRANCH   5   6
ENDBRANCH   4   5
ENDBRANCH   3   4
ENDBRANCH   2   3
ENDBRANCH   1   2
BRANCH   1  18
ATOM     18  C   UNL     1      28.032  37.061  23.047  1.00  0.00     0.000 C 
BRANCH  18  19
ATOM     19  C   UNL     1      27.129  36.825  21.825  1.00  0.00     0.000 C 
BRANCH  19  20
ATOM     20  C   UNL     1      27.782  35.908  20.773  1.00  0.00     0.000 C 
BRANCH  20  21
ATOM     21  C   UNL     1      26.797  34.903  20.149  1.00  0.00     0.000 C 
BRANCH  21  22
ATOM     22  C   UNL     1      26.958  33.453  20.641  1.00  0.00     0.000 C 
BRANCH  22  23
ATOM     23  C   UNL     1      28.427  33.013  20.745  1.00  0.00     0.000 C 
BRANCH  23  24
ATOM     24  C   UNL     1      28.895  32.834  22.209  1.00  0.00    -0.000 C 
BRANCH  24  25
ATOM     25  C   UNL     1      30.227  33.542  22.521  1.00  0.00    -0.000 C 
BRANCH  25  26
ATOM     26  C   UNL     1      31.351  32.604  22.995  1.00  0.00    -0.000 C 
BRANCH  26  27
ATOM     27  C   UNL     1      32.766  33.186  22.778  1.00  0.00    -0.000 C 
BRANCH  27  28
ATOM     28  C   UNL     1      33.438  32.639  21.510  1.00  0.00    -0.000 C 
BRANCH  28  29
ATOM     29  C   UNL     1      34.901  33.092  21.424  1.00  0.00    -0.000 C 
BRANCH  29  30
ATOM     30  C   UNL     1      35.202  34.190  22.454  1.00  0.00    -0.000 C 
BRANCH  30  31
ATOM     31  C   UNL     1      36.586  34.826  22.252  1.00  0.00    -0.003 C 
ATOM     32  C   UNL     1      36.631  35.789  21.066  1.00  0.00     0.004 C 
ENDBRANCH  30  31
ENDBRANCH  29  30
ENDBRANCH  28  29
ENDBRANCH  27  28
ENDBRANCH  26  27
ENDBRANCH  25  26
ENDBRANCH  24  25
ENDBRANCH  23  24
ENDBRANCH  22  23
ENDBRANCH  21  22
ENDBRANCH  20  21
ENDBRANCH  19  20
ENDBRANCH  18  19
ENDBRANCH   1  18
TORSDOF 28
ENDMDL
MODEL 9
REMARK VINA RESULT:    -3.717      3.295      8.902
REMARK INTER + INTRA:         -14.682
REMARK INTER:                  -9.643
REMARK INTRA:                  -5.039
REMARK UNBOUND:                -4.880
REMARK SMILES CCCCCCCCCCCCCCCCCCCCCCCCCCCCCC(=O)[O-]
REMARK SMILES IDX 16 1 17 2 18 3 19 4 20 5 21 6 22 7 23 8 24 9 25 10 26 11
REMARK SMILES IDX 27 12 28 13 29 14 30 15 31 16 32 17 15 18 14 19 13 20 12 21
REMARK SMILES IDX 11 22 10 23 9 24 8 25 7 26 6 27 5 28 4 29 3 30 2 31 1 32
REMARK H PARENT
REMARK Flexibility Score: inf
ROOT
ATOM      1  C   UNL     1      31.190  32.858  22.998  1.00  0.00     0.000 C 
ENDROOT
BRANCH   1   2
ATOM      2  C   UNL     1      29.966  33.731  23.331  1.00  0.00     0.000 C 
BRANCH   2   3
ATOM      3  C   UNL     1      28.603  33.138  22.924  1.00  0.00     0.000 C 
BRANCH   3   4
ATOM      4  C   UNL     1      28.634  32.437  21.556  1.00  0.00     0.000 C 
BRANCH   4   5
ATOM      5  C   UNL     1      28.474  33.424  20.386  1.00  0.00     0.000 C 
BRANCH   5   6
ATOM      6  C   UNL     1      27.066  34.057  20.299  1.00  0.00     0.000 C 
BRANCH   6   7
ATOM      7  C   UNL     1      27.109  35.593  20.367  1.00  0.00     0.000 C 
BRANCH   7   8
ATOM      8  C   UNL     1      28.485  36.115  20.813  1.00  0.00     0.000 C 
BRANCH   8   9
ATOM      9  C   UNL     1      28.391  36.978  22.079  1.00  0.00     0.000 C 
BRANCH   9  10
ATOM     10  C   UNL     1      29.712  37.710  22.365  1.00  0.00     0.000 C 
BRANCH  10  11
ATOM     11  C   UNL     1      29.918  37.997  23.861  1.00  0.00     0.000 C 
BRANCH  11  12
ATOM     12  C   UNL     1      30.328  36.749  24.660  1.00  0.00     0.000 C 
BRANCH  12  13
ATOM     13  C   UNL     1      30.094  36.948  26.162  1.00  0.00     0.006 C 
BRANCH  13  14
ATOM     14  C   UNL     1      28.730  37.602  26.419  1.00  0.00     0.053 C 
BRANCH  14  15
ATOM     15  C   UNL     1      27.628  36.589  26.383  1.00  0.00     0.041 C 
ATOM     16  O   UNL     1      27.353  35.915  27.412  1.00  0.00    -0.550 OA
ATOM     17  O   UNL     1      26.887  36.404  25.223  1.00  0.00    -0.550 OA
ENDBRANCH  14  15
ENDBRANCH  13  14
ENDBRANCH  12  13
ENDBRANCH  11  12
ENDBRANCH  10  11
ENDBRANCH   9  10
ENDBRANCH   8   9
ENDBRANCH   7   8
ENDBRANCH   6   7
ENDBRANCH   5   6
ENDBRANCH   4   5
ENDBRANCH   3   4
ENDBRANCH   2   3
ENDBRANCH   1   2
BRANCH   1  18
ATOM     18  C   UNL     1      32.387  33.669  22.472  1.00  0.00     0.000 C 
BRANCH  18  19
ATOM     19  C   UNL     1      31.963  35.015  21.862  1.00  0.00     0.000 C 
BRANCH  19  20
ATOM     20  C   UNL     1      32.143  35.056  20.332  1.00  0.00     0.000 C 
BRANCH  20  21
ATOM     21  C   UNL     1      31.845  33.707  19.651  1.00  0.00     0.000 C 
BRANCH  21  22
ATOM     22  C   UNL     1      31.632  33.788  18.128  1.00  0.00     0.000 C 
BRANCH  22  23
ATOM     23  C   UNL     1      32.460  34.898  17.463  1.00  0.00     0.000 C 
BRANCH  23  24
ATOM     24  C   UNL     1      32.481  34.785  15.920  1.00  0.00    -0.000 C 
BRANCH  24  25
ATOM     25  C   UNL     1      32.726  33.352  15.410  1.00  0.00    -0.000 C 
BRANCH  25  26
ATOM     26  C   UNL     1      34.169  32.850  15.592  1.00  0.00    -0.000 C 
BRANCH  26  27
ATOM     27  C   UNL     1      34.251  31.366  16.016  1.00  0.00    -0.000 C 
BRANCH  27  28
ATOM     28  C   UNL     1      34.192  31.185  17.539  1.00  0.00    -0.000 C 
BRANCH  28  29
ATOM     29  C   UNL     1      35.024  32.257  18.254  1.00  0.00    -0.000 C 
BRANCH  29  30
ATOM     30  C   UNL     1      35.129  31.965  19.758  1.00  0.00    -0.000 C 
BRANCH  30  31
ATOM     31  C   UNL     1      35.422  33.225  20.585  1.00  0.00    -0.003 C 
ATOM     32  C   UNL     1      36.572  33.033  21.575  1.00  0.00     0.004 C 
ENDBRANCH  30  31
ENDBRANCH  29  30
ENDBRANCH  28  29
ENDBRANCH  27  28
ENDBRANCH  26  27
ENDBRANCH  25  26
ENDBRANCH  24  25
ENDBRANCH  23  24
ENDBRANCH  22  23
ENDBRANCH  21  22
ENDBRANCH  20  21
ENDBRANCH  19  20
ENDBRANCH  18  19
ENDBRANCH   1  18
TORSDOF 28
ENDMDL
