MODEL 1
REMARK VINA RESULT:    -3.074      0.000      0.000
REMARK INTER + INTRA:          -3.442
REMARK INTER:                  -3.433
REMARK INTRA:                  -0.008
REMARK UNBOUND:                -0.008
REMARK SMILES CCCC(=O)[O-]
REMARK SMILES IDX 3 1 4 2 5 3 6 4 2 5 1 6
REMARK H PARENT
REMARK Flexibility Score: inf
ROOT
ATOM      1  C   UNL     1      26.690  29.768 -18.340  1.00  0.00     0.052 C 
ENDROOT
BRANCH   1   2
ATOM      2  C   UNL     1      26.670  30.915 -19.304  1.00  0.00     0.041 C 
ATOM      3  O   UNL     1      27.408  30.898 -20.325  1.00  0.00    -0.550 OA
ATOM      4  O   UNL     1      25.811  31.985 -19.093  1.00  0.00    -0.550 OA
ENDBRANCH   1   2
BRANCH   1   5
ATOM      5  C   UNL     1      28.025  29.681 -17.590  1.00  0.00     0.003 C 
ATOM      6  C   UNL     1      28.247  28.309 -16.955  1.00  0.00     0.004 C 
ENDBRANCH   1   5
TORSDOF 2
ENDMDL
MODEL 2
REMARK VINA RESULT:    -2.846      3.185      4.170
REMARK INTER + INTRA:          -3.187
REMARK INTER:                  -3.169
REMARK INTRA:                  -0.017
REMARK UNBOUND:                -0.008
REMARK SMILES CCCC(=O)[O-]
REMARK SMILES IDX 3 1 4 2 5 3 6 4 2 5 1 6
REMARK H PARENT
REMARK Flexibility Score: inf
ROOT
ATOM      1  C   UNL     1      28.425  29.419 -17.434  1.00  0.00     0.052 C 
ENDROOT
BRANCH   1   2
ATOM      2  C   UNL     1      28.711  28.105 -16.772  1.00  0.00     0.041 C 
ATOM      3  O   UNL     1      27.790  27.260 -16.618  1.00  0.00    -0.550 OA
ATOM      4  O   UNL     1      30.000  27.803 -16.356  1.00  0.00    -0.550 OA
ENDBRANCH   1   2
BRANCH   1   5
ATOM      5  C   UNL     1      26.931  29.590 -17.734  1.00  0.00     0.003 C 
ATOM      6  C   UNL     1      26.683  30.384 -19.017  1.00  0.00     0.004 C 
ENDBRANCH   1   5
TORSDOF 2
ENDMDL
MODEL 3
REMARK VINA RESULT:    -2.792      5.366      6.049
REMARK INTER + INTRA:          -3.126
REMARK INTER:                  -3.082
REMARK INTRA:                  -0.045
REMARK UNBOUND:                -0.008
REMARK SMILES CCCC(=O)[O-]
REMARK SMILES IDX 3 1 4 2 5 3 6 4 2 5 1 6
REMARK H PARENT
REMARK Flexibility Score: inf
ROOT
ATOM      1  C   UNL     1      25.734  24.904 -18.492  1.00  0.00     0.052 C 
ENDROOT
BRANCH   1   2
ATOM      2  C   UNL     1      26.909  25.237 -17.625  1.00  0.00     0.041 C 
ATOM      3  O   UNL     1      27.186  26.438 -17.366  1.00  0.00    -0.550 OA
ATOM      4  O   UNL     1      27.678  24.219 -17.076  1.00  0.00    -0.550 OA
ENDBRANCH   1   2
BRANCH   1   5
ATOM      5  C   UNL     1      26.060  25.075 -19.981  1.00  0.00     0.003 C 
ATOM      6  C   UNL     1      27.026  24.006 -20.491  1.00  0.00     0.004 C 
ENDBRANCH   1   5
TORSDOF 2
ENDMDL
MODEL 4
REMARK VINA RESULT:    -2.745      5.022      5.912
REMARK INTER + INTRA:          -3.074
REMARK INTER:                  -3.039
REMARK INTRA:                  -0.035
REMARK UNBOUND:                -0.008
REMARK SMILES CCCC(=O)[O-]
REMARK SMILES IDX 3 1 4 2 5 3 6 4 2 5 1 6
REMARK H PARENT
REMARK Flexibility Score: inf
ROOT
ATOM      1  C   UNL     1      27.322  24.294 -18.540  1.00  0.00     0.052 C 
ENDROOT
BRANCH   1   2
ATOM      2  C   UNL     1      26.672  24.401 -19.886  1.00  0.00     0.041 C 
ATOM      3  O   UNL     1      25.764  25.251 -20.086  1.00  0.00    -0.550 OA
ATOM      4  O   UNL     1      27.094  23.587 -20.928  1.00  0.00    -0.550 OA
ENDBRANCH   1   2
BRANCH   1   5
ATOM      5  C   UNL     1      26.656  25.219 -17.514  1.00  0.00     0.003 C 
ATOM      6  C   UNL     1      27.624  26.266 -16.962  1.00  0.00     0.004 C 
ENDBRANCH   1   5
TORSDOF 2
ENDMDL
MODEL 5
REMARK VINA RESULT:    -2.678      5.248      5.984
REMARK INTER + INTRA:          -2.999
REMARK INTER:                  -2.994
REMARK INTRA:                  -0.005
REMARK UNBOUND:                -0.008
REMARK SMILES CCCC(=O)[O-]
REMARK SMILES IDX 3 1 4 2 5 3 6 4 2 5 1 6
REMARK H PARENT
REMARK Flexibility Score: inf
ROOT
ATOM      1  C   UNL     1      27.549  24.580 -18.242  1.00  0.00     0.052 C 
ENDROOT
BRANCH   1   2
ATOM      2  C   UNL     1      27.078  25.470 -17.133  1.00  0.00     0.041 C 
ATOM      3  O   UNL     1      27.483  26.661 -17.060  1.00  0.00    -0.550 OA
ATOM      4  O   UNL     1      26.166  24.995 -16.200  1.00  0.00    -0.550 OA
ENDBRANCH   1   2
BRANCH   1   5
ATOM      5  C   UNL     1      26.524  24.502 -19.381  1.00  0.00     0.003 C 
ATOM      6  C   UNL     1      27.116  23.899 -20.654  1.00  0.00     0.004 C 
ENDBRANCH   1   5
TORSDOF 2
ENDMDL
MODEL 6
REMARK VINA RESULT:    -2.544      5.697      6.226
REMARK INTER + INTRA:          -2.850
REMARK INTER:                  -2.812
REMARK INTRA:                  -0.038
REMARK UNBOUND:                -0.008
REMARK SMILES CCCC(=O)[O-]
REMARK SMILES IDX 3 1 4 2 5 3 6 4 2 5 1 6
REMARK H PARENT
REMARK Flexibility Score: inf
ROOT
ATOM      1  C   UNL     1      27.413  23.763 -19.543  1.00  0.00     0.052 C 
ENDROOT
BRANCH   1   2
ATOM      2  C   UNL     1      26.341  24.752 -19.201  1.00  0.00     0.041 C 
ATOM      3  O   UNL     1      25.689  25.322 -20.115  1.00  0.00    -0.550 OA
ATOM      4  O   UNL     1      26.041  25.019 -17.872  1.00  0.00    -0.550 OA
ENDBRANCH   1   2
BRANCH   1   5
ATOM      5  C   UNL     1      28.511  23.722 -18.472  1.00  0.00     0.003 C 
ATOM      6  C   UNL     1      28.546  22.388 -17.726  1.00  0.00     0.004 C 
ENDBRANCH   1   5
TORSDOF 2
ENDMDL
MODEL 7
REMARK VINA RESULT:    -2.543      5.760      6.442
REMARK INTER + INTRA:          -2.849
REMARK INTER:                  -2.837
REMARK INTRA:                  -0.011
REMARK UNBOUND:                -0.008
REMARK SMILES CCCC(=O)[O-]
REMARK SMILES IDX 3 1 4 2 5 3 6 4 2 5 1 6
REMARK H PARENT
REMARK Flexibility Score: inf
ROOT
ATOM      1  C   UNL     1      27.735  24.108 -18.719  1.00  0.00     0.052 C 
ENDROOT
BRANCH   1   2
ATOM      2  C   UNL     1      26.510  24.867 -18.308  1.00  0.00     0.041 C 
ATOM      3  O   UNL     1      25.662  25.216 -19.171  1.00  0.00    -0.550 OA
ATOM      4  O   UNL     1      26.290  25.158 -16.969  1.00  0.00    -0.550 OA
ENDBRANCH   1   2
BRANCH   1   5
ATOM      5  C   UNL     1      27.640  23.619 -20.169  1.00  0.00     0.003 C 
ATOM      6  C   UNL     1      28.597  22.463 -20.457  1.00  0.00     0.004 C 
ENDBRANCH   1   5
TORSDOF 2
ENDMDL
MODEL 8
REMARK VINA RESULT:    -2.513      4.633      5.316
REMARK INTER + INTRA:          -2.815
REMARK INTER:                  -2.810
REMARK INTRA:                  -0.005
REMARK UNBOUND:                -0.008
REMARK SMILES CCCC(=O)[O-]
REMARK SMILES IDX 3 1 4 2 5 3 6 4 2 5 1 6
REMARK H PARENT
REMARK Flexibility Score: inf
ROOT
ATOM      1  C   UNL     1      28.031  25.892 -17.069  1.00  0.00     0.052 C 
ENDROOT
BRANCH   1   2
ATOM      2  C   UNL     1      26.685  25.235 -17.036  1.00  0.00     0.041 C 
ATOM      3  O   UNL     1      26.153  24.934 -15.935  1.00  0.00    -0.550 OA
ATOM      4  O   UNL     1      26.005  24.985 -18.221  1.00  0.00    -0.550 OA
ENDBRANCH   1   2
BRANCH   1   5
ATOM      5  C   UNL     1      27.955  27.363 -16.640  1.00  0.00     0.003 C 
ATOM      6  C   UNL     1      29.302  28.074 -16.761  1.00  0.00     0.004 C 
ENDBRANCH   1   5
TORSDOF 2
ENDMDL
MODEL 9
REMARK VINA RESULT:    -2.472     12.188     12.964
REMARK INTER + INTRA:          -2.769
REMARK INTER:                  -2.735
REMARK INTRA:                  -0.035
REMARK UNBOUND:                -0.008
REMARK SMILES CCCC(=O)[O-]
REMARK SMILES IDX 3 1 4 2 5 3 6 4 2 5 1 6
REMARK H PARENT
REMARK Flexibility Score: inf
ROOT
ATOM      1  C   UNL     1      39.238  29.273 -18.529  1.00  0.00     0.052 C 
ENDROOT
BRANCH   1   2
ATOM      2  C   UNL     1      38.999  28.288 -17.426  1.00  0.00     0.041 C 
ATOM      3  O   UNL     1      39.241  27.065 -17.604  1.00  0.00    -0.550 OA
ATOM      4  O   UNL     1      38.540  28.726 -16.190  1.00  0.00    -0.550 OA
ENDBRANCH   1   2
BRANCH   1   5
ATOM      5  C   UNL     1      40.675  29.807 -18.510  1.00  0.00     0.003 C 
ATOM      6  C   UNL     1      41.513  29.260 -19.666  1.00  0.00     0.004 C 
ENDBRANCH   1   5
TORSDOF 2
ENDMDL
