MODEL 1
REMARK VINA RESULT:    -4.447      0.000      0.000
REMARK INTER + INTRA:          -7.142
REMARK INTER:                  -6.787
REMARK INTRA:                  -0.356
REMARK UNBOUND:                -0.356
REMARK SMILES CC1=CCC[C@H](C)C(=O)C[C@@H](C(C)C)C(=O)C1
REMARK SMILES IDX 8 1 9 2 6 3 7 4 5 5 4 6 3 7 2 8 1 9 10 11 11 12 15 13 16 14
REMARK SMILES IDX 17 15 12 17 13 18 14 19
REMARK H PARENT
REMARK Flexibility Score: 70.00
ROOT
ATOM      1  C   UNL     1     121.108 176.300 130.343  1.00  0.00     0.136 C 
ATOM      2  O   UNL     1     121.519 177.254 130.987  1.00  0.00    -0.299 OA
ENDROOT
BRANCH   1   3
ATOM      3  C   UNL     1     119.849 175.563 130.781  1.00  0.00     0.053 C 
ATOM      4  C   UNL     1     118.590 176.086 130.070  1.00  0.00     0.016 C 
BRANCH   3   5
ATOM      5  C   UNL     1     119.986 174.033 130.620  1.00  0.00     0.015 C 
BRANCH   5   6
ATOM      6  C   UNL     1     119.269 173.486 129.371  1.00  0.00     0.028 C 
BRANCH   6   7
ATOM      7  C   UNL     1     120.179 172.697 128.462  1.00  0.00    -0.028 C 
ATOM      8  C   UNL     1     120.521 173.036 127.192  1.00  0.00    -0.070 CG0
ATOM      9  C   UNL     1     121.358 172.066 126.394  1.00  0.00     0.039 C 
ATOM     10  G   UNL     1     120.253 174.398 126.561  1.00  0.00     0.000 G0
ENDBRANCH   6   7
ENDBRANCH   5   6
ENDBRANCH   3   5
ENDBRANCH   1   3
BRANCH   1  11
ATOM     11  C   UNL     1     121.879 175.855 129.123  1.00  0.00     0.087 C 
BRANCH  11  12
ATOM     12  C   UNL     1     121.322 176.450 127.799  1.00  0.00     0.066 C 
BRANCH  12  13
ATOM     13  C   UNL     1     121.344 175.423 126.672  1.00  0.00     0.140 C 
ATOM     14  O   UNL     1     122.333 175.350 125.957  1.00  0.00    -0.299 OA
BRANCH  13  15
ATOM     15  C   UNL     1     120.242 174.400 126.522  1.00  0.00     0.106 CG0
ATOM     16  G   UNL     1     120.521 173.058 127.187  1.00  0.00     0.000 G0
ENDBRANCH  13  15
ENDBRANCH  12  13
BRANCH  12  17
ATOM     17  C   UNL     1     122.069 177.754 127.369  1.00  0.00    -0.006 C 
ATOM     18  C   UNL     1     123.409 177.937 128.106  1.00  0.00     0.008 C 
ATOM     19  C   UNL     1     121.198 179.002 127.612  1.00  0.00     0.008 C 
ENDBRANCH  12  17
ENDBRANCH  11  12
ENDBRANCH   1  11
TORSDOF 1
ENDMDL
MODEL 2
REMARK VINA RESULT:    -4.353      3.319      5.129
REMARK INTER + INTRA:          -6.999
REMARK INTER:                  -6.608
REMARK INTRA:                  -0.390
REMARK UNBOUND:                -0.356
REMARK SMILES CC1=CCC[C@H](C)C(=O)C[C@@H](C(C)C)C(=O)C1
REMARK SMILES IDX 8 1 9 2 6 3 7 4 5 5 4 6 3 7 2 8 1 9 10 11 11 12 15 13 16 14
REMARK SMILES IDX 17 15 12 17 13 18 14 19
REMARK H PARENT
REMARK Flexibility Score: 70.00
ROOT
ATOM      1  C   UNL     1     119.999 178.999 124.754  1.00  0.00     0.136 C 
ATOM      2  O   UNL     1     119.398 179.013 123.688  1.00  0.00    -0.299 OA
ENDROOT
BRANCH   1   3
ATOM      3  C   UNL     1     119.240 178.809 126.060  1.00  0.00     0.053 C 
ATOM      4  C   UNL     1     118.051 179.775 126.188  1.00  0.00     0.016 C 
BRANCH   3   5
ATOM      5  C   UNL     1     118.793 177.344 126.265  1.00  0.00     0.015 C 
BRANCH   5   6
ATOM      6  C   UNL     1     119.641 176.589 127.305  1.00  0.00     0.028 C 
BRANCH   6   7
ATOM      7  C   UNL     1     120.226 177.492 128.362  1.00  0.00    -0.028 C 
ATOM      8  C   UNL     1     121.550 177.678 128.605  1.00  0.00    -0.070 CG0
ATOM      9  C   UNL     1     121.946 178.539 129.779  1.00  0.00     0.039 C 
ATOM     10  G   UNL     1     122.669 177.208 127.683  1.00  0.00     0.000 G0
ENDBRANCH   6   7
ENDBRANCH   5   6
ENDBRANCH   3   5
ENDBRANCH   1   3
BRANCH   1  11
ATOM     11  C   UNL     1     121.496 179.193 124.750  1.00  0.00     0.087 C 
BRANCH  11  12
ATOM     12  C   UNL     1     122.278 177.916 125.170  1.00  0.00     0.066 C 
BRANCH  12  13
ATOM     13  C   UNL     1     122.983 178.106 126.508  1.00  0.00     0.140 C 
ATOM     14  O   UNL     1     123.709 179.079 126.662  1.00  0.00    -0.299 OA
BRANCH  13  15
ATOM     15  C   UNL     1     122.683 177.211 127.687  1.00  0.00     0.106 CG0
ATOM     16  G   UNL     1     121.556 177.699 128.590  1.00  0.00     0.000 G0
ENDBRANCH  13  15
ENDBRANCH  12  13
BRANCH  12  17
ATOM     17  C   UNL     1     123.292 177.450 124.075  1.00  0.00    -0.006 C 
ATOM     18  C   UNL     1     122.674 177.438 122.665  1.00  0.00     0.008 C 
ATOM     19  C   UNL     1     123.839 176.043 124.386  1.00  0.00     0.008 C 
ENDBRANCH  12  17
ENDBRANCH  11  12
ENDBRANCH   1  11
TORSDOF 1
ENDMDL
MODEL 3
REMARK VINA RESULT:    -4.343      2.170      4.697
REMARK INTER + INTRA:          -6.984
REMARK INTER:                  -6.683
REMARK INTRA:                  -0.302
REMARK UNBOUND:                -0.356
REMARK SMILES CC1=CCC[C@H](C)C(=O)C[C@@H](C(C)C)C(=O)C1
REMARK SMILES IDX 8 1 9 2 6 3 7 4 5 5 4 6 3 7 2 8 1 9 10 11 11 12 15 13 16 14
REMARK SMILES IDX 17 15 12 17 13 18 14 19
REMARK H PARENT
REMARK Flexibility Score: 70.00
ROOT
ATOM      1  C   UNL     1     122.443 177.056 129.723  1.00  0.00     0.136 C 
ATOM      2  O   UNL     1     123.360 176.479 130.292  1.00  0.00    -0.299 OA
ENDROOT
BRANCH   1   3
ATOM      3  C   UNL     1     122.443 178.575 129.613  1.00  0.00     0.053 C 
ATOM      4  C   UNL     1     122.388 179.257 130.990  1.00  0.00     0.016 C 
BRANCH   3   5
ATOM      5  C   UNL     1     123.634 179.097 128.779  1.00  0.00     0.015 C 
BRANCH   5   6
ATOM      6  C   UNL     1     123.598 178.632 127.311  1.00  0.00     0.028 C 
BRANCH   6   7
ATOM      7  C   UNL     1     122.419 179.176 126.544  1.00  0.00    -0.028 C 
ATOM      8  C   UNL     1     121.630 178.468 125.693  1.00  0.00    -0.070 CG0
ATOM      9  C   UNL     1     120.559 179.210 124.930  1.00  0.00     0.039 C 
ATOM     10  G   UNL     1     121.643 176.949 125.567  1.00  0.00     0.000 G0
ENDBRANCH   6   7
ENDBRANCH   5   6
ENDBRANCH   3   5
ENDBRANCH   1   3
BRANCH   1  11
ATOM     11  C   UNL     1     121.309 176.239 129.153  1.00  0.00     0.087 C 
BRANCH  11  12
ATOM     12  C   UNL     1     121.664 175.562 127.799  1.00  0.00     0.066 C 
BRANCH  12  13
ATOM     13  C   UNL     1     120.912 176.203 126.638  1.00  0.00     0.140 C 
ATOM     14  O   UNL     1     119.689 176.220 126.663  1.00  0.00    -0.299 OA
BRANCH  13  15
ATOM     15  C   UNL     1     121.643 176.948 125.546  1.00  0.00     0.106 CG0
ATOM     16  G   UNL     1     121.617 178.466 125.680  1.00  0.00     0.000 G0
ENDBRANCH  13  15
ENDBRANCH  12  13
BRANCH  12  17
ATOM     17  C   UNL     1     121.425 174.017 127.822  1.00  0.00    -0.006 C 
ATOM     18  C   UNL     1     120.571 173.570 129.024  1.00  0.00     0.008 C 
ATOM     19  C   UNL     1     122.760 173.247 127.852  1.00  0.00     0.008 C 
ENDBRANCH  12  17
ENDBRANCH  11  12
ENDBRANCH   1  11
TORSDOF 1
ENDMDL
MODEL 4
REMARK VINA RESULT:    -4.289      2.765      5.526
REMARK INTER + INTRA:          -6.901
REMARK INTER:                  -6.678
REMARK INTRA:                  -0.224
REMARK UNBOUND:                -0.356
REMARK SMILES CC1=CCC[C@H](C)C(=O)C[C@@H](C(C)C)C(=O)C1
REMARK SMILES IDX 8 1 9 2 6 3 7 4 5 5 4 6 3 7 2 8 1 9 10 11 11 12 15 13 16 14
REMARK SMILES IDX 17 15 12 17 13 18 14 19
REMARK H PARENT
REMARK Flexibility Score: 70.00
ROOT
ATOM      1  C   UNL     1     119.213 177.158 126.367  1.00  0.00     0.136 C 
ATOM      2  O   UNL     1     118.185 176.552 126.097  1.00  0.00    -0.299 OA
ENDROOT
BRANCH   1   3
ATOM      3  C   UNL     1     119.490 178.517 125.738  1.00  0.00     0.053 C 
ATOM      4  C   UNL     1     119.038 179.679 126.637  1.00  0.00     0.016 C 
BRANCH   3   5
ATOM      5  C   UNL     1     120.970 178.674 125.325  1.00  0.00     0.015 C 
BRANCH   5   6
ATOM      6  C   UNL     1     121.712 179.764 126.122  1.00  0.00     0.028 C 
BRANCH   6   7
ATOM      7  C   UNL     1     122.969 179.262 126.787  1.00  0.00    -0.028 C 
ATOM      8  C   UNL     1     123.111 178.981 128.108  1.00  0.00    -0.070 CG0
ATOM      9  C   UNL     1     124.479 178.591 128.613  1.00  0.00     0.039 C 
ATOM     10  G   UNL     1     121.955 178.878 129.097  1.00  0.00     0.000 G0
ENDBRANCH   6   7
ENDBRANCH   5   6
ENDBRANCH   3   5
ENDBRANCH   1   3
BRANCH   1  11
ATOM     11  C   UNL     1     120.205 176.527 127.314  1.00  0.00     0.087 C 
BRANCH  11  12
ATOM     12  C   UNL     1     120.072 177.048 128.773  1.00  0.00     0.066 C 
BRANCH  12  13
ATOM     13  C   UNL     1     121.420 177.481 129.338  1.00  0.00     0.140 C 
ATOM     14  O   UNL     1     122.133 176.645 129.874  1.00  0.00    -0.299 OA
BRANCH  13  15
ATOM     15  C   UNL     1     121.953 178.876 129.112  1.00  0.00     0.106 CG0
ATOM     16  G   UNL     1     123.091 178.970 128.102  1.00  0.00     0.000 G0
ENDBRANCH  13  15
ENDBRANCH  12  13
BRANCH  12  17
ATOM     17  C   UNL     1     119.388 176.008 129.719  1.00  0.00    -0.006 C 
ATOM     18  C   UNL     1     119.742 174.555 129.352  1.00  0.00     0.008 C 
ATOM     19  C   UNL     1     117.855 176.161 129.701  1.00  0.00     0.008 C 
ENDBRANCH  12  17
ENDBRANCH  11  12
ENDBRANCH   1  11
TORSDOF 1
ENDMDL
MODEL 5
REMARK VINA RESULT:    -4.222      1.784      2.868
REMARK INTER + INTRA:          -6.799
REMARK INTER:                  -6.845
REMARK INTRA:                   0.046
REMARK UNBOUND:                -0.356
REMARK SMILES CC1=CCC[C@H](C)C(=O)C[C@@H](C(C)C)C(=O)C1
REMARK SMILES IDX 8 1 9 2 6 3 7 4 5 5 4 6 3 7 2 8 1 9 10 11 11 12 15 13 16 14
REMARK SMILES IDX 17 15 12 17 13 18 14 19
REMARK H PARENT
REMARK Flexibility Score: 70.00
ROOT
ATOM      1  C   UNL     1     122.131 178.505 129.211  1.00  0.00     0.136 C 
ATOM      2  O   UNL     1     122.312 179.403 130.022  1.00  0.00    -0.299 OA
ENDROOT
BRANCH   1   3
ATOM      3  C   UNL     1     122.150 177.050 129.661  1.00  0.00     0.053 C 
ATOM      4  C   UNL     1     123.463 176.676 130.367  1.00  0.00     0.016 C 
BRANCH   3   5
ATOM      5  C   UNL     1     120.926 176.696 130.535  1.00  0.00     0.015 C 
BRANCH   5   6
ATOM      6  C   UNL     1     119.795 176.008 129.748  1.00  0.00     0.028 C 
BRANCH   6   7
ATOM      7  C   UNL     1     120.291 174.938 128.809  1.00  0.00    -0.028 C 
ATOM      8  C   UNL     1     120.087 174.902 127.466  1.00  0.00    -0.070 CG0
ATOM      9  C   UNL     1     120.568 173.692 126.702  1.00  0.00     0.039 C 
ATOM     10  G   UNL     1     119.545 176.067 126.645  1.00  0.00     0.000 G0
ENDBRANCH   6   7
ENDBRANCH   5   6
ENDBRANCH   3   5
ENDBRANCH   1   3
BRANCH   1  11
ATOM     11  C   UNL     1     121.910 178.864 127.761  1.00  0.00     0.087 C 
BRANCH  11  12
ATOM     12  C   UNL     1     120.497 178.473 127.244  1.00  0.00     0.066 C 
BRANCH  12  13
ATOM     13  C   UNL     1     120.542 177.204 126.400  1.00  0.00     0.140 C 
ATOM     14  O   UNL     1     121.472 177.044 125.622  1.00  0.00    -0.299 OA
BRANCH  13  15
ATOM     15  C   UNL     1     119.554 176.082 126.616  1.00  0.00     0.106 CG0
ATOM     16  G   UNL     1     120.076 174.924 127.458  1.00  0.00     0.000 G0
ENDBRANCH  13  15
ENDBRANCH  12  13
BRANCH  12  17
ATOM     17  C   UNL     1     119.806 179.633 126.457  1.00  0.00    -0.006 C 
ATOM     18  C   UNL     1     118.286 179.428 126.318  1.00  0.00     0.008 C 
ATOM     19  C   UNL     1     120.413 179.790 125.049  1.00  0.00     0.008 C 
ENDBRANCH  12  17
ENDBRANCH  11  12
ENDBRANCH   1  11
TORSDOF 1
ENDMDL
MODEL 6
REMARK VINA RESULT:    -4.217      2.405      3.841
REMARK INTER + INTRA:          -6.791
REMARK INTER:                  -6.491
REMARK INTRA:                  -0.300
REMARK UNBOUND:                -0.356
REMARK SMILES CC1=CCC[C@H](C)C(=O)C[C@@H](C(C)C)C(=O)C1
REMARK SMILES IDX 8 1 9 2 6 3 7 4 5 5 4 6 3 7 2 8 1 9 10 11 11 12 15 13 16 14
REMARK SMILES IDX 17 15 12 17 13 18 14 19
REMARK H PARENT
REMARK Flexibility Score: 70.00
ROOT
ATOM      1  C   UNL     1     123.372 178.654 126.883  1.00  0.00     0.136 C 
ATOM      2  O   UNL     1     123.646 179.829 126.681  1.00  0.00    -0.299 OA
ENDROOT
BRANCH   1   3
ATOM      3  C   UNL     1     122.686 178.239 128.179  1.00  0.00     0.053 C 
ATOM      4  C   UNL     1     123.478 178.674 129.422  1.00  0.00     0.016 C 
BRANCH   3   5
ATOM      5  C   UNL     1     121.224 178.734 128.246  1.00  0.00     0.015 C 
BRANCH   5   6
ATOM      6  C   UNL     1     120.191 177.604 128.081  1.00  0.00     0.028 C 
BRANCH   6   7
ATOM      7  C   UNL     1     120.694 176.265 128.561  1.00  0.00    -0.028 C 
ATOM      8  C   UNL     1     120.919 175.175 127.781  1.00  0.00    -0.070 CG0
ATOM      9  C   UNL     1     121.320 173.885 128.455  1.00  0.00     0.039 C 
ATOM     10  G   UNL     1     120.948 175.196 126.257  1.00  0.00     0.000 G0
ENDBRANCH   6   7
ENDBRANCH   5   6
ENDBRANCH   3   5
ENDBRANCH   1   3
BRANCH   1  11
ATOM     11  C   UNL     1     123.742 177.627 125.840  1.00  0.00     0.087 C 
BRANCH  11  12
ATOM     12  C   UNL     1     122.506 177.006 125.131  1.00  0.00     0.066 C 
BRANCH  12  13
ATOM     13  C   UNL     1     122.243 175.582 125.610  1.00  0.00     0.140 C 
ATOM     14  O   UNL     1     123.161 174.773 125.593  1.00  0.00    -0.299 OA
BRANCH  13  15
ATOM     15  C   UNL     1     120.928 175.199 126.245  1.00  0.00     0.106 CG0
ATOM     16  G   UNL     1     120.936 175.174 127.770  1.00  0.00     0.000 G0
ENDBRANCH  13  15
ENDBRANCH  12  13
BRANCH  12  17
ATOM     17  C   UNL     1     122.627 177.047 123.573  1.00  0.00    -0.006 C 
ATOM     18  C   UNL     1     124.091 177.094 123.096  1.00  0.00     0.008 C 
ATOM     19  C   UNL     1     121.880 178.261 122.988  1.00  0.00     0.008 C 
ENDBRANCH  12  17
ENDBRANCH  11  12
ENDBRANCH   1  11
TORSDOF 1
ENDMDL
MODEL 7
REMARK VINA RESULT:    -4.204      2.508      4.184
REMARK INTER + INTRA:          -6.772
REMARK INTER:                  -6.753
REMARK INTRA:                  -0.018
REMARK UNBOUND:                -0.356
REMARK SMILES CC1=CCC[C@H](C)C(=O)C[C@@H](C(C)C)C(=O)C1
REMARK SMILES IDX 8 1 9 2 6 3 7 4 5 5 4 6 3 7 2 8 1 9 10 11 11 12 15 13 16 14
REMARK SMILES IDX 17 15 12 17 13 18 14 19
REMARK H PARENT
REMARK Flexibility Score: 70.00
ROOT
ATOM      1  C   UNL     1     121.609 179.287 126.650  1.00  0.00     0.136 C 
ATOM      2  O   UNL     1     121.749 179.404 127.860  1.00  0.00    -0.299 OA
ENDROOT
BRANCH   1   3
ATOM      3  C   UNL     1     120.325 179.755 125.978  1.00  0.00     0.053 C 
ATOM      4  C   UNL     1     120.376 179.593 124.450  1.00  0.00     0.016 C 
BRANCH   3   5
ATOM      5  C   UNL     1     119.075 179.067 126.571  1.00  0.00     0.015 C 
BRANCH   5   6
ATOM      6  C   UNL     1     118.962 177.579 126.191  1.00  0.00     0.028 C 
BRANCH   6   7
ATOM      7  C   UNL     1     119.106 176.651 127.372  1.00  0.00    -0.028 C 
ATOM      8  C   UNL     1     119.929 175.572 127.438  1.00  0.00    -0.070 CG0
ATOM      9  C   UNL     1     119.859 174.696 128.665  1.00  0.00     0.039 C 
ATOM     10  G   UNL     1     121.033 175.266 126.432  1.00  0.00     0.000 G0
ENDBRANCH   6   7
ENDBRANCH   5   6
ENDBRANCH   3   5
ENDBRANCH   1   3
BRANCH   1  11
ATOM     11  C   UNL     1     122.718 178.654 125.845  1.00  0.00     0.087 C 
BRANCH  11  12
ATOM     12  C   UNL     1     122.349 177.245 125.301  1.00  0.00     0.066 C 
BRANCH  12  13
ATOM     13  C   UNL     1     122.187 176.234 126.431  1.00  0.00     0.140 C 
ATOM     14  O   UNL     1     122.929 176.306 127.400  1.00  0.00    -0.299 OA
BRANCH  13  15
ATOM     15  C   UNL     1     121.038 175.253 126.446  1.00  0.00     0.106 CG0
ATOM     16  G   UNL     1     119.930 175.581 127.440  1.00  0.00     0.000 G0
ENDBRANCH  13  15
ENDBRANCH  12  13
BRANCH  12  17
ATOM     17  C   UNL     1     123.374 176.726 124.241  1.00  0.00    -0.006 C 
ATOM     18  C   UNL     1     124.813 177.188 124.537  1.00  0.00     0.008 C 
ATOM     19  C   UNL     1     122.990 177.187 122.821  1.00  0.00     0.008 C 
ENDBRANCH  12  17
ENDBRANCH  11  12
ENDBRANCH   1  11
TORSDOF 1
ENDMDL
MODEL 8
REMARK VINA RESULT:    -4.188      2.070      4.188
REMARK INTER + INTRA:          -6.747
REMARK INTER:                  -6.572
REMARK INTRA:                  -0.175
REMARK UNBOUND:                -0.356
REMARK SMILES CC1=CCC[C@H](C)C(=O)C[C@@H](C(C)C)C(=O)C1
REMARK SMILES IDX 8 1 9 2 6 3 7 4 5 5 4 6 3 7 2 8 1 9 10 11 11 12 15 13 16 14
REMARK SMILES IDX 17 15 12 17 13 18 14 19
REMARK H PARENT
REMARK Flexibility Score: 70.00
ROOT
ATOM      1  C   UNL     1     120.926 178.815 126.995  1.00  0.00     0.136 C 
ATOM      2  O   UNL     1     119.799 178.531 126.615  1.00  0.00    -0.299 OA
ENDROOT
BRANCH   1   3
ATOM      3  C   UNL     1     122.029 179.096 125.983  1.00  0.00     0.053 C 
ATOM      4  C   UNL     1     123.379 179.385 126.659  1.00  0.00     0.016 C 
BRANCH   3   5
ATOM      5  C   UNL     1     122.159 177.967 124.937  1.00  0.00     0.015 C 
BRANCH   5   6
ATOM      6  C   UNL     1     122.680 176.644 125.531  1.00  0.00     0.028 C 
BRANCH   6   7
ATOM      7  C   UNL     1     121.611 175.588 125.657  1.00  0.00    -0.028 C 
ATOM      8  C   UNL     1     121.345 174.856 126.770  1.00  0.00    -0.070 CG0
ATOM      9  C   UNL     1     120.306 173.765 126.676  1.00  0.00     0.039 C 
ATOM     10  G   UNL     1     121.908 175.156 128.155  1.00  0.00     0.000 G0
ENDBRANCH   6   7
ENDBRANCH   5   6
ENDBRANCH   3   5
ENDBRANCH   1   3
BRANCH   1  11
ATOM     11  C   UNL     1     121.207 178.859 128.478  1.00  0.00     0.087 C 
BRANCH  11  12
ATOM     12  C   UNL     1     122.066 177.661 128.972  1.00  0.00     0.066 C 
BRANCH  12  13
ATOM     13  C   UNL     1     121.302 176.345 128.868  1.00  0.00     0.140 C 
ATOM     14  O   UNL     1     120.140 176.304 129.249  1.00  0.00    -0.299 OA
BRANCH  13  15
ATOM     15  C   UNL     1     121.898 175.146 128.169  1.00  0.00     0.106 CG0
ATOM     16  G   UNL     1     121.330 174.869 126.781  1.00  0.00     0.000 G0
ENDBRANCH  13  15
ENDBRANCH  12  13
BRANCH  12  17
ATOM     17  C   UNL     1     122.605 177.871 130.424  1.00  0.00    -0.006 C 
ATOM     18  C   UNL     1     122.703 179.359 130.808  1.00  0.00     0.008 C 
ATOM     19  C   UNL     1     123.992 177.223 130.603  1.00  0.00     0.008 C 
ENDBRANCH  12  17
ENDBRANCH  11  12
ENDBRANCH   1  11
TORSDOF 1
ENDMDL
MODEL 9
REMARK VINA RESULT:    -4.060      9.162     11.842
REMARK INTER + INTRA:          -6.551
REMARK INTER:                  -6.362
REMARK INTRA:                  -0.189
REMARK UNBOUND:                -0.356
REMARK SMILES CC1=CCC[C@H](C)C(=O)C[C@@H](C(C)C)C(=O)C1
REMARK SMILES IDX 8 1 9 2 6 3 7 4 5 5 4 6 3 7 2 8 1 9 10 11 11 12 15 13 16 14
REMARK SMILES IDX 17 15 12 17 13 18 14 19
REMARK H PARENT
REMARK Flexibility Score: 70.00
ROOT
ATOM      1  C   UNL     1     125.218 166.744 125.230  1.00  0.00     0.136 C 
ATOM      2  O   UNL     1     125.179 167.962 125.325  1.00  0.00    -0.299 OA
ENDROOT
BRANCH   1   3
ATOM      3  C   UNL     1     125.456 166.086 123.877  1.00  0.00     0.053 C 
ATOM      4  C   UNL     1     124.335 166.399 122.873  1.00  0.00     0.016 C 
BRANCH   3   5
ATOM      5  C   UNL     1     126.842 166.441 123.295  1.00  0.00     0.015 C 
BRANCH   5   6
ATOM      6  C   UNL     1     127.942 165.436 123.685  1.00  0.00     0.028 C 
BRANCH   6   7
ATOM      7  C   UNL     1     128.908 165.980 124.709  1.00  0.00    -0.028 C 
ATOM      8  C   UNL     1     128.799 165.842 126.056  1.00  0.00    -0.070 CG0
ATOM      9  C   UNL     1     129.806 166.549 126.930  1.00  0.00     0.039 C 
ATOM     10  G   UNL     1     127.826 164.896 126.750  1.00  0.00     0.000 G0
ENDBRANCH   6   7
ENDBRANCH   5   6
ENDBRANCH   3   5
ENDBRANCH   1   3
BRANCH   1  11
ATOM     11  C   UNL     1     125.006 165.908 126.470  1.00  0.00     0.087 C 
BRANCH  11  12
ATOM     12  C   UNL     1     125.852 166.391 127.682  1.00  0.00     0.066 C 
BRANCH  12  13
ATOM     13  C   UNL     1     127.059 165.489 127.917  1.00  0.00     0.140 C 
ATOM     14  O   UNL     1     127.322 165.139 129.059  1.00  0.00    -0.299 OA
BRANCH  13  15
ATOM     15  C   UNL     1     127.834 164.899 126.762  1.00  0.00     0.106 CG0
ATOM     16  G   UNL     1     128.791 165.866 126.075  1.00  0.00     0.000 G0
ENDBRANCH  13  15
ENDBRANCH  12  13
BRANCH  12  17
ATOM     17  C   UNL     1     125.003 166.524 128.988  1.00  0.00    -0.006 C 
ATOM     18  C   UNL     1     124.104 165.298 129.235  1.00  0.00     0.008 C 
ATOM     19  C   UNL     1     124.118 167.785 128.952  1.00  0.00     0.008 C 
ENDBRANCH  12  17
ENDBRANCH  11  12
ENDBRANCH   1  11
TORSDOF 1
ENDMDL
