MODEL 1
REMARK VINA RESULT:    -3.427      0.000      0.000
REMARK INTER + INTRA:          -4.964
REMARK INTER:                  -4.629
REMARK INTRA:                  -0.335
REMARK UNBOUND:                -0.335
REMARK SMILES CCCCCCCC(=O)[O-]
REMARK SMILES IDX 5 1 6 2 7 3 8 4 9 5 10 6 4 7 3 8 2 9 1 10
REMARK H PARENT
REMARK Flexibility Score: inf
ROOT
ATOM      1  C   UNL     1      16.227  16.037  29.772  1.00  0.00     0.000 C 
ENDROOT
BRANCH   1   2
ATOM      2  C   UNL     1      15.692  15.138  28.652  1.00  0.00     0.006 C 
BRANCH   2   3
ATOM      3  C   UNL     1      15.958  15.756  27.276  1.00  0.00     0.053 C 
BRANCH   3   4
ATOM      4  C   UNL     1      17.287  15.313  26.752  1.00  0.00     0.041 C 
ATOM      5  O   UNL     1      17.855  15.963  25.834  1.00  0.00    -0.550 OA
ATOM      6  O   UNL     1      17.923  14.211  27.309  1.00  0.00    -0.550 OA
ENDBRANCH   3   4
ENDBRANCH   2   3
ENDBRANCH   1   2
BRANCH   1   7
ATOM      7  C   UNL     1      17.201  15.272  30.676  1.00  0.00     0.000 C 
BRANCH   7   8
ATOM      8  C   UNL     1      16.678  13.859  30.976  1.00  0.00    -0.000 C 
BRANCH   8   9
ATOM      9  C   UNL     1      17.364  13.222  32.194  1.00  0.00    -0.003 C 
ATOM     10  C   UNL     1      18.698  13.886  32.535  1.00  0.00     0.004 C 
ENDBRANCH   8   9
ENDBRANCH   7   8
ENDBRANCH   1   7
TORSDOF 6
ENDMDL
MODEL 2
REMARK VINA RESULT:    -3.336      4.150      4.823
REMARK INTER + INTRA:          -4.842
REMARK INTER:                  -4.544
REMARK INTRA:                  -0.298
REMARK UNBOUND:                -0.335
REMARK SMILES CCCCCCCC(=O)[O-]
REMARK SMILES IDX 5 1 6 2 7 3 8 4 9 5 10 6 4 7 3 8 2 9 1 10
REMARK H PARENT
REMARK Flexibility Score: inf
ROOT
ATOM      1  C   UNL     1      15.139  14.132  29.503  1.00  0.00     0.000 C 
ENDROOT
BRANCH   1   2
ATOM      2  C   UNL     1      13.627  14.375  29.568  1.00  0.00     0.006 C 
BRANCH   2   3
ATOM      3  C   UNL     1      13.017  13.726  30.814  1.00  0.00     0.053 C 
BRANCH   3   4
ATOM      4  C   UNL     1      11.801  14.478  31.255  1.00  0.00     0.041 C 
ATOM      5  O   UNL     1      11.169  15.197  30.436  1.00  0.00    -0.550 OA
ATOM      6  O   UNL     1      11.337  14.347  32.557  1.00  0.00    -0.550 OA
ENDBRANCH   3   4
ENDBRANCH   2   3
ENDBRANCH   1   2
BRANCH   1   7
ATOM      7  C   UNL     1      15.909  15.456  29.445  1.00  0.00     0.000 C 
BRANCH   7   8
ATOM      8  C   UNL     1      16.983  15.516  30.540  1.00  0.00    -0.000 C 
BRANCH   8   9
ATOM      9  C   UNL     1      17.075  14.214  31.350  1.00  0.00    -0.003 C 
ATOM     10  C   UNL     1      18.376  14.103  32.145  1.00  0.00     0.004 C 
ENDBRANCH   8   9
ENDBRANCH   7   8
ENDBRANCH   1   7
TORSDOF 6
ENDMDL
MODEL 3
REMARK VINA RESULT:    -3.333      1.335      2.326
REMARK INTER + INTRA:          -4.838
REMARK INTER:                  -4.462
REMARK INTRA:                  -0.376
REMARK UNBOUND:                -0.335
REMARK SMILES CCCCCCCC(=O)[O-]
REMARK SMILES IDX 5 1 6 2 7 3 8 4 9 5 10 6 4 7 3 8 2 9 1 10
REMARK H PARENT
REMARK Flexibility Score: inf
ROOT
ATOM      1  C   UNL     1      16.613  13.997  31.253  1.00  0.00     0.000 C 
ENDROOT
BRANCH   1   2
ATOM      2  C   UNL     1      16.974  15.310  30.550  1.00  0.00     0.006 C 
BRANCH   2   3
ATOM      3  C   UNL     1      15.917  15.685  29.508  1.00  0.00     0.053 C 
BRANCH   3   4
ATOM      4  C   UNL     1      16.458  15.504  28.125  1.00  0.00     0.041 C 
ATOM      5  O   UNL     1      15.900  16.069  27.147  1.00  0.00    -0.550 OA
ATOM      6  O   UNL     1      17.607  14.750  27.921  1.00  0.00    -0.550 OA
ENDBRANCH   3   4
ENDBRANCH   2   3
ENDBRANCH   1   2
BRANCH   1   7
ATOM      7  C   UNL     1      17.873  13.217  31.646  1.00  0.00     0.000 C 
BRANCH   7   8
ATOM      8  C   UNL     1      18.791  14.067  32.537  1.00  0.00    -0.000 C 
BRANCH   8   9
ATOM      9  C   UNL     1      20.254  14.043  32.070  1.00  0.00    -0.003 C 
ATOM     10  C   UNL     1      20.388  13.914  30.552  1.00  0.00     0.004 C 
ENDBRANCH   8   9
ENDBRANCH   7   8
ENDBRANCH   1   7
TORSDOF 6
ENDMDL
MODEL 4
REMARK VINA RESULT:    -3.332      1.074      1.638
REMARK INTER + INTRA:          -4.836
REMARK INTER:                  -4.538
REMARK INTRA:                  -0.297
REMARK UNBOUND:                -0.335
REMARK SMILES CCCCCCCC(=O)[O-]
REMARK SMILES IDX 5 1 6 2 7 3 8 4 9 5 10 6 4 7 3 8 2 9 1 10
REMARK H PARENT
REMARK Flexibility Score: inf
ROOT
ATOM      1  C   UNL     1      15.625  15.284  29.082  1.00  0.00     0.000 C 
ENDROOT
BRANCH   1   2
ATOM      2  C   UNL     1      15.929  15.658  27.627  1.00  0.00     0.006 C 
BRANCH   2   3
ATOM      3  C   UNL     1      17.269  15.069  27.176  1.00  0.00     0.053 C 
BRANCH   3   4
ATOM      4  C   UNL     1      17.680  15.649  25.860  1.00  0.00     0.041 C 
ATOM      5  O   UNL     1      18.768  15.305  25.328  1.00  0.00    -0.550 OA
ATOM      6  O   UNL     1      16.838  16.532  25.196  1.00  0.00    -0.550 OA
ENDBRANCH   3   4
ENDBRANCH   2   3
ENDBRANCH   1   2
BRANCH   1   7
ATOM      7  C   UNL     1      16.546  16.035  30.050  1.00  0.00     0.000 C 
BRANCH   7   8
ATOM      8  C   UNL     1      17.352  15.055  30.915  1.00  0.00    -0.000 C 
BRANCH   8   9
ATOM      9  C   UNL     1      16.578  13.764  31.221  1.00  0.00    -0.003 C 
ATOM     10  C   UNL     1      17.267  12.897  32.276  1.00  0.00     0.004 C 
ENDBRANCH   8   9
ENDBRANCH   7   8
ENDBRANCH   1   7
TORSDOF 6
ENDMDL
MODEL 5
REMARK VINA RESULT:    -3.327      2.527      4.822
REMARK INTER + INTRA:          -4.829
REMARK INTER:                  -4.513
REMARK INTRA:                  -0.316
REMARK UNBOUND:                -0.335
REMARK SMILES CCCCCCCC(=O)[O-]
REMARK SMILES IDX 5 1 6 2 7 3 8 4 9 5 10 6 4 7 3 8 2 9 1 10
REMARK H PARENT
REMARK Flexibility Score: inf
ROOT
ATOM      1  C   UNL     1      16.742  13.610  31.112  1.00  0.00     0.000 C 
ENDROOT
BRANCH   1   2
ATOM      2  C   UNL     1      17.824  14.586  31.587  1.00  0.00     0.006 C 
BRANCH   2   3
ATOM      3  C   UNL     1      18.812  13.896  32.532  1.00  0.00     0.053 C 
BRANCH   3   4
ATOM      4  C   UNL     1      20.142  13.728  31.868  1.00  0.00     0.041 C 
ATOM      5  O   UNL     1      20.396  14.336  30.795  1.00  0.00    -0.550 OA
ATOM      6  O   UNL     1      21.119  12.937  32.458  1.00  0.00    -0.550 OA
ENDBRANCH   3   4
ENDBRANCH   2   3
ENDBRANCH   1   2
BRANCH   1   7
ATOM      7  C   UNL     1      15.613  14.348  30.384  1.00  0.00     0.000 C 
BRANCH   7   8
ATOM      8  C   UNL     1      16.138  15.620  29.702  1.00  0.00    -0.000 C 
BRANCH   8   9
ATOM      9  C   UNL     1      15.895  15.620  28.186  1.00  0.00    -0.003 C 
ATOM     10  C   UNL     1      17.101  15.112  27.394  1.00  0.00     0.004 C 
ENDBRANCH   8   9
ENDBRANCH   7   8
ENDBRANCH   1   7
TORSDOF 6
ENDMDL
MODEL 6
REMARK VINA RESULT:    -3.285      2.915      5.142
REMARK INTER + INTRA:          -4.772
REMARK INTER:                  -4.453
REMARK INTRA:                  -0.320
REMARK UNBOUND:                -0.335
REMARK SMILES CCCCCCCC(=O)[O-]
REMARK SMILES IDX 5 1 6 2 7 3 8 4 9 5 10 6 4 7 3 8 2 9 1 10
REMARK H PARENT
REMARK Flexibility Score: inf
ROOT
ATOM      1  C   UNL     1      16.240  15.931  29.866  1.00  0.00     0.000 C 
ENDROOT
BRANCH   1   2
ATOM      2  C   UNL     1      17.325  15.292  30.741  1.00  0.00     0.006 C 
BRANCH   2   3
ATOM      3  C   UNL     1      16.918  13.882  31.180  1.00  0.00     0.053 C 
BRANCH   3   4
ATOM      4  C   UNL     1      17.759  13.429  32.330  1.00  0.00     0.041 C 
ATOM      5  O   UNL     1      17.483  12.359  32.935  1.00  0.00    -0.550 OA
ATOM      6  O   UNL     1      18.878  14.162  32.705  1.00  0.00    -0.550 OA
ENDBRANCH   3   4
ENDBRANCH   2   3
ENDBRANCH   1   2
BRANCH   1   7
ATOM      7  C   UNL     1      15.278  14.871  29.317  1.00  0.00     0.000 C 
BRANCH   7   8
ATOM      8  C   UNL     1      15.160  14.973  27.790  1.00  0.00    -0.000 C 
BRANCH   8   9
ATOM      9  C   UNL     1      16.407  15.594  27.142  1.00  0.00    -0.003 C 
ATOM     10  C   UNL     1      16.107  16.255  25.797  1.00  0.00     0.004 C 
ENDBRANCH   8   9
ENDBRANCH   7   8
ENDBRANCH   1   7
TORSDOF 6
ENDMDL
MODEL 7
REMARK VINA RESULT:    -3.277      1.800      2.268
REMARK INTER + INTRA:          -4.761
REMARK INTER:                  -4.593
REMARK INTRA:                  -0.168
REMARK UNBOUND:                -0.335
REMARK SMILES CCCCCCCC(=O)[O-]
REMARK SMILES IDX 5 1 6 2 7 3 8 4 9 5 10 6 4 7 3 8 2 9 1 10
REMARK H PARENT
REMARK Flexibility Score: inf
ROOT
ATOM      1  C   UNL     1      15.506  15.238  28.492  1.00  0.00     0.000 C 
ENDROOT
BRANCH   1   2
ATOM      2  C   UNL     1      16.088  15.675  27.142  1.00  0.00     0.006 C 
BRANCH   2   3
ATOM      3  C   UNL     1      15.930  14.572  26.092  1.00  0.00     0.053 C 
BRANCH   3   4
ATOM      4  C   UNL     1      15.519  15.157  24.777  1.00  0.00     0.041 C 
ATOM      5  O   UNL     1      15.990  16.262  24.400  1.00  0.00    -0.550 OA
ATOM      6  O   UNL     1      14.653  14.458  23.946  1.00  0.00    -0.550 OA
ENDBRANCH   3   4
ENDBRANCH   2   3
ENDBRANCH   1   2
BRANCH   1   7
ATOM      7  C   UNL     1      16.135  16.027  29.646  1.00  0.00     0.000 C 
BRANCH   7   8
ATOM      8  C   UNL     1      17.354  15.288  30.217  1.00  0.00    -0.000 C 
BRANCH   8   9
ATOM      9  C   UNL     1      16.962  14.187  31.214  1.00  0.00    -0.003 C 
ATOM     10  C   UNL     1      18.070  13.879  32.222  1.00  0.00     0.004 C 
ENDBRANCH   8   9
ENDBRANCH   7   8
ENDBRANCH   1   7
TORSDOF 6
ENDMDL
MODEL 8
REMARK VINA RESULT:    -3.192      1.621      2.144
REMARK INTER + INTRA:          -4.647
REMARK INTER:                  -4.376
REMARK INTRA:                  -0.271
REMARK UNBOUND:                -0.335
REMARK SMILES CCCCCCCC(=O)[O-]
REMARK SMILES IDX 5 1 6 2 7 3 8 4 9 5 10 6 4 7 3 8 2 9 1 10
REMARK H PARENT
REMARK Flexibility Score: inf
ROOT
ATOM      1  C   UNL     1      16.707  13.704  30.694  1.00  0.00     0.000 C 
ENDROOT
BRANCH   1   2
ATOM      2  C   UNL     1      15.461  14.449  30.204  1.00  0.00     0.006 C 
BRANCH   2   3
ATOM      3  C   UNL     1      15.844  15.643  29.324  1.00  0.00     0.053 C 
BRANCH   3   4
ATOM      4  C   UNL     1      15.585  15.336  27.883  1.00  0.00     0.041 C 
ATOM      5  O   UNL     1      16.051  16.082  26.982  1.00  0.00    -0.550 OA
ATOM      6  O   UNL     1      14.868  14.199  27.532  1.00  0.00    -0.550 OA
ENDBRANCH   3   4
ENDBRANCH   2   3
ENDBRANCH   1   2
BRANCH   1   7
ATOM      7  C   UNL     1      17.671  14.654  31.414  1.00  0.00     0.000 C 
BRANCH   7   8
ATOM      8  C   UNL     1      18.494  13.905  32.472  1.00  0.00    -0.000 C 
BRANCH   8   9
ATOM      9  C   UNL     1      17.828  12.595  32.920  1.00  0.00    -0.003 C 
ATOM     10  C   UNL     1      18.409  12.052  34.226  1.00  0.00     0.004 C 
ENDBRANCH   8   9
ENDBRANCH   7   8
ENDBRANCH   1   7
TORSDOF 6
ENDMDL
MODEL 9
REMARK VINA RESULT:    -3.136      1.748      2.314
REMARK INTER + INTRA:          -4.571
REMARK INTER:                  -3.921
REMARK INTRA:                  -0.651
REMARK UNBOUND:                -0.335
REMARK SMILES CCCCCCCC(=O)[O-]
REMARK SMILES IDX 5 1 6 2 7 3 8 4 9 5 10 6 4 7 3 8 2 9 1 10
REMARK H PARENT
REMARK Flexibility Score: inf
ROOT
ATOM      1  C   UNL     1      15.919  15.664  28.217  1.00  0.00     0.000 C 
ENDROOT
BRANCH   1   2
ATOM      2  C   UNL     1      16.789  14.605  27.530  1.00  0.00     0.006 C 
BRANCH   2   3
ATOM      3  C   UNL     1      18.278  14.882  27.758  1.00  0.00     0.053 C 
BRANCH   3   4
ATOM      4  C   UNL     1      18.957  13.671  28.314  1.00  0.00     0.041 C 
ATOM      5  O   UNL     1      18.394  12.545  28.255  1.00  0.00    -0.550 OA
ATOM      6  O   UNL     1      20.233  13.775  28.853  1.00  0.00    -0.550 OA
ENDBRANCH   3   4
ENDBRANCH   2   3
ENDBRANCH   1   2
BRANCH   1   7
ATOM      7  C   UNL     1      16.104  15.628  29.739  1.00  0.00     0.000 C 
BRANCH   7   8
ATOM      8  C   UNL     1      15.520  14.338  30.333  1.00  0.00    -0.000 C 
BRANCH   8   9
ATOM      9  C   UNL     1      16.515  13.607  31.248  1.00  0.00    -0.003 C 
ATOM     10  C   UNL     1      17.713  14.475  31.633  1.00  0.00     0.004 C 
ENDBRANCH   8   9
ENDBRANCH   7   8
ENDBRANCH   1   7
TORSDOF 6
ENDMDL
