MODEL 1
REMARK VINA RESULT:    -5.175      0.000      0.000
REMARK INTER + INTRA:          -6.721
REMARK INTER:                  -6.234
REMARK INTRA:                  -0.487
REMARK UNBOUND:                -0.487
REMARK SMILES CCCCc1oc(O)c2ccccc12
REMARK SMILES IDX 4 1 5 2 7 3 6 4 9 5 14 6 10 7 13 8 11 9 12 10 8 11 3 13 2 14
REMARK SMILES IDX 1 15
REMARK H PARENT 8 12
REMARK Flexibility Score: inf
ROOT
ATOM      1  C   UNL     1     -42.986  41.057  12.938  1.00  0.00     0.076 C 
ENDROOT
BRANCH   1   2
ATOM      2  C   UNL     1     -42.054  40.290  12.049  1.00  0.00     0.116 A 
ATOM      3  C   UNL     1     -41.239  38.657  10.921  1.00  0.00     0.290 A 
ATOM      4  O   UNL     1     -42.255  39.039  11.671  1.00  0.00    -0.430 OA
ATOM      5  C   UNL     1     -40.334  39.691  10.802  1.00  0.00     0.066 A 
ATOM      6  C   UNL     1     -40.853  40.734  11.524  1.00  0.00     0.027 A 
ATOM      7  C   UNL     1     -39.115  39.792  10.133  1.00  0.00     0.016 A 
ATOM      8  C   UNL     1     -40.188  41.956  11.629  1.00  0.00     0.012 A 
ATOM      9  C   UNL     1     -38.422  41.013  10.221  1.00  0.00     0.001 A 
ATOM     10  C   UNL     1     -38.955  42.090  10.965  1.00  0.00     0.001 A 
BRANCH   3  11
ATOM     11  O   UNL     1     -41.128  37.392  10.354  1.00  0.00    -0.480 OA
ATOM     12  H   UNL     1     -41.804  36.665  10.556  1.00  0.00     0.297 HD
ENDBRANCH   3  11
ENDBRANCH   1   2
BRANCH   1  13
ATOM     13  C   UNL     1     -42.967  40.532  14.383  1.00  0.00     0.008 C 
BRANCH  13  14
ATOM     14  C   UNL     1     -41.576  40.093  14.876  1.00  0.00    -0.003 C 
ATOM     15  C   UNL     1     -40.720  41.263  15.358  1.00  0.00     0.004 C 
ENDBRANCH  13  14
ENDBRANCH   1  13
TORSDOF 4
ENDMDL
MODEL 2
REMARK VINA RESULT:    -5.120     17.335     18.752
REMARK INTER + INTRA:          -6.655
REMARK INTER:                  -6.438
REMARK INTRA:                  -0.217
REMARK UNBOUND:                -0.487
REMARK SMILES CCCCc1oc(O)c2ccccc12
REMARK SMILES IDX 4 1 5 2 7 3 6 4 9 5 14 6 10 7 13 8 11 9 12 10 8 11 3 13 2 14
REMARK SMILES IDX 1 15
REMARK H PARENT 8 12
REMARK Flexibility Score: inf
ROOT
ATOM      1  C   UNL     1     -42.958  25.687  -0.676  1.00  0.00     0.076 C 
ENDROOT
BRANCH   1   2
ATOM      2  C   UNL     1     -41.734  25.900   0.164  1.00  0.00     0.116 A 
ATOM      3  C   UNL     1     -40.058  26.895   1.061  1.00  0.00     0.290 A 
ATOM      4  O   UNL     1     -41.106  27.057   0.275  1.00  0.00    -0.430 OA
ATOM      5  C   UNL     1     -39.991  25.582   1.480  1.00  0.00     0.066 A 
ATOM      6  C   UNL     1     -41.060  24.946   0.906  1.00  0.00     0.027 A 
ATOM      7  C   UNL     1     -39.086  24.911   2.301  1.00  0.00     0.016 A 
ATOM      8  C   UNL     1     -41.302  23.587   1.111  1.00  0.00     0.012 A 
ATOM      9  C   UNL     1     -39.305  23.540   2.527  1.00  0.00     0.001 A 
ATOM     10  C   UNL     1     -40.406  22.881   1.936  1.00  0.00     0.001 A 
BRANCH   3  11
ATOM     11  O   UNL     1     -39.174  27.916   1.393  1.00  0.00    -0.480 OA
ATOM     12  H   UNL     1     -39.167  28.324   2.320  1.00  0.00     0.297 HD
ENDBRANCH   3  11
ENDBRANCH   1   2
BRANCH   1  13
ATOM     13  C   UNL     1     -43.991  26.808  -0.483  1.00  0.00     0.008 C 
BRANCH  13  14
ATOM     14  C   UNL     1     -43.999  27.860  -1.606  1.00  0.00    -0.003 C 
ATOM     15  C   UNL     1     -44.510  29.223  -1.141  1.00  0.00     0.004 C 
ENDBRANCH  13  14
ENDBRANCH   1  13
TORSDOF 4
ENDMDL
MODEL 3
REMARK VINA RESULT:    -5.069     17.334     18.732
REMARK INTER + INTRA:          -6.593
REMARK INTER:                  -6.350
REMARK INTRA:                  -0.243
REMARK UNBOUND:                -0.487
REMARK SMILES CCCCc1oc(O)c2ccccc12
REMARK SMILES IDX 4 1 5 2 7 3 6 4 9 5 14 6 10 7 13 8 11 9 12 10 8 11 3 13 2 14
REMARK SMILES IDX 1 15
REMARK H PARENT 8 12
REMARK Flexibility Score: inf
ROOT
ATOM      1  C   UNL     1     -44.544  28.763  -0.676  1.00  0.00     0.076 C 
ENDROOT
BRANCH   1   2
ATOM      2  C   UNL     1     -43.278  28.002  -0.418  1.00  0.00     0.116 A 
ATOM      3  C   UNL     1     -41.272  27.594   0.225  1.00  0.00     0.290 A 
ATOM      4  O   UNL     1     -42.219  28.513   0.184  1.00  0.00    -0.430 OA
ATOM      5  C   UNL     1     -41.724  26.436  -0.373  1.00  0.00     0.066 A 
ATOM      6  C   UNL     1     -43.004  26.697  -0.786  1.00  0.00     0.027 A 
ATOM      7  C   UNL     1     -41.117  25.200  -0.588  1.00  0.00     0.016 A 
ATOM      8  C   UNL     1     -43.772  25.737  -1.445  1.00  0.00     0.012 A 
ATOM      9  C   UNL     1     -41.868  24.211  -1.250  1.00  0.00     0.001 A 
ATOM     10  C   UNL     1     -43.188  24.477  -1.677  1.00  0.00     0.001 A 
BRANCH   3  11
ATOM     11  O   UNL     1     -40.019  27.798   0.793  1.00  0.00    -0.480 OA
ATOM     12  H   UNL     1     -39.240  27.190   0.577  1.00  0.00     0.297 HD
ENDBRANCH   3  11
ENDBRANCH   1   2
BRANCH   1  13
ATOM     13  C   UNL     1     -44.668  29.195  -2.146  1.00  0.00     0.008 C 
BRANCH  13  14
ATOM     14  C   UNL     1     -45.874  30.106  -2.437  1.00  0.00    -0.003 C 
ATOM     15  C   UNL     1     -46.764  30.323  -1.213  1.00  0.00     0.004 C 
ENDBRANCH  13  14
ENDBRANCH   1  13
TORSDOF 4
ENDMDL
MODEL 4
REMARK VINA RESULT:    -5.057     17.394     19.328
REMARK INTER + INTRA:          -6.578
REMARK INTER:                  -6.296
REMARK INTRA:                  -0.283
REMARK UNBOUND:                -0.487
REMARK SMILES CCCCc1oc(O)c2ccccc12
REMARK SMILES IDX 4 1 5 2 7 3 6 4 9 5 14 6 10 7 13 8 11 9 12 10 8 11 3 13 2 14
REMARK SMILES IDX 1 15
REMARK H PARENT 8 12
REMARK Flexibility Score: inf
ROOT
ATOM      1  C   UNL     1     -39.761  24.115   0.865  1.00  0.00     0.076 C 
ENDROOT
BRANCH   1   2
ATOM      2  C   UNL     1     -40.856  25.095   0.569  1.00  0.00     0.116 A 
ATOM      3  C   UNL     1     -42.080  26.851   0.723  1.00  0.00     0.290 A 
ATOM      4  O   UNL     1     -41.011  26.244   1.203  1.00  0.00    -0.430 OA
ATOM      5  C   UNL     1     -42.653  26.071  -0.261  1.00  0.00     0.066 A 
ATOM      6  C   UNL     1     -41.873  24.950  -0.358  1.00  0.00     0.027 A 
ATOM      7  C   UNL     1     -43.782  26.257  -1.058  1.00  0.00     0.016 A 
ATOM      8  C   UNL     1     -42.166  23.928  -1.262  1.00  0.00     0.012 A 
ATOM      9  C   UNL     1     -44.102  25.244  -1.980  1.00  0.00     0.001 A 
ATOM     10  C   UNL     1     -43.300  24.085  -2.082  1.00  0.00     0.001 A 
BRANCH   3  11
ATOM     11  O   UNL     1     -42.534  28.088   1.168  1.00  0.00    -0.480 OA
ATOM     12  H   UNL     1     -43.325  28.545   0.731  1.00  0.00     0.297 HD
ENDBRANCH   3  11
ENDBRANCH   1   2
BRANCH   1  13
ATOM     13  C   UNL     1     -39.904  23.497   2.266  1.00  0.00     0.008 C 
BRANCH  13  14
ATOM     14  C   UNL     1     -38.682  23.712   3.178  1.00  0.00    -0.003 C 
ATOM     15  C   UNL     1     -38.698  25.068   3.882  1.00  0.00     0.004 C 
ENDBRANCH  13  14
ENDBRANCH   1  13
TORSDOF 4
ENDMDL
MODEL 5
REMARK VINA RESULT:    -4.959     17.591     19.037
REMARK INTER + INTRA:          -6.461
REMARK INTER:                  -6.208
REMARK INTRA:                  -0.253
REMARK UNBOUND:                -0.487
REMARK SMILES CCCCc1oc(O)c2ccccc12
REMARK SMILES IDX 4 1 5 2 7 3 6 4 9 5 14 6 10 7 13 8 11 9 12 10 8 11 3 13 2 14
REMARK SMILES IDX 1 15
REMARK H PARENT 8 12
REMARK Flexibility Score: inf
ROOT
ATOM      1  C   UNL     1     -42.784  25.726  -0.859  1.00  0.00     0.076 C 
ENDROOT
BRANCH   1   2
ATOM      2  C   UNL     1     -41.545  25.621  -0.020  1.00  0.00     0.116 A 
ATOM      3  C   UNL     1     -40.249  25.778   1.683  1.00  0.00     0.290 A 
ATOM      4  O   UNL     1     -41.483  25.966   1.253  1.00  0.00    -0.430 OA
ATOM      5  C   UNL     1     -39.469  25.294   0.653  1.00  0.00     0.066 A 
ATOM      6  C   UNL     1     -40.295  25.195  -0.435  1.00  0.00     0.027 A 
ATOM      7  C   UNL     1     -38.120  24.946   0.590  1.00  0.00     0.016 A 
ATOM      8  C   UNL     1     -39.831  24.740  -1.670  1.00  0.00     0.012 A 
ATOM      9  C   UNL     1     -37.624  24.482  -0.642  1.00  0.00     0.001 A 
ATOM     10  C   UNL     1     -38.474  24.380  -1.766  1.00  0.00     0.001 A 
BRANCH   3  11
ATOM     11  O   UNL     1     -39.833  26.042   2.983  1.00  0.00    -0.480 OA
ATOM     12  H   UNL     1     -38.953  26.507   3.169  1.00  0.00     0.297 HD
ENDBRANCH   3  11
ENDBRANCH   1   2
BRANCH   1  13
ATOM     13  C   UNL     1     -43.739  26.813  -0.341  1.00  0.00     0.008 C 
BRANCH  13  14
ATOM     14  C   UNL     1     -43.292  28.251  -0.661  1.00  0.00    -0.003 C 
ATOM     15  C   UNL     1     -44.452  29.156  -1.074  1.00  0.00     0.004 C 
ENDBRANCH  13  14
ENDBRANCH   1  13
TORSDOF 4
ENDMDL
MODEL 6
REMARK VINA RESULT:    -4.915     17.478     19.878
REMARK INTER + INTRA:          -6.408
REMARK INTER:                  -6.022
REMARK INTRA:                  -0.386
REMARK UNBOUND:                -0.487
REMARK SMILES CCCCc1oc(O)c2ccccc12
REMARK SMILES IDX 4 1 5 2 7 3 6 4 9 5 14 6 10 7 13 8 11 9 12 10 8 11 3 13 2 14
REMARK SMILES IDX 1 15
REMARK H PARENT 8 12
REMARK Flexibility Score: inf
ROOT
ATOM      1  C   UNL     1     -39.211  23.753  -1.435  1.00  0.00     0.076 C 
ENDROOT
BRANCH   1   2
ATOM      2  C   UNL     1     -39.306  24.652  -0.239  1.00  0.00     0.116 A 
ATOM      3  C   UNL     1     -39.568  26.440   0.918  1.00  0.00     0.290 A 
ATOM      4  O   UNL     1     -39.594  25.940  -0.303  1.00  0.00    -0.430 OA
ATOM      5  C   UNL     1     -39.248  25.446   1.820  1.00  0.00     0.066 A 
ATOM      6  C   UNL     1     -39.079  24.304   1.082  1.00  0.00     0.027 A 
ATOM      7  C   UNL     1     -39.091  25.459   3.205  1.00  0.00     0.016 A 
ATOM      8  C   UNL     1     -38.737  23.089   1.677  1.00  0.00     0.012 A 
ATOM      9  C   UNL     1     -38.748  24.248   3.833  1.00  0.00     0.001 A 
ATOM     10  C   UNL     1     -38.571  23.069   3.074  1.00  0.00     0.001 A 
BRANCH   3  11
ATOM     11  O   UNL     1     -39.827  27.774   1.214  1.00  0.00    -0.480 OA
ATOM     12  H   UNL     1     -40.764  28.153   1.153  1.00  0.00     0.297 HD
ENDBRANCH   3  11
ENDBRANCH   1   2
BRANCH   1  13
ATOM     13  C   UNL     1     -37.975  24.065  -2.294  1.00  0.00     0.008 C 
BRANCH  13  14
ATOM     14  C   UNL     1     -36.636  23.929  -1.547  1.00  0.00    -0.003 C 
ATOM     15  C   UNL     1     -35.535  24.810  -2.136  1.00  0.00     0.004 C 
ENDBRANCH  13  14
ENDBRANCH   1  13
TORSDOF 4
ENDMDL
MODEL 7
REMARK VINA RESULT:    -4.870     17.558     18.830
REMARK INTER + INTRA:          -6.353
REMARK INTER:                  -6.087
REMARK INTRA:                  -0.266
REMARK UNBOUND:                -0.487
REMARK SMILES CCCCc1oc(O)c2ccccc12
REMARK SMILES IDX 4 1 5 2 7 3 6 4 9 5 14 6 10 7 13 8 11 9 12 10 8 11 3 13 2 14
REMARK SMILES IDX 1 15
REMARK H PARENT 8 12
REMARK Flexibility Score: inf
ROOT
ATOM      1  C   UNL     1     -39.210  26.207   1.424  1.00  0.00     0.076 C 
ENDROOT
BRANCH   1   2
ATOM      2  C   UNL     1     -40.420  25.686   0.707  1.00  0.00     0.116 A 
ATOM      3  C   UNL     1     -41.723  24.312  -0.302  1.00  0.00     0.290 A 
ATOM      4  O   UNL     1     -40.566  24.430   0.322  1.00  0.00    -0.430 OA
ATOM      5  C   UNL     1     -42.360  25.536  -0.333  1.00  0.00     0.066 A 
ATOM      6  C   UNL     1     -41.528  26.413   0.310  1.00  0.00     0.027 A 
ATOM      7  C   UNL     1     -43.582  25.937  -0.871  1.00  0.00     0.016 A 
ATOM      8  C   UNL     1     -41.857  27.761   0.461  1.00  0.00     0.012 A 
ATOM      9  C   UNL     1     -43.942  27.290  -0.734  1.00  0.00     0.001 A 
ATOM     10  C   UNL     1     -43.085  28.198  -0.072  1.00  0.00     0.001 A 
BRANCH   3  11
ATOM     11  O   UNL     1     -42.195  23.119  -0.839  1.00  0.00    -0.480 OA
ATOM     12  H   UNL     1     -41.615  22.549  -1.441  1.00  0.00     0.297 HD
ENDBRANCH   3  11
ENDBRANCH   1   2
BRANCH   1  13
ATOM     13  C   UNL     1     -38.066  25.182   1.446  1.00  0.00     0.008 C 
BRANCH  13  14
ATOM     14  C   UNL     1     -37.615  24.770   2.859  1.00  0.00    -0.003 C 
ATOM     15  C   UNL     1     -38.754  24.201   3.704  1.00  0.00     0.004 C 
ENDBRANCH  13  14
ENDBRANCH   1  13
TORSDOF 4
ENDMDL
MODEL 8
REMARK VINA RESULT:    -4.859     17.403     19.221
REMARK INTER + INTRA:          -6.341
REMARK INTER:                  -5.914
REMARK INTRA:                  -0.427
REMARK UNBOUND:                -0.487
REMARK SMILES CCCCc1oc(O)c2ccccc12
REMARK SMILES IDX 4 1 5 2 7 3 6 4 9 5 14 6 10 7 13 8 11 9 12 10 8 11 3 13 2 14
REMARK SMILES IDX 1 15
REMARK H PARENT 8 12
REMARK Flexibility Score: inf
ROOT
ATOM      1  C   UNL     1     -41.566  26.419   1.088  1.00  0.00     0.076 C 
ENDROOT
BRANCH   1   2
ATOM      2  C   UNL     1     -40.182  25.852   0.977  1.00  0.00     0.116 A 
ATOM      3  C   UNL     1     -38.173  25.330   1.519  1.00  0.00     0.290 A 
ATOM      4  O   UNL     1     -39.290  25.884   1.951  1.00  0.00    -0.430 OA
ATOM      5  C   UNL     1     -38.334  24.921   0.211  1.00  0.00     0.066 A 
ATOM      6  C   UNL     1     -39.616  25.255  -0.136  1.00  0.00     0.027 A 
ATOM      7  C   UNL     1     -37.466  24.297  -0.684  1.00  0.00     0.016 A 
ATOM      8  C   UNL     1     -40.125  24.990  -1.408  1.00  0.00     0.012 A 
ATOM      9  C   UNL     1     -37.952  24.016  -1.974  1.00  0.00     0.001 A 
ATOM     10  C   UNL     1     -39.274  24.361  -2.335  1.00  0.00     0.001 A 
BRANCH   3  11
ATOM     11  O   UNL     1     -37.024  25.198   2.292  1.00  0.00    -0.480 OA
ATOM     12  H   UNL     1     -36.258  25.854   2.209  1.00  0.00     0.297 HD
ENDBRANCH   3  11
ENDBRANCH   1   2
BRANCH   1  13
ATOM     13  C   UNL     1     -41.719  27.725   0.293  1.00  0.00     0.008 C 
BRANCH  13  14
ATOM     14  C   UNL     1     -42.967  27.773  -0.608  1.00  0.00    -0.003 C 
ATOM     15  C   UNL     1     -43.757  26.465  -0.598  1.00  0.00     0.004 C 
ENDBRANCH  13  14
ENDBRANCH   1  13
TORSDOF 4
ENDMDL
MODEL 9
REMARK VINA RESULT:    -4.851     17.565     19.039
REMARK INTER + INTRA:          -6.331
REMARK INTER:                  -5.927
REMARK INTRA:                  -0.404
REMARK UNBOUND:                -0.487
REMARK SMILES CCCCc1oc(O)c2ccccc12
REMARK SMILES IDX 4 1 5 2 7 3 6 4 9 5 14 6 10 7 13 8 11 9 12 10 8 11 3 13 2 14
REMARK SMILES IDX 1 15
REMARK H PARENT 8 12
REMARK Flexibility Score: inf
ROOT
ATOM      1  C   UNL     1     -38.456  25.462   1.670  1.00  0.00     0.076 C 
ENDROOT
BRANCH   1   2
ATOM      2  C   UNL     1     -39.561  26.049   0.844  1.00  0.00     0.116 A 
ATOM      3  C   UNL     1     -40.828  27.523  -0.066  1.00  0.00     0.290 A 
ATOM      4  O   UNL     1     -39.763  27.346   0.694  1.00  0.00    -0.430 OA
ATOM      5  C   UNL     1     -41.348  26.297  -0.427  1.00  0.00     0.066 A 
ATOM      6  C   UNL     1     -40.540  25.356   0.155  1.00  0.00     0.027 A 
ATOM      7  C   UNL     1     -42.451  25.945  -1.203  1.00  0.00     0.016 A 
ATOM      8  C   UNL     1     -40.779  23.989   0.003  1.00  0.00     0.012 A 
ATOM      9  C   UNL     1     -42.716  24.574  -1.375  1.00  0.00     0.001 A 
ATOM     10  C   UNL     1     -41.886  23.601  -0.775  1.00  0.00     0.001 A 
BRANCH   3  11
ATOM     11  O   UNL     1     -41.324  28.771  -0.425  1.00  0.00    -0.480 OA
ATOM     12  H   UNL     1     -40.871  29.624  -0.120  1.00  0.00     0.297 HD
ENDBRANCH   3  11
ENDBRANCH   1   2
BRANCH   1  13
ATOM     13  C   UNL     1     -38.887  25.226   3.126  1.00  0.00     0.008 C 
BRANCH  13  14
ATOM     14  C   UNL     1     -38.826  23.754   3.572  1.00  0.00    -0.003 C 
ATOM     15  C   UNL     1     -37.660  22.992   2.944  1.00  0.00     0.004 C 
ENDBRANCH  13  14
ENDBRANCH   1  13
TORSDOF 4
ENDMDL
