MODEL 1
REMARK VINA RESULT:    -5.429      0.000      0.000
REMARK INTER + INTRA:         -14.756
REMARK INTER:                 -12.412
REMARK INTRA:                  -2.344
REMARK UNBOUND:                -2.344
REMARK SMILES CCCCCCCCCCCCCCCCCCCCCCCC(=O)[O-]
REMARK SMILES IDX 13 1 14 2 15 3 16 4 17 5 18 6 19 7 20 8 21 9 22 10 23 11
REMARK SMILES IDX 24 12 25 13 26 14 12 15 11 16 10 17 9 18 8 19 7 20 6 21 5 22
REMARK SMILES IDX 4 23 3 24 2 25 1 26
REMARK H PARENT
REMARK Flexibility Score: inf
ROOT
ATOM      1  C   UNL     1      10.351  51.955  21.760  1.00  0.00     0.000 C 
ENDROOT
BRANCH   1   2
ATOM      2  C   UNL     1      10.506  51.225  23.111  1.00  0.00     0.000 C 
BRANCH   2   3
ATOM      3  C   UNL     1      11.360  49.945  23.039  1.00  0.00     0.000 C 
BRANCH   3   4
ATOM      4  C   UNL     1      10.568  48.623  23.067  1.00  0.00     0.000 C 
BRANCH   4   5
ATOM      5  C   UNL     1      11.417  47.351  22.873  1.00  0.00     0.000 C 
BRANCH   5   6
ATOM      6  C   UNL     1      10.815  46.120  23.566  1.00  0.00     0.000 C 
BRANCH   6   7
ATOM      7  C   UNL     1      10.588  46.391  25.061  1.00  0.00     0.000 C 
BRANCH   7   8
ATOM      8  C   UNL     1      11.670  45.752  25.946  1.00  0.00     0.000 C 
BRANCH   8   9
ATOM      9  C   UNL     1      12.882  46.677  26.155  1.00  0.00     0.000 C 
BRANCH   9  10
ATOM     10  C   UNL     1      12.472  48.103  26.555  1.00  0.00     0.006 C 
BRANCH  10  11
ATOM     11  C   UNL     1      12.971  48.486  27.955  1.00  0.00     0.053 C 
BRANCH  11  12
ATOM     12  C   UNL     1      14.318  49.134  27.871  1.00  0.00     0.041 C 
ATOM     13  O   UNL     1      14.433  50.379  28.026  1.00  0.00    -0.550 OA
ATOM     14  O   UNL     1      15.440  48.370  27.571  1.00  0.00    -0.550 OA
ENDBRANCH  11  12
ENDBRANCH  10  11
ENDBRANCH   9  10
ENDBRANCH   8   9
ENDBRANCH   7   8
ENDBRANCH   6   7
ENDBRANCH   5   6
ENDBRANCH   4   5
ENDBRANCH   3   4
ENDBRANCH   2   3
ENDBRANCH   1   2
BRANCH   1  15
ATOM     15  C   UNL     1      10.950  53.372  21.783  1.00  0.00     0.000 C 
BRANCH  15  16
ATOM     16  C   UNL     1      11.026  53.957  23.203  1.00  0.00     0.000 C 
BRANCH  16  17
ATOM     17  C   UNL     1       9.855  54.906  23.510  1.00  0.00     0.000 C 
BRANCH  17  18
ATOM     18  C   UNL     1       8.819  54.284  24.460  1.00  0.00    -0.000 C 
BRANCH  18  19
ATOM     19  C   UNL     1       7.505  53.917  23.752  1.00  0.00    -0.000 C 
BRANCH  19  20
ATOM     20  C   UNL     1       7.500  54.416  22.302  1.00  0.00    -0.000 C 
BRANCH  20  21
ATOM     21  C   UNL     1       6.253  55.269  22.021  1.00  0.00    -0.000 C 
BRANCH  21  22
ATOM     22  C   UNL     1       6.569  56.562  21.248  1.00  0.00    -0.000 C 
BRANCH  22  23
ATOM     23  C   UNL     1       7.897  56.550  20.469  1.00  0.00    -0.000 C 
BRANCH  23  24
ATOM     24  C   UNL     1       7.700  56.374  18.954  1.00  0.00    -0.000 C 
BRANCH  24  25
ATOM     25  C   UNL     1       7.616  54.896  18.540  1.00  0.00    -0.003 C 
ATOM     26  C   UNL     1       7.093  54.708  17.115  1.00  0.00     0.004 C 
ENDBRANCH  24  25
ENDBRANCH  23  24
ENDBRANCH  22  23
ENDBRANCH  21  22
ENDBRANCH  20  21
ENDBRANCH  19  20
ENDBRANCH  18  19
ENDBRANCH  17  18
ENDBRANCH  16  17
ENDBRANCH  15  16
ENDBRANCH   1  15
TORSDOF 22
ENDMDL
MODEL 2
REMARK VINA RESULT:    -5.213      1.220      2.016
REMARK INTER + INTRA:         -14.261
REMARK INTER:                 -12.469
REMARK INTRA:                  -1.792
REMARK UNBOUND:                -2.344
REMARK SMILES CCCCCCCCCCCCCCCCCCCCCCCC(=O)[O-]
REMARK SMILES IDX 13 1 14 2 15 3 16 4 17 5 18 6 19 7 20 8 21 9 22 10 23 11
REMARK SMILES IDX 24 12 25 13 26 14 12 15 11 16 10 17 9 18 8 19 7 20 6 21 5 22
REMARK SMILES IDX 4 23 3 24 2 25 1 26
REMARK H PARENT
REMARK Flexibility Score: inf
ROOT
ATOM      1  C   UNL     1      10.659  49.749  22.678  1.00  0.00     0.000 C 
ENDROOT
BRANCH   1   2
ATOM      2  C   UNL     1      11.912  49.016  23.203  1.00  0.00     0.000 C 
BRANCH   2   3
ATOM      3  C   UNL     1      11.785  47.481  23.208  1.00  0.00     0.000 C 
BRANCH   3   4
ATOM      4  C   UNL     1      10.499  46.928  23.853  1.00  0.00     0.000 C 
BRANCH   4   5
ATOM      5  C   UNL     1      10.283  45.412  23.680  1.00  0.00     0.000 C 
BRANCH   5   6
ATOM      6  C   UNL     1      10.360  44.643  25.007  1.00  0.00     0.000 C 
BRANCH   6   7
ATOM      7  C   UNL     1      11.772  44.079  25.229  1.00  0.00     0.000 C 
BRANCH   7   8
ATOM      8  C   UNL     1      12.287  44.323  26.656  1.00  0.00     0.000 C 
BRANCH   8   9
ATOM      9  C   UNL     1      12.131  45.790  27.095  1.00  0.00     0.000 C 
BRANCH   9  10
ATOM     10  C   UNL     1      12.711  46.050  28.494  1.00  0.00     0.006 C 
BRANCH  10  11
ATOM     11  C   UNL     1      13.915  47.001  28.464  1.00  0.00     0.053 C 
BRANCH  11  12
ATOM     12  C   UNL     1      13.456  48.426  28.433  1.00  0.00     0.041 C 
ATOM     13  O   UNL     1      12.498  48.799  29.161  1.00  0.00    -0.550 OA
ATOM     14  O   UNL     1      14.052  49.329  27.562  1.00  0.00    -0.550 OA
ENDBRANCH  11  12
ENDBRANCH  10  11
ENDBRANCH   9  10
ENDBRANCH   8   9
ENDBRANCH   7   8
ENDBRANCH   6   7
ENDBRANCH   5   6
ENDBRANCH   4   5
ENDBRANCH   3   4
ENDBRANCH   2   3
ENDBRANCH   1   2
BRANCH   1  15
ATOM     15  C   UNL     1      10.670  51.251  23.014  1.00  0.00     0.000 C 
BRANCH  15  16
ATOM     16  C   UNL     1      10.212  52.122  21.832  1.00  0.00     0.000 C 
BRANCH  16  17
ATOM     17  C   UNL     1      10.808  53.540  21.884  1.00  0.00     0.000 C 
BRANCH  17  18
ATOM     18  C   UNL     1      10.927  54.083  23.317  1.00  0.00    -0.000 C 
BRANCH  18  19
ATOM     19  C   UNL     1       9.608  54.670  23.844  1.00  0.00    -0.000 C 
BRANCH  19  20
ATOM     20  C   UNL     1       8.810  55.337  22.717  1.00  0.00    -0.000 C 
BRANCH  20  21
ATOM     21  C   UNL     1       7.416  54.705  22.586  1.00  0.00    -0.000 C 
BRANCH  21  22
ATOM     22  C   UNL     1       6.869  54.746  21.147  1.00  0.00    -0.000 C 
BRANCH  22  23
ATOM     23  C   UNL     1       7.042  56.091  20.420  1.00  0.00    -0.000 C 
BRANCH  23  24
ATOM     24  C   UNL     1       7.998  56.003  19.217  1.00  0.00    -0.000 C 
BRANCH  24  25
ATOM     25  C   UNL     1       7.872  54.669  18.463  1.00  0.00    -0.003 C 
ATOM     26  C   UNL     1       6.919  54.751  17.269  1.00  0.00     0.004 C 
ENDBRANCH  24  25
ENDBRANCH  23  24
ENDBRANCH  22  23
ENDBRANCH  21  22
ENDBRANCH  20  21
ENDBRANCH  19  20
ENDBRANCH  18  19
ENDBRANCH  17  18
ENDBRANCH  16  17
ENDBRANCH  15  16
ENDBRANCH   1  15
TORSDOF 22
ENDMDL
MODEL 3
REMARK VINA RESULT:    -5.138      7.382     13.483
REMARK INTER + INTRA:         -14.090
REMARK INTER:                 -11.871
REMARK INTRA:                  -2.219
REMARK UNBOUND:                -2.344
REMARK SMILES CCCCCCCCCCCCCCCCCCCCCCCC(=O)[O-]
REMARK SMILES IDX 13 1 14 2 15 3 16 4 17 5 18 6 19 7 20 8 21 9 22 10 23 11
REMARK SMILES IDX 24 12 25 13 26 14 12 15 11 16 10 17 9 18 8 19 7 20 6 21 5 22
REMARK SMILES IDX 4 23 3 24 2 25 1 26
REMARK H PARENT
REMARK Flexibility Score: inf
ROOT
ATOM      1  C   UNL     1       4.583  57.579  21.617  1.00  0.00     0.000 C 
ENDROOT
BRANCH   1   2
ATOM      2  C   UNL     1       4.092  58.489  20.471  1.00  0.00     0.000 C 
BRANCH   2   3
ATOM      3  C   UNL     1       3.253  59.692  20.940  1.00  0.00     0.000 C 
BRANCH   3   4
ATOM      4  C   UNL     1       2.781  59.635  22.406  1.00  0.00     0.000 C 
BRANCH   4   5
ATOM      5  C   UNL     1       1.358  60.172  22.653  1.00  0.00     0.000 C 
BRANCH   5   6
ATOM      6  C   UNL     1       0.273  59.326  21.973  1.00  0.00     0.000 C 
BRANCH   6   7
ATOM      7  C   UNL     1      -0.778  60.223  21.300  1.00  0.00     0.000 C 
BRANCH   7   8
ATOM      8  C   UNL     1      -0.146  61.309  20.416  1.00  0.00     0.000 C 
BRANCH   8   9
ATOM      9  C   UNL     1      -0.002  60.866  18.950  1.00  0.00     0.000 C 
BRANCH   9  10
ATOM     10  C   UNL     1       1.294  61.382  18.304  1.00  0.00     0.006 C 
BRANCH  10  11
ATOM     11  C   UNL     1       1.990  60.314  17.450  1.00  0.00     0.053 C 
BRANCH  11  12
ATOM     12  C   UNL     1       1.275  60.139  16.146  1.00  0.00     0.041 C 
ATOM     13  O   UNL     1       0.994  58.984  15.728  1.00  0.00    -0.550 OA
ATOM     14  O   UNL     1       0.966  61.248  15.369  1.00  0.00    -0.550 OA
ENDBRANCH  11  12
ENDBRANCH  10  11
ENDBRANCH   9  10
ENDBRANCH   8   9
ENDBRANCH   7   8
ENDBRANCH   6   7
ENDBRANCH   5   6
ENDBRANCH   4   5
ENDBRANCH   3   4
ENDBRANCH   2   3
ENDBRANCH   1   2
BRANCH   1  15
ATOM     15  C   UNL     1       5.869  56.815  21.254  1.00  0.00     0.000 C 
BRANCH  15  16
ATOM     16  C   UNL     1       6.549  57.372  19.992  1.00  0.00     0.000 C 
BRANCH  16  17
ATOM     17  C   UNL     1       7.872  56.652  19.673  1.00  0.00     0.000 C 
BRANCH  17  18
ATOM     18  C   UNL     1       7.662  55.325  18.927  1.00  0.00    -0.000 C 
BRANCH  18  19
ATOM     19  C   UNL     1       8.024  54.098  19.779  1.00  0.00    -0.000 C 
BRANCH  19  20
ATOM     20  C   UNL     1       9.001  54.472  20.901  1.00  0.00    -0.000 C 
BRANCH  20  21
ATOM     21  C   UNL     1       9.905  53.283  21.258  1.00  0.00    -0.000 C 
BRANCH  21  22
ATOM     22  C   UNL     1       9.779  52.853  22.731  1.00  0.00    -0.000 C 
BRANCH  22  23
ATOM     23  C   UNL     1       8.644  53.534  23.517  1.00  0.00    -0.000 C 
BRANCH  23  24
ATOM     24  C   UNL     1       9.160  54.420  24.664  1.00  0.00    -0.000 C 
BRANCH  24  25
ATOM     25  C   UNL     1      10.627  54.835  24.473  1.00  0.00    -0.003 C 
ATOM     26  C   UNL     1      11.435  54.769  25.770  1.00  0.00     0.004 C 
ENDBRANCH  24  25
ENDBRANCH  23  24
ENDBRANCH  22  23
ENDBRANCH  21  22
ENDBRANCH  20  21
ENDBRANCH  19  20
ENDBRANCH  18  19
ENDBRANCH  17  18
ENDBRANCH  16  17
ENDBRANCH  15  16
ENDBRANCH   1  15
TORSDOF 22
ENDMDL
MODEL 4
REMARK VINA RESULT:    -5.089      7.837     14.116
REMARK INTER + INTRA:         -13.978
REMARK INTER:                 -12.104
REMARK INTRA:                  -1.874
REMARK UNBOUND:                -2.344
REMARK SMILES CCCCCCCCCCCCCCCCCCCCCCCC(=O)[O-]
REMARK SMILES IDX 13 1 14 2 15 3 16 4 17 5 18 6 19 7 20 8 21 9 22 10 23 11
REMARK SMILES IDX 24 12 25 13 26 14 12 15 11 16 10 17 9 18 8 19 7 20 6 21 5 22
REMARK SMILES IDX 4 23 3 24 2 25 1 26
REMARK H PARENT
REMARK Flexibility Score: inf
ROOT
ATOM      1  C   UNL     1       3.471  59.603  20.681  1.00  0.00     0.000 C 
ENDROOT
BRANCH   1   2
ATOM      2  C   UNL     1       2.578  60.378  21.673  1.00  0.00     0.000 C 
BRANCH   2   3
ATOM      3  C   UNL     1       1.902  59.490  22.734  1.00  0.00     0.000 C 
BRANCH   3   4
ATOM      4  C   UNL     1       0.650  60.095  23.399  1.00  0.00     0.000 C 
BRANCH   4   5
ATOM      5  C   UNL     1      -0.240  60.938  22.465  1.00  0.00     0.000 C 
BRANCH   5   6
ATOM      6  C   UNL     1      -1.107  60.081  21.531  1.00  0.00     0.000 C 
BRANCH   6   7
ATOM      7  C   UNL     1      -1.480  60.862  20.262  1.00  0.00     0.000 C 
BRANCH   7   8
ATOM      8  C   UNL     1      -0.335  61.759  19.764  1.00  0.00     0.000 C 
BRANCH   8   9
ATOM      9  C   UNL     1       0.449  61.123  18.603  1.00  0.00     0.000 C 
BRANCH   9  10
ATOM     10  C   UNL     1       0.610  62.077  17.410  1.00  0.00     0.006 C 
BRANCH  10  11
ATOM     11  C   UNL     1       0.255  61.411  16.073  1.00  0.00     0.053 C 
BRANCH  11  12
ATOM     12  C   UNL     1       1.392  60.566  15.591  1.00  0.00     0.041 C 
ATOM     13  O   UNL     1       2.453  61.107  15.179  1.00  0.00    -0.550 OA
ATOM     14  O   UNL     1       1.262  59.184  15.547  1.00  0.00    -0.550 OA
ENDBRANCH  11  12
ENDBRANCH  10  11
ENDBRANCH   9  10
ENDBRANCH   8   9
ENDBRANCH   7   8
ENDBRANCH   6   7
ENDBRANCH   5   6
ENDBRANCH   4   5
ENDBRANCH   3   4
ENDBRANCH   2   3
ENDBRANCH   1   2
BRANCH   1  15
ATOM     15  C   UNL     1       3.798  58.181  21.167  1.00  0.00     0.000 C 
BRANCH  15  16
ATOM     16  C   UNL     1       5.108  57.640  20.571  1.00  0.00     0.000 C 
BRANCH  16  17
ATOM     17  C   UNL     1       5.753  56.558  21.455  1.00  0.00     0.000 C 
BRANCH  17  18
ATOM     18  C   UNL     1       7.288  56.629  21.458  1.00  0.00    -0.000 C 
BRANCH  18  19
ATOM     19  C   UNL     1       7.906  56.236  20.106  1.00  0.00    -0.000 C 
BRANCH  19  20
ATOM     20  C   UNL     1       7.971  54.712  19.950  1.00  0.00    -0.000 C 
BRANCH  20  21
ATOM     21  C   UNL     1       9.248  54.150  20.596  1.00  0.00    -0.000 C 
BRANCH  21  22
ATOM     22  C   UNL     1       8.989  53.481  21.958  1.00  0.00    -0.000 C 
BRANCH  22  23
ATOM     23  C   UNL     1      10.242  52.940  22.669  1.00  0.00    -0.000 C 
BRANCH  23  24
ATOM     24  C   UNL     1      10.981  54.019  23.481  1.00  0.00    -0.000 C 
BRANCH  24  25
ATOM     25  C   UNL     1      10.039  55.123  23.986  1.00  0.00    -0.003 C 
ATOM     26  C   UNL     1       9.362  54.765  25.309  1.00  0.00     0.004 C 
ENDBRANCH  24  25
ENDBRANCH  23  24
ENDBRANCH  22  23
ENDBRANCH  21  22
ENDBRANCH  20  21
ENDBRANCH  19  20
ENDBRANCH  18  19
ENDBRANCH  17  18
ENDBRANCH  16  17
ENDBRANCH  15  16
ENDBRANCH   1  15
TORSDOF 22
ENDMDL
MODEL 5
REMARK VINA RESULT:    -5.083      5.692      9.830
REMARK INTER + INTRA:         -13.964
REMARK INTER:                 -11.684
REMARK INTRA:                  -2.280
REMARK UNBOUND:                -2.344
REMARK SMILES CCCCCCCCCCCCCCCCCCCCCCCC(=O)[O-]
REMARK SMILES IDX 13 1 14 2 15 3 16 4 17 5 18 6 19 7 20 8 21 9 22 10 23 11
REMARK SMILES IDX 24 12 25 13 26 14 12 15 11 16 10 17 9 18 8 19 7 20 6 21 5 22
REMARK SMILES IDX 4 23 3 24 2 25 1 26
REMARK H PARENT
REMARK Flexibility Score: inf
ROOT
ATOM      1  C   UNL     1       2.855  59.133  20.216  1.00  0.00     0.000 C 
ENDROOT
BRANCH   1   2
ATOM      2  C   UNL     1       3.740  58.331  21.192  1.00  0.00     0.000 C 
BRANCH   2   3
ATOM      3  C   UNL     1       5.014  57.747  20.551  1.00  0.00     0.000 C 
BRANCH   3   4
ATOM      4  C   UNL     1       5.666  56.584  21.323  1.00  0.00     0.000 C 
BRANCH   4   5
ATOM      5  C   UNL     1       7.205  56.626  21.386  1.00  0.00     0.000 C 
BRANCH   5   6
ATOM      6  C   UNL     1       7.869  56.267  20.049  1.00  0.00     0.000 C 
BRANCH   6   7
ATOM      7  C   UNL     1       7.976  54.744  19.883  1.00  0.00     0.000 C 
BRANCH   7   8
ATOM      8  C   UNL     1       8.387  54.037  21.184  1.00  0.00     0.000 C 
BRANCH   8   9
ATOM      9  C   UNL     1       9.779  53.386  21.087  1.00  0.00     0.000 C 
BRANCH   9  10
ATOM     10  C   UNL     1      10.803  54.046  22.023  1.00  0.00     0.006 C 
BRANCH  10  11
ATOM     11  C   UNL     1      10.600  53.646  23.491  1.00  0.00     0.053 C 
BRANCH  11  12
ATOM     12  C   UNL     1      10.049  54.797  24.275  1.00  0.00     0.041 C 
ATOM     13  O   UNL     1       9.736  54.646  25.486  1.00  0.00    -0.550 OA
ATOM     14  O   UNL     1       9.832  56.021  23.654  1.00  0.00    -0.550 OA
ENDBRANCH  11  12
ENDBRANCH  10  11
ENDBRANCH   9  10
ENDBRANCH   8   9
ENDBRANCH   7   8
ENDBRANCH   6   7
ENDBRANCH   5   6
ENDBRANCH   4   5
ENDBRANCH   3   4
ENDBRANCH   2   3
ENDBRANCH   1   2
BRANCH   1  15
ATOM     15  C   UNL     1       3.311  60.595  20.070  1.00  0.00     0.000 C 
BRANCH  15  16
ATOM     16  C   UNL     1       2.262  61.473  19.369  1.00  0.00     0.000 C 
BRANCH  16  17
ATOM     17  C   UNL     1       0.912  60.753  19.203  1.00  0.00     0.000 C 
BRANCH  17  18
ATOM     18  C   UNL     1      -0.223  61.426  19.992  1.00  0.00    -0.000 C 
BRANCH  18  19
ATOM     19  C   UNL     1      -0.830  60.507  21.065  1.00  0.00    -0.000 C 
BRANCH  19  20
ATOM     20  C   UNL     1      -0.492  61.004  22.475  1.00  0.00    -0.000 C 
BRANCH  20  21
ATOM     21  C   UNL     1       0.876  60.473  22.930  1.00  0.00    -0.000 C 
BRANCH  21  22
ATOM     22  C   UNL     1       0.780  59.146  23.703  1.00  0.00    -0.000 C 
BRANCH  22  23
ATOM     23  C   UNL     1      -0.580  58.876  24.372  1.00  0.00    -0.000 C 
BRANCH  23  24
ATOM     24  C   UNL     1      -1.224  57.557  23.907  1.00  0.00    -0.000 C 
BRANCH  24  25
ATOM     25  C   UNL     1      -0.807  57.171  22.479  1.00  0.00    -0.003 C 
ATOM     26  C   UNL     1      -1.237  55.753  22.099  1.00  0.00     0.004 C 
ENDBRANCH  24  25
ENDBRANCH  23  24
ENDBRANCH  22  23
ENDBRANCH  21  22
ENDBRANCH  20  21
ENDBRANCH  19  20
ENDBRANCH  18  19
ENDBRANCH  17  18
ENDBRANCH  16  17
ENDBRANCH  15  16
ENDBRANCH   1  15
TORSDOF 22
ENDMDL
MODEL 6
REMARK VINA RESULT:    -5.082      8.126     14.626
REMARK INTER + INTRA:         -13.963
REMARK INTER:                 -12.038
REMARK INTRA:                  -1.924
REMARK UNBOUND:                -2.344
REMARK SMILES CCCCCCCCCCCCCCCCCCCCCCCC(=O)[O-]
REMARK SMILES IDX 13 1 14 2 15 3 16 4 17 5 18 6 19 7 20 8 21 9 22 10 23 11
REMARK SMILES IDX 24 12 25 13 26 14 12 15 11 16 10 17 9 18 8 19 7 20 6 21 5 22
REMARK SMILES IDX 4 23 3 24 2 25 1 26
REMARK H PARENT
REMARK Flexibility Score: inf
ROOT
ATOM      1  C   UNL     1       2.639  58.884  21.081  1.00  0.00     0.000 C 
ENDROOT
BRANCH   1   2
ATOM      2  C   UNL     1       2.631  59.409  19.630  1.00  0.00     0.000 C 
BRANCH   2   3
ATOM      3  C   UNL     1       2.663  60.945  19.517  1.00  0.00     0.000 C 
BRANCH   3   4
ATOM      4  C   UNL     1       1.337  61.602  19.086  1.00  0.00     0.000 C 
BRANCH   4   5
ATOM      5  C   UNL     1       0.141  61.326  20.017  1.00  0.00     0.000 C 
BRANCH   5   6
ATOM      6  C   UNL     1      -1.064  60.724  19.280  1.00  0.00     0.000 C 
BRANCH   6   7
ATOM      7  C   UNL     1      -1.659  61.736  18.289  1.00  0.00     0.000 C 
BRANCH   7   8
ATOM      8  C   UNL     1      -1.734  61.184  16.857  1.00  0.00     0.000 C 
BRANCH   8   9
ATOM      9  C   UNL     1      -1.401  62.250  15.797  1.00  0.00     0.000 C 
BRANCH   9  10
ATOM     10  C   UNL     1      -0.192  61.862  14.932  1.00  0.00     0.006 C 
BRANCH  10  11
ATOM     11  C   UNL     1       1.110  61.789  15.741  1.00  0.00     0.053 C 
BRANCH  11  12
ATOM     12  C   UNL     1       1.741  60.439  15.597  1.00  0.00     0.041 C 
ATOM     13  O   UNL     1       2.805  60.305  14.934  1.00  0.00    -0.550 OA
ATOM     14  O   UNL     1       1.128  59.322  16.149  1.00  0.00    -0.550 OA
ENDBRANCH  11  12
ENDBRANCH  10  11
ENDBRANCH   9  10
ENDBRANCH   8   9
ENDBRANCH   7   8
ENDBRANCH   6   7
ENDBRANCH   5   6
ENDBRANCH   4   5
ENDBRANCH   3   4
ENDBRANCH   2   3
ENDBRANCH   1   2
BRANCH   1  15
ATOM     15  C   UNL     1       4.057  58.552  21.580  1.00  0.00     0.000 C 
BRANCH  15  16
ATOM     16  C   UNL     1       4.719  57.428  20.768  1.00  0.00     0.000 C 
BRANCH  16  17
ATOM     17  C   UNL     1       5.689  56.585  21.616  1.00  0.00     0.000 C 
BRANCH  17  18
ATOM     18  C   UNL     1       7.154  56.740  21.173  1.00  0.00    -0.000 C 
BRANCH  18  19
ATOM     19  C   UNL     1       7.503  55.872  19.954  1.00  0.00    -0.000 C 
BRANCH  19  20
ATOM     20  C   UNL     1       7.730  54.411  20.361  1.00  0.00    -0.000 C 
BRANCH  20  21
ATOM     21  C   UNL     1       9.145  54.215  20.927  1.00  0.00    -0.000 C 
BRANCH  21  22
ATOM     22  C   UNL     1       9.172  53.329  22.186  1.00  0.00    -0.000 C 
BRANCH  22  23
ATOM     23  C   UNL     1       8.160  53.716  23.280  1.00  0.00    -0.000 C 
BRANCH  23  24
ATOM     24  C   UNL     1       8.831  54.281  24.543  1.00  0.00    -0.000 C 
BRANCH  24  25
ATOM     25  C   UNL     1      10.058  55.148  24.219  1.00  0.00    -0.003 C 
ATOM     26  C   UNL     1      11.327  54.668  24.926  1.00  0.00     0.004 C 
ENDBRANCH  24  25
ENDBRANCH  23  24
ENDBRANCH  22  23
ENDBRANCH  21  22
ENDBRANCH  20  21
ENDBRANCH  19  20
ENDBRANCH  18  19
ENDBRANCH  17  18
ENDBRANCH  16  17
ENDBRANCH  15  16
ENDBRANCH   1  15
TORSDOF 22
ENDMDL
MODEL 7
REMARK VINA RESULT:    -5.046      6.390     10.638
REMARK INTER + INTRA:         -13.879
REMARK INTER:                 -11.912
REMARK INTRA:                  -1.967
REMARK UNBOUND:                -2.344
REMARK SMILES CCCCCCCCCCCCCCCCCCCCCCCC(=O)[O-]
REMARK SMILES IDX 13 1 14 2 15 3 16 4 17 5 18 6 19 7 20 8 21 9 22 10 23 11
REMARK SMILES IDX 24 12 25 13 26 14 12 15 11 16 10 17 9 18 8 19 7 20 6 21 5 22
REMARK SMILES IDX 4 23 3 24 2 25 1 26
REMARK H PARENT
REMARK Flexibility Score: inf
ROOT
ATOM      1  C   UNL     1       1.594  59.467  22.804  1.00  0.00     0.000 C 
ENDROOT
BRANCH   1   2
ATOM      2  C   UNL     1       2.897  59.682  22.007  1.00  0.00     0.000 C 
BRANCH   2   3
ATOM      3  C   UNL     1       2.995  58.836  20.723  1.00  0.00     0.000 C 
BRANCH   3   4
ATOM      4  C   UNL     1       4.370  58.191  20.462  1.00  0.00     0.000 C 
BRANCH   4   5
ATOM      5  C   UNL     1       4.920  57.338  21.621  1.00  0.00     0.000 C 
BRANCH   5   6
ATOM      6  C   UNL     1       6.039  56.383  21.182  1.00  0.00     0.000 C 
BRANCH   6   7
ATOM      7  C   UNL     1       6.855  56.991  20.031  1.00  0.00     0.000 C 
BRANCH   7   8
ATOM      8  C   UNL     1       8.012  56.083  19.585  1.00  0.00     0.000 C 
BRANCH   8   9
ATOM      9  C   UNL     1       7.993  54.715  20.290  1.00  0.00     0.000 C 
BRANCH   9  10
ATOM     10  C   UNL     1       9.171  54.538  21.260  1.00  0.00     0.006 C 
BRANCH  10  11
ATOM     11  C   UNL     1       8.986  53.335  22.195  1.00  0.00     0.053 C 
BRANCH  11  12
ATOM     12  C   UNL     1      10.306  52.895  22.749  1.00  0.00     0.041 C 
ATOM     13  O   UNL     1      11.062  53.726  23.319  1.00  0.00    -0.550 OA
ATOM     14  O   UNL     1      10.723  51.579  22.590  1.00  0.00    -0.550 OA
ENDBRANCH  11  12
ENDBRANCH  10  11
ENDBRANCH   9  10
ENDBRANCH   8   9
ENDBRANCH   7   8
ENDBRANCH   6   7
ENDBRANCH   5   6
ENDBRANCH   4   5
ENDBRANCH   3   4
ENDBRANCH   2   3
ENDBRANCH   1   2
BRANCH   1  15
ATOM     15  C   UNL     1       0.881  60.789  23.137  1.00  0.00     0.000 C 
BRANCH  15  16
ATOM     16  C   UNL     1      -0.407  60.576  23.949  1.00  0.00     0.000 C 
BRANCH  16  17
ATOM     17  C   UNL     1      -1.601  60.179  23.063  1.00  0.00     0.000 C 
BRANCH  17  18
ATOM     18  C   UNL     1      -1.751  61.082  21.828  1.00  0.00    -0.000 C 
BRANCH  18  19
ATOM     19  C   UNL     1      -1.690  60.299  20.506  1.00  0.00    -0.000 C 
BRANCH  19  20
ATOM     20  C   UNL     1      -1.012  61.124  19.405  1.00  0.00    -0.000 C 
BRANCH  20  21
ATOM     21  C   UNL     1       0.518  61.045  19.526  1.00  0.00    -0.000 C 
BRANCH  21  22
ATOM     22  C   UNL     1       1.243  61.339  18.201  1.00  0.00    -0.000 C 
BRANCH  22  23
ATOM     23  C   UNL     1       1.767  60.100  17.452  1.00  0.00    -0.000 C 
BRANCH  23  24
ATOM     24  C   UNL     1       1.988  60.357  15.951  1.00  0.00    -0.000 C 
BRANCH  24  25
ATOM     25  C   UNL     1       0.908  61.267  15.345  1.00  0.00    -0.003 C 
ATOM     26  C   UNL     1       1.492  62.488  14.633  1.00  0.00     0.004 C 
ENDBRANCH  24  25
ENDBRANCH  23  24
ENDBRANCH  22  23
ENDBRANCH  21  22
ENDBRANCH  20  21
ENDBRANCH  19  20
ENDBRANCH  18  19
ENDBRANCH  17  18
ENDBRANCH  16  17
ENDBRANCH  15  16
ENDBRANCH   1  15
TORSDOF 22
ENDMDL
MODEL 8
REMARK VINA RESULT:    -5.037      8.939     14.563
REMARK INTER + INTRA:         -13.860
REMARK INTER:                 -10.950
REMARK INTRA:                  -2.909
REMARK UNBOUND:                -2.344
REMARK SMILES CCCCCCCCCCCCCCCCCCCCCCCC(=O)[O-]
REMARK SMILES IDX 13 1 14 2 15 3 16 4 17 5 18 6 19 7 20 8 21 9 22 10 23 11
REMARK SMILES IDX 24 12 25 13 26 14 12 15 11 16 10 17 9 18 8 19 7 20 6 21 5 22
REMARK SMILES IDX 4 23 3 24 2 25 1 26
REMARK H PARENT
REMARK Flexibility Score: inf
ROOT
ATOM      1  C   UNL     1       0.569  59.262  23.996  1.00  0.00     0.000 C 
ENDROOT
BRANCH   1   2
ATOM      2  C   UNL     1      -0.641  60.044  24.551  1.00  0.00     0.000 C 
BRANCH   2   3
ATOM      3  C   UNL     1      -0.751  61.487  24.024  1.00  0.00     0.000 C 
BRANCH   3   4
ATOM      4  C   UNL     1      -1.759  61.694  22.876  1.00  0.00     0.000 C 
BRANCH   4   5
ATOM      5  C   UNL     1      -1.593  63.010  22.093  1.00  0.00     0.000 C 
BRANCH   5   6
ATOM      6  C   UNL     1      -1.332  62.787  20.597  1.00  0.00     0.000 C 
BRANCH   6   7
ATOM      7  C   UNL     1      -1.675  61.345  20.191  1.00  0.00     0.000 C 
BRANCH   7   8
ATOM      8  C   UNL     1      -0.696  60.777  19.152  1.00  0.00     0.000 C 
BRANCH   8   9
ATOM      9  C   UNL     1       0.292  61.835  18.633  1.00  0.00     0.000 C 
BRANCH   9  10
ATOM     10  C   UNL     1       1.747  61.339  18.648  1.00  0.00     0.006 C 
BRANCH  10  11
ATOM     11  C   UNL     1       1.889  59.919  18.084  1.00  0.00     0.053 C 
BRANCH  11  12
ATOM     12  C   UNL     1       1.874  59.946  16.587  1.00  0.00     0.041 C 
ATOM     13  O   UNL     1       2.697  60.663  15.958  1.00  0.00    -0.550 OA
ATOM     14  O   UNL     1       0.918  59.219  15.889  1.00  0.00    -0.550 OA
ENDBRANCH  11  12
ENDBRANCH  10  11
ENDBRANCH   9  10
ENDBRANCH   8   9
ENDBRANCH   7   8
ENDBRANCH   6   7
ENDBRANCH   5   6
ENDBRANCH   4   5
ENDBRANCH   3   4
ENDBRANCH   2   3
ENDBRANCH   1   2
BRANCH   1  15
ATOM     15  C   UNL     1       0.241  58.516  22.690  1.00  0.00     0.000 C 
BRANCH  15  16
ATOM     16  C   UNL     1       1.237  58.835  21.564  1.00  0.00     0.000 C 
BRANCH  16  17
ATOM     17  C   UNL     1       2.305  59.855  21.996  1.00  0.00     0.000 C 
BRANCH  17  18
ATOM     18  C   UNL     1       3.666  59.613  21.325  1.00  0.00    -0.000 C 
BRANCH  18  19
ATOM     19  C   UNL     1       3.857  58.157  20.871  1.00  0.00    -0.000 C 
BRANCH  19  20
ATOM     20  C   UNL     1       4.998  57.482  21.642  1.00  0.00    -0.000 C 
BRANCH  20  21
ATOM     21  C   UNL     1       5.724  56.457  20.757  1.00  0.00    -0.000 C 
BRANCH  21  22
ATOM     22  C   UNL     1       7.253  56.635  20.759  1.00  0.00    -0.000 C 
BRANCH  22  23
ATOM     23  C   UNL     1       7.986  56.014  19.557  1.00  0.00    -0.000 C 
BRANCH  23  24
ATOM     24  C   UNL     1       7.607  54.541  19.321  1.00  0.00    -0.000 C 
BRANCH  24  25
ATOM     25  C   UNL     1       6.885  54.326  17.982  1.00  0.00    -0.003 C 
ATOM     26  C   UNL     1       7.221  55.402  16.948  1.00  0.00     0.004 C 
ENDBRANCH  24  25
ENDBRANCH  23  24
ENDBRANCH  22  23
ENDBRANCH  21  22
ENDBRANCH  20  21
ENDBRANCH  19  20
ENDBRANCH  18  19
ENDBRANCH  17  18
ENDBRANCH  16  17
ENDBRANCH  15  16
ENDBRANCH   1  15
TORSDOF 22
ENDMDL
MODEL 9
REMARK VINA RESULT:    -4.999      6.184     10.141
REMARK INTER + INTRA:         -13.773
REMARK INTER:                 -11.369
REMARK INTRA:                  -2.404
REMARK UNBOUND:                -2.344
REMARK SMILES CCCCCCCCCCCCCCCCCCCCCCCC(=O)[O-]
REMARK SMILES IDX 13 1 14 2 15 3 16 4 17 5 18 6 19 7 20 8 21 9 22 10 23 11
REMARK SMILES IDX 24 12 25 13 26 14 12 15 11 16 10 17 9 18 8 19 7 20 6 21 5 22
REMARK SMILES IDX 4 23 3 24 2 25 1 26
REMARK H PARENT
REMARK Flexibility Score: inf
ROOT
ATOM      1  C   UNL     1       2.073  59.903  22.377  1.00  0.00     0.000 C 
ENDROOT
BRANCH   1   2
ATOM      2  C   UNL     1       3.199  60.045  21.331  1.00  0.00     0.000 C 
BRANCH   2   3
ATOM      3  C   UNL     1       3.560  58.731  20.614  1.00  0.00     0.000 C 
BRANCH   3   4
ATOM      4  C   UNL     1       4.558  57.825  21.361  1.00  0.00     0.000 C 
BRANCH   4   5
ATOM      5  C   UNL     1       5.783  57.385  20.536  1.00  0.00     0.000 C 
BRANCH   5   6
ATOM      6  C   UNL     1       6.614  56.298  21.233  1.00  0.00     0.000 C 
BRANCH   6   7
ATOM      7  C   UNL     1       8.051  56.278  20.691  1.00  0.00     0.000 C 
BRANCH   7   8
ATOM      8  C   UNL     1       8.862  55.081  21.214  1.00  0.00     0.000 C 
BRANCH   8   9
ATOM      9  C   UNL     1       7.979  54.034  21.915  1.00  0.00     0.000 C 
BRANCH   9  10
ATOM     10  C   UNL     1       8.524  53.635  23.296  1.00  0.00     0.006 C 
BRANCH  10  11
ATOM     11  C   UNL     1      10.055  53.713  23.368  1.00  0.00     0.053 C 
BRANCH  11  12
ATOM     12  C   UNL     1      10.483  54.522  24.553  1.00  0.00     0.041 C 
ATOM     13  O   UNL     1      11.661  54.963  24.627  1.00  0.00    -0.550 OA
ATOM     14  O   UNL     1       9.596  54.746  25.599  1.00  0.00    -0.550 OA
ENDBRANCH  11  12
ENDBRANCH  10  11
ENDBRANCH   9  10
ENDBRANCH   8   9
ENDBRANCH   7   8
ENDBRANCH   6   7
ENDBRANCH   5   6
ENDBRANCH   4   5
ENDBRANCH   3   4
ENDBRANCH   2   3
ENDBRANCH   1   2
BRANCH   1  15
ATOM     15  C   UNL     1       1.018  58.859  21.970  1.00  0.00     0.000 C 
BRANCH  15  16
ATOM     16  C   UNL     1       0.143  58.413  23.153  1.00  0.00     0.000 C 
BRANCH  16  17
ATOM     17  C   UNL     1       0.108  59.458  24.282  1.00  0.00     0.000 C 
BRANCH  17  18
ATOM     18  C   UNL     1      -1.090  60.414  24.171  1.00  0.00    -0.000 C 
BRANCH  18  19
ATOM     19  C   UNL     1      -0.673  61.858  23.849  1.00  0.00    -0.000 C 
BRANCH  19  20
ATOM     20  C   UNL     1      -1.477  62.416  22.669  1.00  0.00    -0.000 C 
BRANCH  20  21
ATOM     21  C   UNL     1      -1.430  61.454  21.471  1.00  0.00    -0.000 C 
BRANCH  21  22
ATOM     22  C   UNL     1      -0.611  62.003  20.290  1.00  0.00    -0.000 C 
BRANCH  22  23
ATOM     23  C   UNL     1      -0.259  60.972  19.203  1.00  0.00    -0.000 C 
BRANCH  23  24
ATOM     24  C   UNL     1       1.005  61.347  18.409  1.00  0.00    -0.000 C 
BRANCH  24  25
ATOM     25  C   UNL     1       1.737  60.116  17.852  1.00  0.00    -0.003 C 
ATOM     26  C   UNL     1       1.815  60.113  16.325  1.00  0.00     0.004 C 
ENDBRANCH  24  25
ENDBRANCH  23  24
ENDBRANCH  22  23
ENDBRANCH  21  22
ENDBRANCH  20  21
ENDBRANCH  19  20
ENDBRANCH  18  19
ENDBRANCH  17  18
ENDBRANCH  16  17
ENDBRANCH  15  16
ENDBRANCH   1  15
TORSDOF 22
ENDMDL
