MODEL 1
REMARK VINA RESULT:    -5.381      0.000      0.000
REMARK INTER + INTRA:          -6.104
REMARK INTER:                  -6.482
REMARK INTRA:                   0.377
REMARK UNBOUND:                 0.377
REMARK SMILES O=c1c(O)c(-c2ccc(O)c(O)c2)oc2cc(O)cc(O)c12
REMARK SMILES IDX 5 1 3 2 2 3 1 4 22 5 20 6 19 7 17 8 16 9 15 10 14 11 6 12
REMARK SMILES IDX 7 13 8 14 9 15 13 16 11 17 10 18 12 20 4 22 21 24 18 26
REMARK H PARENT 10 19 12 21 4 23 21 25 18 27
REMARK Flexibility Score: inf
ROOT
ATOM      1  C   UNL     1      30.403  47.270   5.709  1.00  0.00     0.180 A 
ATOM      2  C   UNL     1      30.388  47.650   7.062  1.00  0.00     0.208 A 
ATOM      3  C   UNL     1      30.315  46.653   8.049  1.00  0.00     0.238 A 
ATOM      4  O   UNL     1      30.358  46.997   9.259  1.00  0.00    -0.285 OA
ATOM      5  C   UNL     1      30.243  45.291   7.670  1.00  0.00     0.111 A 
ATOM      6  C   UNL     1      30.127  44.201   8.585  1.00  0.00     0.134 A 
ATOM      7  C   UNL     1      30.194  42.887   8.105  1.00  0.00     0.093 A 
ATOM      8  C   UNL     1      30.310  42.625   6.738  1.00  0.00     0.123 A 
ATOM      9  C   UNL     1      30.365  43.682   5.832  1.00  0.00     0.094 A 
ATOM     10  C   UNL     1      30.336  45.003   6.283  1.00  0.00     0.146 A 
ATOM     11  O   UNL     1      30.401  45.981   5.387  1.00  0.00    -0.452 OA
ENDROOT
BRANCH   1  12
ATOM     12  C   UNL     1      30.453  48.263   4.612  1.00  0.00     0.025 A 
ATOM     13  C   UNL     1      31.048  49.514   4.839  1.00  0.00     0.016 A 
ATOM     14  C   UNL     1      31.125  50.458   3.812  1.00  0.00     0.051 A 
ATOM     15  C   UNL     1      30.625  50.162   2.541  1.00  0.00     0.157 A 
ATOM     16  C   UNL     1      29.969  47.959   3.327  1.00  0.00     0.062 A 
ATOM     17  C   UNL     1      30.047  48.906   2.294  1.00  0.00     0.158 A 
BRANCH  15  18
ATOM     18  O   UNL     1      30.713  51.125   1.536  1.00  0.00    -0.504 OA
ATOM     19  H   UNL     1      30.078  51.913   1.488  1.00  0.00     0.293 HD
ENDBRANCH  15  18
BRANCH  17  20
ATOM     20  O   UNL     1      29.559  48.598   1.024  1.00  0.00    -0.504 OA
ATOM     21  H   UNL     1      29.852  47.764   0.530  1.00  0.00     0.293 HD
ENDBRANCH  17  20
ENDBRANCH   1  12
BRANCH   2  22
ATOM     22  O   UNL     1      30.483  48.999   7.414  1.00  0.00    -0.502 OA
ATOM     23  H   UNL     1      29.673  49.604   7.474  1.00  0.00     0.293 HD
ENDBRANCH   2  22
BRANCH   6  24
ATOM     24  O   UNL     1      29.916  44.353   9.957  1.00  0.00    -0.507 OA
ATOM     25  H   UNL     1      29.142  43.955  10.468  1.00  0.00     0.293 HD
ENDBRANCH   6  24
BRANCH   8  26
ATOM     26  O   UNL     1      30.360  41.314   6.267  1.00  0.00    -0.508 OA
ATOM     27  H   UNL     1      29.521  40.817   5.995  1.00  0.00     0.293 HD
ENDBRANCH   8  26
TORSDOF 6
ENDMDL
MODEL 2
REMARK VINA RESULT:    -5.080      1.169      6.520
REMARK INTER + INTRA:          -5.742
REMARK INTER:                  -5.841
REMARK INTRA:                   0.099
REMARK UNBOUND:                 0.377
REMARK SMILES O=c1c(O)c(-c2ccc(O)c(O)c2)oc2cc(O)cc(O)c12
REMARK SMILES IDX 5 1 3 2 2 3 1 4 22 5 20 6 19 7 17 8 16 9 15 10 14 11 6 12
REMARK SMILES IDX 7 13 8 14 9 15 13 16 11 17 10 18 12 20 4 22 21 24 18 26
REMARK H PARENT 10 19 12 21 4 23 21 25 18 27
REMARK Flexibility Score: inf
ROOT
ATOM      1  C   UNL     1      30.459  45.945   6.142  1.00  0.00     0.180 A 
ATOM      2  C   UNL     1      30.306  46.916   7.146  1.00  0.00     0.208 A 
ATOM      3  C   UNL     1      30.372  48.275   6.796  1.00  0.00     0.238 A 
ATOM      4  O   UNL     1      30.180  49.140   7.690  1.00  0.00    -0.285 OA
ATOM      5  C   UNL     1      30.605  48.644   5.449  1.00  0.00     0.111 A 
ATOM      6  C   UNL     1      30.730  49.990   4.988  1.00  0.00     0.134 A 
ATOM      7  C   UNL     1      30.830  50.242   3.614  1.00  0.00     0.093 A 
ATOM      8  C   UNL     1      30.874  49.195   2.691  1.00  0.00     0.123 A 
ATOM      9  C   UNL     1      30.812  47.876   3.136  1.00  0.00     0.094 A 
ATOM     10  C   UNL     1      30.676  47.594   4.497  1.00  0.00     0.146 A 
ATOM     11  O   UNL     1      30.610  46.323   4.878  1.00  0.00    -0.452 OA
ENDROOT
BRANCH   1  12
ATOM     12  C   UNL     1      30.427  44.494   6.438  1.00  0.00     0.025 A 
ATOM     13  C   UNL     1      31.125  44.000   7.550  1.00  0.00     0.016 A 
ATOM     14  C   UNL     1      31.090  42.638   7.860  1.00  0.00     0.051 A 
ATOM     15  C   UNL     1      30.347  41.753   7.073  1.00  0.00     0.157 A 
ATOM     16  C   UNL     1      29.663  43.606   5.659  1.00  0.00     0.062 A 
ATOM     17  C   UNL     1      29.626  42.238   5.969  1.00  0.00     0.158 A 
BRANCH  15  18
ATOM     18  O   UNL     1      30.334  40.399   7.405  1.00  0.00    -0.504 OA
ATOM     19  H   UNL     1      30.064  40.072   8.325  1.00  0.00     0.293 HD
ENDBRANCH  15  18
BRANCH  17  20
ATOM     20  O   UNL     1      28.871  41.363   5.189  1.00  0.00    -0.504 OA
ATOM     21  H   UNL     1      28.851  41.434   4.179  1.00  0.00     0.293 HD
ENDBRANCH  17  20
ENDBRANCH   1  12
BRANCH   2  22
ATOM     22  O   UNL     1      30.055  46.530   8.466  1.00  0.00    -0.502 OA
ATOM     23  H   UNL     1      30.689  46.745   9.226  1.00  0.00     0.293 HD
ENDBRANCH   2  22
BRANCH   6  24
ATOM     24  O   UNL     1      30.790  51.101   5.832  1.00  0.00    -0.507 OA
ATOM     25  H   UNL     1      31.186  51.994   5.580  1.00  0.00     0.293 HD
ENDBRANCH   6  24
BRANCH   8  26
ATOM     26  O   UNL     1      30.989  49.454   1.327  1.00  0.00    -0.508 OA
ATOM     27  H   UNL     1      31.876  49.711   0.910  1.00  0.00     0.293 HD
ENDBRANCH   8  26
TORSDOF 6
ENDMDL
MODEL 3
REMARK VINA RESULT:    -4.514      1.349      6.462
REMARK INTER + INTRA:          -5.060
REMARK INTER:                  -5.073
REMARK INTRA:                   0.012
REMARK UNBOUND:                 0.377
REMARK SMILES O=c1c(O)c(-c2ccc(O)c(O)c2)oc2cc(O)cc(O)c12
REMARK SMILES IDX 5 1 3 2 2 3 1 4 22 5 20 6 19 7 17 8 16 9 15 10 14 11 6 12
REMARK SMILES IDX 7 13 8 14 9 15 13 16 11 17 10 18 12 20 4 22 21 24 18 26
REMARK H PARENT 10 19 12 21 4 23 21 25 18 27
REMARK Flexibility Score: inf
ROOT
ATOM      1  C   UNL     1      30.362  45.747   6.861  1.00  0.00     0.180 A 
ATOM      2  C   UNL     1      30.088  46.501   8.014  1.00  0.00     0.208 A 
ATOM      3  C   UNL     1      30.118  47.904   7.933  1.00  0.00     0.238 A 
ATOM      4  O   UNL     1      29.818  48.574   8.956  1.00  0.00    -0.285 OA
ATOM      5  C   UNL     1      30.436  48.532   6.705  1.00  0.00     0.111 A 
ATOM      6  C   UNL     1      30.534  49.944   6.519  1.00  0.00     0.134 A 
ATOM      7  C   UNL     1      30.727  50.458   5.232  1.00  0.00     0.093 A 
ATOM      8  C   UNL     1      30.890  49.611   4.134  1.00  0.00     0.123 A 
ATOM      9  C   UNL     1      30.855  48.230   4.315  1.00  0.00     0.094 A 
ATOM     10  C   UNL     1      30.628  47.687   5.582  1.00  0.00     0.146 A 
ATOM     11  O   UNL     1      30.592  46.366   5.708  1.00  0.00    -0.452 OA
ENDROOT
BRANCH   1  12
ATOM     12  C   UNL     1      30.374  44.266   6.873  1.00  0.00     0.025 A 
ATOM     13  C   UNL     1      31.114  43.589   7.855  1.00  0.00     0.016 A 
ATOM     14  C   UNL     1      31.122  42.193   7.898  1.00  0.00     0.051 A 
ATOM     15  C   UNL     1      30.381  41.452   6.972  1.00  0.00     0.157 A 
ATOM     16  C   UNL     1      29.613  43.520   5.955  1.00  0.00     0.062 A 
ATOM     17  C   UNL     1      29.619  42.118   5.997  1.00  0.00     0.158 A 
BRANCH  15  18
ATOM     18  O   UNL     1      30.410  40.060   7.037  1.00  0.00    -0.504 OA
ATOM     19  H   UNL     1      30.591  39.486   6.221  1.00  0.00     0.293 HD
ENDBRANCH  15  18
BRANCH  17  20
ATOM     20  O   UNL     1      28.865  41.387   5.079  1.00  0.00    -0.504 OA
ATOM     21  H   UNL     1      28.712  41.717   4.134  1.00  0.00     0.293 HD
ENDBRANCH  17  20
ENDBRANCH   1  12
BRANCH   2  22
ATOM     22  O   UNL     1      29.755  45.861   9.211  1.00  0.00    -0.502 OA
ATOM     23  H   UNL     1      30.369  45.859  10.016  1.00  0.00     0.293 HD
ENDBRANCH   2  22
BRANCH   6  24
ATOM     24  O   UNL     1      30.477  50.874   7.561  1.00  0.00    -0.507 OA
ATOM     25  H   UNL     1      30.650  51.863   7.459  1.00  0.00     0.293 HD
ENDBRANCH   6  24
BRANCH   8  26
ATOM     26  O   UNL     1      31.097  50.130   2.858  1.00  0.00    -0.508 OA
ATOM     27  H   UNL     1      32.029  50.330   2.513  1.00  0.00     0.293 HD
ENDBRANCH   8  26
TORSDOF 6
ENDMDL
MODEL 4
REMARK VINA RESULT:    -3.161      2.053      3.763
REMARK INTER + INTRA:          -3.430
REMARK INTER:                  -3.516
REMARK INTRA:                   0.086
REMARK UNBOUND:                 0.377
REMARK SMILES O=c1c(O)c(-c2ccc(O)c(O)c2)oc2cc(O)cc(O)c12
REMARK SMILES IDX 5 1 3 2 2 3 1 4 22 5 20 6 19 7 17 8 16 9 15 10 14 11 6 12
REMARK SMILES IDX 7 13 8 14 9 15 13 16 11 17 10 18 12 20 4 22 21 24 18 26
REMARK H PARENT 10 19 12 21 4 23 21 25 18 27
REMARK Flexibility Score: inf
ROOT
ATOM      1  C   UNL     1      30.426  48.543   5.027  1.00  0.00     0.180 A 
ATOM      2  C   UNL     1      30.783  47.195   5.197  1.00  0.00     0.208 A 
ATOM      3  C   UNL     1      30.760  46.642   6.488  1.00  0.00     0.238 A 
ATOM      4  O   UNL     1      31.028  45.419   6.627  1.00  0.00    -0.285 OA
ATOM      5  C   UNL     1      30.396  47.448   7.593  1.00  0.00     0.111 A 
ATOM      6  C   UNL     1      30.377  47.002   8.949  1.00  0.00     0.134 A 
ATOM      7  C   UNL     1      29.875  47.848   9.946  1.00  0.00     0.093 A 
ATOM      8  C   UNL     1      29.452  49.145   9.646  1.00  0.00     0.123 A 
ATOM      9  C   UNL     1      29.522  49.609   8.334  1.00  0.00     0.094 A 
ATOM     10  C   UNL     1      29.984  48.776   7.312  1.00  0.00     0.146 A 
ATOM     11  O   UNL     1      30.025  49.255   6.074  1.00  0.00    -0.452 OA
ENDROOT
BRANCH   1  12
ATOM     12  C   UNL     1      30.449  49.204   3.701  1.00  0.00     0.025 A 
ATOM     13  C   UNL     1      31.072  50.454   3.563  1.00  0.00     0.016 A 
ATOM     14  C   UNL     1      31.125  51.084   2.317  1.00  0.00     0.051 A 
ATOM     15  C   UNL     1      30.570  50.470   1.190  1.00  0.00     0.157 A 
ATOM     16  C   UNL     1      29.909  48.578   2.563  1.00  0.00     0.062 A 
ATOM     17  C   UNL     1      29.962  49.210   1.311  1.00  0.00     0.158 A 
BRANCH  15  18
ATOM     18  O   UNL     1      30.634  51.125  -0.039  1.00  0.00    -0.504 OA
ATOM     19  H   UNL     1      29.817  51.536  -0.474  1.00  0.00     0.293 HD
ENDBRANCH  15  18
BRANCH  17  20
ATOM     20  O   UNL     1      29.419  48.585   0.189  1.00  0.00    -0.504 OA
ATOM     21  H   UNL     1      28.634  48.981  -0.312  1.00  0.00     0.293 HD
ENDBRANCH  17  20
ENDBRANCH   1  12
BRANCH   2  22
ATOM     22  O   UNL     1      31.118  46.411   4.089  1.00  0.00    -0.502 OA
ATOM     23  H   UNL     1      30.923  45.418   4.046  1.00  0.00     0.293 HD
ENDBRANCH   2  22
BRANCH   6  24
ATOM     24  O   UNL     1      30.862  45.761   9.370  1.00  0.00    -0.507 OA
ATOM     25  H   UNL     1      30.662  44.882   8.916  1.00  0.00     0.293 HD
ENDBRANCH   6  24
BRANCH   8  26
ATOM     26  O   UNL     1      28.969  49.985  10.646  1.00  0.00    -0.508 OA
ATOM     27  H   UNL     1      29.541  50.722  11.040  1.00  0.00     0.293 HD
ENDBRANCH   8  26
TORSDOF 6
ENDMDL
MODEL 5
REMARK VINA RESULT:    -3.051      1.665      6.548
REMARK INTER + INTRA:          -3.298
REMARK INTER:                  -3.398
REMARK INTRA:                   0.100
REMARK UNBOUND:                 0.377
REMARK SMILES O=c1c(O)c(-c2ccc(O)c(O)c2)oc2cc(O)cc(O)c12
REMARK SMILES IDX 5 1 3 2 2 3 1 4 22 5 20 6 19 7 17 8 16 9 15 10 14 11 6 12
REMARK SMILES IDX 7 13 8 14 9 15 13 16 11 17 10 18 12 20 4 22 21 24 18 26
REMARK H PARENT 10 19 12 21 4 23 21 25 18 27
REMARK Flexibility Score: inf
ROOT
ATOM      1  C   UNL     1      30.170  46.181   7.023  1.00  0.00     0.180 A 
ATOM      2  C   UNL     1      29.958  46.752   8.289  1.00  0.00     0.208 A 
ATOM      3  C   UNL     1      30.068  48.145   8.436  1.00  0.00     0.238 A 
ATOM      4  O   UNL     1      29.824  48.655   9.561  1.00  0.00    -0.285 OA
ATOM      5  C   UNL     1      30.402  48.946   7.318  1.00  0.00     0.111 A 
ATOM      6  C   UNL     1      30.579  50.362   7.360  1.00  0.00     0.134 A 
ATOM      7  C   UNL     1      30.781  51.068   6.168  1.00  0.00     0.093 A 
ATOM      8  C   UNL     1      30.877  50.402   4.944  1.00  0.00     0.123 A 
ATOM      9  C   UNL     1      30.766  49.014   4.900  1.00  0.00     0.094 A 
ATOM     10  C   UNL     1      30.528  48.286   6.068  1.00  0.00     0.146 A 
ATOM     11  O   UNL     1      30.417  46.966   5.980  1.00  0.00    -0.452 OA
ENDROOT
BRANCH   1  12
ATOM     12  C   UNL     1      30.096  44.719   6.795  1.00  0.00     0.025 A 
ATOM     13  C   UNL     1      29.520  44.233   5.611  1.00  0.00     0.016 A 
ATOM     14  C   UNL     1      29.461  42.859   5.367  1.00  0.00     0.051 A 
ATOM     15  C   UNL     1      29.987  41.952   6.292  1.00  0.00     0.157 A 
ATOM     16  C   UNL     1      30.643  43.807   7.716  1.00  0.00     0.062 A 
ATOM     17  C   UNL     1      30.585  42.427   7.471  1.00  0.00     0.158 A 
BRANCH  15  18
ATOM     18  O   UNL     1      29.909  40.586   6.022  1.00  0.00    -0.504 OA
ATOM     19  H   UNL     1      30.097  40.207   5.101  1.00  0.00     0.293 HD
ENDBRANCH  15  18
BRANCH  17  20
ATOM     20  O   UNL     1      31.125  41.529   8.391  1.00  0.00    -0.504 OA
ATOM     21  H   UNL     1      30.746  41.434   9.326  1.00  0.00     0.293 HD
ENDBRANCH  17  20
ENDBRANCH   1  12
BRANCH   2  22
ATOM     22  O   UNL     1      29.607  45.944   9.375  1.00  0.00    -0.502 OA
ATOM     23  H   UNL     1      28.925  46.230  10.067  1.00  0.00     0.293 HD
ENDBRANCH   2  22
BRANCH   6  24
ATOM     24  O   UNL     1      30.593  51.112   8.539  1.00  0.00    -0.507 OA
ATOM     25  H   UNL     1      31.273  51.009   9.278  1.00  0.00     0.293 HD
ENDBRANCH   6  24
BRANCH   8  26
ATOM     26  O   UNL     1      31.094  51.111   3.764  1.00  0.00    -0.508 OA
ATOM     27  H   UNL     1      30.945  50.685   2.856  1.00  0.00     0.293 HD
ENDBRANCH   8  26
TORSDOF 6
ENDMDL
