MODEL 1
REMARK VINA RESULT:    -4.939      0.000      0.000
REMARK INTER + INTRA:          -6.077
REMARK INTER:                  -5.950
REMARK INTRA:                  -0.127
REMARK UNBOUND:                -0.127
REMARK SMILES [NH3+][C@@H](Cc1cnc[nH]1)C(=O)[O-]
REMARK SMILES IDX 3 1 2 2 1 3 9 7 10 8 11 9 4 10 5 11 8 12 6 13 7 14
REMARK H PARENT 1 4 1 5 1 6 8 15
REMARK Flexibility Score: inf
ROOT
ATOM      1  C   UNL     1     -23.666 -16.065 -14.623  1.00  0.00     0.127 C 
ENDROOT
BRANCH   1   2
ATOM      2  C   UNL     1     -23.460 -17.513 -14.136  1.00  0.00     0.233 C 
BRANCH   2   3
ATOM      3  N   UNL     1     -23.132 -18.413 -15.250  1.00  0.00    -0.350 N 
ATOM      4  H   UNL     1     -23.212 -19.413 -14.953  1.00  0.00     0.345 HD
ATOM      5  H   UNL     1     -22.156 -18.230 -15.578  1.00  0.00     0.345 HD
ATOM      6  H   UNL     1     -23.778 -18.240 -16.054  1.00  0.00     0.345 HD
ENDBRANCH   2   3
BRANCH   2   7
ATOM      7  C   UNL     1     -24.701 -17.991 -13.432  1.00  0.00     0.099 C 
ATOM      8  O   UNL     1     -25.796 -18.056 -14.051  1.00  0.00    -0.544 OA
ATOM      9  O   UNL     1     -24.644 -18.380 -12.099  1.00  0.00    -0.544 OA
ENDBRANCH   2   7
ENDBRANCH   1   2
BRANCH   1  10
ATOM     10  C   UNL     1     -22.491 -15.194 -14.287  1.00  0.00     0.041 A 
ATOM     11  C   UNL     1     -21.704 -14.498 -15.177  1.00  0.00     0.134 A 
ATOM     12  N   UNL     1     -22.000 -15.020 -13.051  1.00  0.00    -0.348 N 
ATOM     13  N   UNL     1     -20.719 -13.876 -14.500  1.00  0.00    -0.245 NA
ATOM     14  C   UNL     1     -20.933 -14.216 -13.210  1.00  0.00     0.196 A 
ATOM     15  H   UNL     1     -22.360 -15.427 -12.159  1.00  0.00     0.167 HD
ENDBRANCH   1  10
TORSDOF 4
ENDMDL
MODEL 2
REMARK VINA RESULT:    -4.764      2.583      2.932
REMARK INTER + INTRA:          -5.866
REMARK INTER:                  -5.664
REMARK INTRA:                  -0.202
REMARK UNBOUND:                -0.127
REMARK SMILES [NH3+][C@@H](Cc1cnc[nH]1)C(=O)[O-]
REMARK SMILES IDX 3 1 2 2 1 3 9 7 10 8 11 9 4 10 5 11 8 12 6 13 7 14
REMARK H PARENT 1 4 1 5 1 6 8 15
REMARK Flexibility Score: inf
ROOT
ATOM      1  C   UNL     1     -23.052 -16.676 -14.694  1.00  0.00     0.127 C 
ENDROOT
BRANCH   1   2
ATOM      2  C   UNL     1     -24.492 -16.137 -14.805  1.00  0.00     0.233 C 
BRANCH   2   3
ATOM      3  N   UNL     1     -25.436 -17.200 -15.175  1.00  0.00    -0.350 N 
ATOM      4  H   UNL     1     -26.287 -16.796 -15.632  1.00  0.00     0.345 HD
ATOM      5  H   UNL     1     -25.726 -17.730 -14.322  1.00  0.00     0.345 HD
ATOM      6  H   UNL     1     -24.980 -17.873 -15.832  1.00  0.00     0.345 HD
ENDBRANCH   2   3
BRANCH   2   7
ATOM      7  C   UNL     1     -24.539 -15.026 -15.818  1.00  0.00     0.099 C 
ATOM      8  O   UNL     1     -25.008 -13.901 -15.504  1.00  0.00    -0.544 OA
ATOM      9  O   UNL     1     -24.048 -15.229 -17.103  1.00  0.00    -0.544 OA
ENDBRANCH   2   7
ENDBRANCH   1   2
BRANCH   1  10
ATOM     10  C   UNL     1     -22.078 -15.591 -14.343  1.00  0.00     0.041 A 
ATOM     11  C   UNL     1     -21.896 -15.021 -13.103  1.00  0.00     0.134 A 
ATOM     12  N   UNL     1     -21.277 -14.972 -15.222  1.00  0.00    -0.348 N 
ATOM     13  N   UNL     1     -20.971 -14.046 -13.198  1.00  0.00    -0.245 NA
ATOM     14  C   UNL     1     -20.617 -14.047 -14.503  1.00  0.00     0.196 A 
ATOM     15  H   UNL     1     -21.189 -15.159 -16.246  1.00  0.00     0.167 HD
ENDBRANCH   1  10
TORSDOF 4
ENDMDL
MODEL 3
REMARK VINA RESULT:    -4.549      2.233      2.880
REMARK INTER + INTRA:          -5.607
REMARK INTER:                  -5.469
REMARK INTRA:                  -0.137
REMARK UNBOUND:                -0.127
REMARK SMILES [NH3+][C@@H](Cc1cnc[nH]1)C(=O)[O-]
REMARK SMILES IDX 3 1 2 2 1 3 9 7 10 8 11 9 4 10 5 11 8 12 6 13 7 14
REMARK H PARENT 1 4 1 5 1 6 8 15
REMARK Flexibility Score: inf
ROOT
ATOM      1  C   UNL     1     -22.459 -15.937 -14.050  1.00  0.00     0.127 C 
ENDROOT
BRANCH   1   2
ATOM      2  C   UNL     1     -23.461 -16.538 -13.046  1.00  0.00     0.233 C 
BRANCH   2   3
ATOM      3  N   UNL     1     -22.811 -16.870 -11.771  1.00  0.00    -0.350 N 
ATOM      4  H   UNL     1     -22.292 -17.776 -11.845  1.00  0.00     0.345 HD
ATOM      5  H   UNL     1     -23.530 -16.948 -11.016  1.00  0.00     0.345 HD
ATOM      6  H   UNL     1     -22.144 -16.112 -11.500  1.00  0.00     0.345 HD
ENDBRANCH   2   3
BRANCH   2   7
ATOM      7  C   UNL     1     -24.096 -17.767 -13.638  1.00  0.00     0.099 C 
ATOM      8  O   UNL     1     -25.014 -18.368 -13.019  1.00  0.00    -0.544 OA
ATOM      9  O   UNL     1     -23.688 -18.236 -14.881  1.00  0.00    -0.544 OA
ENDBRANCH   2   7
ENDBRANCH   1   2
BRANCH   1  10
ATOM     10  C   UNL     1     -23.156 -15.249 -15.187  1.00  0.00     0.041 A 
ATOM     11  C   UNL     1     -24.010 -14.174 -15.095  1.00  0.00     0.134 A 
ATOM     12  N   UNL     1     -23.088 -15.637 -16.469  1.00  0.00    -0.348 N 
ATOM     13  N   UNL     1     -24.475 -13.875 -16.325  1.00  0.00    -0.245 NA
ATOM     14  C   UNL     1     -23.891 -14.786 -17.134  1.00  0.00     0.196 A 
ATOM     15  H   UNL     1     -22.538 -16.431 -16.867  1.00  0.00     0.167 HD
ENDBRANCH   1  10
TORSDOF 4
ENDMDL
MODEL 4
REMARK VINA RESULT:    -4.431      3.179      4.461
REMARK INTER + INTRA:          -5.465
REMARK INTER:                  -5.323
REMARK INTRA:                  -0.142
REMARK UNBOUND:                -0.127
REMARK SMILES [NH3+][C@@H](Cc1cnc[nH]1)C(=O)[O-]
REMARK SMILES IDX 3 1 2 2 1 3 9 7 10 8 11 9 4 10 5 11 8 12 6 13 7 14
REMARK H PARENT 1 4 1 5 1 6 8 15
REMARK Flexibility Score: inf
ROOT
ATOM      1  C   UNL     1     -23.458 -17.215 -13.167  1.00  0.00     0.127 C 
ENDROOT
BRANCH   1   2
ATOM      2  C   UNL     1     -24.191 -17.619 -14.461  1.00  0.00     0.233 C 
BRANCH   2   3
ATOM      3  N   UNL     1     -23.419 -18.604 -15.230  1.00  0.00    -0.350 N 
ATOM      4  H   UNL     1     -22.572 -18.910 -14.696  1.00  0.00     0.345 HD
ATOM      5  H   UNL     1     -23.117 -18.187 -16.140  1.00  0.00     0.345 HD
ATOM      6  H   UNL     1     -24.012 -19.439 -15.441  1.00  0.00     0.345 HD
ENDBRANCH   2   3
BRANCH   2   7
ATOM      7  C   UNL     1     -24.449 -16.396 -15.298  1.00  0.00     0.099 C 
ATOM      8  O   UNL     1     -25.622 -16.112 -15.660  1.00  0.00    -0.544 OA
ATOM      9  O   UNL     1     -23.399 -15.563 -15.664  1.00  0.00    -0.544 OA
ENDBRANCH   2   7
ENDBRANCH   1   2
BRANCH   1  10
ATOM     10  C   UNL     1     -24.058 -17.873 -11.960  1.00  0.00     0.041 A 
ATOM     11  C   UNL     1     -23.503 -17.943 -10.702  1.00  0.00     0.134 A 
ATOM     12  N   UNL     1     -25.215 -18.551 -11.958  1.00  0.00    -0.348 N 
ATOM     13  N   UNL     1     -24.317 -18.659  -9.901  1.00  0.00    -0.245 NA
ATOM     14  C   UNL     1     -25.348 -19.011 -10.700  1.00  0.00     0.196 A 
ATOM     15  H   UNL     1     -25.869 -18.700 -12.759  1.00  0.00     0.167 HD
ENDBRANCH   1  10
TORSDOF 4
ENDMDL
MODEL 5
REMARK VINA RESULT:    -4.384      2.937      4.472
REMARK INTER + INTRA:          -5.409
REMARK INTER:                  -5.285
REMARK INTRA:                  -0.123
REMARK UNBOUND:                -0.127
REMARK SMILES [NH3+][C@@H](Cc1cnc[nH]1)C(=O)[O-]
REMARK SMILES IDX 3 1 2 2 1 3 9 7 10 8 11 9 4 10 5 11 8 12 6 13 7 14
REMARK H PARENT 1 4 1 5 1 6 8 15
REMARK Flexibility Score: inf
ROOT
ATOM      1  C   UNL     1     -23.346 -14.242 -14.397  1.00  0.00     0.127 C 
ENDROOT
BRANCH   1   2
ATOM      2  C   UNL     1     -21.928 -14.047 -14.966  1.00  0.00     0.233 C 
BRANCH   2   3
ATOM      3  N   UNL     1     -21.622 -15.044 -16.001  1.00  0.00    -0.350 N 
ATOM      4  H   UNL     1     -22.153 -15.930 -15.830  1.00  0.00     0.345 HD
ATOM      5  H   UNL     1     -20.598 -15.254 -16.000  1.00  0.00     0.345 HD
ATOM      6  H   UNL     1     -21.872 -14.670 -16.945  1.00  0.00     0.345 HD
ENDBRANCH   2   3
BRANCH   2   7
ATOM      7  C   UNL     1     -20.920 -14.132 -13.853  1.00  0.00     0.099 C 
ATOM      8  O   UNL     1     -21.284 -14.449 -12.690  1.00  0.00    -0.544 OA
ATOM      9  O   UNL     1     -19.576 -13.878 -14.103  1.00  0.00    -0.544 OA
ENDBRANCH   2   7
ENDBRANCH   1   2
BRANCH   1  10
ATOM     10  C   UNL     1     -23.782 -15.676 -14.471  1.00  0.00     0.041 A 
ATOM     11  C   UNL     1     -24.795 -16.187 -15.251  1.00  0.00     0.134 A 
ATOM     12  N   UNL     1     -23.273 -16.667 -13.723  1.00  0.00    -0.348 N 
ATOM     13  N   UNL     1     -24.919 -17.506 -15.002  1.00  0.00    -0.245 NA
ATOM     14  C   UNL     1     -23.976 -17.761 -14.069  1.00  0.00     0.196 A 
ATOM     15  H   UNL     1     -22.504 -16.604 -13.019  1.00  0.00     0.167 HD
ENDBRANCH   1  10
TORSDOF 4
ENDMDL
MODEL 6
REMARK VINA RESULT:    -4.323      2.309      2.695
REMARK INTER + INTRA:          -5.334
REMARK INTER:                  -5.392
REMARK INTRA:                   0.058
REMARK UNBOUND:                -0.127
REMARK SMILES [NH3+][C@@H](Cc1cnc[nH]1)C(=O)[O-]
REMARK SMILES IDX 3 1 2 2 1 3 9 7 10 8 11 9 4 10 5 11 8 12 6 13 7 14
REMARK H PARENT 1 4 1 5 1 6 8 15
REMARK Flexibility Score: inf
ROOT
ATOM      1  C   UNL     1     -23.375 -16.273 -13.911  1.00  0.00     0.127 C 
ENDROOT
BRANCH   1   2
ATOM      2  C   UNL     1     -24.150 -17.605 -13.902  1.00  0.00     0.233 C 
BRANCH   2   3
ATOM      3  N   UNL     1     -25.409 -17.500 -14.652  1.00  0.00    -0.350 N 
ATOM      4  H   UNL     1     -26.227 -17.708 -14.033  1.00  0.00     0.345 HD
ATOM      5  H   UNL     1     -25.403 -18.174 -15.451  1.00  0.00     0.345 HD
ATOM      6  H   UNL     1     -25.513 -16.537 -15.046  1.00  0.00     0.345 HD
ENDBRANCH   2   3
BRANCH   2   7
ATOM      7  C   UNL     1     -24.426 -18.019 -12.482  1.00  0.00     0.099 C 
ATOM      8  O   UNL     1     -25.444 -18.710 -12.210  1.00  0.00    -0.544 OA
ATOM      9  O   UNL     1     -23.551 -17.659 -11.464  1.00  0.00    -0.544 OA
ENDBRANCH   2   7
ENDBRANCH   1   2
BRANCH   1  10
ATOM     10  C   UNL     1     -23.661 -15.472 -15.147  1.00  0.00     0.041 A 
ATOM     11  C   UNL     1     -24.328 -14.270 -15.210  1.00  0.00     0.134 A 
ATOM     12  N   UNL     1     -23.354 -15.860 -16.394  1.00  0.00    -0.348 N 
ATOM     13  N   UNL     1     -24.433 -13.892 -16.500  1.00  0.00    -0.245 NA
ATOM     14  C   UNL     1     -23.827 -14.884 -17.190  1.00  0.00     0.196 A 
ATOM     15  H   UNL     1     -22.861 -16.733 -16.688  1.00  0.00     0.167 HD
ENDBRANCH   1  10
TORSDOF 4
ENDMDL
MODEL 7
REMARK VINA RESULT:    -4.111      2.686      4.176
REMARK INTER + INTRA:          -5.080
REMARK INTER:                  -4.912
REMARK INTRA:                  -0.168
REMARK UNBOUND:                -0.127
REMARK SMILES [NH3+][C@@H](Cc1cnc[nH]1)C(=O)[O-]
REMARK SMILES IDX 3 1 2 2 1 3 9 7 10 8 11 9 4 10 5 11 8 12 6 13 7 14
REMARK H PARENT 1 4 1 5 1 6 8 15
REMARK Flexibility Score: inf
ROOT
ATOM      1  C   UNL     1     -22.748 -15.759 -13.055  1.00  0.00     0.127 C 
ENDROOT
BRANCH   1   2
ATOM      2  C   UNL     1     -22.460 -16.121 -14.525  1.00  0.00     0.233 C 
BRANCH   2   3
ATOM      3  N   UNL     1     -21.064 -15.837 -14.885  1.00  0.00    -0.350 N 
ATOM      4  H   UNL     1     -20.968 -14.862 -15.253  1.00  0.00     0.345 HD
ATOM      5  H   UNL     1     -20.742 -16.512 -15.615  1.00  0.00     0.345 HD
ATOM      6  H   UNL     1     -20.447 -15.951 -14.048  1.00  0.00     0.345 HD
ENDBRANCH   2   3
BRANCH   2   7
ATOM      7  C   UNL     1     -23.392 -15.358 -15.426  1.00  0.00     0.099 C 
ATOM      8  O   UNL     1     -22.974 -14.363 -16.075  1.00  0.00    -0.544 OA
ATOM      9  O   UNL     1     -24.717 -15.757 -15.563  1.00  0.00    -0.544 OA
ENDBRANCH   2   7
ENDBRANCH   1   2
BRANCH   1  10
ATOM     10  C   UNL     1     -23.316 -16.923 -12.297  1.00  0.00     0.041 A 
ATOM     11  C   UNL     1     -24.224 -17.844 -12.768  1.00  0.00     0.134 A 
ATOM     12  N   UNL     1     -23.058 -17.193 -11.009  1.00  0.00    -0.348 N 
ATOM     13  N   UNL     1     -24.532 -18.704 -11.777  1.00  0.00    -0.245 NA
ATOM     14  C   UNL     1     -23.803 -18.276 -10.724  1.00  0.00     0.196 A 
ATOM     15  H   UNL     1     -22.424 -16.672 -10.363  1.00  0.00     0.167 HD
ENDBRANCH   1  10
TORSDOF 4
ENDMDL
MODEL 8
REMARK VINA RESULT:    -4.037      3.197      4.539
REMARK INTER + INTRA:          -4.990
REMARK INTER:                  -4.819
REMARK INTRA:                  -0.171
REMARK UNBOUND:                -0.127
REMARK SMILES [NH3+][C@@H](Cc1cnc[nH]1)C(=O)[O-]
REMARK SMILES IDX 3 1 2 2 1 3 9 7 10 8 11 9 4 10 5 11 8 12 6 13 7 14
REMARK H PARENT 1 4 1 5 1 6 8 15
REMARK Flexibility Score: inf
ROOT
ATOM      1  C   UNL     1     -23.237 -16.495 -14.107  1.00  0.00     0.127 C 
ENDROOT
BRANCH   1   2
ATOM      2  C   UNL     1     -23.184 -14.968 -13.908  1.00  0.00     0.233 C 
BRANCH   2   3
ATOM      3  N   UNL     1     -24.080 -14.273 -14.843  1.00  0.00    -0.350 N 
ATOM      4  H   UNL     1     -24.718 -13.621 -14.329  1.00  0.00     0.345 HD
ATOM      5  H   UNL     1     -24.655 -14.971 -15.368  1.00  0.00     0.345 HD
ATOM      6  H   UNL     1     -23.522 -13.729 -15.539  1.00  0.00     0.345 HD
ENDBRANCH   2   3
BRANCH   2   7
ATOM      7  C   UNL     1     -21.772 -14.483 -14.088  1.00  0.00     0.099 C 
ATOM      8  O   UNL     1     -21.309 -14.294 -15.244  1.00  0.00    -0.544 OA
ATOM      9  O   UNL     1     -20.974 -14.222 -12.980  1.00  0.00    -0.544 OA
ENDBRANCH   2   7
ENDBRANCH   1   2
BRANCH   1  10
ATOM     10  C   UNL     1     -23.513 -17.214 -12.820  1.00  0.00     0.041 A 
ATOM     11  C   UNL     1     -24.408 -18.243 -12.630  1.00  0.00     0.134 A 
ATOM     12  N   UNL     1     -22.958 -16.903 -11.639  1.00  0.00    -0.348 N 
ATOM     13  N   UNL     1     -24.410 -18.589 -11.327  1.00  0.00    -0.245 NA
ATOM     14  C   UNL     1     -23.515 -17.753 -10.757  1.00  0.00     0.196 A 
ATOM     15  H   UNL     1     -22.253 -16.158 -11.442  1.00  0.00     0.167 HD
ENDBRANCH   1  10
TORSDOF 4
ENDMDL
