MODEL 1
REMARK VINA RESULT:    -4.516      0.000      0.000
REMARK INTER + INTRA:          -7.307
REMARK INTER:                  -6.892
REMARK INTRA:                  -0.416
REMARK UNBOUND:                -0.416
REMARK SMILES CCCCCCCCCCC(=O)[O-]
REMARK SMILES IDX 7 1 8 2 9 3 10 4 11 5 12 6 13 7 6 8 5 9 4 10 3 11 2 12 1 13
REMARK H PARENT
REMARK Flexibility Score: inf
ROOT
ATOM      1  C   UNL     1       3.925 -37.161  19.868  1.00  0.00     0.000 C 
ENDROOT
BRANCH   1   2
ATOM      2  C   UNL     1       5.403 -36.948  20.235  1.00  0.00     0.000 C 
BRANCH   2   3
ATOM      3  C   UNL     1       5.603 -35.888  21.333  1.00  0.00     0.006 C 
BRANCH   3   4
ATOM      4  C   UNL     1       6.075 -36.464  22.681  1.00  0.00     0.053 C 
BRANCH   4   5
ATOM      5  C   UNL     1       5.722 -35.584  23.842  1.00  0.00     0.041 C 
ATOM      6  O   UNL     1       5.483 -36.086  24.972  1.00  0.00    -0.550 OA
ATOM      7  O   UNL     1       5.623 -34.209  23.666  1.00  0.00    -0.550 OA
ENDBRANCH   4   5
ENDBRANCH   3   4
ENDBRANCH   2   3
ENDBRANCH   1   2
BRANCH   1   8
ATOM      8  C   UNL     1       3.722 -37.419  18.365  1.00  0.00     0.000 C 
BRANCH   8   9
ATOM      9  C   UNL     1       2.254 -37.716  18.013  1.00  0.00    -0.000 C 
BRANCH   9  10
ATOM     10  C   UNL     1       1.799 -37.000  16.731  1.00  0.00    -0.000 C 
BRANCH  10  11
ATOM     11  C   UNL     1       2.947 -36.272  16.017  1.00  0.00    -0.000 C 
BRANCH  11  12
ATOM     12  C   UNL     1       3.084 -36.752  14.568  1.00  0.00    -0.003 C 
ATOM     13  C   UNL     1       3.831 -38.081  14.495  1.00  0.00     0.004 C 
ENDBRANCH  11  12
ENDBRANCH  10  11
ENDBRANCH   9  10
ENDBRANCH   8   9
ENDBRANCH   1   8
TORSDOF 9
ENDMDL
MODEL 2
REMARK VINA RESULT:    -4.103      3.985      7.521
REMARK INTER + INTRA:          -6.678
REMARK INTER:                  -6.287
REMARK INTRA:                  -0.392
REMARK UNBOUND:                -0.416
REMARK SMILES CCCCCCCCCCC(=O)[O-]
REMARK SMILES IDX 7 1 8 2 9 3 10 4 11 5 12 6 13 7 6 8 5 9 4 10 3 11 2 12 1 13
REMARK H PARENT
REMARK Flexibility Score: inf
ROOT
ATOM      1  C   UNL     1       4.669 -37.595  20.208  1.00  0.00     0.000 C 
ENDROOT
BRANCH   1   2
ATOM      2  C   UNL     1       3.398 -37.686  19.348  1.00  0.00     0.000 C 
BRANCH   2   3
ATOM      3  C   UNL     1       3.522 -36.937  18.009  1.00  0.00     0.006 C 
BRANCH   3   4
ATOM      4  C   UNL     1       2.617 -37.493  16.894  1.00  0.00     0.053 C 
BRANCH   4   5
ATOM      5  C   UNL     1       3.262 -37.434  15.542  1.00  0.00     0.041 C 
ATOM      6  O   UNL     1       3.241 -36.368  14.873  1.00  0.00    -0.550 OA
ATOM      7  O   UNL     1       3.858 -38.570  15.007  1.00  0.00    -0.550 OA
ENDBRANCH   4   5
ENDBRANCH   3   4
ENDBRANCH   2   3
ENDBRANCH   1   2
BRANCH   1   8
ATOM      8  C   UNL     1       5.353 -36.221  20.105  1.00  0.00     0.000 C 
BRANCH   8   9
ATOM      9  C   UNL     1       6.042 -35.808  21.418  1.00  0.00    -0.000 C 
BRANCH   9  10
ATOM     10  C   UNL     1       5.056 -35.225  22.444  1.00  0.00    -0.000 C 
BRANCH  10  11
ATOM     11  C   UNL     1       5.689 -35.020  23.827  1.00  0.00    -0.000 C 
BRANCH  11  12
ATOM     12  C   UNL     1       6.125 -36.359  24.435  1.00  0.00    -0.003 C 
ATOM     13  C   UNL     1       5.117 -36.849  25.471  1.00  0.00     0.004 C 
ENDBRANCH  11  12
ENDBRANCH  10  11
ENDBRANCH   9  10
ENDBRANCH   8   9
ENDBRANCH   1   8
TORSDOF 9
ENDMDL
MODEL 3
REMARK VINA RESULT:    -4.103      4.115      7.689
REMARK INTER + INTRA:          -6.678
REMARK INTER:                  -6.394
REMARK INTRA:                  -0.283
REMARK UNBOUND:                -0.416
REMARK SMILES CCCCCCCCCCC(=O)[O-]
REMARK SMILES IDX 7 1 8 2 9 3 10 4 11 5 12 6 13 7 6 8 5 9 4 10 3 11 2 12 1 13
REMARK H PARENT
REMARK Flexibility Score: inf
ROOT
ATOM      1  C   UNL     1       4.724 -36.505  19.287  1.00  0.00     0.000 C 
ENDROOT
BRANCH   1   2
ATOM      2  C   UNL     1       3.668 -37.618  19.186  1.00  0.00     0.000 C 
BRANCH   2   3
ATOM      3  C   UNL     1       2.850 -37.555  17.883  1.00  0.00     0.006 C 
BRANCH   3   4
ATOM      4  C   UNL     1       3.439 -36.613  16.819  1.00  0.00     0.053 C 
BRANCH   4   5
ATOM      5  C   UNL     1       3.009 -36.970  15.427  1.00  0.00     0.041 C 
ATOM      6  O   UNL     1       1.930 -36.523  14.960  1.00  0.00    -0.550 OA
ATOM      7  O   UNL     1       3.788 -37.827  14.659  1.00  0.00    -0.550 OA
ENDBRANCH   4   5
ENDBRANCH   3   4
ENDBRANCH   2   3
ENDBRANCH   1   2
BRANCH   1   8
ATOM      8  C   UNL     1       4.718 -35.810  20.659  1.00  0.00     0.000 C 
BRANCH   8   9
ATOM      9  C   UNL     1       6.125 -35.721  21.279  1.00  0.00    -0.000 C 
BRANCH   9  10
ATOM     10  C   UNL     1       6.088 -35.398  22.781  1.00  0.00    -0.000 C 
BRANCH  10  11
ATOM     11  C   UNL     1       5.913 -36.649  23.653  1.00  0.00    -0.000 C 
BRANCH  11  12
ATOM     12  C   UNL     1       5.434 -36.274  25.061  1.00  0.00    -0.003 C 
ATOM     13  C   UNL     1       4.881 -37.490  25.799  1.00  0.00     0.004 C 
ENDBRANCH  11  12
ENDBRANCH  10  11
ENDBRANCH   9  10
ENDBRANCH   8   9
ENDBRANCH   1   8
TORSDOF 9
ENDMDL
MODEL 4
REMARK VINA RESULT:    -4.044      3.989      7.514
REMARK INTER + INTRA:          -6.587
REMARK INTER:                  -6.161
REMARK INTRA:                  -0.426
REMARK UNBOUND:                -0.416
REMARK SMILES CCCCCCCCCCC(=O)[O-]
REMARK SMILES IDX 7 1 8 2 9 3 10 4 11 5 12 6 13 7 6 8 5 9 4 10 3 11 2 12 1 13
REMARK H PARENT
REMARK Flexibility Score: inf
ROOT
ATOM      1  C   UNL     1       3.601 -37.657  19.896  1.00  0.00     0.000 C 
ENDROOT
BRANCH   1   2
ATOM      2  C   UNL     1       3.666 -37.139  18.450  1.00  0.00     0.000 C 
BRANCH   2   3
ATOM      3  C   UNL     1       2.655 -37.831  17.517  1.00  0.00     0.006 C 
BRANCH   3   4
ATOM      4  C   UNL     1       2.232 -36.977  16.309  1.00  0.00     0.053 C 
BRANCH   4   5
ATOM      5  C   UNL     1       3.118 -37.182  15.117  1.00  0.00     0.041 C 
ATOM      6  O   UNL     1       3.125 -36.343  14.178  1.00  0.00    -0.550 OA
ATOM      7  O   UNL     1       3.912 -38.318  15.029  1.00  0.00    -0.550 OA
ENDBRANCH   4   5
ENDBRANCH   3   4
ENDBRANCH   2   3
ENDBRANCH   1   2
BRANCH   1   8
ATOM      8  C   UNL     1       4.950 -37.535  20.626  1.00  0.00     0.000 C 
BRANCH   8   9
ATOM      9  C   UNL     1       5.594 -36.149  20.442  1.00  0.00    -0.000 C 
BRANCH   9  10
ATOM     10  C   UNL     1       6.120 -35.563  21.762  1.00  0.00    -0.000 C 
BRANCH  10  11
ATOM     11  C   UNL     1       5.860 -36.481  22.965  1.00  0.00    -0.000 C 
BRANCH  11  12
ATOM     12  C   UNL     1       5.800 -35.674  24.267  1.00  0.00    -0.003 C 
ATOM     13  C   UNL     1       6.125 -34.204  24.021  1.00  0.00     0.004 C 
ENDBRANCH  11  12
ENDBRANCH  10  11
ENDBRANCH   9  10
ENDBRANCH   8   9
ENDBRANCH   1   8
TORSDOF 9
ENDMDL
MODEL 5
REMARK VINA RESULT:    -3.239      4.289      7.158
REMARK INTER + INTRA:          -5.359
REMARK INTER:                  -4.811
REMARK INTRA:                  -0.548
REMARK UNBOUND:                -0.416
REMARK SMILES CCCCCCCCCCC(=O)[O-]
REMARK SMILES IDX 7 1 8 2 9 3 10 4 11 5 12 6 13 7 6 8 5 9 4 10 3 11 2 12 1 13
REMARK H PARENT
REMARK Flexibility Score: inf
ROOT
ATOM      1  C   UNL     1       1.855 -37.803  18.135  1.00  0.00     0.000 C 
ENDROOT
BRANCH   1   2
ATOM      2  C   UNL     1       1.413 -37.246  16.772  1.00  0.00     0.000 C 
BRANCH   2   3
ATOM      3  C   UNL     1       2.503 -36.407  16.082  1.00  0.00     0.006 C 
BRANCH   3   4
ATOM      4  C   UNL     1       2.713 -36.751  14.597  1.00  0.00     0.053 C 
BRANCH   4   5
ATOM      5  C   UNL     1       3.947 -37.570  14.361  1.00  0.00     0.041 C 
ATOM      6  O   UNL     1       4.980 -37.038  13.876  1.00  0.00    -0.550 OA
ATOM      7  O   UNL     1       3.943 -38.929  14.648  1.00  0.00    -0.550 OA
ENDBRANCH   4   5
ENDBRANCH   3   4
ENDBRANCH   2   3
ENDBRANCH   1   2
BRANCH   1   8
ATOM      8  C   UNL     1       3.352 -37.575  18.407  1.00  0.00     0.000 C 
BRANCH   8   9
ATOM      9  C   UNL     1       3.633 -37.211  19.876  1.00  0.00    -0.000 C 
BRANCH   9  10
ATOM     10  C   UNL     1       5.105 -36.842  20.121  1.00  0.00    -0.000 C 
BRANCH  10  11
ATOM     11  C   UNL     1       5.718 -37.597  21.309  1.00  0.00    -0.000 C 
BRANCH  11  12
ATOM     12  C   UNL     1       5.677 -39.112  21.076  1.00  0.00    -0.003 C 
ATOM     13  C   UNL     1       5.496 -39.868  22.389  1.00  0.00     0.004 C 
ENDBRANCH  11  12
ENDBRANCH  10  11
ENDBRANCH   9  10
ENDBRANCH   8   9
ENDBRANCH   1   8
TORSDOF 9
ENDMDL
MODEL 6
REMARK VINA RESULT:    -2.805      4.029      6.851
REMARK INTER + INTRA:          -4.696
REMARK INTER:                  -4.103
REMARK INTRA:                  -0.593
REMARK UNBOUND:                -0.416
REMARK SMILES CCCCCCCCCCC(=O)[O-]
REMARK SMILES IDX 7 1 8 2 9 3 10 4 11 5 12 6 13 7 6 8 5 9 4 10 3 11 2 12 1 13
REMARK H PARENT
REMARK Flexibility Score: inf
ROOT
ATOM      1  C   UNL     1       5.107 -35.341  19.036  1.00  0.00     0.000 C 
ENDROOT
BRANCH   1   2
ATOM      2  C   UNL     1       4.259 -35.999  17.935  1.00  0.00     0.000 C 
BRANCH   2   3
ATOM      3  C   UNL     1       3.548 -37.279  18.408  1.00  0.00     0.006 C 
BRANCH   3   4
ATOM      4  C   UNL     1       2.400 -37.734  17.489  1.00  0.00     0.053 C 
BRANCH   4   5
ATOM      5  C   UNL     1       2.627 -37.368  16.053  1.00  0.00     0.041 C 
ATOM      6  O   UNL     1       1.964 -36.440  15.521  1.00  0.00    -0.550 OA
ATOM      7  O   UNL     1       3.551 -38.076  15.295  1.00  0.00    -0.550 OA
ENDBRANCH   4   5
ENDBRANCH   3   4
ENDBRANCH   2   3
ENDBRANCH   1   2
BRANCH   1   8
ATOM      8  C   UNL     1       4.676 -35.770  20.448  1.00  0.00     0.000 C 
BRANCH   8   9
ATOM      9  C   UNL     1       5.871 -35.930  21.405  1.00  0.00    -0.000 C 
BRANCH   9  10
ATOM     10  C   UNL     1       5.852 -37.272  22.154  1.00  0.00    -0.000 C 
BRANCH  10  11
ATOM     11  C   UNL     1       5.489 -38.455  21.245  1.00  0.00    -0.000 C 
BRANCH  11  12
ATOM     12  C   UNL     1       5.689 -39.789  21.974  1.00  0.00    -0.003 C 
ATOM     13  C   UNL     1       5.297 -39.678  23.444  1.00  0.00     0.004 C 
ENDBRANCH  11  12
ENDBRANCH  10  11
ENDBRANCH   9  10
ENDBRANCH   8   9
ENDBRANCH   1   8
TORSDOF 9
ENDMDL
MODEL 7
REMARK VINA RESULT:    -2.696      1.591      2.510
REMARK INTER + INTRA:          -4.529
REMARK INTER:                  -4.651
REMARK INTRA:                   0.121
REMARK UNBOUND:                -0.416
REMARK SMILES CCCCCCCCCCC(=O)[O-]
REMARK SMILES IDX 7 1 8 2 9 3 10 4 11 5 12 6 13 7 6 8 5 9 4 10 3 11 2 12 1 13
REMARK H PARENT
REMARK Flexibility Score: inf
ROOT
ATOM      1  C   UNL     1       4.737 -35.855  21.178  1.00  0.00     0.000 C 
ENDROOT
BRANCH   1   2
ATOM      2  C   UNL     1       5.936 -35.750  22.136  1.00  0.00     0.000 C 
BRANCH   2   3
ATOM      3  C   UNL     1       5.687 -34.784  23.308  1.00  0.00     0.006 C 
BRANCH   3   4
ATOM      4  C   UNL     1       6.056 -35.363  24.686  1.00  0.00     0.053 C 
BRANCH   4   5
ATOM      5  C   UNL     1       5.498 -36.737  24.905  1.00  0.00     0.041 C 
ATOM      6  O   UNL     1       5.859 -37.695  24.172  1.00  0.00    -0.550 OA
ATOM      7  O   UNL     1       4.552 -36.952  25.900  1.00  0.00    -0.550 OA
ENDBRANCH   4   5
ENDBRANCH   3   4
ENDBRANCH   2   3
ENDBRANCH   1   2
BRANCH   1   8
ATOM      8  C   UNL     1       5.151 -36.295  19.764  1.00  0.00     0.000 C 
BRANCH   8   9
ATOM      9  C   UNL     1       5.060 -35.149  18.741  1.00  0.00    -0.000 C 
BRANCH   9  10
ATOM     10  C   UNL     1       4.268 -35.541  17.483  1.00  0.00    -0.000 C 
BRANCH  10  11
ATOM     11  C   UNL     1       3.439 -36.819  17.678  1.00  0.00    -0.000 C 
BRANCH  11  12
ATOM     12  C   UNL     1       3.084 -37.453  16.328  1.00  0.00    -0.003 C 
ATOM     13  C   UNL     1       1.984 -36.667  15.620  1.00  0.00     0.004 C 
ENDBRANCH  11  12
ENDBRANCH  10  11
ENDBRANCH   9  10
ENDBRANCH   8   9
ENDBRANCH   1   8
TORSDOF 9
ENDMDL
MODEL 8
REMARK VINA RESULT:    -2.554      3.446      6.794
REMARK INTER + INTRA:          -4.314
REMARK INTER:                  -3.720
REMARK INTRA:                  -0.594
REMARK UNBOUND:                -0.416
REMARK SMILES CCCCCCCCCCC(=O)[O-]
REMARK SMILES IDX 7 1 8 2 9 3 10 4 11 5 12 6 13 7 6 8 5 9 4 10 3 11 2 12 1 13
REMARK H PARENT
REMARK Flexibility Score: inf
ROOT
ATOM      1  C   UNL     1       6.118 -35.482  22.419  1.00  0.00     0.000 C 
ENDROOT
BRANCH   1   2
ATOM      2  C   UNL     1       4.976 -35.560  21.393  1.00  0.00     0.000 C 
BRANCH   2   3
ATOM      3  C   UNL     1       5.334 -36.405  20.157  1.00  0.00     0.006 C 
BRANCH   3   4
ATOM      4  C   UNL     1       4.389 -37.596  19.918  1.00  0.00     0.053 C 
BRANCH   4   5
ATOM      5  C   UNL     1       3.481 -37.388  18.743  1.00  0.00     0.041 C 
ATOM      6  O   UNL     1       3.832 -36.644  17.791  1.00  0.00    -0.550 OA
ATOM      7  O   UNL     1       2.229 -37.992  18.719  1.00  0.00    -0.550 OA
ENDBRANCH   4   5
ENDBRANCH   3   4
ENDBRANCH   2   3
ENDBRANCH   1   2
BRANCH   1   8
ATOM      8  C   UNL     1       5.610 -35.218  23.847  1.00  0.00     0.000 C 
BRANCH   8   9
ATOM      9  C   UNL     1       6.123 -36.262  24.856  1.00  0.00    -0.000 C 
BRANCH   9  10
ATOM     10  C   UNL     1       5.042 -37.280  25.252  1.00  0.00    -0.000 C 
BRANCH  10  11
ATOM     11  C   UNL     1       5.335 -38.693  24.725  1.00  0.00    -0.000 C 
BRANCH  11  12
ATOM     12  C   UNL     1       5.531 -38.681  23.205  1.00  0.00    -0.003 C 
ATOM     13  C   UNL     1       5.408 -40.086  22.621  1.00  0.00     0.004 C 
ENDBRANCH  11  12
ENDBRANCH  10  11
ENDBRANCH   9  10
ENDBRANCH   8   9
ENDBRANCH   1   8
TORSDOF 9
ENDMDL
