MODEL 1
REMARK VINA RESULT:    -5.639      0.000      0.000
REMARK INTER + INTRA:          -7.925
REMARK INTER:                  -6.958
REMARK INTRA:                  -0.967
REMARK UNBOUND:                -0.967
REMARK SMILES CC(C)=CCC[C@@H](C)c1ccc(C)cc1
REMARK SMILES IDX 6 1 7 2 8 3 9 4 13 5 12 6 11 7 14 8 10 9 15 10 5 11 4 12
REMARK SMILES IDX 2 13 1 14 3 15
REMARK H PARENT
REMARK Flexibility Score: inf
ROOT
ATOM      1  C   UNL     1      27.458  -7.698  26.646  1.00  0.00     0.012 C 
ENDROOT
BRANCH   1   2
ATOM      2  C   UNL     1      28.230  -6.792  25.660  1.00  0.00     0.016 C 
ATOM      3  C   UNL     1      29.015  -5.683  26.378  1.00  0.00     0.013 C 
BRANCH   2   4
ATOM      4  C   UNL     1      29.161  -7.623  24.795  1.00  0.00    -0.045 A 
ATOM      5  C   UNL     1      31.792  -9.976  22.306  1.00  0.00     0.044 C 
ATOM      6  C   UNL     1      30.866  -9.185  23.181  1.00  0.00    -0.051 A 
ATOM      7  C   UNL     1      29.631  -8.743  22.685  1.00  0.00     0.004 A 
ATOM      8  C   UNL     1      31.256  -8.823  24.478  1.00  0.00     0.004 A 
ATOM      9  C   UNL     1      28.782  -7.974  23.487  1.00  0.00     0.004 A 
ATOM     10  C   UNL     1      30.409  -8.056  25.282  1.00  0.00     0.004 A 
ENDBRANCH   2   4
ENDBRANCH   1   2
BRANCH   1  11
ATOM     11  C   UNL     1      26.084  -8.124  26.106  1.00  0.00     0.028 C 
BRANCH  11  12
ATOM     12  C   UNL     1      25.956  -9.627  26.104  1.00  0.00    -0.028 C 
ATOM     13  C   UNL     1      25.854 -10.383  24.989  1.00  0.00    -0.080 C 
ATOM     14  C   UNL     1      25.803  -9.772  23.609  1.00  0.00     0.039 C 
ATOM     15  C   UNL     1      25.774 -11.881  25.141  1.00  0.00     0.039 C 
ENDBRANCH  11  12
ENDBRANCH   1  11
TORSDOF 4
ENDMDL
MODEL 2
REMARK VINA RESULT:    -5.583     11.349     13.863
REMARK INTER + INTRA:          -7.856
REMARK INTER:                  -7.110
REMARK INTRA:                  -0.746
REMARK UNBOUND:                -0.967
REMARK SMILES CC(C)=CCC[C@@H](C)c1ccc(C)cc1
REMARK SMILES IDX 6 1 7 2 8 3 9 4 13 5 12 6 11 7 14 8 10 9 15 10 5 11 4 12
REMARK SMILES IDX 2 13 1 14 3 15
REMARK H PARENT
REMARK Flexibility Score: inf
ROOT
ATOM      1  C   UNL     1      32.445  -1.926  13.873  1.00  0.00     0.012 C 
ENDROOT
BRANCH   1   2
ATOM      2  C   UNL     1      31.666  -3.122  14.466  1.00  0.00     0.016 C 
ATOM      3  C   UNL     1      31.074  -2.807  15.848  1.00  0.00     0.013 C 
BRANCH   2   4
ATOM      4  C   UNL     1      30.572  -3.567  13.511  1.00  0.00    -0.045 A 
ATOM      5  C   UNL     1      27.483  -4.847  10.777  1.00  0.00     0.044 C 
ATOM      6  C   UNL     1      28.552  -4.373  11.716  1.00  0.00    -0.051 A 
ATOM      7  C   UNL     1      29.898  -4.388  11.321  1.00  0.00     0.004 A 
ATOM      8  C   UNL     1      28.222  -3.976  13.020  1.00  0.00     0.004 A 
ATOM      9  C   UNL     1      30.899  -3.982  12.208  1.00  0.00     0.004 A 
ATOM     10  C   UNL     1      29.221  -3.569  13.908  1.00  0.00     0.004 A 
ENDBRANCH   2   4
ENDBRANCH   1   2
BRANCH   1  11
ATOM     11  C   UNL     1      33.962  -2.165  13.841  1.00  0.00     0.028 C 
BRANCH  11  12
ATOM     12  C   UNL     1      34.693  -1.048  14.543  1.00  0.00    -0.028 C 
ATOM     13  C   UNL     1      35.097  -1.090  15.831  1.00  0.00    -0.080 C 
ATOM     14  C   UNL     1      34.798  -2.270  16.726  1.00  0.00     0.039 C 
ATOM     15  C   UNL     1      35.855   0.089  16.386  1.00  0.00     0.039 C 
ENDBRANCH  11  12
ENDBRANCH   1  11
TORSDOF 4
ENDMDL
MODEL 3
REMARK VINA RESULT:    -5.548      1.345      5.198
REMARK INTER + INTRA:          -7.812
REMARK INTER:                  -6.818
REMARK INTRA:                  -0.994
REMARK UNBOUND:                -0.967
REMARK SMILES CC(C)=CCC[C@@H](C)c1ccc(C)cc1
REMARK SMILES IDX 6 1 7 2 8 3 9 4 13 5 12 6 11 7 14 8 10 9 15 10 5 11 4 12
REMARK SMILES IDX 2 13 1 14 3 15
REMARK H PARENT
REMARK Flexibility Score: inf
ROOT
ATOM      1  C   UNL     1      29.749  -8.883  23.878  1.00  0.00     0.012 C 
ENDROOT
BRANCH   1   2
ATOM      2  C   UNL     1      28.327  -8.414  23.498  1.00  0.00     0.016 C 
ATOM      3  C   UNL     1      28.237  -7.949  22.036  1.00  0.00     0.013 C 
BRANCH   2   4
ATOM      4  C   UNL     1      27.317  -9.515  23.765  1.00  0.00    -0.045 A 
ATOM      5  C   UNL     1      24.436 -12.634  24.557  1.00  0.00     0.044 C 
ATOM      6  C   UNL     1      25.459 -11.572  24.286  1.00  0.00    -0.051 A 
ATOM      7  C   UNL     1      25.930 -10.762  25.330  1.00  0.00     0.004 A 
ATOM      8  C   UNL     1      25.902 -11.334  22.977  1.00  0.00     0.004 A 
ATOM      9  C   UNL     1      26.856  -9.747  25.073  1.00  0.00     0.004 A 
ATOM     10  C   UNL     1      26.829 -10.320  22.719  1.00  0.00     0.004 A 
ENDBRANCH   2   4
ENDBRANCH   1   2
BRANCH   1  11
ATOM     11  C   UNL     1      30.293  -8.172  25.127  1.00  0.00     0.028 C 
BRANCH  11  12
ATOM     12  C   UNL     1      29.732  -6.776  25.232  1.00  0.00    -0.028 C 
ATOM     13  C   UNL     1      28.914  -6.352  26.220  1.00  0.00    -0.080 C 
ATOM     14  C   UNL     1      28.430  -7.278  27.310  1.00  0.00     0.039 C 
ATOM     15  C   UNL     1      28.466  -4.913  26.215  1.00  0.00     0.039 C 
ENDBRANCH  11  12
ENDBRANCH   1  11
TORSDOF 4
ENDMDL
MODEL 4
REMARK VINA RESULT:    -5.534      1.573      2.440
REMARK INTER + INTRA:          -7.796
REMARK INTER:                  -7.052
REMARK INTRA:                  -0.743
REMARK UNBOUND:                -0.967
REMARK SMILES CC(C)=CCC[C@@H](C)c1ccc(C)cc1
REMARK SMILES IDX 6 1 7 2 8 3 9 4 13 5 12 6 11 7 14 8 10 9 15 10 5 11 4 12
REMARK SMILES IDX 2 13 1 14 3 15
REMARK H PARENT
REMARK Flexibility Score: inf
ROOT
ATOM      1  C   UNL     1      28.222  -7.324  27.824  1.00  0.00     0.012 C 
ENDROOT
BRANCH   1   2
ATOM      2  C   UNL     1      28.110  -6.681  26.423  1.00  0.00     0.016 C 
ATOM      3  C   UNL     1      28.535  -5.204  26.424  1.00  0.00     0.013 C 
BRANCH   2   4
ATOM      4  C   UNL     1      28.929  -7.466  25.414  1.00  0.00    -0.045 A 
ATOM      5  C   UNL     1      31.284  -9.701  22.565  1.00  0.00     0.044 C 
ATOM      6  C   UNL     1      30.470  -8.900  23.537  1.00  0.00    -0.051 A 
ATOM      7  C   UNL     1      31.083  -8.299  24.646  1.00  0.00     0.004 A 
ATOM      8  C   UNL     1      29.080  -8.802  23.383  1.00  0.00     0.004 A 
ATOM      9  C   UNL     1      30.321  -7.582  25.573  1.00  0.00     0.004 A 
ATOM     10  C   UNL     1      28.316  -8.085  24.308  1.00  0.00     0.004 A 
ENDBRANCH   2   4
ENDBRANCH   1   2
BRANCH   1  11
ATOM     11  C   UNL     1      26.860  -7.771  28.380  1.00  0.00     0.028 C 
BRANCH  11  12
ATOM     12  C   UNL     1      26.039  -8.439  27.307  1.00  0.00    -0.028 C 
ATOM     13  C   UNL     1      24.706  -8.642  27.380  1.00  0.00    -0.080 C 
ATOM     14  C   UNL     1      23.903  -8.258  28.600  1.00  0.00     0.039 C 
ATOM     15  C   UNL     1      24.012  -9.288  26.208  1.00  0.00     0.039 C 
ENDBRANCH  11  12
ENDBRANCH   1  11
TORSDOF 4
ENDMDL
MODEL 5
REMARK VINA RESULT:    -5.480      1.897      4.149
REMARK INTER + INTRA:          -7.728
REMARK INTER:                  -7.026
REMARK INTRA:                  -0.703
REMARK UNBOUND:                -0.967
REMARK SMILES CC(C)=CCC[C@@H](C)c1ccc(C)cc1
REMARK SMILES IDX 6 1 7 2 8 3 9 4 13 5 12 6 11 7 14 8 10 9 15 10 5 11 4 12
REMARK SMILES IDX 2 13 1 14 3 15
REMARK H PARENT
REMARK Flexibility Score: inf
ROOT
ATOM      1  C   UNL     1      26.578  -9.384  22.787  1.00  0.00     0.012 C 
ENDROOT
BRANCH   1   2
ATOM      2  C   UNL     1      27.967  -8.751  23.028  1.00  0.00     0.016 C 
ATOM      3  C   UNL     1      28.378  -7.799  21.894  1.00  0.00     0.013 C 
BRANCH   2   4
ATOM      4  C   UNL     1      27.994  -8.026  24.362  1.00  0.00    -0.045 A 
ATOM      5  C   UNL     1      28.092  -5.939  28.142  1.00  0.00     0.044 C 
ATOM      6  C   UNL     1      28.078  -6.685  26.841  1.00  0.00    -0.051 A 
ATOM      7  C   UNL     1      28.973  -6.339  25.818  1.00  0.00     0.004 A 
ATOM      8  C   UNL     1      27.124  -7.687  26.611  1.00  0.00     0.004 A 
ATOM      9  C   UNL     1      28.937  -7.009  24.591  1.00  0.00     0.004 A 
ATOM     10  C   UNL     1      27.087  -8.358  25.385  1.00  0.00     0.004 A 
ENDBRANCH   2   4
ENDBRANCH   1   2
BRANCH   1  11
ATOM     11  C   UNL     1      26.655 -10.895  22.519  1.00  0.00     0.028 C 
BRANCH  11  12
ATOM     12  C   UNL     1      25.293 -11.530  22.653  1.00  0.00    -0.028 C 
ATOM     13  C   UNL     1      24.830 -12.116  23.778  1.00  0.00    -0.080 C 
ATOM     14  C   UNL     1      25.677 -12.240  25.023  1.00  0.00     0.039 C 
ATOM     15  C   UNL     1      23.429 -12.672  23.775  1.00  0.00     0.039 C 
ENDBRANCH  11  12
ENDBRANCH   1  11
TORSDOF 4
ENDMDL
MODEL 6
REMARK VINA RESULT:    -5.447     10.147     12.092
REMARK INTER + INTRA:          -7.688
REMARK INTER:                  -6.206
REMARK INTRA:                  -1.482
REMARK UNBOUND:                -0.967
REMARK SMILES CC(C)=CCC[C@@H](C)c1ccc(C)cc1
REMARK SMILES IDX 6 1 7 2 8 3 9 4 13 5 12 6 11 7 14 8 10 9 15 10 5 11 4 12
REMARK SMILES IDX 2 13 1 14 3 15
REMARK H PARENT
REMARK Flexibility Score: inf
ROOT
ATOM      1  C   UNL     1      31.596  -3.289  16.970  1.00  0.00     0.012 C 
ENDROOT
BRANCH   1   2
ATOM      2  C   UNL     1      31.587  -2.324  15.764  1.00  0.00     0.016 C 
ATOM      3  C   UNL     1      33.003  -2.012  15.255  1.00  0.00     0.013 C 
BRANCH   2   4
ATOM      4  C   UNL     1      30.735  -2.888  14.641  1.00  0.00    -0.045 A 
ATOM      5  C   UNL     1      28.281  -4.488  11.467  1.00  0.00     0.044 C 
ATOM      6  C   UNL     1      29.145  -3.961  12.573  1.00  0.00    -0.051 A 
ATOM      7  C   UNL     1      28.655  -3.904  13.886  1.00  0.00     0.004 A 
ATOM      8  C   UNL     1      30.423  -3.457  12.293  1.00  0.00     0.004 A 
ATOM      9  C   UNL     1      29.446  -3.378  14.913  1.00  0.00     0.004 A 
ATOM     10  C   UNL     1      31.215  -2.932  13.318  1.00  0.00     0.004 A 
ENDBRANCH   2   4
ENDBRANCH   1   2
BRANCH   1  11
ATOM     11  C   UNL     1      32.660  -4.390  16.839  1.00  0.00     0.028 C 
BRANCH  11  12
ATOM     12  C   UNL     1      32.099  -5.588  16.115  1.00  0.00    -0.028 C 
ATOM     13  C   UNL     1      32.612  -6.101  14.976  1.00  0.00    -0.080 C 
ATOM     14  C   UNL     1      33.792  -5.472  14.274  1.00  0.00     0.039 C 
ATOM     15  C   UNL     1      31.968  -7.331  14.387  1.00  0.00     0.039 C 
ENDBRANCH  11  12
ENDBRANCH   1  11
TORSDOF 4
ENDMDL
MODEL 7
REMARK VINA RESULT:    -5.428      9.984     12.419
REMARK INTER + INTRA:          -7.665
REMARK INTER:                  -6.100
REMARK INTRA:                  -1.564
REMARK UNBOUND:                -0.967
REMARK SMILES CC(C)=CCC[C@@H](C)c1ccc(C)cc1
REMARK SMILES IDX 6 1 7 2 8 3 9 4 13 5 12 6 11 7 14 8 10 9 15 10 5 11 4 12
REMARK SMILES IDX 2 13 1 14 3 15
REMARK H PARENT
REMARK Flexibility Score: inf
ROOT
ATOM      1  C   UNL     1      35.067  -2.318  16.546  1.00  0.00     0.012 C 
ENDROOT
BRANCH   1   2
ATOM      2  C   UNL     1      34.368  -1.520  15.423  1.00  0.00     0.016 C 
ATOM      3  C   UNL     1      35.211  -1.455  14.139  1.00  0.00     0.013 C 
BRANCH   2   4
ATOM      4  C   UNL     1      33.000  -2.109  15.127  1.00  0.00    -0.045 A 
ATOM      5  C   UNL     1      29.099  -3.778  14.319  1.00  0.00     0.044 C 
ATOM      6  C   UNL     1      30.465  -3.227  14.600  1.00  0.00    -0.051 A 
ATOM      7  C   UNL     1      30.876  -2.995  15.921  1.00  0.00     0.004 A 
ATOM      8  C   UNL     1      31.317  -2.877  13.543  1.00  0.00     0.004 A 
ATOM      9  C   UNL     1      32.135  -2.447  16.183  1.00  0.00     0.004 A 
ATOM     10  C   UNL     1      32.576  -2.329  13.803  1.00  0.00     0.004 A 
ENDBRANCH   2   4
ENDBRANCH   1   2
BRANCH   1  11
ATOM     11  C   UNL     1      35.626  -3.663  16.056  1.00  0.00     0.028 C 
BRANCH  11  12
ATOM     12  C   UNL     1      34.908  -4.811  16.720  1.00  0.00    -0.028 C 
ATOM     13  C   UNL     1      34.136  -5.709  16.069  1.00  0.00    -0.080 C 
ATOM     14  C   UNL     1      33.871  -5.610  14.585  1.00  0.00     0.039 C 
ATOM     15  C   UNL     1      33.513  -6.830  16.861  1.00  0.00     0.039 C 
ENDBRANCH  11  12
ENDBRANCH   1  11
TORSDOF 4
ENDMDL
MODEL 8
REMARK VINA RESULT:    -5.395     11.163     13.370
REMARK INTER + INTRA:          -7.624
REMARK INTER:                  -6.778
REMARK INTRA:                  -0.846
REMARK UNBOUND:                -0.967
REMARK SMILES CC(C)=CCC[C@@H](C)c1ccc(C)cc1
REMARK SMILES IDX 6 1 7 2 8 3 9 4 13 5 12 6 11 7 14 8 10 9 15 10 5 11 4 12
REMARK SMILES IDX 2 13 1 14 3 15
REMARK H PARENT
REMARK Flexibility Score: inf
ROOT
ATOM      1  C   UNL     1      32.282  -1.819  13.982  1.00  0.00     0.012 C 
ENDROOT
BRANCH   1   2
ATOM      2  C   UNL     1      31.561  -3.072  14.528  1.00  0.00     0.016 C 
ATOM      3  C   UNL     1      30.962  -2.839  15.924  1.00  0.00     0.013 C 
BRANCH   2   4
ATOM      4  C   UNL     1      30.483  -3.526  13.560  1.00  0.00    -0.045 A 
ATOM      5  C   UNL     1      27.441  -4.833  10.786  1.00  0.00     0.044 C 
ATOM      6  C   UNL     1      28.493  -4.350  11.739  1.00  0.00    -0.051 A 
ATOM      7  C   UNL     1      29.841  -4.326  11.352  1.00  0.00     0.004 A 
ATOM      8  C   UNL     1      28.146  -3.983  13.047  1.00  0.00     0.004 A 
ATOM      9  C   UNL     1      30.827  -3.911  12.252  1.00  0.00     0.004 A 
ATOM     10  C   UNL     1      29.131  -3.567  13.948  1.00  0.00     0.004 A 
ENDBRANCH   2   4
ENDBRANCH   1   2
BRANCH   1  11
ATOM     11  C   UNL     1      33.812  -1.926  14.081  1.00  0.00     0.028 C 
BRANCH  11  12
ATOM     12  C   UNL     1      34.224  -3.329  14.450  1.00  0.00    -0.028 C 
ATOM     13  C   UNL     1      34.776  -3.677  15.633  1.00  0.00    -0.080 C 
ATOM     14  C   UNL     1      35.088  -2.657  16.702  1.00  0.00     0.039 C 
ATOM     15  C   UNL     1      35.099  -5.130  15.876  1.00  0.00     0.039 C 
ENDBRANCH  11  12
ENDBRANCH   1  11
TORSDOF 4
ENDMDL
MODEL 9
REMARK VINA RESULT:    -5.385     11.034     12.810
REMARK INTER + INTRA:          -7.611
REMARK INTER:                  -6.638
REMARK INTRA:                  -0.973
REMARK UNBOUND:                -0.967
REMARK SMILES CC(C)=CCC[C@@H](C)c1ccc(C)cc1
REMARK SMILES IDX 6 1 7 2 8 3 9 4 13 5 12 6 11 7 14 8 10 9 15 10 5 11 4 12
REMARK SMILES IDX 2 13 1 14 3 15
REMARK H PARENT
REMARK Flexibility Score: inf
ROOT
ATOM      1  C   UNL     1      29.251  -4.117  14.831  1.00  0.00     0.012 C 
ENDROOT
BRANCH   1   2
ATOM      2  C   UNL     1      30.619  -4.804  15.043  1.00  0.00     0.016 C 
ATOM      3  C   UNL     1      30.838  -5.981  14.080  1.00  0.00     0.013 C 
BRANCH   2   4
ATOM      4  C   UNL     1      31.745  -3.794  14.907  1.00  0.00    -0.045 A 
ATOM      5  C   UNL     1      34.942  -0.910  14.554  1.00  0.00     0.044 C 
ATOM      6  C   UNL     1      33.815  -1.895  14.657  1.00  0.00    -0.051 A 
ATOM      7  C   UNL     1      32.854  -1.766  15.671  1.00  0.00     0.004 A 
ATOM      8  C   UNL     1      33.751  -2.989  13.784  1.00  0.00     0.004 A 
ATOM      9  C   UNL     1      31.824  -2.703  15.791  1.00  0.00     0.004 A 
ATOM     10  C   UNL     1      32.721  -3.927  13.902  1.00  0.00     0.004 A 
ENDBRANCH   2   4
ENDBRANCH   1   2
BRANCH   1  11
ATOM     11  C   UNL     1      29.196  -3.297  13.532  1.00  0.00     0.028 C 
BRANCH  11  12
ATOM     12  C   UNL     1      28.201  -3.892  12.568  1.00  0.00    -0.028 C 
ATOM     13  C   UNL     1      28.524  -4.428  11.371  1.00  0.00    -0.080 C 
ATOM     14  C   UNL     1      29.942  -4.431  10.851  1.00  0.00     0.039 C 
ATOM     15  C   UNL     1      27.424  -5.024  10.530  1.00  0.00     0.039 C 
ENDBRANCH  11  12
ENDBRANCH   1  11
TORSDOF 4
ENDMDL
