MODEL 1
REMARK VINA RESULT:    -4.218      0.000      0.000
REMARK INTER + INTRA:          -6.677
REMARK INTER:                  -6.437
REMARK INTRA:                  -0.240
REMARK UNBOUND:                -0.240
REMARK SMILES CC1=CCC[C@H](C)C(=O)C[C@@H](C(C)C)C(=O)C1
REMARK SMILES IDX 8 1 9 2 6 3 7 4 5 5 4 6 3 7 2 8 1 9 10 11 11 12 15 13 16 14
REMARK SMILES IDX 17 15 12 17 13 18 14 19
REMARK H PARENT
REMARK Flexibility Score: 70.00
ROOT
ATOM      1  C   UNL     1     253.865 260.071 247.401  1.00  0.00     0.136 C 
ATOM      2  O   UNL     1     253.338 261.099 247.797  1.00  0.00    -0.299 OA
ENDROOT
BRANCH   1   3
ATOM      3  C   UNL     1     255.300 259.796 247.829  1.00  0.00     0.053 C 
ATOM      4  C   UNL     1     256.313 260.840 247.331  1.00  0.00     0.016 C 
BRANCH   3   5
ATOM      5  C   UNL     1     255.402 259.516 249.344  1.00  0.00     0.015 C 
BRANCH   5   6
ATOM      6  C   UNL     1     254.628 258.271 249.827  1.00  0.00     0.028 C 
BRANCH   6   7
ATOM      7  C   UNL     1     255.288 257.017 249.313  1.00  0.00    -0.028 C 
ATOM      8  C   UNL     1     254.647 256.030 248.645  1.00  0.00    -0.070 CG0
ATOM      9  C   UNL     1     255.472 254.895 248.093  1.00  0.00     0.039 C 
ATOM     10  G   UNL     1     253.136 255.998 248.472  1.00  0.00     0.000 G0
ENDBRANCH   6   7
ENDBRANCH   5   6
ENDBRANCH   3   5
ENDBRANCH   1   3
BRANCH   1  11
ATOM     11  C   UNL     1     253.065 259.138 246.509  1.00  0.00     0.087 C 
BRANCH  11  12
ATOM     12  C   UNL     1     252.155 258.113 247.252  1.00  0.00     0.066 C 
BRANCH  12  13
ATOM     13  C   UNL     1     252.665 256.676 247.193  1.00  0.00     0.140 C 
ATOM     14  O   UNL     1     252.646 256.058 246.138  1.00  0.00    -0.299 OA
BRANCH  13  15
ATOM     15  C   UNL     1     253.119 255.974 248.452  1.00  0.00     0.106 CG0
ATOM     16  G   UNL     1     254.626 256.027 248.648  1.00  0.00     0.000 G0
ENDBRANCH  13  15
ENDBRANCH  12  13
BRANCH  12  17
ATOM     17  C   UNL     1     250.636 258.258 246.921  1.00  0.00    -0.006 C 
ATOM     18  C   UNL     1     250.125 259.676 247.226  1.00  0.00     0.008 C 
ATOM     19  C   UNL     1     249.729 257.213 247.591  1.00  0.00     0.008 C 
ENDBRANCH  12  17
ENDBRANCH  11  12
ENDBRANCH   1  11
TORSDOF 1
ENDMDL
MODEL 2
REMARK VINA RESULT:    -3.991      1.849      4.131
REMARK INTER + INTRA:          -6.331
REMARK INTER:                  -6.268
REMARK INTRA:                  -0.063
REMARK UNBOUND:                -0.240
REMARK SMILES CC1=CCC[C@H](C)C(=O)C[C@@H](C(C)C)C(=O)C1
REMARK SMILES IDX 8 1 9 2 6 3 7 4 5 5 4 6 3 7 2 8 1 9 10 11 11 12 15 13 16 14
REMARK SMILES IDX 17 15 12 17 13 18 14 19
REMARK H PARENT
REMARK Flexibility Score: 70.00
ROOT
ATOM      1  C   UNL     1     251.208 257.932 247.170  1.00  0.00     0.136 C 
ATOM      2  O   UNL     1     250.480 258.774 246.667  1.00  0.00    -0.299 OA
ENDROOT
BRANCH   1   3
ATOM      3  C   UNL     1     250.868 256.467 246.940  1.00  0.00     0.053 C 
ATOM      4  C   UNL     1     249.359 256.178 246.872  1.00  0.00     0.016 C 
BRANCH   3   5
ATOM      5  C   UNL     1     251.660 255.873 245.756  1.00  0.00     0.015 C 
BRANCH   5   6
ATOM      6  C   UNL     1     252.683 254.784 246.139  1.00  0.00     0.028 C 
BRANCH   6   7
ATOM      7  C   UNL     1     252.767 254.655 247.640  1.00  0.00    -0.028 C 
ATOM      8  C   UNL     1     253.706 255.252 248.410  1.00  0.00    -0.070 CG0
ATOM      9  C   UNL     1     253.582 255.120 249.907  1.00  0.00     0.039 C 
ATOM     10  G   UNL     1     254.894 256.003 247.830  1.00  0.00     0.000 G0
ENDBRANCH   6   7
ENDBRANCH   5   6
ENDBRANCH   3   5
ENDBRANCH   1   3
BRANCH   1  11
ATOM     11  C   UNL     1     252.400 258.395 247.989  1.00  0.00     0.087 C 
BRANCH  11  12
ATOM     12  C   UNL     1     253.780 258.327 247.269  1.00  0.00     0.066 C 
BRANCH  12  13
ATOM     13  C   UNL     1     254.828 257.505 248.013  1.00  0.00     0.140 C 
ATOM     14  O   UNL     1     255.658 258.060 248.720  1.00  0.00    -0.299 OA
BRANCH  13  15
ATOM     15  C   UNL     1     254.905 256.009 247.819  1.00  0.00     0.106 CG0
ATOM     16  G   UNL     1     253.707 255.274 248.400  1.00  0.00     0.000 G0
ENDBRANCH  13  15
ENDBRANCH  12  13
BRANCH  12  17
ATOM     17  C   UNL     1     254.303 259.711 246.767  1.00  0.00    -0.006 C 
ATOM     18  C   UNL     1     253.411 260.863 247.260  1.00  0.00     0.008 C 
ATOM     19  C   UNL     1     254.504 259.811 245.247  1.00  0.00     0.008 C 
ENDBRANCH  12  17
ENDBRANCH  11  12
ENDBRANCH   1  11
TORSDOF 1
ENDMDL
MODEL 3
REMARK VINA RESULT:    -3.963      2.522      5.128
REMARK INTER + INTRA:          -6.287
REMARK INTER:                  -6.218
REMARK INTRA:                  -0.069
REMARK UNBOUND:                -0.240
REMARK SMILES CC1=CCC[C@H](C)C(=O)C[C@@H](C(C)C)C(=O)C1
REMARK SMILES IDX 8 1 9 2 6 3 7 4 5 5 4 6 3 7 2 8 1 9 10 11 11 12 15 13 16 14
REMARK SMILES IDX 17 15 12 17 13 18 14 19
REMARK H PARENT
REMARK Flexibility Score: 70.00
ROOT
ATOM      1  C   UNL     1     250.111 257.990 247.096  1.00  0.00     0.136 C 
ATOM      2  O   UNL     1     250.376 259.061 246.572  1.00  0.00    -0.299 OA
ENDROOT
BRANCH   1   3
ATOM      3  C   UNL     1     248.647 257.585 247.186  1.00  0.00     0.053 C 
ATOM      4  C   UNL     1     247.857 257.797 245.884  1.00  0.00     0.016 C 
BRANCH   3   5
ATOM      5  C   UNL     1     248.479 256.171 247.783  1.00  0.00     0.015 C 
BRANCH   5   6
ATOM      6  C   UNL     1     248.466 255.027 246.748  1.00  0.00     0.028 C 
BRANCH   6   7
ATOM      7  C   UNL     1     249.345 253.893 247.213  1.00  0.00    -0.028 C 
ATOM      8  C   UNL     1     250.633 253.717 246.839  1.00  0.00    -0.070 CG0
ATOM      9  C   UNL     1     251.412 252.600 247.487  1.00  0.00     0.039 C 
ATOM     10  G   UNL     1     251.305 254.563 245.769  1.00  0.00     0.000 G0
ENDBRANCH   6   7
ENDBRANCH   5   6
ENDBRANCH   3   5
ENDBRANCH   1   3
BRANCH   1  11
ATOM     11  C   UNL     1     251.250 257.135 247.622  1.00  0.00     0.087 C 
BRANCH  11  12
ATOM     12  C   UNL     1     252.380 256.814 246.597  1.00  0.00     0.066 C 
BRANCH  12  13
ATOM     13  C   UNL     1     252.501 255.332 246.254  1.00  0.00     0.140 C 
ATOM     14  O   UNL     1     253.587 254.773 246.314  1.00  0.00    -0.299 OA
BRANCH  13  15
ATOM     15  C   UNL     1     251.301 254.562 245.754  1.00  0.00     0.106 CG0
ATOM     16  G   UNL     1     250.638 253.730 246.841  1.00  0.00     0.000 G0
ENDBRANCH  13  15
ENDBRANCH  12  13
BRANCH  12  17
ATOM     17  C   UNL     1     253.744 257.500 246.922  1.00  0.00    -0.006 C 
ATOM     18  C   UNL     1     253.916 257.726 248.434  1.00  0.00     0.008 C 
ATOM     19  C   UNL     1     254.005 258.808 246.158  1.00  0.00     0.008 C 
ENDBRANCH  12  17
ENDBRANCH  11  12
ENDBRANCH   1  11
TORSDOF 1
ENDMDL
MODEL 4
REMARK VINA RESULT:    -3.931      2.900      5.186
REMARK INTER + INTRA:          -6.239
REMARK INTER:                  -6.509
REMARK INTRA:                   0.270
REMARK UNBOUND:                -0.240
REMARK SMILES CC1=CCC[C@H](C)C(=O)C[C@@H](C(C)C)C(=O)C1
REMARK SMILES IDX 8 1 9 2 6 3 7 4 5 5 4 6 3 7 2 8 1 9 10 11 11 12 15 13 16 14
REMARK SMILES IDX 17 15 12 17 13 18 14 19
REMARK H PARENT
REMARK Flexibility Score: 70.00
ROOT
ATOM      1  C   UNL     1     248.917 259.899 246.446  1.00  0.00     0.136 C 
ATOM      2  O   UNL     1     248.912 260.987 245.891  1.00  0.00    -0.299 OA
ENDROOT
BRANCH   1   3
ATOM      3  C   UNL     1     247.834 258.901 246.063  1.00  0.00     0.053 C 
ATOM      4  C   UNL     1     247.504 258.879 244.562  1.00  0.00     0.016 C 
BRANCH   3   5
ATOM      5  C   UNL     1     248.112 257.500 246.650  1.00  0.00     0.015 C 
BRANCH   5   6
ATOM      6  C   UNL     1     248.445 256.414 245.608  1.00  0.00     0.028 C 
BRANCH   6   7
ATOM      7  C   UNL     1     249.161 255.261 246.267  1.00  0.00    -0.028 C 
ATOM      8  C   UNL     1     250.466 255.273 246.627  1.00  0.00    -0.070 CG0
ATOM      9  C   UNL     1     251.002 254.085 247.385  1.00  0.00     0.039 C 
ATOM     10  G   UNL     1     251.413 256.404 246.261  1.00  0.00     0.000 G0
ENDBRANCH   6   7
ENDBRANCH   5   6
ENDBRANCH   3   5
ENDBRANCH   1   3
BRANCH   1  11
ATOM     11  C   UNL     1     249.993 259.612 247.477  1.00  0.00     0.087 C 
BRANCH  11  12
ATOM     12  C   UNL     1     251.297 258.960 246.926  1.00  0.00     0.066 C 
BRANCH  12  13
ATOM     13  C   UNL     1     251.473 257.497 247.319  1.00  0.00     0.140 C 
ATOM     14  O   UNL     1     251.717 257.195 248.479  1.00  0.00    -0.299 OA
BRANCH  13  15
ATOM     15  C   UNL     1     251.430 256.412 246.268  1.00  0.00     0.106 CG0
ATOM     16  G   UNL     1     250.481 255.279 246.625  1.00  0.00     0.000 G0
ENDBRANCH  13  15
ENDBRANCH  12  13
BRANCH  12  17
ATOM     17  C   UNL     1     252.578 259.828 247.137  1.00  0.00    -0.006 C 
ATOM     18  C   UNL     1     252.268 261.330 247.014  1.00  0.00     0.008 C 
ATOM     19  C   UNL     1     253.764 259.457 246.232  1.00  0.00     0.008 C 
ENDBRANCH  12  17
ENDBRANCH  11  12
ENDBRANCH   1  11
TORSDOF 1
ENDMDL
MODEL 5
REMARK VINA RESULT:    -3.922      4.670      7.560
REMARK INTER + INTRA:          -6.226
REMARK INTER:                  -6.086
REMARK INTRA:                  -0.139
REMARK UNBOUND:                -0.240
REMARK SMILES CC1=CCC[C@H](C)C(=O)C[C@@H](C(C)C)C(=O)C1
REMARK SMILES IDX 8 1 9 2 6 3 7 4 5 5 4 6 3 7 2 8 1 9 10 11 11 12 15 13 16 14
REMARK SMILES IDX 17 15 12 17 13 18 14 19
REMARK H PARENT
REMARK Flexibility Score: 70.00
ROOT
ATOM      1  C   UNL     1     258.979 263.479 246.507  1.00  0.00     0.136 C 
ATOM      2  O   UNL     1     260.117 263.154 246.205  1.00  0.00    -0.299 OA
ENDROOT
BRANCH   1   3
ATOM      3  C   UNL     1     257.944 263.568 245.395  1.00  0.00     0.053 C 
ATOM      4  C   UNL     1     258.206 264.698 244.385  1.00  0.00     0.016 C 
BRANCH   3   5
ATOM      5  C   UNL     1     257.697 262.196 244.730  1.00  0.00     0.015 C 
BRANCH   5   6
ATOM      6  C   UNL     1     257.719 260.994 245.696  1.00  0.00     0.028 C 
BRANCH   6   7
ATOM      7  C   UNL     1     256.402 260.885 246.422  1.00  0.00    -0.028 C 
ATOM      8  C   UNL     1     256.272 260.762 247.763  1.00  0.00    -0.070 CG0
ATOM      9  C   UNL     1     254.881 260.785 248.345  1.00  0.00     0.039 C 
ATOM     10  G   UNL     1     257.458 260.556 248.692  1.00  0.00     0.000 G0
ENDBRANCH   6   7
ENDBRANCH   5   6
ENDBRANCH   3   5
ENDBRANCH   1   3
BRANCH   1  11
ATOM     11  C   UNL     1     258.668 263.773 247.964  1.00  0.00     0.087 C 
BRANCH  11  12
ATOM     12  C   UNL     1     259.043 262.647 248.974  1.00  0.00     0.066 C 
BRANCH  12  13
ATOM     13  C   UNL     1     257.852 261.819 249.449  1.00  0.00     0.140 C 
ATOM     14  O   UNL     1     257.259 262.127 250.473  1.00  0.00    -0.299 OA
BRANCH  13  15
ATOM     15  C   UNL     1     257.447 260.566 248.709  1.00  0.00     0.106 CG0
ATOM     16  G   UNL     1     256.266 260.786 247.776  1.00  0.00     0.000 G0
ENDBRANCH  13  15
ENDBRANCH  12  13
BRANCH  12  17
ATOM     17  C   UNL     1     259.986 263.116 250.126  1.00  0.00    -0.006 C 
ATOM     18  C   UNL     1     260.915 264.253 249.667  1.00  0.00     0.008 C 
ATOM     19  C   UNL     1     260.807 261.995 250.784  1.00  0.00     0.008 C 
ENDBRANCH  12  17
ENDBRANCH  11  12
ENDBRANCH   1  11
TORSDOF 1
ENDMDL
MODEL 6
REMARK VINA RESULT:    -3.916      1.870      2.442
REMARK INTER + INTRA:          -6.215
REMARK INTER:                  -5.911
REMARK INTRA:                  -0.304
REMARK UNBOUND:                -0.240
REMARK SMILES CC1=CCC[C@H](C)C(=O)C[C@@H](C(C)C)C(=O)C1
REMARK SMILES IDX 8 1 9 2 6 3 7 4 5 5 4 6 3 7 2 8 1 9 10 11 11 12 15 13 16 14
REMARK SMILES IDX 17 15 12 17 13 18 14 19
REMARK H PARENT
REMARK Flexibility Score: 70.00
ROOT
ATOM      1  C   UNL     1     252.792 257.905 246.434  1.00  0.00     0.136 C 
ATOM      2  O   UNL     1     251.758 258.547 246.542  1.00  0.00    -0.299 OA
ENDROOT
BRANCH   1   3
ATOM      3  C   UNL     1     254.108 258.628 246.682  1.00  0.00     0.053 C 
ATOM      4  C   UNL     1     254.423 259.726 245.652  1.00  0.00     0.016 C 
BRANCH   3   5
ATOM      5  C   UNL     1     254.233 259.105 248.145  1.00  0.00     0.015 C 
BRANCH   5   6
ATOM      6  C   UNL     1     254.388 257.976 249.185  1.00  0.00     0.028 C 
BRANCH   6   7
ATOM      7  C   UNL     1     255.584 257.121 248.850  1.00  0.00    -0.028 C 
ATOM      8  C   UNL     1     255.543 255.781 248.666  1.00  0.00    -0.070 CG0
ATOM      9  C   UNL     1     256.805 255.088 248.219  1.00  0.00     0.039 C 
ATOM     10  G   UNL     1     254.299 254.949 248.934  1.00  0.00     0.000 G0
ENDBRANCH   6   7
ENDBRANCH   5   6
ENDBRANCH   3   5
ENDBRANCH   1   3
BRANCH   1  11
ATOM     11  C   UNL     1     252.702 256.436 246.061  1.00  0.00     0.087 C 
BRANCH  11  12
ATOM     12  C   UNL     1     252.357 255.464 247.229  1.00  0.00     0.066 C 
BRANCH  12  13
ATOM     13  C   UNL     1     253.527 254.593 247.677  1.00  0.00     0.140 C 
ATOM     14  O   UNL     1     253.800 253.568 247.068  1.00  0.00    -0.299 OA
BRANCH  13  15
ATOM     15  C   UNL     1     254.307 254.941 248.923  1.00  0.00     0.106 CG0
ATOM     16  G   UNL     1     255.537 255.787 248.635  1.00  0.00     0.000 G0
ENDBRANCH  13  15
ENDBRANCH  12  13
BRANCH  12  17
ATOM     17  C   UNL     1     251.025 254.675 247.025  1.00  0.00    -0.006 C 
ATOM     18  C   UNL     1     250.340 255.057 245.702  1.00  0.00     0.008 C 
ATOM     19  C   UNL     1     250.026 254.786 248.189  1.00  0.00     0.008 C 
ENDBRANCH  12  17
ENDBRANCH  11  12
ENDBRANCH   1  11
TORSDOF 1
ENDMDL
MODEL 7
REMARK VINA RESULT:    -3.863      2.071      3.982
REMARK INTER + INTRA:          -6.135
REMARK INTER:                  -6.182
REMARK INTRA:                   0.047
REMARK UNBOUND:                -0.240
REMARK SMILES CC1=CCC[C@H](C)C(=O)C[C@@H](C(C)C)C(=O)C1
REMARK SMILES IDX 8 1 9 2 6 3 7 4 5 5 4 6 3 7 2 8 1 9 10 11 11 12 15 13 16 14
REMARK SMILES IDX 17 15 12 17 13 18 14 19
REMARK H PARENT
REMARK Flexibility Score: 70.00
ROOT
ATOM      1  C   UNL     1     255.132 256.536 248.461  1.00  0.00     0.136 C 
ATOM      2  O   UNL     1     255.192 257.165 249.507  1.00  0.00    -0.299 OA
ENDROOT
BRANCH   1   3
ATOM      3  C   UNL     1     255.798 255.169 248.414  1.00  0.00     0.053 C 
ATOM      4  C   UNL     1     256.626 254.832 249.665  1.00  0.00     0.016 C 
BRANCH   3   5
ATOM      5  C   UNL     1     254.801 254.058 248.020  1.00  0.00     0.015 C 
BRANCH   5   6
ATOM      6  C   UNL     1     253.546 253.966 248.913  1.00  0.00     0.028 C 
BRANCH   6   7
ATOM      7  C   UNL     1     252.302 253.940 248.060  1.00  0.00    -0.028 C 
ATOM      8  C   UNL     1     251.484 255.000 247.865  1.00  0.00    -0.070 CG0
ATOM      9  C   UNL     1     250.345 254.844 246.889  1.00  0.00     0.039 C 
ATOM     10  G   UNL     1     251.638 256.312 248.618  1.00  0.00     0.000 G0
ENDBRANCH   6   7
ENDBRANCH   5   6
ENDBRANCH   3   5
ENDBRANCH   1   3
BRANCH   1  11
ATOM     11  C   UNL     1     254.402 257.152 247.282  1.00  0.00     0.087 C 
BRANCH  11  12
ATOM     12  C   UNL     1     253.256 258.146 247.642  1.00  0.00     0.066 C 
BRANCH  12  13
ATOM     13  C   UNL     1     251.876 257.500 247.712  1.00  0.00     0.140 C 
ATOM     14  O   UNL     1     250.938 257.982 247.094  1.00  0.00    -0.299 OA
BRANCH  13  15
ATOM     15  C   UNL     1     251.633 256.310 248.611  1.00  0.00     0.106 CG0
ATOM     16  G   UNL     1     251.484 255.007 247.841  1.00  0.00     0.000 G0
ENDBRANCH  13  15
ENDBRANCH  12  13
BRANCH  12  17
ATOM     17  C   UNL     1     253.290 259.476 246.826  1.00  0.00    -0.006 C 
ATOM     18  C   UNL     1     254.246 259.377 245.625  1.00  0.00     0.008 C 
ATOM     19  C   UNL     1     253.608 260.732 247.654  1.00  0.00     0.008 C 
ENDBRANCH  12  17
ENDBRANCH  11  12
ENDBRANCH   1  11
TORSDOF 1
ENDMDL
MODEL 8
REMARK VINA RESULT:    -3.815      1.803      4.201
REMARK INTER + INTRA:          -6.062
REMARK INTER:                  -6.205
REMARK INTRA:                   0.143
REMARK UNBOUND:                -0.240
REMARK SMILES CC1=CCC[C@H](C)C(=O)C[C@@H](C(C)C)C(=O)C1
REMARK SMILES IDX 8 1 9 2 6 3 7 4 5 5 4 6 3 7 2 8 1 9 10 11 11 12 15 13 16 14
REMARK SMILES IDX 17 15 12 17 13 18 14 19
REMARK H PARENT
REMARK Flexibility Score: 70.00
ROOT
ATOM      1  C   UNL     1     255.398 259.690 250.559  1.00  0.00     0.136 C 
ATOM      2  O   UNL     1     255.744 260.136 251.643  1.00  0.00    -0.299 OA
ENDROOT
BRANCH   1   3
ATOM      3  C   UNL     1     255.613 260.561 249.330  1.00  0.00     0.053 C 
ATOM      4  C   UNL     1     256.671 260.019 248.355  1.00  0.00     0.016 C 
BRANCH   3   5
ATOM      5  C   UNL     1     254.278 260.927 248.646  1.00  0.00     0.015 C 
BRANCH   5   6
ATOM      6  C   UNL     1     254.107 260.372 247.217  1.00  0.00     0.028 C 
BRANCH   6   7
ATOM      7  C   UNL     1     252.742 259.748 247.062  1.00  0.00    -0.028 C 
ATOM      8  C   UNL     1     252.499 258.417 247.090  1.00  0.00    -0.070 CG0
ATOM      9  C   UNL     1     251.063 257.958 247.039  1.00  0.00     0.039 C 
ATOM     10  G   UNL     1     253.606 257.376 247.124  1.00  0.00     0.000 G0
ENDBRANCH   6   7
ENDBRANCH   5   6
ENDBRANCH   3   5
ENDBRANCH   1   3
BRANCH   1  11
ATOM     11  C   UNL     1     254.780 258.305 250.505  1.00  0.00     0.087 C 
BRANCH  11  12
ATOM     12  C   UNL     1     255.147 257.451 249.254  1.00  0.00     0.066 C 
BRANCH  12  13
ATOM     13  C   UNL     1     253.939 256.889 248.511  1.00  0.00     0.140 C 
ATOM     14  O   UNL     1     253.268 255.999 249.012  1.00  0.00    -0.299 OA
BRANCH  13  15
ATOM     15  C   UNL     1     253.610 257.366 247.115  1.00  0.00     0.106 CG0
ATOM     16  G   UNL     1     252.509 258.414 247.092  1.00  0.00     0.000 G0
ENDBRANCH  13  15
ENDBRANCH  12  13
BRANCH  12  17
ATOM     17  C   UNL     1     256.274 256.402 249.511  1.00  0.00    -0.006 C 
ATOM     18  C   UNL     1     256.515 255.518 248.276  1.00  0.00     0.008 C 
ATOM     19  C   UNL     1     256.066 255.525 250.757  1.00  0.00     0.008 C 
ENDBRANCH  12  17
ENDBRANCH  11  12
ENDBRANCH   1  11
TORSDOF 1
ENDMDL
MODEL 9
REMARK VINA RESULT:    -3.794      3.099      5.481
REMARK INTER + INTRA:          -6.030
REMARK INTER:                  -5.785
REMARK INTRA:                  -0.245
REMARK UNBOUND:                -0.240
REMARK SMILES CC1=CCC[C@H](C)C(=O)C[C@@H](C(C)C)C(=O)C1
REMARK SMILES IDX 8 1 9 2 6 3 7 4 5 5 4 6 3 7 2 8 1 9 10 11 11 12 15 13 16 14
REMARK SMILES IDX 17 15 12 17 13 18 14 19
REMARK H PARENT
REMARK Flexibility Score: 70.00
ROOT
ATOM      1  C   UNL     1     255.225 253.627 248.924  1.00  0.00     0.136 C 
ATOM      2  O   UNL     1     256.238 254.025 249.478  1.00  0.00    -0.299 OA
ENDROOT
BRANCH   1   3
ATOM      3  C   UNL     1     254.446 252.501 249.588  1.00  0.00     0.053 C 
ATOM      4  C   UNL     1     255.314 251.305 250.014  1.00  0.00     0.016 C 
BRANCH   3   5
ATOM      5  C   UNL     1     253.527 253.024 250.713  1.00  0.00     0.015 C 
BRANCH   5   6
ATOM      6  C   UNL     1     252.040 253.158 250.327  1.00  0.00     0.028 C 
BRANCH   6   7
ATOM      7  C   UNL     1     251.710 252.219 249.193  1.00  0.00    -0.028 C 
ATOM      8  C   UNL     1     251.389 252.614 247.939  1.00  0.00    -0.070 CG0
ATOM      9  C   UNL     1     251.202 251.549 246.888  1.00  0.00     0.039 C 
ATOM     10  G   UNL     1     251.165 254.070 247.564  1.00  0.00     0.000 G0
ENDBRANCH   6   7
ENDBRANCH   5   6
ENDBRANCH   3   5
ENDBRANCH   1   3
BRANCH   1  11
ATOM     11  C   UNL     1     254.808 254.274 247.615  1.00  0.00     0.087 C 
BRANCH  11  12
ATOM     12  C   UNL     1     253.551 255.193 247.689  1.00  0.00     0.066 C 
BRANCH  12  13
ATOM     13  C   UNL     1     252.371 254.696 246.859  1.00  0.00     0.140 C 
ATOM     14  O   UNL     1     252.358 254.859 245.648  1.00  0.00    -0.299 OA
BRANCH  13  15
ATOM     15  C   UNL     1     251.170 254.074 247.534  1.00  0.00     0.106 CG0
ATOM     16  G   UNL     1     251.399 252.624 247.930  1.00  0.00     0.000 G0
ENDBRANCH  13  15
ENDBRANCH  12  13
BRANCH  12  17
ATOM     17  C   UNL     1     253.862 256.711 247.497  1.00  0.00    -0.006 C 
ATOM     18  C   UNL     1     255.046 257.159 248.371  1.00  0.00     0.008 C 
ATOM     19  C   UNL     1     252.662 257.647 247.711  1.00  0.00     0.008 C 
ENDBRANCH  12  17
ENDBRANCH  11  12
ENDBRANCH   1  11
TORSDOF 1
ENDMDL
