MODEL 1
REMARK VINA RESULT:    -4.838      0.000      0.000
REMARK INTER + INTRA:          -5.459
REMARK INTER:                  -5.403
REMARK INTRA:                  -0.056
REMARK UNBOUND:                -0.056
REMARK SMILES COc1cc2ccc(=O)oc2c(O)c1O
REMARK SMILES IDX 3 1 14 2 12 3 11 4 5 5 4 6 6 7 7 8 8 9 9 10 10 11 2 12 1 13
REMARK SMILES IDX 15 14 13 16
REMARK H PARENT 15 15 13 17
REMARK Flexibility Score: inf
ROOT
ATOM      1  C   UNL     1      -5.270  -2.355  -9.681  1.00  0.00     0.165 A 
ATOM      2  C   UNL     1      -4.215  -2.019  -8.808  1.00  0.00     0.204 A 
ATOM      3  C   UNL     1      -4.048  -0.690  -8.378  1.00  0.00     0.205 A 
ATOM      4  C   UNL     1      -4.930   0.304  -8.816  1.00  0.00     0.184 A 
ATOM      5  C   UNL     1      -5.988  -0.027  -9.688  1.00  0.00     0.025 A 
ATOM      6  C   UNL     1      -6.154  -1.350 -10.117  1.00  0.00     0.062 A 
ATOM      7  C   UNL     1      -6.851   0.990 -10.107  1.00  0.00     0.020 A 
ATOM      8  C   UNL     1      -6.647   2.293  -9.654  1.00  0.00     0.094 A 
ATOM      9  C   UNL     1      -5.579   2.548  -8.789  1.00  0.00     0.336 A 
ATOM     10  O   UNL     1      -5.376   3.717  -8.368  1.00  0.00    -0.246 OA
ATOM     11  O   UNL     1      -4.771   1.561  -8.406  1.00  0.00    -0.419 OA
ENDROOT
BRANCH   1  12
ATOM     12  O   UNL     1      -5.407  -3.691 -10.091  1.00  0.00    -0.493 OA
ATOM     13  C   UNL     1      -6.639  -4.405 -10.125  1.00  0.00     0.278 C 
ENDBRANCH   1  12
BRANCH   2  14
ATOM     14  O   UNL     1      -3.326  -2.998  -8.362  1.00  0.00    -0.502 OA
ATOM     15  H   UNL     1      -3.270  -3.280  -7.391  1.00  0.00     0.293 HD
ENDBRANCH   2  14
BRANCH   3  16
ATOM     16  O   UNL     1      -3.008  -0.343  -7.514  1.00  0.00    -0.502 OA
ATOM     17  H   UNL     1      -3.010  -0.600  -6.534  1.00  0.00     0.293 HD
ENDBRANCH   3  16
TORSDOF 3
ENDMDL
MODEL 2
REMARK VINA RESULT:    -4.817      2.463      3.989
REMARK INTER + INTRA:          -5.436
REMARK INTER:                  -5.387
REMARK INTRA:                  -0.049
REMARK UNBOUND:                -0.056
REMARK SMILES COc1cc2ccc(=O)oc2c(O)c1O
REMARK SMILES IDX 3 1 14 2 12 3 11 4 5 5 4 6 6 7 7 8 8 9 9 10 10 11 2 12 1 13
REMARK SMILES IDX 15 14 13 16
REMARK H PARENT 15 15 13 17
REMARK Flexibility Score: inf
ROOT
ATOM      1  C   UNL     1      -8.438  -0.203  -9.376  1.00  0.00     0.165 A 
ATOM      2  C   UNL     1      -8.214   1.079  -8.833  1.00  0.00     0.204 A 
ATOM      3  C   UNL     1      -6.904   1.581  -8.720  1.00  0.00     0.205 A 
ATOM      4  C   UNL     1      -5.819   0.807  -9.147  1.00  0.00     0.184 A 
ATOM      5  C   UNL     1      -6.038  -0.475  -9.691  1.00  0.00     0.025 A 
ATOM      6  C   UNL     1      -7.341  -0.975  -9.804  1.00  0.00     0.062 A 
ATOM      7  C   UNL     1      -4.931  -1.222 -10.108  1.00  0.00     0.020 A 
ATOM      8  C   UNL     1      -3.652  -0.683  -9.977  1.00  0.00     0.094 A 
ATOM      9  C   UNL     1      -3.510   0.595  -9.429  1.00  0.00     0.336 A 
ATOM     10  O   UNL     1      -2.364   1.101  -9.301  1.00  0.00    -0.246 OA
ATOM     11  O   UNL     1      -4.580   1.285  -9.040  1.00  0.00    -0.419 OA
ENDROOT
BRANCH   1  12
ATOM     12  O   UNL     1      -9.758  -0.673  -9.474  1.00  0.00    -0.493 OA
ATOM     13  C   UNL     1     -10.118  -2.007  -9.818  1.00  0.00     0.278 C 
ENDBRANCH   1  12
BRANCH   2  14
ATOM     14  O   UNL     1      -9.285   1.862  -8.403  1.00  0.00    -0.502 OA
ATOM     15  H   UNL     1      -9.156   2.770  -7.972  1.00  0.00     0.293 HD
ENDBRANCH   2  14
BRANCH   3  16
ATOM     16  O   UNL     1      -6.668   2.848  -8.185  1.00  0.00    -0.502 OA
ATOM     17  H   UNL     1      -7.085   3.685  -8.572  1.00  0.00     0.293 HD
ENDBRANCH   3  16
TORSDOF 3
ENDMDL
MODEL 3
REMARK VINA RESULT:    -4.783      2.218      3.173
REMARK INTER + INTRA:          -5.398
REMARK INTER:                  -5.330
REMARK INTRA:                  -0.068
REMARK UNBOUND:                -0.056
REMARK SMILES COc1cc2ccc(=O)oc2c(O)c1O
REMARK SMILES IDX 3 1 14 2 12 3 11 4 5 5 4 6 6 7 7 8 8 9 9 10 10 11 2 12 1 13
REMARK SMILES IDX 15 14 13 16
REMARK H PARENT 15 15 13 17
REMARK Flexibility Score: inf
ROOT
ATOM      1  C   UNL     1      -4.612  -0.684  -9.727  1.00  0.00     0.165 A 
ATOM      2  C   UNL     1      -4.442   0.608  -9.188  1.00  0.00     0.204 A 
ATOM      3  C   UNL     1      -5.564   1.386  -8.846  1.00  0.00     0.205 A 
ATOM      4  C   UNL     1      -6.853   0.878  -9.040  1.00  0.00     0.184 A 
ATOM      5  C   UNL     1      -7.028  -0.414  -9.578  1.00  0.00     0.025 A 
ATOM      6  C   UNL     1      -5.913  -1.188  -9.919  1.00  0.00     0.062 A 
ATOM      7  C   UNL     1      -8.330  -0.891  -9.760  1.00  0.00     0.020 A 
ATOM      8  C   UNL     1      -9.412  -0.085  -9.405  1.00  0.00     0.094 A 
ATOM      9  C   UNL     1      -9.163   1.185  -8.876  1.00  0.00     0.336 A 
ATOM     10  O   UNL     1     -10.125   1.930  -8.550  1.00  0.00    -0.246 OA
ATOM     11  O   UNL     1      -7.914   1.615  -8.714  1.00  0.00    -0.419 OA
ENDROOT
BRANCH   1  12
ATOM     12  O   UNL     1      -3.471  -1.433 -10.058  1.00  0.00    -0.493 OA
ATOM     13  C   UNL     1      -3.027  -2.586  -9.351  1.00  0.00     0.278 C 
ENDBRANCH   1  12
BRANCH   2  14
ATOM     14  O   UNL     1      -3.163   1.129  -8.988  1.00  0.00    -0.502 OA
ATOM     15  H   UNL     1      -2.722   1.754  -9.652  1.00  0.00     0.293 HD
ENDBRANCH   2  14
BRANCH   3  16
ATOM     16  O   UNL     1      -5.410   2.666  -8.311  1.00  0.00    -0.502 OA
ATOM     17  H   UNL     1      -5.736   2.906  -7.383  1.00  0.00     0.293 HD
ENDBRANCH   3  16
TORSDOF 3
ENDMDL
MODEL 4
REMARK VINA RESULT:    -4.443      1.816      4.547
REMARK INTER + INTRA:          -5.019
REMARK INTER:                  -4.951
REMARK INTRA:                  -0.068
REMARK UNBOUND:                -0.056
REMARK SMILES COc1cc2ccc(=O)oc2c(O)c1O
REMARK SMILES IDX 3 1 14 2 12 3 11 4 5 5 4 6 6 7 7 8 8 9 9 10 10 11 2 12 1 13
REMARK SMILES IDX 15 14 13 16
REMARK H PARENT 15 15 13 17
REMARK Flexibility Score: inf
ROOT
ATOM      1  C   UNL     1      -7.743   0.674  -9.455  1.00  0.00     0.165 A 
ATOM      2  C   UNL     1      -6.663   1.398  -8.909  1.00  0.00     0.204 A 
ATOM      3  C   UNL     1      -5.401   0.790  -8.769  1.00  0.00     0.205 A 
ATOM      4  C   UNL     1      -5.216  -0.537  -9.173  1.00  0.00     0.184 A 
ATOM      5  C   UNL     1      -6.293  -1.265  -9.720  1.00  0.00     0.025 A 
ATOM      6  C   UNL     1      -7.548  -0.661  -9.859  1.00  0.00     0.062 A 
ATOM      7  C   UNL     1      -6.073  -2.589 -10.113  1.00  0.00     0.020 A 
ATOM      8  C   UNL     1      -4.807  -3.150  -9.956  1.00  0.00     0.094 A 
ATOM      9  C   UNL     1      -3.785  -2.369  -9.407  1.00  0.00     0.336 A 
ATOM     10  O   UNL     1      -2.634  -2.855  -9.256  1.00  0.00    -0.246 OA
ATOM     11  O   UNL     1      -4.021  -1.111  -9.041  1.00  0.00    -0.419 OA
ENDROOT
BRANCH   1  12
ATOM     12  O   UNL     1      -8.988   1.312  -9.580  1.00  0.00    -0.493 OA
ATOM     13  C   UNL     1     -10.053   1.199  -8.641  1.00  0.00     0.278 C 
ENDBRANCH   1  12
BRANCH   2  14
ATOM     14  O   UNL     1      -6.831   2.722  -8.502  1.00  0.00    -0.502 OA
ATOM     15  H   UNL     1      -6.084   3.404  -8.548  1.00  0.00     0.293 HD
ENDBRANCH   2  14
BRANCH   3  16
ATOM     16  O   UNL     1      -4.324   1.494  -8.231  1.00  0.00    -0.502 OA
ATOM     17  H   UNL     1      -4.074   1.433  -7.251  1.00  0.00     0.293 HD
ENDBRANCH   3  16
TORSDOF 3
ENDMDL
MODEL 5
REMARK VINA RESULT:    -3.830      2.363      4.727
REMARK INTER + INTRA:          -4.333
REMARK INTER:                  -4.274
REMARK INTRA:                  -0.060
REMARK UNBOUND:                -0.056
REMARK SMILES COc1cc2ccc(=O)oc2c(O)c1O
REMARK SMILES IDX 3 1 14 2 12 3 11 4 5 5 4 6 6 7 7 8 8 9 9 10 10 11 2 12 1 13
REMARK SMILES IDX 15 14 13 16
REMARK H PARENT 15 15 13 17
REMARK Flexibility Score: inf
ROOT
ATOM      1  C   UNL     1      -4.397   0.576  -9.286  1.00  0.00     0.165 A 
ATOM      2  C   UNL     1      -5.410   1.549  -9.166  1.00  0.00     0.204 A 
ATOM      3  C   UNL     1      -6.761   1.188  -9.320  1.00  0.00     0.205 A 
ATOM      4  C   UNL     1      -7.104  -0.141  -9.591  1.00  0.00     0.184 A 
ATOM      5  C   UNL     1      -6.095  -1.119  -9.710  1.00  0.00     0.025 A 
ATOM      6  C   UNL     1      -4.750  -0.760  -9.558  1.00  0.00     0.062 A 
ATOM      7  C   UNL     1      -6.472  -2.438  -9.982  1.00  0.00     0.020 A 
ATOM      8  C   UNL     1      -7.823  -2.749 -10.124  1.00  0.00     0.094 A 
ATOM      9  C   UNL     1      -8.770  -1.729  -9.992  1.00  0.00     0.336 A 
ATOM     10  O   UNL     1      -9.996  -1.988 -10.118  1.00  0.00    -0.246 OA
ATOM     11  O   UNL     1      -8.384  -0.481  -9.734  1.00  0.00    -0.419 OA
ENDROOT
BRANCH   1  12
ATOM     12  O   UNL     1      -3.059   0.971  -9.128  1.00  0.00    -0.493 OA
ATOM     13  C   UNL     1      -2.025   0.726 -10.075  1.00  0.00     0.278 C 
ENDBRANCH   1  12
BRANCH   2  14
ATOM     14  O   UNL     1      -5.085   2.880  -8.897  1.00  0.00    -0.502 OA
ATOM     15  H   UNL     1      -4.663   3.486  -9.589  1.00  0.00     0.293 HD
ENDBRANCH   2  14
BRANCH   3  16
ATOM     16  O   UNL     1      -7.774   2.142  -9.205  1.00  0.00    -0.502 OA
ATOM     17  H   UNL     1      -7.735   2.892  -8.526  1.00  0.00     0.293 HD
ENDBRANCH   3  16
TORSDOF 3
ENDMDL
MODEL 6
REMARK VINA RESULT:    -3.780      2.226      4.623
REMARK INTER + INTRA:          -4.278
REMARK INTER:                  -4.326
REMARK INTRA:                   0.049
REMARK UNBOUND:                -0.056
REMARK SMILES COc1cc2ccc(=O)oc2c(O)c1O
REMARK SMILES IDX 3 1 14 2 12 3 11 4 5 5 4 6 6 7 7 8 8 9 9 10 10 11 2 12 1 13
REMARK SMILES IDX 15 14 13 16
REMARK H PARENT 15 15 13 17
REMARK Flexibility Score: inf
ROOT
ATOM      1  C   UNL     1      -7.855   0.712  -9.393  1.00  0.00     0.165 A 
ATOM      2  C   UNL     1      -7.994  -0.646  -9.746  1.00  0.00     0.204 A 
ATOM      3  C   UNL     1      -6.876  -1.501  -9.728  1.00  0.00     0.205 A 
ATOM      4  C   UNL     1      -5.621  -1.003  -9.359  1.00  0.00     0.184 A 
ATOM      5  C   UNL     1      -5.477   0.354  -9.004  1.00  0.00     0.025 A 
ATOM      6  C   UNL     1      -6.589   1.204  -9.022  1.00  0.00     0.062 A 
ATOM      7  C   UNL     1      -4.209   0.818  -8.641  1.00  0.00     0.020 A 
ATOM      8  C   UNL     1      -3.130  -0.065  -8.637  1.00  0.00     0.094 A 
ATOM      9  C   UNL     1      -3.347  -1.398  -9.000  1.00  0.00     0.336 A 
ATOM     10  O   UNL     1      -2.386  -2.212  -9.004  1.00  0.00    -0.246 OA
ATOM     11  O   UNL     1      -4.564  -1.814  -9.343  1.00  0.00    -0.419 OA
ENDROOT
BRANCH   1  12
ATOM     12  O   UNL     1      -8.992   1.536  -9.422  1.00  0.00    -0.493 OA
ATOM     13  C   UNL     1     -10.032   1.513  -8.450  1.00  0.00     0.278 C 
ENDBRANCH   1  12
BRANCH   2  14
ATOM     14  O   UNL     1      -9.238  -1.158 -10.117  1.00  0.00    -0.502 OA
ATOM     15  H   UNL     1     -10.093  -0.910  -9.634  1.00  0.00     0.293 HD
ENDBRANCH   2  14
BRANCH   3  16
ATOM     16  O   UNL     1      -6.999  -2.847 -10.076  1.00  0.00    -0.502 OA
ATOM     17  H   UNL     1      -7.065  -3.580  -9.381  1.00  0.00     0.293 HD
ENDBRANCH   3  16
TORSDOF 3
ENDMDL
MODEL 7
REMARK VINA RESULT:    -3.640      1.064      4.794
REMARK INTER + INTRA:          -4.121
REMARK INTER:                  -4.072
REMARK INTRA:                  -0.050
REMARK UNBOUND:                -0.056
REMARK SMILES COc1cc2ccc(=O)oc2c(O)c1O
REMARK SMILES IDX 3 1 14 2 12 3 11 4 5 5 4 6 6 7 7 8 8 9 9 10 10 11 2 12 1 13
REMARK SMILES IDX 15 14 13 16
REMARK H PARENT 15 15 13 17
REMARK Flexibility Score: inf
ROOT
ATOM      1  C   UNL     1      -4.941   0.542  -9.063  1.00  0.00     0.165 A 
ATOM      2  C   UNL     1      -3.690  -0.042  -8.775  1.00  0.00     0.204 A 
ATOM      3  C   UNL     1      -3.512  -1.432  -8.901  1.00  0.00     0.205 A 
ATOM      4  C   UNL     1      -4.577  -2.240  -9.313  1.00  0.00     0.184 A 
ATOM      5  C   UNL     1      -5.830  -1.661  -9.604  1.00  0.00     0.025 A 
ATOM      6  C   UNL     1      -6.009  -0.278  -9.478  1.00  0.00     0.062 A 
ATOM      7  C   UNL     1      -6.873  -2.497 -10.013  1.00  0.00     0.020 A 
ATOM      8  C   UNL     1      -6.650  -3.869 -10.124  1.00  0.00     0.094 A 
ATOM      9  C   UNL     1      -5.382  -4.373  -9.821  1.00  0.00     0.336 A 
ATOM     10  O   UNL     1      -5.158  -5.609  -9.914  1.00  0.00    -0.246 OA
ATOM     11  O   UNL     1      -4.406  -3.556  -9.433  1.00  0.00    -0.419 OA
ENDROOT
BRANCH   1  12
ATOM     12  O   UNL     1      -5.085   1.932  -8.926  1.00  0.00    -0.493 OA
ATOM     13  C   UNL     1      -6.332   2.610  -8.815  1.00  0.00     0.278 C 
ENDBRANCH   1  12
BRANCH   2  14
ATOM     14  O   UNL     1      -2.618   0.750  -8.362  1.00  0.00    -0.502 OA
ATOM     15  H   UNL     1      -2.744   1.592  -7.815  1.00  0.00     0.293 HD
ENDBRANCH   2  14
BRANCH   3  16
ATOM     16  O   UNL     1      -2.279  -2.023  -8.619  1.00  0.00    -0.502 OA
ATOM     17  H   UNL     1      -2.164  -2.709  -7.883  1.00  0.00     0.293 HD
ENDBRANCH   3  16
TORSDOF 3
ENDMDL
MODEL 8
REMARK VINA RESULT:    -3.435      1.886      3.079
REMARK INTER + INTRA:          -3.892
REMARK INTER:                  -3.887
REMARK INTRA:                  -0.005
REMARK UNBOUND:                -0.056
REMARK SMILES COc1cc2ccc(=O)oc2c(O)c1O
REMARK SMILES IDX 3 1 14 2 12 3 11 4 5 5 4 6 6 7 7 8 8 9 9 10 10 11 2 12 1 13
REMARK SMILES IDX 15 14 13 16
REMARK H PARENT 15 15 13 17
REMARK Flexibility Score: inf
ROOT
ATOM      1  C   UNL     1      -3.999  -1.179  -9.194  1.00  0.00     0.165 A 
ATOM      2  C   UNL     1      -5.081  -2.014  -9.544  1.00  0.00     0.204 A 
ATOM      3  C   UNL     1      -6.354  -1.462  -9.779  1.00  0.00     0.205 A 
ATOM      4  C   UNL     1      -6.550  -0.081  -9.666  1.00  0.00     0.184 A 
ATOM      5  C   UNL     1      -5.471   0.758  -9.318  1.00  0.00     0.025 A 
ATOM      6  C   UNL     1      -4.204   0.210  -9.083  1.00  0.00     0.062 A 
ATOM      7  C   UNL     1      -5.701   2.133  -9.214  1.00  0.00     0.020 A 
ATOM      8  C   UNL     1      -6.979   2.635  -9.457  1.00  0.00     0.094 A 
ATOM      9  C   UNL     1      -8.001   1.744  -9.799  1.00  0.00     0.336 A 
ATOM     10  O   UNL     1      -9.163   2.176 -10.022  1.00  0.00    -0.246 OA
ATOM     11  O   UNL     1      -7.755   0.439  -9.890  1.00  0.00    -0.419 OA
ENDROOT
BRANCH   1  12
ATOM     12  O   UNL     1      -2.742  -1.763  -8.965  1.00  0.00    -0.493 OA
ATOM     13  C   UNL     1      -1.825  -2.133  -9.989  1.00  0.00     0.278 C 
ENDBRANCH   1  12
BRANCH   2  14
ATOM     14  O   UNL     1      -4.902  -3.393  -9.659  1.00  0.00    -0.502 OA
ATOM     15  H   UNL     1      -5.666  -4.024  -9.866  1.00  0.00     0.293 HD
ENDBRANCH   2  14
BRANCH   3  16
ATOM     16  O   UNL     1      -7.433  -2.276 -10.125  1.00  0.00    -0.502 OA
ATOM     17  H   UNL     1      -8.228  -1.927 -10.647  1.00  0.00     0.293 HD
ENDBRANCH   3  16
TORSDOF 3
ENDMDL
MODEL 9
REMARK VINA RESULT:    -3.313      2.583      3.697
REMARK INTER + INTRA:          -3.756
REMARK INTER:                  -3.687
REMARK INTRA:                  -0.069
REMARK UNBOUND:                -0.056
REMARK SMILES COc1cc2ccc(=O)oc2c(O)c1O
REMARK SMILES IDX 3 1 14 2 12 3 11 4 5 5 4 6 6 7 7 8 8 9 9 10 10 11 2 12 1 13
REMARK SMILES IDX 15 14 13 16
REMARK H PARENT 15 15 13 17
REMARK Flexibility Score: inf
ROOT
ATOM      1  C   UNL     1      -5.169  -4.520 -10.097  1.00  0.00     0.165 A 
ATOM      2  C   UNL     1      -6.262  -3.629 -10.107  1.00  0.00     0.204 A 
ATOM      3  C   UNL     1      -6.042  -2.239 -10.097  1.00  0.00     0.205 A 
ATOM      4  C   UNL     1      -4.735  -1.737 -10.078  1.00  0.00     0.184 A 
ATOM      5  C   UNL     1      -3.639  -2.625 -10.070  1.00  0.00     0.025 A 
ATOM      6  C   UNL     1      -3.858  -4.008 -10.079  1.00  0.00     0.062 A 
ATOM      7  C   UNL     1      -2.347  -2.090 -10.051  1.00  0.00     0.020 A 
ATOM      8  C   UNL     1      -2.178  -0.707 -10.043  1.00  0.00     0.094 A 
ATOM      9  C   UNL     1      -3.310   0.113 -10.053  1.00  0.00     0.336 A 
ATOM     10  O   UNL     1      -3.180   1.366 -10.045  1.00  0.00    -0.246 OA
ATOM     11  O   UNL     1      -4.529  -0.421 -10.070  1.00  0.00    -0.419 OA
ENDROOT
BRANCH   1  12
ATOM     12  O   UNL     1      -5.425  -5.902 -10.107  1.00  0.00    -0.493 OA
ATOM     13  C   UNL     1      -5.358  -6.745  -8.961  1.00  0.00     0.278 C 
ENDBRANCH   1  12
BRANCH   2  14
ATOM     14  O   UNL     1      -7.570  -4.113 -10.125  1.00  0.00    -0.502 OA
ATOM     15  H   UNL     1      -7.932  -4.728  -9.406  1.00  0.00     0.293 HD
ENDBRANCH   2  14
BRANCH   3  16
ATOM     16  O   UNL     1      -7.113  -1.345 -10.106  1.00  0.00    -0.502 OA
ATOM     17  H   UNL     1      -8.037  -1.611 -10.427  1.00  0.00     0.293 HD
ENDBRANCH   3  16
TORSDOF 3
ENDMDL
