MODEL 1
REMARK VINA RESULT:    -5.070      0.000      0.000
REMARK INTER + INTRA:         -10.192
REMARK INTER:                  -8.923
REMARK INTRA:                  -1.269
REMARK UNBOUND:                -1.269
REMARK SMILES CCCCCCCCCCCCCCC(=O)[O-]
REMARK SMILES IDX 9 1 10 2 11 3 12 4 13 5 14 6 15 7 16 8 17 9 8 10 7 11 6 12
REMARK SMILES IDX 5 13 4 14 3 15 2 16 1 17
REMARK H PARENT
REMARK Flexibility Score: inf
ROOT
ATOM      1  C   UNL     1      26.659  -4.469  30.617  1.00  0.00     0.000 C 
ENDROOT
BRANCH   1   2
ATOM      2  C   UNL     1      27.575  -3.256  30.417  1.00  0.00     0.000 C 
BRANCH   2   3
ATOM      3  C   UNL     1      26.769  -1.947  30.427  1.00  0.00     0.000 C 
BRANCH   3   4
ATOM      4  C   UNL     1      27.113  -1.039  29.226  1.00  0.00     0.000 C 
BRANCH   4   5
ATOM      5  C   UNL     1      28.603  -1.070  28.839  1.00  0.00     0.006 C 
BRANCH   5   6
ATOM      6  C   UNL     1      29.399   0.152  29.321  1.00  0.00     0.053 C 
BRANCH   6   7
ATOM      7  C   UNL     1      30.261  -0.174  30.503  1.00  0.00     0.041 C 
ATOM      8  O   UNL     1      31.510  -0.269  30.369  1.00  0.00    -0.550 OA
ATOM      9  O   UNL     1      29.691  -0.352  31.757  1.00  0.00    -0.550 OA
ENDBRANCH   6   7
ENDBRANCH   5   6
ENDBRANCH   4   5
ENDBRANCH   3   4
ENDBRANCH   2   3
ENDBRANCH   1   2
BRANCH   1  10
ATOM     10  C   UNL     1      27.253  -5.720  29.953  1.00  0.00     0.000 C 
BRANCH  10  11
ATOM     11  C   UNL     1      28.779  -5.636  29.790  1.00  0.00    -0.000 C 
BRANCH  11  12
ATOM     12  C   UNL     1      29.535  -6.422  30.872  1.00  0.00    -0.000 C 
BRANCH  12  13
ATOM     13  C   UNL     1      28.564  -7.218  31.751  1.00  0.00    -0.000 C 
BRANCH  13  14
ATOM     14  C   UNL     1      28.917  -8.710  31.754  1.00  0.00    -0.000 C 
BRANCH  14  15
ATOM     15  C   UNL     1      29.829  -9.061  30.570  1.00  0.00    -0.000 C 
BRANCH  15  16
ATOM     16  C   UNL     1      29.054  -9.644  29.379  1.00  0.00    -0.003 C 
ATOM     17  C   UNL     1      29.330  -8.901  28.072  1.00  0.00     0.004 C 
ENDBRANCH  15  16
ENDBRANCH  14  15
ENDBRANCH  13  14
ENDBRANCH  12  13
ENDBRANCH  11  12
ENDBRANCH  10  11
ENDBRANCH   1  10
TORSDOF 13
ENDMDL
MODEL 2
REMARK VINA RESULT:    -5.052      3.363      7.391
REMARK INTER + INTRA:         -10.160
REMARK INTER:                  -8.870
REMARK INTRA:                  -1.290
REMARK UNBOUND:                -1.269
REMARK SMILES CCCCCCCCCCCCCCC(=O)[O-]
REMARK SMILES IDX 9 1 10 2 11 3 12 4 13 5 14 6 15 7 16 8 17 9 8 10 7 11 6 12
REMARK SMILES IDX 5 13 4 14 3 15 2 16 1 17
REMARK H PARENT
REMARK Flexibility Score: inf
ROOT
ATOM      1  C   UNL     1      26.928  -4.223  30.930  1.00  0.00     0.000 C 
ENDROOT
BRANCH   1   2
ATOM      2  C   UNL     1      27.993  -5.324  30.862  1.00  0.00     0.000 C 
BRANCH   2   3
ATOM      3  C   UNL     1      27.628  -6.382  29.808  1.00  0.00     0.000 C 
BRANCH   3   4
ATOM      4  C   UNL     1      28.859  -6.858  29.006  1.00  0.00     0.000 C 
BRANCH   4   5
ATOM      5  C   UNL     1      29.046  -8.387  29.017  1.00  0.00     0.006 C 
BRANCH   5   6
ATOM      6  C   UNL     1      28.252  -9.105  30.119  1.00  0.00     0.053 C 
BRANCH   6   7
ATOM      7  C   UNL     1      29.092  -9.366  31.332  1.00  0.00     0.041 C 
ATOM      8  O   UNL     1      30.195  -9.963  31.221  1.00  0.00    -0.550 OA
ATOM      9  O   UNL     1      28.669  -8.933  32.583  1.00  0.00    -0.550 OA
ENDBRANCH   6   7
ENDBRANCH   5   6
ENDBRANCH   4   5
ENDBRANCH   3   4
ENDBRANCH   2   3
ENDBRANCH   1   2
BRANCH   1  10
ATOM     10  C   UNL     1      27.521  -2.861  30.540  1.00  0.00     0.000 C 
BRANCH  10  11
ATOM     11  C   UNL     1      28.955  -2.972  29.997  1.00  0.00    -0.000 C 
BRANCH  11  12
ATOM     12  C   UNL     1      29.820  -1.756  30.359  1.00  0.00    -0.000 C 
BRANCH  12  13
ATOM     13  C   UNL     1      29.120  -0.873  31.399  1.00  0.00    -0.000 C 
BRANCH  13  14
ATOM     14  C   UNL     1      29.202   0.608  31.011  1.00  0.00    -0.000 C 
BRANCH  14  15
ATOM     15  C   UNL     1      28.745   0.823  29.560  1.00  0.00    -0.000 C 
BRANCH  15  16
ATOM     16  C   UNL     1      27.219   0.949  29.433  1.00  0.00    -0.003 C 
ATOM     17  C   UNL     1      26.611  -0.118  28.523  1.00  0.00     0.004 C 
ENDBRANCH  15  16
ENDBRANCH  14  15
ENDBRANCH  13  14
ENDBRANCH  12  13
ENDBRANCH  11  12
ENDBRANCH  10  11
ENDBRANCH   1  10
TORSDOF 13
ENDMDL
MODEL 3
REMARK VINA RESULT:    -5.042      3.436      7.612
REMARK INTER + INTRA:         -10.142
REMARK INTER:                  -8.791
REMARK INTRA:                  -1.351
REMARK UNBOUND:                -1.269
REMARK SMILES CCCCCCCCCCCCCCC(=O)[O-]
REMARK SMILES IDX 9 1 10 2 11 3 12 4 13 5 14 6 15 7 16 8 17 9 8 10 7 11 6 12
REMARK SMILES IDX 5 13 4 14 3 15 2 16 1 17
REMARK H PARENT
REMARK Flexibility Score: inf
ROOT
ATOM      1  C   UNL     1      26.664  -4.154  30.620  1.00  0.00     0.000 C 
ENDROOT
BRANCH   1   2
ATOM      2  C   UNL     1      27.416  -5.396  30.128  1.00  0.00     0.000 C 
BRANCH   2   3
ATOM      3  C   UNL     1      28.927  -5.129  30.038  1.00  0.00     0.000 C 
BRANCH   3   4
ATOM      4  C   UNL     1      29.756  -6.198  30.783  1.00  0.00     0.000 C 
BRANCH   4   5
ATOM      5  C   UNL     1      28.945  -7.452  31.160  1.00  0.00     0.006 C 
BRANCH   5   6
ATOM      6  C   UNL     1      29.506  -8.757  30.576  1.00  0.00     0.053 C 
BRANCH   6   7
ATOM      7  C   UNL     1      28.828  -9.131  29.293  1.00  0.00     0.041 C 
ATOM      8  O   UNL     1      27.921 -10.003  29.287  1.00  0.00    -0.550 OA
ATOM      9  O   UNL     1      29.183  -8.501  28.106  1.00  0.00    -0.550 OA
ENDBRANCH   6   7
ENDBRANCH   5   6
ENDBRANCH   4   5
ENDBRANCH   3   4
ENDBRANCH   2   3
ENDBRANCH   1   2
BRANCH   1  10
ATOM     10  C   UNL     1      27.619  -2.962  30.781  1.00  0.00     0.000 C 
BRANCH  10  11
ATOM     11  C   UNL     1      27.416  -1.889  29.699  1.00  0.00    -0.000 C 
BRANCH  11  12
ATOM     12  C   UNL     1      28.727  -1.497  29.001  1.00  0.00    -0.000 C 
BRANCH  12  13
ATOM     13  C   UNL     1      29.845  -1.263  30.023  1.00  0.00    -0.000 C 
BRANCH  13  14
ATOM     14  C   UNL     1      30.120   0.235  30.208  1.00  0.00    -0.000 C 
BRANCH  14  15
ATOM     15  C   UNL     1      29.472   0.757  31.499  1.00  0.00    -0.000 C 
BRANCH  15  16
ATOM     16  C   UNL     1      28.309   1.725  31.227  1.00  0.00    -0.003 C 
ATOM     17  C   UNL     1      28.068   1.957  29.736  1.00  0.00     0.004 C 
ENDBRANCH  15  16
ENDBRANCH  14  15
ENDBRANCH  13  14
ENDBRANCH  12  13
ENDBRANCH  11  12
ENDBRANCH  10  11
ENDBRANCH   1  10
TORSDOF 13
ENDMDL
MODEL 4
REMARK VINA RESULT:    -5.021      1.231      2.213
REMARK INTER + INTRA:         -10.105
REMARK INTER:                  -8.741
REMARK INTRA:                  -1.364
REMARK UNBOUND:                -1.269
REMARK SMILES CCCCCCCCCCCCCCC(=O)[O-]
REMARK SMILES IDX 9 1 10 2 11 3 12 4 13 5 14 6 15 7 16 8 17 9 8 10 7 11 6 12
REMARK SMILES IDX 5 13 4 14 3 15 2 16 1 17
REMARK H PARENT
REMARK Flexibility Score: inf
ROOT
ATOM      1  C   UNL     1      28.031  -2.601  30.806  1.00  0.00     0.000 C 
ENDROOT
BRANCH   1   2
ATOM      2  C   UNL     1      26.867  -1.982  30.023  1.00  0.00     0.000 C 
BRANCH   2   3
ATOM      3  C   UNL     1      27.380  -1.037  28.925  1.00  0.00     0.000 C 
BRANCH   3   4
ATOM      4  C   UNL     1      27.044   0.442  29.221  1.00  0.00     0.000 C 
BRANCH   4   5
ATOM      5  C   UNL     1      28.279   1.296  29.562  1.00  0.00     0.006 C 
BRANCH   5   6
ATOM      6  C   UNL     1      28.641   1.304  31.055  1.00  0.00     0.053 C 
BRANCH   6   7
ATOM      7  C   UNL     1      29.866   0.489  31.337  1.00  0.00     0.041 C 
ATOM      8  O   UNL     1      30.139   0.145  32.517  1.00  0.00    -0.550 OA
ATOM      9  O   UNL     1      30.695   0.089  30.297  1.00  0.00    -0.550 OA
ENDBRANCH   6   7
ENDBRANCH   5   6
ENDBRANCH   4   5
ENDBRANCH   3   4
ENDBRANCH   2   3
ENDBRANCH   1   2
BRANCH   1  10
ATOM     10  C   UNL     1      29.158  -3.041  29.860  1.00  0.00     0.000 C 
BRANCH  10  11
ATOM     11  C   UNL     1      29.484  -4.538  29.983  1.00  0.00    -0.000 C 
BRANCH  11  12
ATOM     12  C   UNL     1      28.381  -5.327  30.705  1.00  0.00    -0.000 C 
BRANCH  12  13
ATOM     13  C   UNL     1      27.797  -6.414  29.795  1.00  0.00    -0.000 C 
BRANCH  13  14
ATOM     14  C   UNL     1      28.832  -6.889  28.768  1.00  0.00    -0.000 C 
BRANCH  14  15
ATOM     15  C   UNL     1      29.002  -8.414  28.824  1.00  0.00    -0.000 C 
BRANCH  15  16
ATOM     16  C   UNL     1      28.456  -9.022  30.125  1.00  0.00    -0.003 C 
ATOM     17  C   UNL     1      29.557  -9.357  31.131  1.00  0.00     0.004 C 
ENDBRANCH  15  16
ENDBRANCH  14  15
ENDBRANCH  13  14
ENDBRANCH  12  13
ENDBRANCH  11  12
ENDBRANCH  10  11
ENDBRANCH   1  10
TORSDOF 13
ENDMDL
MODEL 5
REMARK VINA RESULT:    -5.000      1.945      3.008
REMARK INTER + INTRA:         -10.069
REMARK INTER:                  -8.793
REMARK INTRA:                  -1.277
REMARK UNBOUND:                -1.269
REMARK SMILES CCCCCCCCCCCCCCC(=O)[O-]
REMARK SMILES IDX 9 1 10 2 11 3 12 4 13 5 14 6 15 7 16 8 17 9 8 10 7 11 6 12
REMARK SMILES IDX 5 13 4 14 3 15 2 16 1 17
REMARK H PARENT
REMARK Flexibility Score: inf
ROOT
ATOM      1  C   UNL     1      30.565  -4.634  30.330  1.00  0.00     0.000 C 
ENDROOT
BRANCH   1   2
ATOM      2  C   UNL     1      29.514  -3.767  29.625  1.00  0.00     0.000 C 
BRANCH   2   3
ATOM      3  C   UNL     1      29.318  -2.431  30.359  1.00  0.00     0.000 C 
BRANCH   3   4
ATOM      4  C   UNL     1      27.893  -2.283  30.936  1.00  0.00     0.000 C 
BRANCH   4   5
ATOM      5  C   UNL     1      27.609  -0.887  31.521  1.00  0.00     0.006 C 
BRANCH   5   6
ATOM      6  C   UNL     1      26.577  -0.074  30.724  1.00  0.00     0.053 C 
BRANCH   6   7
ATOM      7  C   UNL     1      27.091   0.308  29.370  1.00  0.00     0.041 C 
ATOM      8  O   UNL     1      26.458  -0.028  28.335  1.00  0.00    -0.550 OA
ATOM      9  O   UNL     1      28.258   1.052  29.249  1.00  0.00    -0.550 OA
ENDBRANCH   6   7
ENDBRANCH   5   6
ENDBRANCH   4   5
ENDBRANCH   3   4
ENDBRANCH   2   3
ENDBRANCH   1   2
BRANCH   1  10
ATOM     10  C   UNL     1      29.969  -5.986  30.748  1.00  0.00     0.000 C 
BRANCH  10  11
ATOM     11  C   UNL     1      28.433  -5.964  30.810  1.00  0.00    -0.000 C 
BRANCH  11  12
ATOM     12  C   UNL     1      27.783  -6.757  29.667  1.00  0.00    -0.000 C 
BRANCH  12  13
ATOM     13  C   UNL     1      28.757  -7.794  29.095  1.00  0.00    -0.000 C 
BRANCH  13  14
ATOM     14  C   UNL     1      28.407  -9.207  29.577  1.00  0.00    -0.000 C 
BRANCH  14  15
ATOM     15  C   UNL     1      29.660  -9.946  30.068  1.00  0.00    -0.000 C 
BRANCH  15  16
ATOM     16  C   UNL     1      29.876  -9.802  31.583  1.00  0.00    -0.003 C 
ATOM     17  C   UNL     1      28.595  -9.436  32.332  1.00  0.00     0.004 C 
ENDBRANCH  15  16
ENDBRANCH  14  15
ENDBRANCH  13  14
ENDBRANCH  12  13
ENDBRANCH  11  12
ENDBRANCH  10  11
ENDBRANCH   1  10
TORSDOF 13
ENDMDL
MODEL 6
REMARK VINA RESULT:    -4.970      5.517      7.923
REMARK INTER + INTRA:         -10.016
REMARK INTER:                  -8.523
REMARK INTRA:                  -1.493
REMARK UNBOUND:                -1.269
REMARK SMILES CCCCCCCCCCCCCCC(=O)[O-]
REMARK SMILES IDX 9 1 10 2 11 3 12 4 13 5 14 6 15 7 16 8 17 9 8 10 7 11 6 12
REMARK SMILES IDX 5 13 4 14 3 15 2 16 1 17
REMARK H PARENT
REMARK Flexibility Score: inf
ROOT
ATOM      1  C   UNL     1      28.273   2.466  31.290  1.00  0.00     0.000 C 
ENDROOT
BRANCH   1   2
ATOM      2  C   UNL     1      28.004   2.809  29.820  1.00  0.00     0.000 C 
BRANCH   2   3
ATOM      3  C   UNL     1      27.565   4.274  29.665  1.00  0.00     0.000 C 
BRANCH   3   4
ATOM      4  C   UNL     1      28.335   5.219  30.613  1.00  0.00     0.000 C 
BRANCH   4   5
ATOM      5  C   UNL     1      28.327   6.689  30.154  1.00  0.00     0.006 C 
BRANCH   5   6
ATOM      6  C   UNL     1      27.063   7.463  30.559  1.00  0.00     0.053 C 
BRANCH   6   7
ATOM      7  C   UNL     1      27.241   8.943  30.403  1.00  0.00     0.041 C 
ATOM      8  O   UNL     1      26.275   9.722  30.619  1.00  0.00    -0.550 OA
ATOM      9  O   UNL     1      28.476   9.465  30.039  1.00  0.00    -0.550 OA
ENDBRANCH   6   7
ENDBRANCH   5   6
ENDBRANCH   4   5
ENDBRANCH   3   4
ENDBRANCH   2   3
ENDBRANCH   1   2
BRANCH   1  10
ATOM     10  C   UNL     1      29.166   1.222  31.409  1.00  0.00     0.000 C 
BRANCH  10  11
ATOM     11  C   UNL     1      29.689   0.736  30.048  1.00  0.00    -0.000 C 
BRANCH  11  12
ATOM     12  C   UNL     1      30.263  -0.687  30.109  1.00  0.00    -0.000 C 
BRANCH  12  13
ATOM     13  C   UNL     1      29.296  -1.639  30.823  1.00  0.00    -0.000 C 
BRANCH  13  14
ATOM     14  C   UNL     1      28.103  -1.990  29.927  1.00  0.00    -0.000 C 
BRANCH  14  15
ATOM     15  C   UNL     1      26.777  -1.614  30.604  1.00  0.00    -0.000 C 
BRANCH  15  16
ATOM     16  C   UNL     1      26.087  -0.419  29.929  1.00  0.00    -0.003 C 
ATOM     17  C   UNL     1      26.525  -0.223  28.477  1.00  0.00     0.004 C 
ENDBRANCH  15  16
ENDBRANCH  14  15
ENDBRANCH  13  14
ENDBRANCH  12  13
ENDBRANCH  11  12
ENDBRANCH  10  11
ENDBRANCH   1  10
TORSDOF 13
ENDMDL
MODEL 7
REMARK VINA RESULT:    -4.948      3.535      7.615
REMARK INTER + INTRA:          -9.977
REMARK INTER:                  -8.598
REMARK INTRA:                  -1.379
REMARK UNBOUND:                -1.269
REMARK SMILES CCCCCCCCCCCCCCC(=O)[O-]
REMARK SMILES IDX 9 1 10 2 11 3 12 4 13 5 14 6 15 7 16 8 17 9 8 10 7 11 6 12
REMARK SMILES IDX 5 13 4 14 3 15 2 16 1 17
REMARK H PARENT
REMARK Flexibility Score: inf
ROOT
ATOM      1  C   UNL     1      29.077  -3.294  30.181  1.00  0.00     0.000 C 
ENDROOT
BRANCH   1   2
ATOM      2  C   UNL     1      29.492  -4.657  29.614  1.00  0.00     0.000 C 
BRANCH   2   3
ATOM      3  C   UNL     1      29.905  -5.621  30.738  1.00  0.00     0.000 C 
BRANCH   3   4
ATOM      4  C   UNL     1      28.804  -6.656  31.057  1.00  0.00     0.000 C 
BRANCH   4   5
ATOM      5  C   UNL     1      28.143  -7.256  29.801  1.00  0.00     0.006 C 
BRANCH   5   6
ATOM      6  C   UNL     1      28.925  -8.423  29.181  1.00  0.00     0.053 C 
BRANCH   6   7
ATOM      7  C   UNL     1      29.109  -9.550  30.151  1.00  0.00     0.041 C 
ATOM      8  O   UNL     1      30.265  -9.969  30.423  1.00  0.00    -0.550 OA
ATOM      9  O   UNL     1      28.007 -10.125  30.772  1.00  0.00    -0.550 OA
ENDBRANCH   6   7
ENDBRANCH   5   6
ENDBRANCH   4   5
ENDBRANCH   3   4
ENDBRANCH   2   3
ENDBRANCH   1   2
BRANCH   1  10
ATOM     10  C   UNL     1      27.557  -3.225  30.387  1.00  0.00     0.000 C 
BRANCH  10  11
ATOM     11  C   UNL     1      27.030  -1.782  30.434  1.00  0.00    -0.000 C 
BRANCH  11  12
ATOM     12  C   UNL     1      27.029  -1.107  29.054  1.00  0.00    -0.000 C 
BRANCH  12  13
ATOM     13  C   UNL     1      26.973   0.419  29.189  1.00  0.00    -0.000 C 
BRANCH  13  14
ATOM     14  C   UNL     1      28.063   0.931  30.138  1.00  0.00    -0.000 C 
BRANCH  14  15
ATOM     15  C   UNL     1      29.461   0.696  29.546  1.00  0.00    -0.000 C 
BRANCH  15  16
ATOM     16  C   UNL     1      30.413   0.003  30.533  1.00  0.00    -0.003 C 
ATOM     17  C   UNL     1      29.874  -0.012  31.964  1.00  0.00     0.004 C 
ENDBRANCH  15  16
ENDBRANCH  14  15
ENDBRANCH  13  14
ENDBRANCH  12  13
ENDBRANCH  11  12
ENDBRANCH  10  11
ENDBRANCH   1  10
TORSDOF 13
ENDMDL
MODEL 8
REMARK VINA RESULT:    -4.880      1.569      1.840
REMARK INTER + INTRA:          -9.858
REMARK INTER:                  -8.686
REMARK INTRA:                  -1.172
REMARK UNBOUND:                -1.269
REMARK SMILES CCCCCCCCCCCCCCC(=O)[O-]
REMARK SMILES IDX 9 1 10 2 11 3 12 4 13 5 14 6 15 7 16 8 17 9 8 10 7 11 6 12
REMARK SMILES IDX 5 13 4 14 3 15 2 16 1 17
REMARK H PARENT
REMARK Flexibility Score: inf
ROOT
ATOM      1  C   UNL     1      26.896  -4.075  30.383  1.00  0.00     0.000 C 
ENDROOT
BRANCH   1   2
ATOM      2  C   UNL     1      28.097  -3.176  30.696  1.00  0.00     0.000 C 
BRANCH   2   3
ATOM      3  C   UNL     1      27.640  -1.791  31.181  1.00  0.00     0.000 C 
BRANCH   3   4
ATOM      4  C   UNL     1      26.594  -1.156  30.239  1.00  0.00     0.000 C 
BRANCH   4   5
ATOM      5  C   UNL     1      27.205  -0.556  28.959  1.00  0.00     0.006 C 
BRANCH   5   6
ATOM      6  C   UNL     1      28.408   0.364  29.213  1.00  0.00     0.053 C 
BRANCH   6   7
ATOM      7  C   UNL     1      27.985   1.707  29.725  1.00  0.00     0.041 C 
ATOM      8  O   UNL     1      28.339   2.088  30.872  1.00  0.00    -0.550 OA
ATOM      9  O   UNL     1      27.217   2.549  28.930  1.00  0.00    -0.550 OA
ENDBRANCH   6   7
ENDBRANCH   5   6
ENDBRANCH   4   5
ENDBRANCH   3   4
ENDBRANCH   2   3
ENDBRANCH   1   2
BRANCH   1  10
ATOM     10  C   UNL     1      27.345  -5.521  30.123  1.00  0.00     0.000 C 
BRANCH  10  11
ATOM     11  C   UNL     1      28.840  -5.624  29.778  1.00  0.00    -0.000 C 
BRANCH  11  12
ATOM     12  C   UNL     1      29.610  -6.531  30.748  1.00  0.00    -0.000 C 
BRANCH  12  13
ATOM     13  C   UNL     1      28.662  -7.505  31.459  1.00  0.00    -0.000 C 
BRANCH  13  14
ATOM     14  C   UNL     1      29.206  -8.938  31.413  1.00  0.00    -0.000 C 
BRANCH  14  15
ATOM     15  C   UNL     1      28.469  -9.772  30.355  1.00  0.00    -0.000 C 
BRANCH  15  16
ATOM     16  C   UNL     1      29.329 -10.044  29.111  1.00  0.00    -0.003 C 
ATOM     17  C   UNL     1      29.230  -8.932  28.067  1.00  0.00     0.004 C 
ENDBRANCH  15  16
ENDBRANCH  14  15
ENDBRANCH  13  14
ENDBRANCH  12  13
ENDBRANCH  11  12
ENDBRANCH  10  11
ENDBRANCH   1  10
TORSDOF 13
ENDMDL
MODEL 9
REMARK VINA RESULT:    -4.850      1.758      2.567
REMARK INTER + INTRA:          -9.805
REMARK INTER:                  -8.811
REMARK INTRA:                  -0.994
REMARK UNBOUND:                -1.269
REMARK SMILES CCCCCCCCCCCCCCC(=O)[O-]
REMARK SMILES IDX 9 1 10 2 11 3 12 4 13 5 14 6 15 7 16 8 17 9 8 10 7 11 6 12
REMARK SMILES IDX 5 13 4 14 3 15 2 16 1 17
REMARK H PARENT
REMARK Flexibility Score: inf
ROOT
ATOM      1  C   UNL     1      29.120  -3.135  30.270  1.00  0.00     0.000 C 
ENDROOT
BRANCH   1   2
ATOM      2  C   UNL     1      29.645  -1.723  29.984  1.00  0.00     0.000 C 
BRANCH   2   3
ATOM      3  C   UNL     1      28.811  -1.035  28.892  1.00  0.00     0.000 C 
BRANCH   3   4
ATOM      4  C   UNL     1      27.308  -0.987  29.244  1.00  0.00     0.000 C 
BRANCH   4   5
ATOM      5  C   UNL     1      26.881   0.321  29.937  1.00  0.00     0.006 C 
BRANCH   5   6
ATOM      6  C   UNL     1      27.846   1.494  29.707  1.00  0.00     0.053 C 
BRANCH   6   7
ATOM      7  C   UNL     1      28.439   1.988  30.991  1.00  0.00     0.041 C 
ATOM      8  O   UNL     1      29.294   1.295  31.602  1.00  0.00    -0.550 OA
ATOM      9  O   UNL     1      28.064   3.224  31.504  1.00  0.00    -0.550 OA
ENDBRANCH   6   7
ENDBRANCH   5   6
ENDBRANCH   4   5
ENDBRANCH   3   4
ENDBRANCH   2   3
ENDBRANCH   1   2
BRANCH   1  10
ATOM     10  C   UNL     1      30.172  -4.195  29.911  1.00  0.00     0.000 C 
BRANCH  10  11
ATOM     11  C   UNL     1      29.961  -5.518  30.663  1.00  0.00    -0.000 C 
BRANCH  11  12
ATOM     12  C   UNL     1      28.476  -5.845  30.880  1.00  0.00    -0.000 C 
BRANCH  12  13
ATOM     13  C   UNL     1      27.929  -6.704  29.733  1.00  0.00    -0.000 C 
BRANCH  13  14
ATOM     14  C   UNL     1      28.827  -7.921  29.478  1.00  0.00    -0.000 C 
BRANCH  14  15
ATOM     15  C   UNL     1      28.056  -9.230  29.706  1.00  0.00    -0.000 C 
BRANCH  15  16
ATOM     16  C   UNL     1      28.712 -10.125  30.769  1.00  0.00    -0.003 C 
ATOM     17  C   UNL     1      29.199  -9.340  31.986  1.00  0.00     0.004 C 
ENDBRANCH  15  16
ENDBRANCH  14  15
ENDBRANCH  13  14
ENDBRANCH  12  13
ENDBRANCH  11  12
ENDBRANCH  10  11
ENDBRANCH   1  10
TORSDOF 13
ENDMDL
