MODEL 1
REMARK VINA RESULT:    -4.458      0.000      0.000
REMARK INTER + INTRA:          -7.427
REMARK INTER:                  -6.412
REMARK INTRA:                  -1.015
REMARK UNBOUND:                -1.015
REMARK SMILES O=C(CO)[C@H](O)[C@H](O)[C@@H](O)CO
REMARK SMILES IDX 7 1 9 2 11 3 12 4 10 6 5 8 2 9 1 10 3 11 4 12 6 14 8 16
REMARK H PARENT 12 5 10 7 4 13 6 15 8 17
REMARK Flexibility Score: inf
ROOT
ATOM      1  C   UNL     1      -2.994 -50.248  97.754  1.00  0.00     0.181 C 
ENDROOT
BRANCH   1   2
ATOM      2  C   UNL     1      -2.725 -50.923  96.377  1.00  0.00     0.171 C 
BRANCH   2   3
ATOM      3  C   UNL     1      -2.291 -49.921  95.288  1.00  0.00     0.190 C 
BRANCH   3   4
ATOM      4  O   UNL     1      -3.359 -49.081  94.943  1.00  0.00    -0.394 OA
ATOM      5  H   UNL     1      -4.145 -49.382  95.469  1.00  0.00     0.210 HD
ENDBRANCH   3   4
ENDBRANCH   2   3
BRANCH   2   6
ATOM      6  O   UNL     1      -3.872 -51.623  95.958  1.00  0.00    -0.388 OA
ATOM      7  H   UNL     1      -4.655 -51.213  96.411  1.00  0.00     0.211 HD
ENDBRANCH   2   6
ENDBRANCH   1   2
BRANCH   1   8
ATOM      8  C   UNL     1      -3.436 -51.219  98.889  1.00  0.00     0.214 C 
BRANCH   8   9
ATOM      9  C   UNL     1      -2.389 -52.266  99.226  1.00  0.00     0.189 C 
ATOM     10  O   UNL     1      -1.307 -51.904  99.665  1.00  0.00    -0.294 OA
BRANCH   9  11
ATOM     11  C   UNL     1      -2.661 -53.739  99.098  1.00  0.00     0.234 C 
BRANCH  11  12
ATOM     12  O   UNL     1      -3.020 -54.035  97.778  1.00  0.00    -0.388 OA
ATOM     13  H   UNL     1      -3.764 -54.691  97.836  1.00  0.00     0.211 HD
ENDBRANCH  11  12
ENDBRANCH   9  11
ENDBRANCH   8   9
BRANCH   8  14
ATOM     14  O   UNL     1      -4.675 -51.814  98.586  1.00  0.00    -0.382 OA
ATOM     15  H   UNL     1      -4.733 -52.681  99.065  1.00  0.00     0.211 HD
ENDBRANCH   8  14
ENDBRANCH   1   8
BRANCH   1  16
ATOM     16  O   UNL     1      -3.920 -49.199  97.609  1.00  0.00    -0.387 OA
ATOM     17  H   UNL     1      -4.831 -49.594  97.632  1.00  0.00     0.211 HD
ENDBRANCH   1  16
TORSDOF 10
ENDMDL
MODEL 2
REMARK VINA RESULT:    -4.310      0.957      1.692
REMARK INTER + INTRA:          -7.214
REMARK INTER:                  -6.505
REMARK INTRA:                  -0.710
REMARK UNBOUND:                -1.015
REMARK SMILES O=C(CO)[C@H](O)[C@H](O)[C@@H](O)CO
REMARK SMILES IDX 7 1 9 2 11 3 12 4 10 6 5 8 2 9 1 10 3 11 4 12 6 14 8 16
REMARK H PARENT 12 5 10 7 4 13 6 15 8 17
REMARK Flexibility Score: inf
ROOT
ATOM      1  C   UNL     1      -3.074 -51.037  97.942  1.00  0.00     0.181 C 
ENDROOT
BRANCH   1   2
ATOM      2  C   UNL     1      -2.970 -50.941  96.391  1.00  0.00     0.171 C 
BRANCH   2   3
ATOM      3  C   UNL     1      -3.148 -49.503  95.863  1.00  0.00     0.190 C 
BRANCH   3   4
ATOM      4  O   UNL     1      -4.225 -48.876  96.506  1.00  0.00    -0.394 OA
ATOM      5  H   UNL     1      -4.629 -48.252  95.848  1.00  0.00     0.210 HD
ENDBRANCH   3   4
ENDBRANCH   2   3
BRANCH   2   6
ATOM      6  O   UNL     1      -3.919 -51.793  95.797  1.00  0.00    -0.388 OA
ATOM      7  H   UNL     1      -4.424 -51.259  95.129  1.00  0.00     0.211 HD
ENDBRANCH   2   6
ENDBRANCH   1   2
BRANCH   1   8
ATOM      8  C   UNL     1      -1.937 -51.852  98.628  1.00  0.00     0.214 C 
BRANCH   8   9
ATOM      9  C   UNL     1      -2.432 -52.745  99.753  1.00  0.00     0.189 C 
ATOM     10  O   UNL     1      -2.744 -52.239 100.821  1.00  0.00    -0.294 OA
BRANCH   9  11
ATOM     11  C   UNL     1      -2.612 -54.227  99.576  1.00  0.00     0.234 C 
BRANCH  11  12
ATOM     12  O   UNL     1      -3.327 -54.474  98.398  1.00  0.00    -0.388 OA
ATOM     13  H   UNL     1      -2.884 -53.937  97.689  1.00  0.00     0.211 HD
ENDBRANCH  11  12
ENDBRANCH   9  11
ENDBRANCH   8   9
BRANCH   8  14
ATOM     14  O   UNL     1      -0.905 -51.002  99.067  1.00  0.00    -0.382 OA
ATOM     15  H   UNL     1      -0.067 -51.261  98.605  1.00  0.00     0.211 HD
ENDBRANCH   8  14
ENDBRANCH   1   8
BRANCH   1  16
ATOM     16  O   UNL     1      -4.336 -51.535  98.315  1.00  0.00    -0.387 OA
ATOM     17  H   UNL     1      -4.217 -52.480  98.597  1.00  0.00     0.211 HD
ENDBRANCH   1  16
TORSDOF 10
ENDMDL
MODEL 3
REMARK VINA RESULT:    -4.225      1.169      2.054
REMARK INTER + INTRA:          -7.092
REMARK INTER:                  -6.090
REMARK INTRA:                  -1.002
REMARK UNBOUND:                -1.015
REMARK SMILES O=C(CO)[C@H](O)[C@H](O)[C@@H](O)CO
REMARK SMILES IDX 7 1 9 2 11 3 12 4 10 6 5 8 2 9 1 10 3 11 4 12 6 14 8 16
REMARK H PARENT 12 5 10 7 4 13 6 15 8 17
REMARK Flexibility Score: inf
ROOT
ATOM      1  C   UNL     1      -3.285 -50.800  98.197  1.00  0.00     0.181 C 
ENDROOT
BRANCH   1   2
ATOM      2  C   UNL     1      -3.175 -50.184  96.771  1.00  0.00     0.171 C 
BRANCH   2   3
ATOM      3  C   UNL     1      -2.899 -51.237  95.679  1.00  0.00     0.190 C 
BRANCH   3   4
ATOM      4  O   UNL     1      -4.027 -52.048  95.486  1.00  0.00    -0.394 OA
ATOM      5  H   UNL     1      -4.787 -51.442  95.288  1.00  0.00     0.210 HD
ENDBRANCH   3   4
ENDBRANCH   2   3
BRANCH   2   6
ATOM      6  O   UNL     1      -2.170 -49.199  96.754  1.00  0.00    -0.388 OA
ATOM      7  H   UNL     1      -1.294 -49.665  96.728  1.00  0.00     0.211 HD
ENDBRANCH   2   6
ENDBRANCH   1   2
BRANCH   1   8
ATOM      8  C   UNL     1      -2.071 -51.674  98.632  1.00  0.00     0.214 C 
BRANCH   8   9
ATOM      9  C   UNL     1      -2.391 -52.621  99.776  1.00  0.00     0.189 C 
ATOM     10  O   UNL     1      -2.625 -52.157 100.882  1.00  0.00    -0.294 OA
BRANCH   9  11
ATOM     11  C   UNL     1      -2.492 -54.108  99.579  1.00  0.00     0.234 C 
BRANCH  11  12
ATOM     12  O   UNL     1      -3.251 -54.377  98.433  1.00  0.00    -0.388 OA
ATOM     13  H   UNL     1      -3.151 -53.584  97.845  1.00  0.00     0.211 HD
ENDBRANCH  11  12
ENDBRANCH   9  11
ENDBRANCH   8   9
BRANCH   8  14
ATOM     14  O   UNL     1      -0.954 -50.871  98.929  1.00  0.00    -0.382 OA
ATOM     15  H   UNL     1      -0.148 -51.299  98.542  1.00  0.00     0.211 HD
ENDBRANCH   8  14
ENDBRANCH   1   8
BRANCH   1  16
ATOM     16  O   UNL     1      -4.486 -51.521  98.324  1.00  0.00    -0.387 OA
ATOM     17  H   UNL     1      -4.283 -52.479  98.159  1.00  0.00     0.211 HD
ENDBRANCH   1  16
TORSDOF 10
ENDMDL
MODEL 4
REMARK VINA RESULT:    -4.218      1.357      4.286
REMARK INTER + INTRA:          -7.082
REMARK INTER:                  -6.205
REMARK INTRA:                  -0.877
REMARK UNBOUND:                -1.015
REMARK SMILES O=C(CO)[C@H](O)[C@H](O)[C@@H](O)CO
REMARK SMILES IDX 7 1 9 2 11 3 12 4 10 6 5 8 2 9 1 10 3 11 4 12 6 14 8 16
REMARK H PARENT 12 5 10 7 4 13 6 15 8 17
REMARK Flexibility Score: inf
ROOT
ATOM      1  C   UNL     1      -2.420 -52.631  97.480  1.00  0.00     0.181 C 
ENDROOT
BRANCH   1   2
ATOM      2  C   UNL     1      -3.042 -51.911  98.713  1.00  0.00     0.171 C 
BRANCH   2   3
ATOM      3  C   UNL     1      -2.936 -52.737 100.011  1.00  0.00     0.190 C 
BRANCH   3   4
ATOM      4  O   UNL     1      -2.537 -51.921 101.078  1.00  0.00    -0.394 OA
ATOM      5  H   UNL     1      -1.817 -51.330 100.736  1.00  0.00     0.210 HD
ENDBRANCH   3   4
ENDBRANCH   2   3
BRANCH   2   6
ATOM      6  O   UNL     1      -4.388 -51.596  98.451  1.00  0.00    -0.388 OA
ATOM      7  H   UNL     1      -4.418 -51.104  97.589  1.00  0.00     0.211 HD
ENDBRANCH   2   6
ENDBRANCH   1   2
BRANCH   1   8
ATOM      8  C   UNL     1      -2.625 -51.903  96.119  1.00  0.00     0.214 C 
BRANCH   8   9
ATOM      9  C   UNL     1      -2.089 -50.481  96.111  1.00  0.00     0.189 C 
ATOM     10  O   UNL     1      -0.905 -50.291  96.348  1.00  0.00    -0.294 OA
BRANCH   9  11
ATOM     11  C   UNL     1      -2.954 -49.303  95.760  1.00  0.00     0.234 C 
BRANCH  11  12
ATOM     12  O   UNL     1      -4.024 -49.223  96.660  1.00  0.00    -0.388 OA
ATOM     13  H   UNL     1      -3.727 -49.694  97.482  1.00  0.00     0.211 HD
ENDBRANCH  11  12
ENDBRANCH   9  11
ENDBRANCH   8   9
BRANCH   8  14
ATOM     14  O   UNL     1      -3.976 -51.942  95.727  1.00  0.00    -0.382 OA
ATOM     15  H   UNL     1      -4.333 -52.847  95.919  1.00  0.00     0.211 HD
ENDBRANCH   8  14
ENDBRANCH   1   8
BRANCH   1  16
ATOM     16  O   UNL     1      -2.882 -53.958  97.408  1.00  0.00    -0.387 OA
ATOM     17  H   UNL     1      -2.844 -54.240  96.456  1.00  0.00     0.211 HD
ENDBRANCH   1  16
TORSDOF 10
ENDMDL
MODEL 5
REMARK VINA RESULT:    -4.217      1.405      2.224
REMARK INTER + INTRA:          -7.080
REMARK INTER:                  -6.411
REMARK INTRA:                  -0.669
REMARK UNBOUND:                -1.015
REMARK SMILES O=C(CO)[C@H](O)[C@H](O)[C@@H](O)CO
REMARK SMILES IDX 7 1 9 2 11 3 12 4 10 6 5 8 2 9 1 10 3 11 4 12 6 14 8 16
REMARK H PARENT 12 5 10 7 4 13 6 15 8 17
REMARK Flexibility Score: inf
ROOT
ATOM      1  C   UNL     1      -2.342 -52.029  97.330  1.00  0.00     0.181 C 
ENDROOT
BRANCH   1   2
ATOM      2  C   UNL     1      -2.869 -51.212  96.114  1.00  0.00     0.171 C 
BRANCH   2   3
ATOM      3  C   UNL     1      -2.873 -49.691  96.366  1.00  0.00     0.190 C 
BRANCH   3   4
ATOM      4  O   UNL     1      -4.180 -49.236  96.596  1.00  0.00    -0.394 OA
ATOM      5  H   UNL     1      -4.793 -49.932  96.241  1.00  0.00     0.210 HD
ENDBRANCH   3   4
ENDBRANCH   2   3
BRANCH   2   6
ATOM      6  O   UNL     1      -4.164 -51.647  95.774  1.00  0.00    -0.388 OA
ATOM      7  H   UNL     1      -4.632 -51.881  96.618  1.00  0.00     0.211 HD
ENDBRANCH   2   6
ENDBRANCH   1   2
BRANCH   1   8
ATOM      8  C   UNL     1      -3.072 -51.751  98.678  1.00  0.00     0.214 C 
BRANCH   8   9
ATOM      9  C   UNL     1      -2.684 -52.718  99.783  1.00  0.00     0.189 C 
ATOM     10  O   UNL     1      -2.155 -53.778  99.485  1.00  0.00    -0.294 OA
BRANCH   9  11
ATOM     11  C   UNL     1      -2.873 -52.387 101.237  1.00  0.00     0.234 C 
BRANCH  11  12
ATOM     12  O   UNL     1      -1.784 -51.633 101.690  1.00  0.00    -0.388 OA
ATOM     13  H   UNL     1      -2.152 -50.986 102.349  1.00  0.00     0.211 HD
ENDBRANCH  11  12
ENDBRANCH   9  11
ENDBRANCH   8   9
BRANCH   8  14
ATOM     14  O   UNL     1      -4.467 -51.715  98.495  1.00  0.00    -0.382 OA
ATOM     15  H   UNL     1      -4.895 -52.197  99.249  1.00  0.00     0.211 HD
ENDBRANCH   8  14
ENDBRANCH   1   8
BRANCH   1  16
ATOM     16  O   UNL     1      -0.953 -51.848  97.472  1.00  0.00    -0.387 OA
ATOM     17  H   UNL     1      -0.554 -52.731  97.689  1.00  0.00     0.211 HD
ENDBRANCH   1  16
TORSDOF 10
ENDMDL
MODEL 6
REMARK VINA RESULT:    -4.202      1.794      4.268
REMARK INTER + INTRA:          -7.059
REMARK INTER:                  -6.336
REMARK INTRA:                  -0.723
REMARK UNBOUND:                -1.015
REMARK SMILES O=C(CO)[C@H](O)[C@H](O)[C@@H](O)CO
REMARK SMILES IDX 7 1 9 2 11 3 12 4 10 6 5 8 2 9 1 10 3 11 4 12 6 14 8 16
REMARK H PARENT 12 5 10 7 4 13 6 15 8 17
REMARK Flexibility Score: inf
ROOT
ATOM      1  C   UNL     1      -2.382 -53.560  98.304  1.00  0.00     0.181 C 
ENDROOT
BRANCH   1   2
ATOM      2  C   UNL     1      -2.873 -52.187  98.849  1.00  0.00     0.171 C 
BRANCH   2   3
ATOM      3  C   UNL     1      -2.553 -51.982 100.344  1.00  0.00     0.190 C 
BRANCH   3   4
ATOM      4  O   UNL     1      -2.999 -53.080 101.094  1.00  0.00    -0.394 OA
ATOM      5  H   UNL     1      -3.848 -52.806 101.529  1.00  0.00     0.210 HD
ENDBRANCH   3   4
ENDBRANCH   2   3
BRANCH   2   6
ATOM      6  O   UNL     1      -4.256 -52.054  98.630  1.00  0.00    -0.388 OA
ATOM      7  H   UNL     1      -4.476 -52.545  97.796  1.00  0.00     0.211 HD
ENDBRANCH   2   6
ENDBRANCH   1   2
BRANCH   1   8
ATOM      8  C   UNL     1      -2.013 -53.574  96.791  1.00  0.00     0.214 C 
BRANCH   8   9
ATOM      9  C   UNL     1      -1.871 -52.184  96.194  1.00  0.00     0.189 C 
ATOM     10  O   UNL     1      -0.889 -51.514  96.477  1.00  0.00    -0.294 OA
BRANCH   9  11
ATOM     11  C   UNL     1      -2.868 -51.629  95.215  1.00  0.00     0.234 C 
BRANCH  11  12
ATOM     12  O   UNL     1      -4.166 -51.884  95.675  1.00  0.00    -0.388 OA
ATOM     13  H   UNL     1      -4.558 -50.998  95.897  1.00  0.00     0.211 HD
ENDBRANCH  11  12
ENDBRANCH   9  11
ENDBRANCH   8   9
BRANCH   8  14
ATOM     14  O   UNL     1      -2.926 -54.355  96.058  1.00  0.00    -0.382 OA
ATOM     15  H   UNL     1      -3.690 -53.781  95.795  1.00  0.00     0.211 HD
ENDBRANCH   8  14
ENDBRANCH   1   8
BRANCH   1  16
ATOM     16  O   UNL     1      -3.326 -54.563  98.594  1.00  0.00    -0.387 OA
ATOM     17  H   UNL     1      -2.846 -55.433  98.615  1.00  0.00     0.211 HD
ENDBRANCH   1  16
TORSDOF 10
ENDMDL
MODEL 7
REMARK VINA RESULT:    -4.102      1.485      2.382
REMARK INTER + INTRA:          -6.916
REMARK INTER:                  -5.681
REMARK INTRA:                  -1.235
REMARK UNBOUND:                -1.015
REMARK SMILES O=C(CO)[C@H](O)[C@H](O)[C@@H](O)CO
REMARK SMILES IDX 7 1 9 2 11 3 12 4 10 6 5 8 2 9 1 10 3 11 4 12 6 14 8 16
REMARK H PARENT 12 5 10 7 4 13 6 15 8 17
REMARK Flexibility Score: inf
ROOT
ATOM      1  C   UNL     1      -1.670 -51.307  96.570  1.00  0.00     0.181 C 
ENDROOT
BRANCH   1   2
ATOM      2  C   UNL     1      -2.978 -50.649  96.041  1.00  0.00     0.171 C 
BRANCH   2   3
ATOM      3  C   UNL     1      -3.356 -49.361  96.801  1.00  0.00     0.190 C 
BRANCH   3   4
ATOM      4  O   UNL     1      -3.967 -49.677  98.023  1.00  0.00    -0.394 OA
ATOM      5  H   UNL     1      -3.242 -49.755  98.696  1.00  0.00     0.210 HD
ENDBRANCH   3   4
ENDBRANCH   2   3
BRANCH   2   6
ATOM      6  O   UNL     1      -4.037 -51.574  96.105  1.00  0.00    -0.388 OA
ATOM      7  H   UNL     1      -4.127 -51.988  95.207  1.00  0.00     0.211 HD
ENDBRANCH   2   6
ENDBRANCH   1   2
BRANCH   1   8
ATOM      8  C   UNL     1      -1.819 -52.787  97.033  1.00  0.00     0.214 C 
BRANCH   8   9
ATOM      9  C   UNL     1      -1.663 -52.967  98.533  1.00  0.00     0.189 C 
ATOM     10  O   UNL     1      -0.545 -52.921  99.024  1.00  0.00    -0.294 OA
BRANCH   9  11
ATOM     11  C   UNL     1      -2.847 -53.136  99.445  1.00  0.00     0.234 C 
BRANCH  11  12
ATOM     12  O   UNL     1      -3.920 -52.375  98.964  1.00  0.00    -0.388 OA
ATOM     13  H   UNL     1      -3.753 -52.246  97.994  1.00  0.00     0.211 HD
ENDBRANCH  11  12
ENDBRANCH   9  11
ENDBRANCH   8   9
BRANCH   8  14
ATOM     14  O   UNL     1      -0.939 -53.626  96.324  1.00  0.00    -0.382 OA
ATOM     15  H   UNL     1      -0.543 -54.275  96.960  1.00  0.00     0.211 HD
ENDBRANCH   8  14
ENDBRANCH   1   8
BRANCH   1  16
ATOM     16  O   UNL     1      -1.110 -50.521  97.594  1.00  0.00    -0.387 OA
ATOM     17  H   UNL     1      -1.762 -49.806  97.818  1.00  0.00     0.211 HD
ENDBRANCH   1  16
TORSDOF 10
ENDMDL
MODEL 8
REMARK VINA RESULT:    -4.095      1.310      3.847
REMARK INTER + INTRA:          -6.905
REMARK INTER:                  -5.632
REMARK INTRA:                  -1.273
REMARK UNBOUND:                -1.015
REMARK SMILES O=C(CO)[C@H](O)[C@H](O)[C@@H](O)CO
REMARK SMILES IDX 7 1 9 2 11 3 12 4 10 6 5 8 2 9 1 10 3 11 4 12 6 14 8 16
REMARK H PARENT 12 5 10 7 4 13 6 15 8 17
REMARK Flexibility Score: inf
ROOT
ATOM      1  C   UNL     1      -2.096 -51.009  98.272  1.00  0.00     0.181 C 
ENDROOT
BRANCH   1   2
ATOM      2  C   UNL     1      -3.142 -51.883  99.024  1.00  0.00     0.171 C 
BRANCH   2   3
ATOM      3  C   UNL     1      -2.775 -53.381  99.044  1.00  0.00     0.190 C 
BRANCH   3   4
ATOM      4  O   UNL     1      -2.915 -53.936  97.764  1.00  0.00    -0.394 OA
ATOM      5  H   UNL     1      -3.888 -54.041  97.600  1.00  0.00     0.210 HD
ENDBRANCH   3   4
ENDBRANCH   2   3
BRANCH   2   6
ATOM      6  O   UNL     1      -4.413 -51.707  98.447  1.00  0.00    -0.388 OA
ATOM      7  H   UNL     1      -4.428 -50.809  98.024  1.00  0.00     0.211 HD
ENDBRANCH   2   6
ENDBRANCH   1   2
BRANCH   1   8
ATOM      8  C   UNL     1      -2.646 -50.246  97.030  1.00  0.00     0.214 C 
BRANCH   8   9
ATOM      9  C   UNL     1      -2.153 -50.812  95.709  1.00  0.00     0.189 C 
ATOM     10  O   UNL     1      -1.050 -50.484  95.298  1.00  0.00    -0.294 OA
BRANCH   9  11
ATOM     11  C   UNL     1      -2.951 -51.812  94.920  1.00  0.00     0.234 C 
BRANCH  11  12
ATOM     12  O   UNL     1      -4.149 -52.088  95.592  1.00  0.00    -0.388 OA
ATOM     13  H   UNL     1      -4.395 -53.018  95.343  1.00  0.00     0.211 HD
ENDBRANCH  11  12
ENDBRANCH   9  11
ENDBRANCH   8   9
BRANCH   8  14
ATOM     14  O   UNL     1      -2.379 -48.868  97.128  1.00  0.00    -0.382 OA
ATOM     15  H   UNL     1      -3.178 -48.419  97.507  1.00  0.00     0.211 HD
ENDBRANCH   8  14
ENDBRANCH   1   8
BRANCH   1  16
ATOM     16  O   UNL     1      -0.976 -51.786  97.921  1.00  0.00    -0.387 OA
ATOM     17  H   UNL     1      -1.232 -52.742  98.007  1.00  0.00     0.211 HD
ENDBRANCH   1  16
TORSDOF 10
ENDMDL
MODEL 9
REMARK VINA RESULT:    -4.057      1.154      4.345
REMARK INTER + INTRA:          -6.851
REMARK INTER:                  -5.814
REMARK INTRA:                  -1.037
REMARK UNBOUND:                -1.015
REMARK SMILES O=C(CO)[C@H](O)[C@H](O)[C@@H](O)CO
REMARK SMILES IDX 7 1 9 2 11 3 12 4 10 6 5 8 2 9 1 10 3 11 4 12 6 14 8 16
REMARK H PARENT 12 5 10 7 4 13 6 15 8 17
REMARK Flexibility Score: inf
ROOT
ATOM      1  C   UNL     1      -2.833 -51.407  99.024  1.00  0.00     0.181 C 
ENDROOT
BRANCH   1   2
ATOM      2  C   UNL     1      -3.373 -52.774  99.537  1.00  0.00     0.171 C 
BRANCH   2   3
ATOM      3  C   UNL     1      -2.894 -53.116 100.962  1.00  0.00     0.190 C 
BRANCH   3   4
ATOM      4  O   UNL     1      -2.462 -51.957 101.623  1.00  0.00    -0.394 OA
ATOM      5  H   UNL     1      -2.280 -52.214 102.565  1.00  0.00     0.210 HD
ENDBRANCH   3   4
ENDBRANCH   2   3
BRANCH   2   6
ATOM      6  O   UNL     1      -3.002 -53.798  98.645  1.00  0.00    -0.388 OA
ATOM      7  H   UNL     1      -3.772 -54.419  98.566  1.00  0.00     0.211 HD
ENDBRANCH   2   6
ENDBRANCH   1   2
BRANCH   1   8
ATOM      8  C   UNL     1      -3.531 -50.861  97.743  1.00  0.00     0.214 C 
BRANCH   8   9
ATOM      9  C   UNL     1      -2.719 -51.076  96.477  1.00  0.00     0.189 C 
ATOM     10  O   UNL     1      -2.446 -52.217  96.133  1.00  0.00    -0.294 OA
BRANCH   9  11
ATOM     11  C   UNL     1      -2.293 -49.934  95.597  1.00  0.00     0.234 C 
BRANCH  11  12
ATOM     12  O   UNL     1      -3.425 -49.255  95.131  1.00  0.00    -0.388 OA
ATOM     13  H   UNL     1      -3.790 -49.806  94.390  1.00  0.00     0.211 HD
ENDBRANCH  11  12
ENDBRANCH   9  11
ENDBRANCH   8   9
BRANCH   8  14
ATOM     14  O   UNL     1      -3.884 -49.508  97.900  1.00  0.00    -0.382 OA
ATOM     15  H   UNL     1      -3.068 -48.996  98.133  1.00  0.00     0.211 HD
ENDBRANCH   8  14
ENDBRANCH   1   8
BRANCH   1  16
ATOM     16  O   UNL     1      -1.439 -51.473  98.839  1.00  0.00    -0.387 OA
ATOM     17  H   UNL     1      -1.215 -52.400  98.559  1.00  0.00     0.211 HD
ENDBRANCH   1  16
TORSDOF 10
ENDMDL
