MODEL 1
REMARK VINA RESULT:    -4.481      0.000      0.000
REMARK INTER + INTRA:         -14.928
REMARK INTER:                 -11.293
REMARK INTRA:                  -3.636
REMARK UNBOUND:                -3.636
REMARK SMILES CCCCCCCCCCCCCCCCCCCCCCCCCCCC(=O)[O-]
REMARK SMILES IDX 15 1 16 2 17 3 18 4 19 5 20 6 21 7 22 8 23 9 24 10 25 11
REMARK SMILES IDX 26 12 27 13 28 14 29 15 30 16 14 17 13 18 12 19 11 20 10 21
REMARK SMILES IDX 9 22 8 23 7 24 6 25 5 26 4 27 3 28 2 29 1 30
REMARK H PARENT
REMARK Flexibility Score: inf
ROOT
ATOM      1  C   UNL     1       8.463  19.081  72.051  1.00  0.00     0.000 C 
ENDROOT
BRANCH   1   2
ATOM      2  C   UNL     1       7.026  18.576  71.845  1.00  0.00     0.000 C 
BRANCH   2   3
ATOM      3  C   UNL     1       6.178  18.635  73.133  1.00  0.00     0.000 C 
BRANCH   3   4
ATOM      4  C   UNL     1       6.975  18.380  74.426  1.00  0.00     0.000 C 
BRANCH   4   5
ATOM      5  C   UNL     1       6.772  16.993  75.067  1.00  0.00     0.000 C 
BRANCH   5   6
ATOM      6  C   UNL     1       7.974  16.036  74.954  1.00  0.00     0.000 C 
BRANCH   6   7
ATOM      7  C   UNL     1       9.108  16.516  74.027  1.00  0.00     0.000 C 
BRANCH   7   8
ATOM      8  C   UNL     1      10.134  15.417  73.664  1.00  0.00     0.000 C 
BRANCH   8   9
ATOM      9  C   UNL     1      11.297  15.900  72.779  1.00  0.00     0.000 C 
BRANCH   9  10
ATOM     10  C   UNL     1      12.024  14.749  72.064  1.00  0.00     0.000 C 
BRANCH  10  11
ATOM     11  C   UNL     1      11.047  13.614  71.727  1.00  0.00     0.000 C 
BRANCH  11  12
ATOM     12  C   UNL     1      11.216  13.079  70.292  1.00  0.00     0.006 C 
BRANCH  12  13
ATOM     13  C   UNL     1       9.932  13.102  69.446  1.00  0.00     0.053 C 
BRANCH  13  14
ATOM     14  C   UNL     1       9.927  12.037  68.391  1.00  0.00     0.041 C 
ATOM     15  O   UNL     1       9.388  10.921  68.616  1.00  0.00    -0.550 OA
ATOM     16  O   UNL     1      10.506  12.284  67.152  1.00  0.00    -0.550 OA
ENDBRANCH  13  14
ENDBRANCH  12  13
ENDBRANCH  11  12
ENDBRANCH  10  11
ENDBRANCH   9  10
ENDBRANCH   8   9
ENDBRANCH   7   8
ENDBRANCH   6   7
ENDBRANCH   5   6
ENDBRANCH   4   5
ENDBRANCH   3   4
ENDBRANCH   2   3
ENDBRANCH   1   2
BRANCH   1  17
ATOM     17  C   UNL     1       9.268  18.988  70.746  1.00  0.00     0.000 C 
BRANCH  17  18
ATOM     18  C   UNL     1       9.870  17.592  70.515  1.00  0.00     0.000 C 
BRANCH  18  19
ATOM     19  C   UNL     1       9.043  16.667  69.597  1.00  0.00     0.000 C 
BRANCH  19  20
ATOM     20  C   UNL     1       9.697  16.327  68.246  1.00  0.00     0.000 C 
BRANCH  20  21
ATOM     21  C   UNL     1      10.578  17.467  67.702  1.00  0.00     0.000 C 
BRANCH  21  22
ATOM     22  C   UNL     1      11.883  16.954  67.068  1.00  0.00    -0.000 C 
BRANCH  22  23
ATOM     23  C   UNL     1      12.089  15.444  67.279  1.00  0.00    -0.000 C 
BRANCH  23  24
ATOM     24  C   UNL     1      13.304  15.126  68.173  1.00  0.00    -0.000 C 
BRANCH  24  25
ATOM     25  C   UNL     1      13.549  16.118  69.327  1.00  0.00    -0.000 C 
BRANCH  25  26
ATOM     26  C   UNL     1      14.655  15.654  70.291  1.00  0.00    -0.000 C 
BRANCH  26  27
ATOM     27  C   UNL     1      14.967  14.154  70.156  1.00  0.00    -0.000 C 
BRANCH  27  28
ATOM     28  C   UNL     1      16.470  13.844  70.271  1.00  0.00    -0.000 C 
BRANCH  28  29
ATOM     29  C   UNL     1      17.332  14.776  69.405  1.00  0.00    -0.003 C 
ATOM     30  C   UNL     1      18.831  14.546  69.594  1.00  0.00     0.004 C 
ENDBRANCH  28  29
ENDBRANCH  27  28
ENDBRANCH  26  27
ENDBRANCH  25  26
ENDBRANCH  24  25
ENDBRANCH  23  24
ENDBRANCH  22  23
ENDBRANCH  21  22
ENDBRANCH  20  21
ENDBRANCH  19  20
ENDBRANCH  18  19
ENDBRANCH  17  18
ENDBRANCH   1  17
TORSDOF 26
ENDMDL
MODEL 2
REMARK VINA RESULT:    -4.470      2.782      6.634
REMARK INTER + INTRA:         -14.900
REMARK INTER:                 -11.917
REMARK INTRA:                  -2.983
REMARK UNBOUND:                -3.636
REMARK SMILES CCCCCCCCCCCCCCCCCCCCCCCCCCCC(=O)[O-]
REMARK SMILES IDX 15 1 16 2 17 3 18 4 19 5 20 6 21 7 22 8 23 9 24 10 25 11
REMARK SMILES IDX 26 12 27 13 28 14 29 15 30 16 14 17 13 18 12 19 11 20 10 21
REMARK SMILES IDX 9 22 8 23 7 24 6 25 5 26 4 27 3 28 2 29 1 30
REMARK H PARENT
REMARK Flexibility Score: inf
ROOT
ATOM      1  C   UNL     1      14.636  15.379  68.897  1.00  0.00     0.000 C 
ENDROOT
BRANCH   1   2
ATOM      2  C   UNL     1      14.725  14.588  70.212  1.00  0.00     0.000 C 
BRANCH   2   3
ATOM      3  C   UNL     1      13.471  14.747  71.095  1.00  0.00     0.000 C 
BRANCH   3   4
ATOM      4  C   UNL     1      12.943  16.191  71.189  1.00  0.00     0.000 C 
BRANCH   4   5
ATOM      5  C   UNL     1      12.119  16.515  72.451  1.00  0.00     0.000 C 
BRANCH   5   6
ATOM      6  C   UNL     1      10.848  15.666  72.640  1.00  0.00     0.000 C 
BRANCH   6   7
ATOM      7  C   UNL     1       9.615  16.438  73.149  1.00  0.00     0.000 C 
BRANCH   7   8
ATOM      8  C   UNL     1       9.328  17.746  72.375  1.00  0.00     0.000 C 
BRANCH   8   9
ATOM      9  C   UNL     1       7.951  17.787  71.686  1.00  0.00     0.000 C 
BRANCH   9  10
ATOM     10  C   UNL     1       6.949  18.709  72.402  1.00  0.00     0.000 C 
BRANCH  10  11
ATOM     11  C   UNL     1       5.676  17.939  72.781  1.00  0.00     0.000 C 
BRANCH  11  12
ATOM     12  C   UNL     1       5.931  16.828  73.817  1.00  0.00     0.006 C 
BRANCH  12  13
ATOM     13  C   UNL     1       6.614  17.305  75.110  1.00  0.00     0.053 C 
BRANCH  13  14
ATOM     14  C   UNL     1       6.951  16.169  76.028  1.00  0.00     0.041 C 
ATOM     15  O   UNL     1       7.737  15.260  75.652  1.00  0.00    -0.550 OA
ATOM     16  O   UNL     1       6.407  16.124  77.306  1.00  0.00    -0.550 OA
ENDBRANCH  13  14
ENDBRANCH  12  13
ENDBRANCH  11  12
ENDBRANCH  10  11
ENDBRANCH   9  10
ENDBRANCH   8   9
ENDBRANCH   7   8
ENDBRANCH   6   7
ENDBRANCH   5   6
ENDBRANCH   4   5
ENDBRANCH   3   4
ENDBRANCH   2   3
ENDBRANCH   1   2
BRANCH   1  17
ATOM     17  C   UNL     1      13.519  14.827  68.000  1.00  0.00     0.000 C 
BRANCH  17  18
ATOM     18  C   UNL     1      13.187  15.755  66.819  1.00  0.00     0.000 C 
BRANCH  18  19
ATOM     19  C   UNL     1      11.746  16.304  66.805  1.00  0.00     0.000 C 
BRANCH  19  20
ATOM     20  C   UNL     1      11.609  17.800  67.145  1.00  0.00     0.000 C 
BRANCH  20  21
ATOM     21  C   UNL     1      10.691  18.059  68.352  1.00  0.00     0.000 C 
BRANCH  21  22
ATOM     22  C   UNL     1      10.408  16.784  69.164  1.00  0.00    -0.000 C 
BRANCH  22  23
ATOM     23  C   UNL     1       9.114  16.077  68.723  1.00  0.00    -0.000 C 
BRANCH  23  24
ATOM     24  C   UNL     1       9.257  14.543  68.683  1.00  0.00    -0.000 C 
BRANCH  24  25
ATOM     25  C   UNL     1      10.299  13.953  69.652  1.00  0.00    -0.000 C 
BRANCH  25  26
ATOM     26  C   UNL     1      11.267  12.971  68.967  1.00  0.00    -0.000 C 
BRANCH  26  27
ATOM     27  C   UNL     1      10.575  12.109  67.897  1.00  0.00    -0.000 C 
BRANCH  27  28
ATOM     28  C   UNL     1       9.256  11.490  68.391  1.00  0.00    -0.000 C 
BRANCH  28  29
ATOM     29  C   UNL     1       9.354   9.968  68.584  1.00  0.00    -0.003 C 
ATOM     30  C   UNL     1       8.059   9.239  68.229  1.00  0.00     0.004 C 
ENDBRANCH  28  29
ENDBRANCH  27  28
ENDBRANCH  26  27
ENDBRANCH  25  26
ENDBRANCH  24  25
ENDBRANCH  23  24
ENDBRANCH  22  23
ENDBRANCH  21  22
ENDBRANCH  20  21
ENDBRANCH  19  20
ENDBRANCH  18  19
ENDBRANCH  17  18
ENDBRANCH   1  17
TORSDOF 26
ENDMDL
MODEL 3
REMARK VINA RESULT:    -4.292      1.193      2.969
REMARK INTER + INTRA:         -14.452
REMARK INTER:                 -10.269
REMARK INTRA:                  -4.183
REMARK UNBOUND:                -3.636
REMARK SMILES CCCCCCCCCCCCCCCCCCCCCCCCCCCC(=O)[O-]
REMARK SMILES IDX 15 1 16 2 17 3 18 4 19 5 20 6 21 7 22 8 23 9 24 10 25 11
REMARK SMILES IDX 26 12 27 13 28 14 29 15 30 16 14 17 13 18 12 19 11 20 10 21
REMARK SMILES IDX 9 22 8 23 7 24 6 25 5 26 4 27 3 28 2 29 1 30
REMARK H PARENT
REMARK Flexibility Score: inf
ROOT
ATOM      1  C   UNL     1      12.553  16.484  72.223  1.00  0.00     0.000 C 
ENDROOT
BRANCH   1   2
ATOM      2  C   UNL     1      11.633  15.296  71.899  1.00  0.00     0.000 C 
BRANCH   2   3
ATOM      3  C   UNL     1      10.556  15.057  72.977  1.00  0.00     0.000 C 
BRANCH   3   4
ATOM      4  C   UNL     1      10.059  16.341  73.668  1.00  0.00     0.000 C 
BRANCH   4   5
ATOM      5  C   UNL     1       8.719  16.214  74.418  1.00  0.00     0.000 C 
BRANCH   5   6
ATOM      6  C   UNL     1       7.593  17.135  73.912  1.00  0.00     0.000 C 
BRANCH   6   7
ATOM      7  C   UNL     1       8.052  18.526  73.433  1.00  0.00     0.000 C 
BRANCH   7   8
ATOM      8  C   UNL     1       8.316  18.613  71.911  1.00  0.00     0.000 C 
BRANCH   8   9
ATOM      9  C   UNL     1       7.826  17.392  71.110  1.00  0.00     0.000 C 
BRANCH   9  10
ATOM     10  C   UNL     1       8.898  16.828  70.162  1.00  0.00     0.000 C 
BRANCH  10  11
ATOM     11  C   UNL     1       8.283  15.814  69.187  1.00  0.00     0.000 C 
BRANCH  11  12
ATOM     12  C   UNL     1       9.341  14.970  68.451  1.00  0.00     0.006 C 
BRANCH  12  13
ATOM     13  C   UNL     1       9.855  13.757  69.244  1.00  0.00     0.053 C 
BRANCH  13  14
ATOM     14  C   UNL     1       9.959  12.526  68.396  1.00  0.00     0.041 C 
ATOM     15  O   UNL     1      10.565  12.563  67.292  1.00  0.00    -0.550 OA
ATOM     16  O   UNL     1       9.398  11.331  68.832  1.00  0.00    -0.550 OA
ENDBRANCH  13  14
ENDBRANCH  12  13
ENDBRANCH  11  12
ENDBRANCH  10  11
ENDBRANCH   9  10
ENDBRANCH   8   9
ENDBRANCH   7   8
ENDBRANCH   6   7
ENDBRANCH   5   6
ENDBRANCH   4   5
ENDBRANCH   3   4
ENDBRANCH   2   3
ENDBRANCH   1   2
BRANCH   1  17
ATOM     17  C   UNL     1      12.893  17.276  70.952  1.00  0.00     0.000 C 
BRANCH  17  18
ATOM     18  C   UNL     1      11.664  17.535  70.063  1.00  0.00     0.000 C 
BRANCH  18  19
ATOM     19  C   UNL     1      11.526  18.982  69.547  1.00  0.00     0.000 C 
BRANCH  19  20
ATOM     20  C   UNL     1      11.158  19.115  68.057  1.00  0.00     0.000 C 
BRANCH  20  21
ATOM     21  C   UNL     1      11.065  17.757  67.339  1.00  0.00     0.000 C 
BRANCH  21  22
ATOM     22  C   UNL     1      12.038  17.648  66.153  1.00  0.00    -0.000 C 
BRANCH  22  23
ATOM     23  C   UNL     1      12.865  16.350  66.184  1.00  0.00    -0.000 C 
BRANCH  23  24
ATOM     24  C   UNL     1      12.620  15.516  67.456  1.00  0.00    -0.000 C 
BRANCH  24  25
ATOM     25  C   UNL     1      13.891  15.043  68.187  1.00  0.00    -0.000 C 
BRANCH  25  26
ATOM     26  C   UNL     1      13.627  13.871  69.151  1.00  0.00    -0.000 C 
BRANCH  26  27
ATOM     27  C   UNL     1      14.498  13.939  70.417  1.00  0.00    -0.000 C 
BRANCH  27  28
ATOM     28  C   UNL     1      15.791  14.748  70.210  1.00  0.00    -0.000 C 
BRANCH  28  29
ATOM     29  C   UNL     1      16.987  13.860  69.832  1.00  0.00    -0.003 C 
ATOM     30  C   UNL     1      18.257  14.662  69.552  1.00  0.00     0.004 C 
ENDBRANCH  28  29
ENDBRANCH  27  28
ENDBRANCH  26  27
ENDBRANCH  25  26
ENDBRANCH  24  25
ENDBRANCH  23  24
ENDBRANCH  22  23
ENDBRANCH  21  22
ENDBRANCH  20  21
ENDBRANCH  19  20
ENDBRANCH  18  19
ENDBRANCH  17  18
ENDBRANCH   1  17
TORSDOF 26
ENDMDL
MODEL 4
REMARK VINA RESULT:    -4.218      2.572      6.198
REMARK INTER + INTRA:         -14.265
REMARK INTER:                 -11.584
REMARK INTRA:                  -2.682
REMARK UNBOUND:                -3.636
REMARK SMILES CCCCCCCCCCCCCCCCCCCCCCCCCCCC(=O)[O-]
REMARK SMILES IDX 15 1 16 2 17 3 18 4 19 5 20 6 21 7 22 8 23 9 24 10 25 11
REMARK SMILES IDX 26 12 27 13 28 14 29 15 30 16 14 17 13 18 12 19 11 20 10 21
REMARK SMILES IDX 9 22 8 23 7 24 6 25 5 26 4 27 3 28 2 29 1 30
REMARK H PARENT
REMARK Flexibility Score: inf
ROOT
ATOM      1  C   UNL     1      10.551  14.273  67.853  1.00  0.00     0.000 C 
ENDROOT
BRANCH   1   2
ATOM      2  C   UNL     1      12.064  14.448  67.645  1.00  0.00     0.000 C 
BRANCH   2   3
ATOM      3  C   UNL     1      12.468  15.913  67.379  1.00  0.00     0.000 C 
BRANCH   3   4
ATOM      4  C   UNL     1      11.365  16.763  66.721  1.00  0.00     0.000 C 
BRANCH   4   5
ATOM      5  C   UNL     1      11.660  18.273  66.626  1.00  0.00     0.000 C 
BRANCH   5   6
ATOM      6  C   UNL     1      11.096  19.125  67.779  1.00  0.00     0.000 C 
BRANCH   6   7
ATOM      7  C   UNL     1      10.359  18.334  68.877  1.00  0.00     0.000 C 
BRANCH   7   8
ATOM      8  C   UNL     1      10.413  18.995  70.275  1.00  0.00     0.000 C 
BRANCH   8   9
ATOM      9  C   UNL     1       9.059  19.049  71.006  1.00  0.00     0.000 C 
BRANCH   9  10
ATOM     10  C   UNL     1       8.437  17.659  71.219  1.00  0.00     0.000 C 
BRANCH  10  11
ATOM     11  C   UNL     1       7.265  17.732  72.209  1.00  0.00     0.000 C 
BRANCH  11  12
ATOM     12  C   UNL     1       7.666  18.327  73.572  1.00  0.00     0.006 C 
BRANCH  12  13
ATOM     13  C   UNL     1       6.751  17.919  74.740  1.00  0.00     0.053 C 
BRANCH  13  14
ATOM     14  C   UNL     1       7.172  16.625  75.367  1.00  0.00     0.041 C 
ATOM     15  O   UNL     1       7.940  15.839  74.750  1.00  0.00    -0.550 OA
ATOM     16  O   UNL     1       6.729  16.293  76.642  1.00  0.00    -0.550 OA
ENDBRANCH  13  14
ENDBRANCH  12  13
ENDBRANCH  11  12
ENDBRANCH  10  11
ENDBRANCH   9  10
ENDBRANCH   8   9
ENDBRANCH   7   8
ENDBRANCH   6   7
ENDBRANCH   5   6
ENDBRANCH   4   5
ENDBRANCH   3   4
ENDBRANCH   2   3
ENDBRANCH   1   2
BRANCH   1  17
ATOM     17  C   UNL     1      10.226  12.852  68.339  1.00  0.00     0.000 C 
BRANCH  17  18
ATOM     18  C   UNL     1      10.764  12.567  69.751  1.00  0.00     0.000 C 
BRANCH  18  19
ATOM     19  C   UNL     1      11.073  13.819  70.598  1.00  0.00     0.000 C 
BRANCH  19  20
ATOM     20  C   UNL     1      11.244  13.565  72.107  1.00  0.00     0.000 C 
BRANCH  20  21
ATOM     21  C   UNL     1      10.746  14.737  72.972  1.00  0.00     0.000 C 
BRANCH  21  22
ATOM     22  C   UNL     1      11.083  16.108  72.362  1.00  0.00    -0.000 C 
BRANCH  22  23
ATOM     23  C   UNL     1      12.595  16.397  72.357  1.00  0.00    -0.000 C 
BRANCH  23  24
ATOM     24  C   UNL     1      13.082  17.006  71.028  1.00  0.00    -0.000 C 
BRANCH  24  25
ATOM     25  C   UNL     1      14.066  16.132  70.226  1.00  0.00    -0.000 C 
BRANCH  25  26
ATOM     26  C   UNL     1      14.212  14.711  70.800  1.00  0.00    -0.000 C 
BRANCH  26  27
ATOM     27  C   UNL     1      15.416  13.956  70.211  1.00  0.00    -0.000 C 
BRANCH  27  28
ATOM     28  C   UNL     1      16.635  14.865  69.979  1.00  0.00    -0.000 C 
BRANCH  28  29
ATOM     29  C   UNL     1      17.873  14.083  69.512  1.00  0.00    -0.003 C 
ATOM     30  C   UNL     1      19.171  14.874  69.672  1.00  0.00     0.004 C 
ENDBRANCH  28  29
ENDBRANCH  27  28
ENDBRANCH  26  27
ENDBRANCH  25  26
ENDBRANCH  24  25
ENDBRANCH  23  24
ENDBRANCH  22  23
ENDBRANCH  21  22
ENDBRANCH  20  21
ENDBRANCH  19  20
ENDBRANCH  18  19
ENDBRANCH  17  18
ENDBRANCH   1  17
TORSDOF 26
ENDMDL
MODEL 5
REMARK VINA RESULT:    -4.216      2.582      5.213
REMARK INTER + INTRA:         -14.259
REMARK INTER:                 -10.687
REMARK INTRA:                  -3.572
REMARK UNBOUND:                -3.636
REMARK SMILES CCCCCCCCCCCCCCCCCCCCCCCCCCCC(=O)[O-]
REMARK SMILES IDX 15 1 16 2 17 3 18 4 19 5 20 6 21 7 22 8 23 9 24 10 25 11
REMARK SMILES IDX 26 12 27 13 28 14 29 15 30 16 14 17 13 18 12 19 11 20 10 21
REMARK SMILES IDX 9 22 8 23 7 24 6 25 5 26 4 27 3 28 2 29 1 30
REMARK H PARENT
REMARK Flexibility Score: inf
ROOT
ATOM      1  C   UNL     1      10.228  12.748  69.490  1.00  0.00     0.000 C 
ENDROOT
BRANCH   1   2
ATOM      2  C   UNL     1      11.380  13.054  70.461  1.00  0.00     0.000 C 
BRANCH   2   3
ATOM      3  C   UNL     1      10.973  14.023  71.590  1.00  0.00     0.000 C 
BRANCH   3   4
ATOM      4  C   UNL     1      12.095  14.980  72.035  1.00  0.00     0.000 C 
BRANCH   4   5
ATOM      5  C   UNL     1      11.652  16.424  72.340  1.00  0.00     0.000 C 
BRANCH   5   6
ATOM      6  C   UNL     1      10.130  16.632  72.462  1.00  0.00     0.000 C 
BRANCH   6   7
ATOM      7  C   UNL     1       9.580  17.876  71.738  1.00  0.00     0.000 C 
BRANCH   7   8
ATOM      8  C   UNL     1       8.042  17.880  71.573  1.00  0.00     0.000 C 
BRANCH   8   9
ATOM      9  C   UNL     1       7.320  18.986  72.365  1.00  0.00     0.000 C 
BRANCH   9  10
ATOM     10  C   UNL     1       5.889  18.597  72.770  1.00  0.00     0.000 C 
BRANCH  10  11
ATOM     11  C   UNL     1       5.551  17.181  72.282  1.00  0.00     0.000 C 
BRANCH  11  12
ATOM     12  C   UNL     1       5.332  16.183  73.435  1.00  0.00     0.006 C 
BRANCH  12  13
ATOM     13  C   UNL     1       5.475  16.791  74.841  1.00  0.00     0.053 C 
BRANCH  13  14
ATOM     14  C   UNL     1       6.753  16.383  75.509  1.00  0.00     0.041 C 
ATOM     15  O   UNL     1       6.749  15.998  76.709  1.00  0.00    -0.550 OA
ATOM     16  O   UNL     1       7.949  16.412  74.800  1.00  0.00    -0.550 OA
ENDBRANCH  13  14
ENDBRANCH  12  13
ENDBRANCH  11  12
ENDBRANCH  10  11
ENDBRANCH   9  10
ENDBRANCH   8   9
ENDBRANCH   7   8
ENDBRANCH   6   7
ENDBRANCH   5   6
ENDBRANCH   4   5
ENDBRANCH   3   4
ENDBRANCH   2   3
ENDBRANCH   1   2
BRANCH   1  17
ATOM     17  C   UNL     1      10.082  13.863  68.444  1.00  0.00     0.000 C 
BRANCH  17  18
ATOM     18  C   UNL     1       8.931  14.833  68.763  1.00  0.00     0.000 C 
BRANCH  18  19
ATOM     19  C   UNL     1       9.203  16.309  68.405  1.00  0.00     0.000 C 
BRANCH  19  20
ATOM     20  C   UNL     1      10.569  16.854  68.859  1.00  0.00     0.000 C 
BRANCH  20  21
ATOM     21  C   UNL     1      11.002  18.111  68.082  1.00  0.00     0.000 C 
BRANCH  21  22
ATOM     22  C   UNL     1      11.854  17.778  66.846  1.00  0.00    -0.000 C 
BRANCH  22  23
ATOM     23  C   UNL     1      11.940  16.265  66.576  1.00  0.00    -0.000 C 
BRANCH  23  24
ATOM     24  C   UNL     1      13.355  15.698  66.797  1.00  0.00    -0.000 C 
BRANCH  24  25
ATOM     25  C   UNL     1      13.509  14.769  68.017  1.00  0.00    -0.000 C 
BRANCH  25  26
ATOM     26  C   UNL     1      13.908  15.524  69.298  1.00  0.00    -0.000 C 
BRANCH  26  27
ATOM     27  C   UNL     1      15.113  14.885  70.010  1.00  0.00    -0.000 C 
BRANCH  27  28
ATOM     28  C   UNL     1      16.462  15.352  69.435  1.00  0.00    -0.000 C 
BRANCH  28  29
ATOM     29  C   UNL     1      17.469  14.201  69.287  1.00  0.00    -0.003 C 
ATOM     30  C   UNL     1      18.877  14.580  69.746  1.00  0.00     0.004 C 
ENDBRANCH  28  29
ENDBRANCH  27  28
ENDBRANCH  26  27
ENDBRANCH  25  26
ENDBRANCH  24  25
ENDBRANCH  23  24
ENDBRANCH  22  23
ENDBRANCH  21  22
ENDBRANCH  20  21
ENDBRANCH  19  20
ENDBRANCH  18  19
ENDBRANCH  17  18
ENDBRANCH   1  17
TORSDOF 26
ENDMDL
MODEL 6
REMARK VINA RESULT:    -4.215      2.463      7.624
REMARK INTER + INTRA:         -14.258
REMARK INTER:                 -10.681
REMARK INTRA:                  -3.577
REMARK UNBOUND:                -3.636
REMARK SMILES CCCCCCCCCCCCCCCCCCCCCCCCCCCC(=O)[O-]
REMARK SMILES IDX 15 1 16 2 17 3 18 4 19 5 20 6 21 7 22 8 23 9 24 10 25 11
REMARK SMILES IDX 26 12 27 13 28 14 29 15 30 16 14 17 13 18 12 19 11 20 10 21
REMARK SMILES IDX 9 22 8 23 7 24 6 25 5 26 4 27 3 28 2 29 1 30
REMARK H PARENT
REMARK Flexibility Score: inf
ROOT
ATOM      1  C   UNL     1      11.497  13.240  70.493  1.00  0.00     0.000 C 
ENDROOT
BRANCH   1   2
ATOM      2  C   UNL     1      10.574  12.471  69.534  1.00  0.00     0.000 C 
BRANCH   2   3
ATOM      3  C   UNL     1       9.863  13.389  68.518  1.00  0.00     0.000 C 
BRANCH   3   4
ATOM      4  C   UNL     1       9.639  14.828  69.017  1.00  0.00     0.000 C 
BRANCH   4   5
ATOM      5  C   UNL     1       9.266  15.856  67.930  1.00  0.00     0.000 C 
BRANCH   5   6
ATOM      6  C   UNL     1      10.144  17.121  67.894  1.00  0.00     0.000 C 
BRANCH   6   7
ATOM      7  C   UNL     1      11.647  16.881  68.135  1.00  0.00     0.000 C 
BRANCH   7   8
ATOM      8  C   UNL     1      12.397  16.307  66.910  1.00  0.00     0.000 C 
BRANCH   8   9
ATOM      9  C   UNL     1      13.507  15.299  67.260  1.00  0.00     0.000 C 
BRANCH   9  10
ATOM     10  C   UNL     1      13.406  14.772  68.701  1.00  0.00     0.000 C 
BRANCH  10  11
ATOM     11  C   UNL     1      14.358  15.538  69.630  1.00  0.00     0.000 C 
BRANCH  11  12
ATOM     12  C   UNL     1      15.603  14.721  70.023  1.00  0.00     0.006 C 
BRANCH  12  13
ATOM     13  C   UNL     1      16.882  15.096  69.256  1.00  0.00     0.053 C 
BRANCH  13  14
ATOM     14  C   UNL     1      18.070  14.301  69.708  1.00  0.00     0.041 C 
ATOM     15  O   UNL     1      19.188  14.859  69.860  1.00  0.00    -0.550 OA
ATOM     16  O   UNL     1      17.936  12.944  69.977  1.00  0.00    -0.550 OA
ENDBRANCH  13  14
ENDBRANCH  12  13
ENDBRANCH  11  12
ENDBRANCH  10  11
ENDBRANCH   9  10
ENDBRANCH   8   9
ENDBRANCH   7   8
ENDBRANCH   6   7
ENDBRANCH   5   6
ENDBRANCH   4   5
ENDBRANCH   3   4
ENDBRANCH   2   3
ENDBRANCH   1   2
BRANCH   1  17
ATOM     17  C   UNL     1      10.951  13.201  71.928  1.00  0.00     0.000 C 
BRANCH  17  18
ATOM     18  C   UNL     1      10.915  14.588  72.591  1.00  0.00     0.000 C 
BRANCH  18  19
ATOM     19  C   UNL     1      12.105  15.507  72.247  1.00  0.00     0.000 C 
BRANCH  19  20
ATOM     20  C   UNL     1      11.728  16.872  71.642  1.00  0.00     0.000 C 
BRANCH  20  21
ATOM     21  C   UNL     1      10.214  17.147  71.679  1.00  0.00     0.000 C 
BRANCH  21  22
ATOM     22  C   UNL     1       9.833  18.455  70.966  1.00  0.00    -0.000 C 
BRANCH  22  23
ATOM     23  C   UNL     1       8.453  18.984  71.396  1.00  0.00    -0.000 C 
BRANCH  23  24
ATOM     24  C   UNL     1       7.476  17.857  71.783  1.00  0.00    -0.000 C 
BRANCH  24  25
ATOM     25  C   UNL     1       6.230  18.309  72.570  1.00  0.00    -0.000 C 
BRANCH  25  26
ATOM     26  C   UNL     1       6.367  18.088  74.087  1.00  0.00    -0.000 C 
BRANCH  26  27
ATOM     27  C   UNL     1       7.809  17.758  74.509  1.00  0.00    -0.000 C 
BRANCH  27  28
ATOM     28  C   UNL     1       7.943  16.357  75.131  1.00  0.00    -0.000 C 
BRANCH  28  29
ATOM     29  C   UNL     1       6.634  15.869  75.772  1.00  0.00    -0.003 C 
ATOM     30  C   UNL     1       6.584  16.111  77.280  1.00  0.00     0.004 C 
ENDBRANCH  28  29
ENDBRANCH  27  28
ENDBRANCH  26  27
ENDBRANCH  25  26
ENDBRANCH  24  25
ENDBRANCH  23  24
ENDBRANCH  22  23
ENDBRANCH  21  22
ENDBRANCH  20  21
ENDBRANCH  19  20
ENDBRANCH  18  19
ENDBRANCH  17  18
ENDBRANCH   1  17
TORSDOF 26
ENDMDL
MODEL 7
REMARK VINA RESULT:    -4.023      1.694      7.358
REMARK INTER + INTRA:         -13.772
REMARK INTER:                 -10.995
REMARK INTRA:                  -2.777
REMARK UNBOUND:                -3.636
REMARK SMILES CCCCCCCCCCCCCCCCCCCCCCCCCCCC(=O)[O-]
REMARK SMILES IDX 15 1 16 2 17 3 18 4 19 5 20 6 21 7 22 8 23 9 24 10 25 11
REMARK SMILES IDX 26 12 27 13 28 14 29 15 30 16 14 17 13 18 12 19 11 20 10 21
REMARK SMILES IDX 9 22 8 23 7 24 6 25 5 26 4 27 3 28 2 29 1 30
REMARK H PARENT
REMARK Flexibility Score: inf
ROOT
ATOM      1  C   UNL     1      13.387  13.376  69.363  1.00  0.00     0.000 C 
ENDROOT
BRANCH   1   2
ATOM      2  C   UNL     1      12.744  14.239  68.266  1.00  0.00     0.000 C 
BRANCH   2   3
ATOM      3  C   UNL     1      13.709  15.295  67.688  1.00  0.00     0.000 C 
BRANCH   3   4
ATOM      4  C   UNL     1      13.246  15.909  66.353  1.00  0.00     0.000 C 
BRANCH   4   5
ATOM      5  C   UNL     1      11.944  16.730  66.418  1.00  0.00     0.000 C 
BRANCH   5   6
ATOM      6  C   UNL     1      11.762  17.574  67.694  1.00  0.00     0.000 C 
BRANCH   6   7
ATOM      7  C   UNL     1      10.432  17.354  68.440  1.00  0.00     0.000 C 
BRANCH   7   8
ATOM      8  C   UNL     1       9.551  16.232  67.840  1.00  0.00     0.000 C 
BRANCH   8   9
ATOM      9  C   UNL     1       8.838  15.355  68.886  1.00  0.00     0.000 C 
BRANCH   9  10
ATOM     10  C   UNL     1       9.532  14.001  69.107  1.00  0.00     0.000 C 
BRANCH  10  11
ATOM     11  C   UNL     1      10.183  13.505  67.808  1.00  0.00     0.000 C 
BRANCH  11  12
ATOM     12  C   UNL     1      10.202  11.969  67.693  1.00  0.00     0.006 C 
BRANCH  12  13
ATOM     13  C   UNL     1       9.300  11.242  68.705  1.00  0.00     0.053 C 
BRANCH  13  14
ATOM     14  C   UNL     1       9.044   9.817  68.317  1.00  0.00     0.041 C 
ATOM     15  O   UNL     1      10.003   9.055  68.024  1.00  0.00    -0.550 OA
ATOM     16  O   UNL     1       7.744   9.326  68.295  1.00  0.00    -0.550 OA
ENDBRANCH  13  14
ENDBRANCH  12  13
ENDBRANCH  11  12
ENDBRANCH  10  11
ENDBRANCH   9  10
ENDBRANCH   8   9
ENDBRANCH   7   8
ENDBRANCH   6   7
ENDBRANCH   5   6
ENDBRANCH   4   5
ENDBRANCH   3   4
ENDBRANCH   2   3
ENDBRANCH   1   2
BRANCH   1  17
ATOM     17  C   UNL     1      14.697  14.006  69.858  1.00  0.00     0.000 C 
BRANCH  17  18
ATOM     18  C   UNL     1      14.491  14.950  71.054  1.00  0.00     0.000 C 
BRANCH  18  19
ATOM     19  C   UNL     1      14.279  16.433  70.687  1.00  0.00     0.000 C 
BRANCH  19  20
ATOM     20  C   UNL     1      12.901  17.011  71.058  1.00  0.00     0.000 C 
BRANCH  20  21
ATOM     21  C   UNL     1      12.221  16.250  72.211  1.00  0.00     0.000 C 
BRANCH  21  22
ATOM     22  C   UNL     1      10.735  15.966  71.937  1.00  0.00    -0.000 C 
BRANCH  22  23
ATOM     23  C   UNL     1       9.803  16.982  72.620  1.00  0.00    -0.000 C 
BRANCH  23  24
ATOM     24  C   UNL     1       9.029  17.854  71.613  1.00  0.00    -0.000 C 
BRANCH  24  25
ATOM     25  C   UNL     1       7.866  18.673  72.208  1.00  0.00    -0.000 C 
BRANCH  25  26
ATOM     26  C   UNL     1       6.531  17.906  72.207  1.00  0.00    -0.000 C 
BRANCH  26  27
ATOM     27  C   UNL     1       5.850  17.902  73.586  1.00  0.00    -0.000 C 
BRANCH  27  28
ATOM     28  C   UNL     1       5.993  16.557  74.319  1.00  0.00    -0.000 C 
BRANCH  28  29
ATOM     29  C   UNL     1       7.207  16.525  75.261  1.00  0.00    -0.003 C 
ATOM     30  C   UNL     1       6.873  15.958  76.641  1.00  0.00     0.004 C 
ENDBRANCH  28  29
ENDBRANCH  27  28
ENDBRANCH  26  27
ENDBRANCH  25  26
ENDBRANCH  24  25
ENDBRANCH  23  24
ENDBRANCH  22  23
ENDBRANCH  21  22
ENDBRANCH  20  21
ENDBRANCH  19  20
ENDBRANCH  18  19
ENDBRANCH  17  18
ENDBRANCH   1  17
TORSDOF 26
ENDMDL
MODEL 8
REMARK VINA RESULT:    -4.020      2.790      6.461
REMARK INTER + INTRA:         -13.765
REMARK INTER:                 -10.374
REMARK INTRA:                  -3.391
REMARK UNBOUND:                -3.636
REMARK SMILES CCCCCCCCCCCCCCCCCCCCCCCCCCCC(=O)[O-]
REMARK SMILES IDX 15 1 16 2 17 3 18 4 19 5 20 6 21 7 22 8 23 9 24 10 25 11
REMARK SMILES IDX 26 12 27 13 28 14 29 15 30 16 14 17 13 18 12 19 11 20 10 21
REMARK SMILES IDX 9 22 8 23 7 24 6 25 5 26 4 27 3 28 2 29 1 30
REMARK H PARENT
REMARK Flexibility Score: inf
ROOT
ATOM      1  C   UNL     1      13.797  15.032  70.861  1.00  0.00     0.000 C 
ENDROOT
BRANCH   1   2
ATOM      2  C   UNL     1      12.721  13.945  70.715  1.00  0.00     0.000 C 
BRANCH   2   3
ATOM      3  C   UNL     1      11.593  14.070  71.760  1.00  0.00     0.000 C 
BRANCH   3   4
ATOM      4  C   UNL     1      11.329  15.512  72.234  1.00  0.00     0.000 C 
BRANCH   4   5
ATOM      5  C   UNL     1      10.325  15.654  73.395  1.00  0.00     0.000 C 
BRANCH   5   6
ATOM      6  C   UNL     1       9.365  16.854  73.289  1.00  0.00     0.000 C 
BRANCH   6   7
ATOM      7  C   UNL     1       9.518  17.703  72.011  1.00  0.00     0.000 C 
BRANCH   7   8
ATOM      8  C   UNL     1       8.175  18.154  71.391  1.00  0.00     0.000 C 
BRANCH   8   9
ATOM      9  C   UNL     1       7.281  18.976  72.338  1.00  0.00     0.000 C 
BRANCH   9  10
ATOM     10  C   UNL     1       5.788  18.631  72.202  1.00  0.00     0.000 C 
BRANCH  10  11
ATOM     11  C   UNL     1       5.186  18.272  73.568  1.00  0.00     0.000 C 
BRANCH  11  12
ATOM     12  C   UNL     1       5.828  17.022  74.199  1.00  0.00     0.006 C 
BRANCH  12  13
ATOM     13  C   UNL     1       6.705  17.306  75.430  1.00  0.00     0.053 C 
BRANCH  13  14
ATOM     14  C   UNL     1       6.925  16.082  76.266  1.00  0.00     0.041 C 
ATOM     15  O   UNL     1       6.323  15.946  77.365  1.00  0.00    -0.550 OA
ATOM     16  O   UNL     1       7.783  15.083  75.823  1.00  0.00    -0.550 OA
ENDBRANCH  13  14
ENDBRANCH  12  13
ENDBRANCH  11  12
ENDBRANCH  10  11
ENDBRANCH   9  10
ENDBRANCH   8   9
ENDBRANCH   7   8
ENDBRANCH   6   7
ENDBRANCH   5   6
ENDBRANCH   4   5
ENDBRANCH   3   4
ENDBRANCH   2   3
ENDBRANCH   1   2
BRANCH   1  17
ATOM     17  C   UNL     1      14.204  15.588  69.489  1.00  0.00     0.000 C 
BRANCH  17  18
ATOM     18  C   UNL     1      13.466  14.906  68.325  1.00  0.00     0.000 C 
BRANCH  18  19
ATOM     19  C   UNL     1      13.927  15.335  66.917  1.00  0.00     0.000 C 
BRANCH  19  20
ATOM     20  C   UNL     1      12.975  16.292  66.177  1.00  0.00     0.000 C 
BRANCH  20  21
ATOM     21  C   UNL     1      11.582  16.372  66.826  1.00  0.00     0.000 C 
BRANCH  21  22
ATOM     22  C   UNL     1      11.383  17.661  67.641  1.00  0.00    -0.000 C 
BRANCH  22  23
ATOM     23  C   UNL     1      10.212  17.558  68.635  1.00  0.00    -0.000 C 
BRANCH  23  24
ATOM     24  C   UNL     1       9.332  16.316  68.394  1.00  0.00    -0.000 C 
BRANCH  24  25
ATOM     25  C   UNL     1       9.632  15.110  69.307  1.00  0.00    -0.000 C 
BRANCH  25  26
ATOM     26  C   UNL     1       9.324  13.760  68.636  1.00  0.00    -0.000 C 
BRANCH  26  27
ATOM     27  C   UNL     1      10.577  13.096  68.039  1.00  0.00    -0.000 C 
BRANCH  27  28
ATOM     28  C   UNL     1      10.427  11.573  67.880  1.00  0.00    -0.000 C 
BRANCH  28  29
ATOM     29  C   UNL     1       9.245  11.009  68.685  1.00  0.00    -0.003 C 
ATOM     30  C   UNL     1       8.880   9.581  68.283  1.00  0.00     0.004 C 
ENDBRANCH  28  29
ENDBRANCH  27  28
ENDBRANCH  26  27
ENDBRANCH  25  26
ENDBRANCH  24  25
ENDBRANCH  23  24
ENDBRANCH  22  23
ENDBRANCH  21  22
ENDBRANCH  20  21
ENDBRANCH  19  20
ENDBRANCH  18  19
ENDBRANCH  17  18
ENDBRANCH   1  17
TORSDOF 26
ENDMDL
MODEL 9
REMARK VINA RESULT:    -3.843      1.323      3.212
REMARK INTER + INTRA:         -13.320
REMARK INTER:                  -9.931
REMARK INTRA:                  -3.389
REMARK UNBOUND:                -3.636
REMARK SMILES CCCCCCCCCCCCCCCCCCCCCCCCCCCC(=O)[O-]
REMARK SMILES IDX 15 1 16 2 17 3 18 4 19 5 20 6 21 7 22 8 23 9 24 10 25 11
REMARK SMILES IDX 26 12 27 13 28 14 29 15 30 16 14 17 13 18 12 19 11 20 10 21
REMARK SMILES IDX 9 22 8 23 7 24 6 25 5 26 4 27 3 28 2 29 1 30
REMARK H PARENT
REMARK Flexibility Score: inf
ROOT
ATOM      1  C   UNL     1       9.739  16.437  73.604  1.00  0.00     0.000 C 
ENDROOT
BRANCH   1   2
ATOM      2  C   UNL     1       8.632  16.052  74.598  1.00  0.00     0.000 C 
BRANCH   2   3
ATOM      3  C   UNL     1       7.463  17.058  74.616  1.00  0.00     0.000 C 
BRANCH   3   4
ATOM      4  C   UNL     1       7.865  18.500  74.252  1.00  0.00     0.000 C 
BRANCH   4   5
ATOM      5  C   UNL     1       7.289  19.034  72.926  1.00  0.00     0.000 C 
BRANCH   5   6
ATOM      6  C   UNL     1       8.096  18.670  71.666  1.00  0.00     0.000 C 
BRANCH   6   7
ATOM      7  C   UNL     1       7.791  17.281  71.072  1.00  0.00     0.000 C 
BRANCH   7   8
ATOM      8  C   UNL     1       8.722  16.877  69.904  1.00  0.00     0.000 C 
BRANCH   8   9
ATOM      9  C   UNL     1       8.278  15.612  69.146  1.00  0.00     0.000 C 
BRANCH   9  10
ATOM     10  C   UNL     1       9.456  14.836  68.534  1.00  0.00     0.000 C 
BRANCH  10  11
ATOM     11  C   UNL     1       9.741  13.558  69.335  1.00  0.00     0.000 C 
BRANCH  11  12
ATOM     12  C   UNL     1      10.590  12.536  68.555  1.00  0.00     0.006 C 
BRANCH  12  13
ATOM     13  C   UNL     1       9.776  11.532  67.721  1.00  0.00     0.053 C 
BRANCH  13  14
ATOM     14  C   UNL     1       9.292  10.374  68.540  1.00  0.00     0.041 C 
ATOM     15  O   UNL     1       9.793  10.142  69.673  1.00  0.00    -0.550 OA
ATOM     16  O   UNL     1       8.275   9.558  68.058  1.00  0.00    -0.550 OA
ENDBRANCH  13  14
ENDBRANCH  12  13
ENDBRANCH  11  12
ENDBRANCH  10  11
ENDBRANCH   9  10
ENDBRANCH   8   9
ENDBRANCH   7   8
ENDBRANCH   6   7
ENDBRANCH   5   6
ENDBRANCH   4   5
ENDBRANCH   3   4
ENDBRANCH   2   3
ENDBRANCH   1   2
BRANCH   1  17
ATOM     17  C   UNL     1      10.538  15.200  73.167  1.00  0.00     0.000 C 
BRANCH  17  18
ATOM     18  C   UNL     1      11.404  15.457  71.923  1.00  0.00     0.000 C 
BRANCH  18  19
ATOM     19  C   UNL     1      12.558  16.461  72.125  1.00  0.00     0.000 C 
BRANCH  19  20
ATOM     20  C   UNL     1      12.710  17.518  71.017  1.00  0.00     0.000 C 
BRANCH  20  21
ATOM     21  C   UNL     1      11.482  17.602  70.093  1.00  0.00     0.000 C 
BRANCH  21  22
ATOM     22  C   UNL     1      11.557  18.786  69.114  1.00  0.00    -0.000 C 
BRANCH  22  23
ATOM     23  C   UNL     1      11.463  18.344  67.643  1.00  0.00    -0.000 C 
BRANCH  23  24
ATOM     24  C   UNL     1      11.540  16.814  67.473  1.00  0.00    -0.000 C 
BRANCH  24  25
ATOM     25  C   UNL     1      12.715  16.306  66.615  1.00  0.00    -0.000 C 
BRANCH  25  26
ATOM     26  C   UNL     1      13.537  15.208  67.314  1.00  0.00    -0.000 C 
BRANCH  26  27
ATOM     27  C   UNL     1      13.183  15.063  68.804  1.00  0.00    -0.000 C 
BRANCH  27  28
ATOM     28  C   UNL     1      13.875  13.860  69.468  1.00  0.00    -0.000 C 
BRANCH  28  29
ATOM     29  C   UNL     1      14.966  14.283  70.464  1.00  0.00    -0.003 C 
ATOM     30  C   UNL     1      16.274  14.680  69.782  1.00  0.00     0.004 C 
ENDBRANCH  28  29
ENDBRANCH  27  28
ENDBRANCH  26  27
ENDBRANCH  25  26
ENDBRANCH  24  25
ENDBRANCH  23  24
ENDBRANCH  22  23
ENDBRANCH  21  22
ENDBRANCH  20  21
ENDBRANCH  19  20
ENDBRANCH  18  19
ENDBRANCH  17  18
ENDBRANCH   1  17
TORSDOF 26
ENDMDL
