MODEL 1
REMARK VINA RESULT:    -3.994      0.000      0.000
REMARK INTER + INTRA:          -8.202
REMARK INTER:                  -6.795
REMARK INTRA:                  -1.406
REMARK UNBOUND:                -1.406
REMARK SMILES CCCCCCCCCCCCCC(=O)[O-]
REMARK SMILES IDX 8 1 9 2 10 3 11 4 12 5 13 6 14 7 15 8 16 9 7 10 6 11 5 12
REMARK SMILES IDX 4 13 3 14 2 15 1 16
REMARK H PARENT
REMARK Flexibility Score: inf
ROOT
ATOM      1  C   UNL     1      -2.091  -3.906   5.041  1.00  0.00     0.000 C 
ENDROOT
BRANCH   1   2
ATOM      2  C   UNL     1      -2.276  -3.189   6.391  1.00  0.00     0.000 C 
BRANCH   2   3
ATOM      3  C   UNL     1      -1.008  -2.522   6.956  1.00  0.00     0.000 C 
BRANCH   3   4
ATOM      4  C   UNL     1       0.248  -2.729   6.083  1.00  0.00     0.000 C 
BRANCH   4   5
ATOM      5  C   UNL     1       0.673  -1.450   5.348  1.00  0.00     0.006 C 
BRANCH   5   6
ATOM      6  C   UNL     1       1.946  -0.861   5.961  1.00  0.00     0.053 C 
BRANCH   6   7
ATOM      7  C   UNL     1       3.122  -1.739   5.673  1.00  0.00     0.041 C 
ATOM      8  O   UNL     1       3.909  -2.069   6.598  1.00  0.00    -0.550 OA
ATOM      9  O   UNL     1       3.321  -2.236   4.391  1.00  0.00    -0.550 OA
ENDBRANCH   6   7
ENDBRANCH   5   6
ENDBRANCH   4   5
ENDBRANCH   3   4
ENDBRANCH   2   3
ENDBRANCH   1   2
BRANCH   1  10
ATOM     10  C   UNL     1      -2.852  -3.274   3.861  1.00  0.00     0.000 C 
BRANCH  10  11
ATOM     11  C   UNL     1      -2.714  -1.743   3.811  1.00  0.00    -0.000 C 
BRANCH  11  12
ATOM     12  C   UNL     1      -4.050  -1.018   4.056  1.00  0.00    -0.000 C 
BRANCH  12  13
ATOM     13  C   UNL     1      -5.274  -1.944   4.199  1.00  0.00    -0.000 C 
BRANCH  13  14
ATOM     14  C   UNL     1      -5.905  -1.987   5.606  1.00  0.00    -0.000 C 
BRANCH  14  15
ATOM     15  C   UNL     1      -5.261  -1.037   6.631  1.00  0.00    -0.003 C 
ATOM     16  C   UNL     1      -6.072   0.238   6.853  1.00  0.00     0.004 C 
ENDBRANCH  14  15
ENDBRANCH  13  14
ENDBRANCH  12  13
ENDBRANCH  11  12
ENDBRANCH  10  11
ENDBRANCH   1  10
TORSDOF 12
ENDMDL
MODEL 2
REMARK VINA RESULT:    -3.990      5.859      8.350
REMARK INTER + INTRA:          -8.196
REMARK INTER:                  -7.393
REMARK INTRA:                  -0.802
REMARK UNBOUND:                -1.406
REMARK SMILES CCCCCCCCCCCCCC(=O)[O-]
REMARK SMILES IDX 8 1 9 2 10 3 11 4 12 5 13 6 14 7 15 8 16 9 7 10 6 11 5 12
REMARK SMILES IDX 4 13 3 14 2 15 1 16
REMARK H PARENT
REMARK Flexibility Score: inf
ROOT
ATOM      1  C   UNL     1       1.061   3.246   7.186  1.00  0.00     0.000 C 
ENDROOT
BRANCH   1   2
ATOM      2  C   UNL     1       0.344   3.400   8.540  1.00  0.00     0.000 C 
BRANCH   2   3
ATOM      3  C   UNL     1       0.243   4.844   9.067  1.00  0.00     0.000 C 
BRANCH   3   4
ATOM      4  C   UNL     1      -1.011   5.600   8.578  1.00  0.00     0.000 C 
BRANCH   4   5
ATOM      5  C   UNL     1      -0.695   6.609   7.465  1.00  0.00     0.006 C 
BRANCH   5   6
ATOM      6  C   UNL     1      -1.665   6.452   6.291  1.00  0.00     0.053 C 
BRANCH   6   7
ATOM      7  C   UNL     1      -0.928   6.512   4.990  1.00  0.00     0.041 C 
ATOM      8  O   UNL     1      -0.458   5.462   4.479  1.00  0.00    -0.550 OA
ATOM      9  O   UNL     1      -0.803   7.721   4.316  1.00  0.00    -0.550 OA
ENDBRANCH   6   7
ENDBRANCH   5   6
ENDBRANCH   4   5
ENDBRANCH   3   4
ENDBRANCH   2   3
ENDBRANCH   1   2
BRANCH   1  10
ATOM     10  C   UNL     1       1.866   1.944   7.021  1.00  0.00     0.000 C 
BRANCH  10  11
ATOM     11  C   UNL     1       1.508   0.883   8.075  1.00  0.00    -0.000 C 
BRANCH  11  12
ATOM     12  C   UNL     1       1.185  -0.488   7.452  1.00  0.00    -0.000 C 
BRANCH  12  13
ATOM     13  C   UNL     1       1.468  -0.596   5.941  1.00  0.00    -0.000 C 
BRANCH  13  14
ATOM     14  C   UNL     1       1.765  -2.020   5.429  1.00  0.00    -0.000 C 
BRANCH  14  15
ATOM     15  C   UNL     1       3.206  -2.242   4.939  1.00  0.00    -0.003 C 
ATOM     16  C   UNL     1       4.256  -1.764   5.941  1.00  0.00     0.004 C 
ENDBRANCH  14  15
ENDBRANCH  13  14
ENDBRANCH  12  13
ENDBRANCH  11  12
ENDBRANCH  10  11
ENDBRANCH   1  10
TORSDOF 12
ENDMDL
MODEL 3
REMARK VINA RESULT:    -3.894      4.098      5.361
REMARK INTER + INTRA:          -8.032
REMARK INTER:                  -7.406
REMARK INTRA:                  -0.626
REMARK UNBOUND:                -1.406
REMARK SMILES CCCCCCCCCCCCCC(=O)[O-]
REMARK SMILES IDX 8 1 9 2 10 3 11 4 12 5 13 6 14 7 15 8 16 9 7 10 6 11 5 12
REMARK SMILES IDX 4 13 3 14 2 15 1 16
REMARK H PARENT
REMARK Flexibility Score: inf
ROOT
ATOM      1  C   UNL     1       1.372  -0.841   6.471  1.00  0.00     0.000 C 
ENDROOT
BRANCH   1   2
ATOM      2  C   UNL     1       1.757   0.399   7.299  1.00  0.00     0.000 C 
BRANCH   2   3
ATOM      3  C   UNL     1       1.594   1.747   6.573  1.00  0.00     0.000 C 
BRANCH   3   4
ATOM      4  C   UNL     1       1.052   2.879   7.472  1.00  0.00     0.000 C 
BRANCH   4   5
ATOM      5  C   UNL     1       0.855   4.197   6.709  1.00  0.00     0.006 C 
BRANCH   5   6
ATOM      6  C   UNL     1       1.496   4.127   5.320  1.00  0.00     0.053 C 
BRANCH   6   7
ATOM      7  C   UNL     1       0.863   5.123   4.401  1.00  0.00     0.041 C 
ATOM      8  O   UNL     1       1.534   5.646   3.473  1.00  0.00    -0.550 OA
ATOM      9  O   UNL     1      -0.484   5.437   4.536  1.00  0.00    -0.550 OA
ENDBRANCH   6   7
ENDBRANCH   5   6
ENDBRANCH   4   5
ENDBRANCH   3   4
ENDBRANCH   2   3
ENDBRANCH   1   2
BRANCH   1  10
ATOM     10  C   UNL     1       0.645  -1.947   7.258  1.00  0.00     0.000 C 
BRANCH  10  11
ATOM     11  C   UNL     1      -0.642  -2.426   6.565  1.00  0.00    -0.000 C 
BRANCH  11  12
ATOM     12  C   UNL     1      -0.633  -2.165   5.048  1.00  0.00    -0.000 C 
BRANCH  12  13
ATOM     13  C   UNL     1      -1.903  -2.623   4.304  1.00  0.00    -0.000 C 
BRANCH  13  14
ATOM     14  C   UNL     1      -2.919  -1.506   3.991  1.00  0.00    -0.000 C 
BRANCH  14  15
ATOM     15  C   UNL     1      -4.357  -1.790   4.461  1.00  0.00    -0.003 C 
ATOM     16  C   UNL     1      -4.835  -0.816   5.536  1.00  0.00     0.004 C 
ENDBRANCH  14  15
ENDBRANCH  13  14
ENDBRANCH  12  13
ENDBRANCH  11  12
ENDBRANCH  10  11
ENDBRANCH   1  10
TORSDOF 12
ENDMDL
MODEL 4
REMARK VINA RESULT:    -3.826      4.600      6.023
REMARK INTER + INTRA:          -7.917
REMARK INTER:                  -7.110
REMARK INTRA:                  -0.807
REMARK UNBOUND:                -1.406
REMARK SMILES CCCCCCCCCCCCCC(=O)[O-]
REMARK SMILES IDX 8 1 9 2 10 3 11 4 12 5 13 6 14 7 15 8 16 9 7 10 6 11 5 12
REMARK SMILES IDX 4 13 3 14 2 15 1 16
REMARK H PARENT
REMARK Flexibility Score: inf
ROOT
ATOM      1  C   UNL     1      -3.214  -5.073   2.553  1.00  0.00     0.000 C 
ENDROOT
BRANCH   1   2
ATOM      2  C   UNL     1      -2.628  -4.624   1.201  1.00  0.00     0.000 C 
BRANCH   2   3
ATOM      3  C   UNL     1      -3.189  -5.357  -0.032  1.00  0.00     0.000 C 
BRANCH   3   4
ATOM      4  C   UNL     1      -2.201  -5.434  -1.215  1.00  0.00     0.000 C 
BRANCH   4   5
ATOM      5  C   UNL     1      -1.205  -4.265  -1.229  1.00  0.00     0.006 C 
BRANCH   5   6
ATOM      6  C   UNL     1      -0.399  -4.246  -2.530  1.00  0.00     0.053 C 
BRANCH   6   7
ATOM      7  C   UNL     1       0.619  -5.343  -2.532  1.00  0.00     0.041 C 
ATOM      8  O   UNL     1       1.649  -5.253  -1.814  1.00  0.00    -0.550 OA
ATOM      9  O   UNL     1       0.405  -6.489  -3.287  1.00  0.00    -0.550 OA
ENDBRANCH   6   7
ENDBRANCH   5   6
ENDBRANCH   4   5
ENDBRANCH   3   4
ENDBRANCH   2   3
ENDBRANCH   1   2
BRANCH   1  10
ATOM     10  C   UNL     1      -2.613  -4.373   3.785  1.00  0.00     0.000 C 
BRANCH  10  11
ATOM     11  C   UNL     1      -2.071  -2.969   3.471  1.00  0.00    -0.000 C 
BRANCH  11  12
ATOM     12  C   UNL     1      -2.674  -1.882   4.379  1.00  0.00    -0.000 C 
BRANCH  12  13
ATOM     13  C   UNL     1      -3.963  -1.229   3.841  1.00  0.00    -0.000 C 
BRANCH  13  14
ATOM     14  C   UNL     1      -5.278  -1.846   4.360  1.00  0.00    -0.000 C 
BRANCH  14  15
ATOM     15  C   UNL     1      -5.476  -1.757   5.883  1.00  0.00    -0.003 C 
ATOM     16  C   UNL     1      -5.518  -0.318   6.395  1.00  0.00     0.004 C 
ENDBRANCH  14  15
ENDBRANCH  13  14
ENDBRANCH  12  13
ENDBRANCH  11  12
ENDBRANCH  10  11
ENDBRANCH   1  10
TORSDOF 12
ENDMDL
MODEL 5
REMARK VINA RESULT:    -3.791      1.276      2.991
REMARK INTER + INTRA:          -7.856
REMARK INTER:                  -6.320
REMARK INTRA:                  -1.536
REMARK UNBOUND:                -1.406
REMARK SMILES CCCCCCCCCCCCCC(=O)[O-]
REMARK SMILES IDX 8 1 9 2 10 3 11 4 12 5 13 6 14 7 15 8 16 9 7 10 6 11 5 12
REMARK SMILES IDX 4 13 3 14 2 15 1 16
REMARK H PARENT
REMARK Flexibility Score: inf
ROOT
ATOM      1  C   UNL     1      -2.963  -3.805   7.240  1.00  0.00     0.000 C 
ENDROOT
BRANCH   1   2
ATOM      2  C   UNL     1      -1.470  -3.753   6.865  1.00  0.00     0.000 C 
BRANCH   2   3
ATOM      3  C   UNL     1      -0.896  -2.339   6.658  1.00  0.00     0.000 C 
BRANCH   3   4
ATOM      4  C   UNL     1      -0.273  -2.118   5.262  1.00  0.00     0.000 C 
BRANCH   4   5
ATOM      5  C   UNL     1       1.035  -1.315   5.321  1.00  0.00     0.006 C 
BRANCH   5   6
ATOM      6  C   UNL     1       2.057  -1.998   6.233  1.00  0.00     0.053 C 
BRANCH   6   7
ATOM      7  C   UNL     1       3.387  -2.089   5.555  1.00  0.00     0.041 C 
ATOM      8  O   UNL     1       3.453  -2.217   4.304  1.00  0.00    -0.550 OA
ATOM      9  O   UNL     1       4.556  -1.981   6.298  1.00  0.00    -0.550 OA
ENDBRANCH   6   7
ENDBRANCH   5   6
ENDBRANCH   4   5
ENDBRANCH   3   4
ENDBRANCH   2   3
ENDBRANCH   1   2
BRANCH   1  10
ATOM     10  C   UNL     1      -3.670  -2.437   7.278  1.00  0.00     0.000 C 
BRANCH  10  11
ATOM     11  C   UNL     1      -4.623  -2.223   6.091  1.00  0.00    -0.000 C 
BRANCH  11  12
ATOM     12  C   UNL     1      -4.178  -1.071   5.172  1.00  0.00    -0.000 C 
BRANCH  12  13
ATOM     13  C   UNL     1      -3.670  -1.509   3.784  1.00  0.00    -0.000 C 
BRANCH  13  14
ATOM     14  C   UNL     1      -3.932  -2.985   3.423  1.00  0.00    -0.000 C 
BRANCH  14  15
ATOM     15  C   UNL     1      -2.669  -3.808   3.114  1.00  0.00    -0.003 C 
ATOM     16  C   UNL     1      -2.769  -4.580   1.799  1.00  0.00     0.004 C 
ENDBRANCH  14  15
ENDBRANCH  13  14
ENDBRANCH  12  13
ENDBRANCH  11  12
ENDBRANCH  10  11
ENDBRANCH   1  10
TORSDOF 12
ENDMDL
MODEL 6
REMARK VINA RESULT:    -3.676      5.887      8.258
REMARK INTER + INTRA:          -7.660
REMARK INTER:                  -6.741
REMARK INTRA:                  -0.919
REMARK UNBOUND:                -1.406
REMARK SMILES CCCCCCCCCCCCCC(=O)[O-]
REMARK SMILES IDX 8 1 9 2 10 3 11 4 12 5 13 6 14 7 15 8 16 9 7 10 6 11 5 12
REMARK SMILES IDX 4 13 3 14 2 15 1 16
REMARK H PARENT
REMARK Flexibility Score: inf
ROOT
ATOM      1  C   UNL     1       1.207   2.378   8.716  1.00  0.00     0.000 C 
ENDROOT
BRANCH   1   2
ATOM      2  C   UNL     1       0.720   3.416   7.687  1.00  0.00     0.000 C 
BRANCH   2   3
ATOM      3  C   UNL     1       1.479   3.414   6.347  1.00  0.00     0.000 C 
BRANCH   3   4
ATOM      4  C   UNL     1       1.601   4.810   5.698  1.00  0.00     0.000 C 
BRANCH   4   5
ATOM      5  C   UNL     1       0.606   5.014   4.547  1.00  0.00     0.006 C 
BRANCH   5   6
ATOM      6  C   UNL     1      -0.648   5.749   5.029  1.00  0.00     0.053 C 
BRANCH   6   7
ATOM      7  C   UNL     1      -0.384   7.217   5.140  1.00  0.00     0.041 C 
ATOM      8  O   UNL     1      -0.795   7.862   6.141  1.00  0.00    -0.550 OA
ATOM      9  O   UNL     1       0.361   7.866   4.164  1.00  0.00    -0.550 OA
ENDBRANCH   6   7
ENDBRANCH   5   6
ENDBRANCH   4   5
ENDBRANCH   3   4
ENDBRANCH   2   3
ENDBRANCH   1   2
BRANCH   1  10
ATOM     10  C   UNL     1       2.643   1.871   8.497  1.00  0.00     0.000 C 
BRANCH  10  11
ATOM     11  C   UNL     1       2.701   0.381   8.121  1.00  0.00    -0.000 C 
BRANCH  11  12
ATOM     12  C   UNL     1       1.390  -0.124   7.492  1.00  0.00    -0.000 C 
BRANCH  12  13
ATOM     13  C   UNL     1       1.444  -0.339   5.966  1.00  0.00    -0.000 C 
BRANCH  13  14
ATOM     14  C   UNL     1       1.446  -1.812   5.510  1.00  0.00    -0.000 C 
BRANCH  14  15
ATOM     15  C   UNL     1       2.775  -2.555   5.733  1.00  0.00    -0.003 C 
ATOM     16  C   UNL     1       3.773  -2.345   4.595  1.00  0.00     0.004 C 
ENDBRANCH  14  15
ENDBRANCH  13  14
ENDBRANCH  12  13
ENDBRANCH  11  12
ENDBRANCH  10  11
ENDBRANCH   1  10
TORSDOF 12
ENDMDL
MODEL 7
REMARK VINA RESULT:    -3.674      5.123      7.705
REMARK INTER + INTRA:          -7.657
REMARK INTER:                  -6.739
REMARK INTRA:                  -0.918
REMARK UNBOUND:                -1.406
REMARK SMILES CCCCCCCCCCCCCC(=O)[O-]
REMARK SMILES IDX 8 1 9 2 10 3 11 4 12 5 13 6 14 7 15 8 16 9 7 10 6 11 5 12
REMARK SMILES IDX 4 13 3 14 2 15 1 16
REMARK H PARENT
REMARK Flexibility Score: inf
ROOT
ATOM      1  C   UNL     1       0.745   2.742   8.283  1.00  0.00     0.000 C 
ENDROOT
BRANCH   1   2
ATOM      2  C   UNL     1       0.289   4.206   8.144  1.00  0.00     0.000 C 
BRANCH   2   3
ATOM      3  C   UNL     1       0.923   4.980   6.973  1.00  0.00     0.000 C 
BRANCH   3   4
ATOM      4  C   UNL     1      -0.089   5.408   5.887  1.00  0.00     0.000 C 
BRANCH   4   5
ATOM      5  C   UNL     1       0.519   5.396   4.477  1.00  0.00     0.006 C 
BRANCH   5   6
ATOM      6  C   UNL     1       1.919   4.778   4.488  1.00  0.00     0.053 C 
BRANCH   6   7
ATOM      7  C   UNL     1       2.750   5.344   3.381  1.00  0.00     0.041 C 
ATOM      8  O   UNL     1       3.918   4.916   3.182  1.00  0.00    -0.550 OA
ATOM      9  O   UNL     1       2.219   6.309   2.535  1.00  0.00    -0.550 OA
ENDBRANCH   6   7
ENDBRANCH   5   6
ENDBRANCH   4   5
ENDBRANCH   3   4
ENDBRANCH   2   3
ENDBRANCH   1   2
BRANCH   1  10
ATOM     10  C   UNL     1       1.627   2.224   7.132  1.00  0.00     0.000 C 
BRANCH  10  11
ATOM     11  C   UNL     1       2.318   0.891   7.461  1.00  0.00    -0.000 C 
BRANCH  11  12
ATOM     12  C   UNL     1       1.418  -0.328   7.186  1.00  0.00    -0.000 C 
BRANCH  12  13
ATOM     13  C   UNL     1       1.097  -0.575   5.699  1.00  0.00    -0.000 C 
BRANCH  13  14
ATOM     14  C   UNL     1       1.388  -2.003   5.192  1.00  0.00    -0.000 C 
BRANCH  14  15
ATOM     15  C   UNL     1       2.724  -2.597   5.670  1.00  0.00    -0.003 C 
ATOM     16  C   UNL     1       3.921  -2.093   4.865  1.00  0.00     0.004 C 
ENDBRANCH  14  15
ENDBRANCH  13  14
ENDBRANCH  12  13
ENDBRANCH  11  12
ENDBRANCH  10  11
ENDBRANCH   1  10
TORSDOF 12
ENDMDL
MODEL 8
REMARK VINA RESULT:    -3.612      4.432      6.633
REMARK INTER + INTRA:          -7.551
REMARK INTER:                  -6.903
REMARK INTRA:                  -0.649
REMARK UNBOUND:                -1.406
REMARK SMILES CCCCCCCCCCCCCC(=O)[O-]
REMARK SMILES IDX 8 1 9 2 10 3 11 4 12 5 13 6 14 7 15 8 16 9 7 10 6 11 5 12
REMARK SMILES IDX 4 13 3 14 2 15 1 16
REMARK H PARENT
REMARK Flexibility Score: inf
ROOT
ATOM      1  C   UNL     1       1.471  -0.219   7.227  1.00  0.00     0.000 C 
ENDROOT
BRANCH   1   2
ATOM      2  C   UNL     1       1.671  -0.842   5.833  1.00  0.00     0.000 C 
BRANCH   2   3
ATOM      3  C   UNL     1       0.430  -1.537   5.242  1.00  0.00     0.000 C 
BRANCH   3   4
ATOM      4  C   UNL     1      -0.293  -2.472   6.236  1.00  0.00     0.000 C 
BRANCH   4   5
ATOM      5  C   UNL     1      -1.761  -2.715   5.855  1.00  0.00     0.006 C 
BRANCH   5   6
ATOM      6  C   UNL     1      -1.875  -3.258   4.428  1.00  0.00     0.053 C 
BRANCH   6   7
ATOM      7  C   UNL     1      -2.911  -2.500   3.661  1.00  0.00     0.041 C 
ATOM      8  O   UNL     1      -2.877  -1.242   3.623  1.00  0.00    -0.550 OA
ATOM      9  O   UNL     1      -3.886  -3.183   2.944  1.00  0.00    -0.550 OA
ENDBRANCH   6   7
ENDBRANCH   5   6
ENDBRANCH   4   5
ENDBRANCH   3   4
ENDBRANCH   2   3
ENDBRANCH   1   2
BRANCH   1  10
ATOM     10  C   UNL     1       2.295   1.053   7.493  1.00  0.00     0.000 C 
BRANCH  10  11
ATOM     11  C   UNL     1       1.700   2.303   6.824  1.00  0.00    -0.000 C 
BRANCH  11  12
ATOM     12  C   UNL     1       0.787   3.105   7.769  1.00  0.00    -0.000 C 
BRANCH  12  13
ATOM     13  C   UNL     1       0.468   4.539   7.300  1.00  0.00    -0.000 C 
BRANCH  13  14
ATOM     14  C   UNL     1       0.671   4.797   5.793  1.00  0.00    -0.000 C 
BRANCH  14  15
ATOM     15  C   UNL     1      -0.436   5.632   5.126  1.00  0.00    -0.003 C 
ATOM     16  C   UNL     1      -1.277   6.417   6.131  1.00  0.00     0.004 C 
ENDBRANCH  14  15
ENDBRANCH  13  14
ENDBRANCH  12  13
ENDBRANCH  11  12
ENDBRANCH  10  11
ENDBRANCH   1  10
TORSDOF 12
ENDMDL
MODEL 9
REMARK VINA RESULT:    -3.604      2.638      3.586
REMARK INTER + INTRA:          -7.538
REMARK INTER:                  -6.522
REMARK INTRA:                  -1.016
REMARK UNBOUND:                -1.406
REMARK SMILES CCCCCCCCCCCCCC(=O)[O-]
REMARK SMILES IDX 8 1 9 2 10 3 11 4 12 5 13 6 14 7 15 8 16 9 7 10 6 11 5 12
REMARK SMILES IDX 4 13 3 14 2 15 1 16
REMARK H PARENT
REMARK Flexibility Score: inf
ROOT
ATOM      1  C   UNL     1      -0.178  -2.802   6.234  1.00  0.00     0.000 C 
ENDROOT
BRANCH   1   2
ATOM      2  C   UNL     1       0.555  -1.836   5.284  1.00  0.00     0.000 C 
BRANCH   2   3
ATOM      3  C   UNL     1       2.081  -1.759   5.479  1.00  0.00     0.000 C 
BRANCH   3   4
ATOM      4  C   UNL     1       2.526  -0.682   6.492  1.00  0.00     0.000 C 
BRANCH   4   5
ATOM      5  C   UNL     1       1.473   0.419   6.683  1.00  0.00     0.006 C 
BRANCH   5   6
ATOM      6  C   UNL     1       2.105   1.689   7.260  1.00  0.00     0.053 C 
BRANCH   6   7
ATOM      7  C   UNL     1       1.069   2.529   7.936  1.00  0.00     0.041 C 
ATOM      8  O   UNL     1       0.625   2.201   9.068  1.00  0.00    -0.550 OA
ATOM      9  O   UNL     1       0.627   3.704   7.340  1.00  0.00    -0.550 OA
ENDBRANCH   6   7
ENDBRANCH   5   6
ENDBRANCH   4   5
ENDBRANCH   3   4
ENDBRANCH   2   3
ENDBRANCH   1   2
BRANCH   1  10
ATOM     10  C   UNL     1      -1.712  -2.802   6.102  1.00  0.00     0.000 C 
BRANCH  10  11
ATOM     11  C   UNL     1      -2.221  -3.801   5.050  1.00  0.00    -0.000 C 
BRANCH  11  12
ATOM     12  C   UNL     1      -2.612  -3.122   3.725  1.00  0.00    -0.000 C 
BRANCH  12  13
ATOM     13  C   UNL     1      -2.841  -1.600   3.819  1.00  0.00    -0.000 C 
BRANCH  13  14
ATOM     14  C   UNL     1      -4.312  -1.167   3.986  1.00  0.00    -0.000 C 
BRANCH  14  15
ATOM     15  C   UNL     1      -4.740  -0.883   5.437  1.00  0.00    -0.003 C 
ATOM     16  C   UNL     1      -5.708  -1.930   5.986  1.00  0.00     0.004 C 
ENDBRANCH  14  15
ENDBRANCH  13  14
ENDBRANCH  12  13
ENDBRANCH  11  12
ENDBRANCH  10  11
ENDBRANCH   1  10
TORSDOF 12
ENDMDL
