MODEL 1
REMARK VINA RESULT:    -4.328      0.000      0.000
REMARK INTER + INTRA:          -8.956
REMARK INTER:                  -7.364
REMARK INTRA:                  -1.593
REMARK UNBOUND:                -1.593
REMARK SMILES CCCCCCCCCCCCCC(=O)[O-]
REMARK SMILES IDX 8 1 9 2 10 3 11 4 12 5 13 6 14 7 15 8 16 9 7 10 6 11 5 12
REMARK SMILES IDX 4 13 3 14 2 15 1 16
REMARK H PARENT
REMARK Flexibility Score: inf
ROOT
ATOM      1  C   UNL     1      13.843  18.741  -0.738  1.00  0.00     0.000 C 
ENDROOT
BRANCH   1   2
ATOM      2  C   UNL     1      14.965  18.681  -1.788  1.00  0.00     0.000 C 
BRANCH   2   3
ATOM      3  C   UNL     1      14.733  17.590  -2.845  1.00  0.00     0.000 C 
BRANCH   3   4
ATOM      4  C   UNL     1      13.851  18.115  -3.988  1.00  0.00     0.000 C 
BRANCH   4   5
ATOM      5  C   UNL     1      12.998  17.011  -4.633  1.00  0.00     0.006 C 
BRANCH   5   6
ATOM      6  C   UNL     1      12.409  16.040  -3.602  1.00  0.00     0.053 C 
BRANCH   6   7
ATOM      7  C   UNL     1      10.994  16.411  -3.286  1.00  0.00     0.041 C 
ATOM      8  O   UNL     1      10.041  15.772  -3.803  1.00  0.00    -0.550 OA
ATOM      9  O   UNL     1      10.727  17.496  -2.458  1.00  0.00    -0.550 OA
ENDBRANCH   6   7
ENDBRANCH   5   6
ENDBRANCH   4   5
ENDBRANCH   3   4
ENDBRANCH   2   3
ENDBRANCH   1   2
BRANCH   1  10
ATOM     10  C   UNL     1      13.500  17.356  -0.161  1.00  0.00     0.000 C 
BRANCH  10  11
ATOM     11  C   UNL     1      14.526  16.882   0.882  1.00  0.00    -0.000 C 
BRANCH  11  12
ATOM     12  C   UNL     1      15.168  18.050   1.652  1.00  0.00    -0.000 C 
BRANCH  12  13
ATOM     13  C   UNL     1      16.655  17.808   1.961  1.00  0.00    -0.000 C 
BRANCH  13  14
ATOM     14  C   UNL     1      17.547  17.937   0.714  1.00  0.00    -0.000 C 
BRANCH  14  15
ATOM     15  C   UNL     1      18.177  16.596   0.303  1.00  0.00    -0.003 C 
ATOM     16  C   UNL     1      17.489  15.963  -0.907  1.00  0.00     0.004 C 
ENDBRANCH  14  15
ENDBRANCH  13  14
ENDBRANCH  12  13
ENDBRANCH  11  12
ENDBRANCH  10  11
ENDBRANCH   1  10
TORSDOF 12
ENDMDL
MODEL 2
REMARK VINA RESULT:    -4.314     13.374     14.869
REMARK INTER + INTRA:          -8.933
REMARK INTER:                  -7.466
REMARK INTRA:                  -1.467
REMARK UNBOUND:                -1.593
REMARK SMILES CCCCCCCCCCCCCC(=O)[O-]
REMARK SMILES IDX 8 1 9 2 10 3 11 4 12 5 13 6 14 7 15 8 16 9 7 10 6 11 5 12
REMARK SMILES IDX 4 13 3 14 2 15 1 16
REMARK H PARENT
REMARK Flexibility Score: inf
ROOT
ATOM      1  C   UNL     1      14.911   4.246   0.417  1.00  0.00     0.000 C 
ENDROOT
BRANCH   1   2
ATOM      2  C   UNL     1      14.795   3.182   1.522  1.00  0.00     0.000 C 
BRANCH   2   3
ATOM      3  C   UNL     1      13.465   3.260   2.286  1.00  0.00     0.000 C 
BRANCH   3   4
ATOM      4  C   UNL     1      12.705   4.548   1.933  1.00  0.00     0.000 C 
BRANCH   4   5
ATOM      5  C   UNL     1      11.353   4.273   1.255  1.00  0.00     0.006 C 
BRANCH   5   6
ATOM      6  C   UNL     1      10.191   5.005   1.938  1.00  0.00     0.053 C 
BRANCH   6   7
ATOM      7  C   UNL     1       9.169   5.419   0.926  1.00  0.00     0.041 C 
ATOM      8  O   UNL     1       7.973   5.044   1.044  1.00  0.00    -0.550 OA
ATOM      9  O   UNL     1       9.548   6.178  -0.174  1.00  0.00    -0.550 OA
ENDBRANCH   6   7
ENDBRANCH   5   6
ENDBRANCH   4   5
ENDBRANCH   3   4
ENDBRANCH   2   3
ENDBRANCH   1   2
BRANCH   1  10
ATOM     10  C   UNL     1      15.394   3.658  -0.920  1.00  0.00     0.000 C 
BRANCH  10  11
ATOM     11  C   UNL     1      16.420   2.529  -0.731  1.00  0.00    -0.000 C 
BRANCH  11  12
ATOM     12  C   UNL     1      16.261   1.406  -1.772  1.00  0.00    -0.000 C 
BRANCH  12  13
ATOM     13  C   UNL     1      15.034   0.518  -1.501  1.00  0.00    -0.000 C 
BRANCH  13  14
ATOM     14  C   UNL     1      14.001   0.572  -2.641  1.00  0.00    -0.000 C 
BRANCH  14  15
ATOM     15  C   UNL     1      12.713   1.303  -2.231  1.00  0.00    -0.003 C 
ATOM     16  C   UNL     1      12.475   1.286  -0.721  1.00  0.00     0.004 C 
ENDBRANCH  14  15
ENDBRANCH  13  14
ENDBRANCH  12  13
ENDBRANCH  11  12
ENDBRANCH  10  11
ENDBRANCH   1  10
TORSDOF 12
ENDMDL
MODEL 3
REMARK VINA RESULT:    -4.308     13.732     15.150
REMARK INTER + INTRA:          -8.922
REMARK INTER:                  -7.375
REMARK INTRA:                  -1.547
REMARK UNBOUND:                -1.593
REMARK SMILES CCCCCCCCCCCCCC(=O)[O-]
REMARK SMILES IDX 8 1 9 2 10 3 11 4 12 5 13 6 14 7 15 8 16 9 7 10 6 11 5 12
REMARK SMILES IDX 4 13 3 14 2 15 1 16
REMARK H PARENT
REMARK Flexibility Score: inf
ROOT
ATOM      1  C   UNL     1      15.505   2.738   0.560  1.00  0.00     0.000 C 
ENDROOT
BRANCH   1   2
ATOM      2  C   UNL     1      14.942   3.086   1.948  1.00  0.00     0.000 C 
BRANCH   2   3
ATOM      3  C   UNL     1      13.415   3.255   1.945  1.00  0.00     0.000 C 
BRANCH   3   4
ATOM      4  C   UNL     1      13.028   4.736   1.815  1.00  0.00     0.000 C 
BRANCH   4   5
ATOM      5  C   UNL     1      11.506   4.953   1.800  1.00  0.00     0.006 C 
BRANCH   5   6
ATOM      6  C   UNL     1      10.793   4.063   0.774  1.00  0.00     0.053 C 
BRANCH   6   7
ATOM      7  C   UNL     1       9.437   3.676   1.275  1.00  0.00     0.041 C 
ATOM      8  O   UNL     1       8.460   4.455   1.126  1.00  0.00    -0.550 OA
ATOM      9  O   UNL     1       9.263   2.474   1.951  1.00  0.00    -0.550 OA
ENDBRANCH   6   7
ENDBRANCH   5   6
ENDBRANCH   4   5
ENDBRANCH   3   4
ENDBRANCH   2   3
ENDBRANCH   1   2
BRANCH   1  10
ATOM     10  C   UNL     1      15.511   3.945  -0.394  1.00  0.00     0.000 C 
BRANCH  10  11
ATOM     11  C   UNL     1      14.907   3.612  -1.769  1.00  0.00    -0.000 C 
BRANCH  11  12
ATOM     12  C   UNL     1      13.407   3.275  -1.690  1.00  0.00    -0.000 C 
BRANCH  12  13
ATOM     13  C   UNL     1      13.058   1.956  -2.400  1.00  0.00    -0.000 C 
BRANCH  13  14
ATOM     14  C   UNL     1      12.909   0.778  -1.422  1.00  0.00    -0.000 C 
BRANCH  14  15
ATOM     15  C   UNL     1      14.152  -0.127  -1.400  1.00  0.00    -0.003 C 
ATOM     16  C   UNL     1      14.945  -0.077  -2.705  1.00  0.00     0.004 C 
ENDBRANCH  14  15
ENDBRANCH  13  14
ENDBRANCH  12  13
ENDBRANCH  11  12
ENDBRANCH  10  11
ENDBRANCH   1  10
TORSDOF 12
ENDMDL
MODEL 4
REMARK VINA RESULT:    -4.180     13.886     15.192
REMARK INTER + INTRA:          -8.705
REMARK INTER:                  -6.729
REMARK INTRA:                  -1.976
REMARK UNBOUND:                -1.593
REMARK SMILES CCCCCCCCCCCCCC(=O)[O-]
REMARK SMILES IDX 8 1 9 2 10 3 11 4 12 5 13 6 14 7 15 8 16 9 7 10 6 11 5 12
REMARK SMILES IDX 4 13 3 14 2 15 1 16
REMARK H PARENT
REMARK Flexibility Score: inf
ROOT
ATOM      1  C   UNL     1      14.995   0.639  -1.317  1.00  0.00     0.000 C 
ENDROOT
BRANCH   1   2
ATOM      2  C   UNL     1      14.028   0.416  -2.492  1.00  0.00     0.000 C 
BRANCH   2   3
ATOM      3  C   UNL     1      12.903   1.461  -2.544  1.00  0.00     0.000 C 
BRANCH   3   4
ATOM      4  C   UNL     1      12.400   1.794  -1.131  1.00  0.00     0.000 C 
BRANCH   4   5
ATOM      5  C   UNL     1      11.881   3.236  -1.010  1.00  0.00     0.006 C 
BRANCH   5   6
ATOM      6  C   UNL     1      10.450   3.304  -0.462  1.00  0.00     0.053 C 
BRANCH   6   7
ATOM      7  C   UNL     1      10.439   3.955   0.886  1.00  0.00     0.041 C 
ATOM      8  O   UNL     1      11.392   4.698   1.238  1.00  0.00    -0.550 OA
ATOM      9  O   UNL     1       9.400   3.701   1.773  1.00  0.00    -0.550 OA
ENDBRANCH   6   7
ENDBRANCH   5   6
ENDBRANCH   4   5
ENDBRANCH   3   4
ENDBRANCH   2   3
ENDBRANCH   1   2
BRANCH   1  10
ATOM     10  C   UNL     1      16.209   1.499  -1.708  1.00  0.00     0.000 C 
BRANCH  10  11
ATOM     11  C   UNL     1      16.511   2.596  -0.673  1.00  0.00    -0.000 C 
BRANCH  11  12
ATOM     12  C   UNL     1      15.515   3.767  -0.746  1.00  0.00    -0.000 C 
BRANCH  12  13
ATOM     13  C   UNL     1      14.879   4.089   0.617  1.00  0.00    -0.000 C 
BRANCH  13  14
ATOM     14  C   UNL     1      15.192   3.024   1.683  1.00  0.00    -0.000 C 
BRANCH  14  15
ATOM     15  C   UNL     1      13.921   2.445   2.325  1.00  0.00    -0.003 C 
ATOM     16  C   UNL     1      13.868   0.919   2.263  1.00  0.00     0.004 C 
ENDBRANCH  14  15
ENDBRANCH  13  14
ENDBRANCH  12  13
ENDBRANCH  11  12
ENDBRANCH  10  11
ENDBRANCH   1  10
TORSDOF 12
ENDMDL
MODEL 5
REMARK VINA RESULT:    -4.112     15.141     16.096
REMARK INTER + INTRA:          -8.590
REMARK INTER:                  -7.777
REMARK INTRA:                  -0.813
REMARK UNBOUND:                -1.593
REMARK SMILES CCCCCCCCCCCCCC(=O)[O-]
REMARK SMILES IDX 8 1 9 2 10 3 11 4 12 5 13 6 14 7 15 8 16 9 7 10 6 11 5 12
REMARK SMILES IDX 4 13 3 14 2 15 1 16
REMARK H PARENT
REMARK Flexibility Score: inf
ROOT
ATOM      1  C   UNL     1      15.035   3.177   1.772  1.00  0.00     0.000 C 
ENDROOT
BRANCH   1   2
ATOM      2  C   UNL     1      15.485   2.757   0.363  1.00  0.00     0.000 C 
BRANCH   2   3
ATOM      3  C   UNL     1      15.428   3.911  -0.649  1.00  0.00     0.000 C 
BRANCH   3   4
ATOM      4  C   UNL     1      14.605   3.515  -1.884  1.00  0.00     0.000 C 
BRANCH   4   5
ATOM      5  C   UNL     1      13.438   2.574  -1.543  1.00  0.00     0.006 C 
BRANCH   5   6
ATOM      6  C   UNL     1      13.270   1.447  -2.570  1.00  0.00     0.053 C 
BRANCH   6   7
ATOM      7  C   UNL     1      14.187   0.309  -2.251  1.00  0.00     0.041 C 
ATOM      8  O   UNL     1      14.228  -0.163  -1.085  1.00  0.00    -0.550 OA
ATOM      9  O   UNL     1      15.034  -0.197  -3.229  1.00  0.00    -0.550 OA
ENDBRANCH   6   7
ENDBRANCH   5   6
ENDBRANCH   4   5
ENDBRANCH   3   4
ENDBRANCH   2   3
ENDBRANCH   1   2
BRANCH   1  10
ATOM     10  C   UNL     1      14.559   1.985   2.620  1.00  0.00     0.000 C 
BRANCH  10  11
ATOM     11  C   UNL     1      15.357   1.834   3.926  1.00  0.00    -0.000 C 
BRANCH  11  12
ATOM     12  C   UNL     1      14.449   1.623   5.151  1.00  0.00    -0.000 C 
BRANCH  12  13
ATOM     13  C   UNL     1      15.175   1.894   6.480  1.00  0.00    -0.000 C 
BRANCH  13  14
ATOM     14  C   UNL     1      16.650   2.285   6.279  1.00  0.00    -0.000 C 
BRANCH  14  15
ATOM     15  C   UNL     1      17.614   1.322   6.992  1.00  0.00    -0.003 C 
ATOM     16  C   UNL     1      17.348  -0.144   6.651  1.00  0.00     0.004 C 
ENDBRANCH  14  15
ENDBRANCH  13  14
ENDBRANCH  12  13
ENDBRANCH  11  12
ENDBRANCH  10  11
ENDBRANCH   1  10
TORSDOF 12
ENDMDL
MODEL 6
REMARK VINA RESULT:    -4.096      3.231      6.575
REMARK INTER + INTRA:          -8.562
REMARK INTER:                  -6.931
REMARK INTRA:                  -1.631
REMARK UNBOUND:                -1.593
REMARK SMILES CCCCCCCCCCCCCC(=O)[O-]
REMARK SMILES IDX 8 1 9 2 10 3 11 4 12 5 13 6 14 7 15 8 16 9 7 10 6 11 5 12
REMARK SMILES IDX 4 13 3 14 2 15 1 16
REMARK H PARENT
REMARK Flexibility Score: inf
ROOT
ATOM      1  C   UNL     1      14.252  16.673  -1.491  1.00  0.00     0.000 C 
ENDROOT
BRANCH   1   2
ATOM      2  C   UNL     1      14.072  17.183  -0.051  1.00  0.00     0.000 C 
BRANCH   2   3
ATOM      3  C   UNL     1      14.422  18.671   0.101  1.00  0.00     0.000 C 
BRANCH   3   4
ATOM      4  C   UNL     1      15.322  18.900   1.324  1.00  0.00     0.000 C 
BRANCH   4   5
ATOM      5  C   UNL     1      16.145  17.656   1.696  1.00  0.00     0.006 C 
BRANCH   5   6
ATOM      6  C   UNL     1      17.655  17.881   1.547  1.00  0.00     0.053 C 
BRANCH   6   7
ATOM      7  C   UNL     1      18.231  16.919   0.556  1.00  0.00     0.041 C 
ATOM      8  O   UNL     1      17.530  16.506  -0.405  1.00  0.00    -0.550 OA
ATOM      9  O   UNL     1      19.525  16.441   0.721  1.00  0.00    -0.550 OA
ENDBRANCH   6   7
ENDBRANCH   5   6
ENDBRANCH   4   5
ENDBRANCH   3   4
ENDBRANCH   2   3
ENDBRANCH   1   2
BRANCH   1  10
ATOM     10  C   UNL     1      14.905  17.719  -2.410  1.00  0.00     0.000 C 
BRANCH  10  11
ATOM     11  C   UNL     1      14.060  18.014  -3.662  1.00  0.00    -0.000 C 
BRANCH  11  12
ATOM     12  C   UNL     1      13.081  16.873  -3.995  1.00  0.00    -0.000 C 
BRANCH  12  13
ATOM     13  C   UNL     1      11.644  17.374  -4.221  1.00  0.00    -0.000 C 
BRANCH  13  14
ATOM     14  C   UNL     1      10.832  17.451  -2.917  1.00  0.00    -0.000 C 
BRANCH  14  15
ATOM     15  C   UNL     1      10.866  18.853  -2.287  1.00  0.00    -0.003 C 
ATOM     16  C   UNL     1      10.768  18.822  -0.762  1.00  0.00     0.004 C 
ENDBRANCH  14  15
ENDBRANCH  13  14
ENDBRANCH  12  13
ENDBRANCH  11  12
ENDBRANCH  10  11
ENDBRANCH   1  10
TORSDOF 12
ENDMDL
MODEL 7
REMARK VINA RESULT:    -4.085     12.959     14.322
REMARK INTER + INTRA:          -8.543
REMARK INTER:                  -7.274
REMARK INTRA:                  -1.269
REMARK UNBOUND:                -1.593
REMARK SMILES CCCCCCCCCCCCCC(=O)[O-]
REMARK SMILES IDX 8 1 9 2 10 3 11 4 12 5 13 6 14 7 15 8 16 9 7 10 6 11 5 12
REMARK SMILES IDX 4 13 3 14 2 15 1 16
REMARK H PARENT
REMARK Flexibility Score: inf
ROOT
ATOM      1  C   UNL     1      14.488   3.298   1.884  1.00  0.00     0.000 C 
ENDROOT
BRANCH   1   2
ATOM      2  C   UNL     1      13.841   4.677   1.674  1.00  0.00     0.000 C 
BRANCH   2   3
ATOM      3  C   UNL     1      12.342   4.688   2.013  1.00  0.00     0.000 C 
BRANCH   3   4
ATOM      4  C   UNL     1      11.514   4.118   0.852  1.00  0.00     0.000 C 
BRANCH   4   5
ATOM      5  C   UNL     1      10.020   4.462   0.963  1.00  0.00     0.006 C 
BRANCH   5   6
ATOM      6  C   UNL     1       9.305   4.431  -0.394  1.00  0.00     0.053 C 
BRANCH   6   7
ATOM      7  C   UNL     1       9.268   5.802  -0.994  1.00  0.00     0.041 C 
ATOM      8  O   UNL     1       9.491   5.962  -2.223  1.00  0.00    -0.550 OA
ATOM      9  O   UNL     1       9.035   6.908  -0.186  1.00  0.00    -0.550 OA
ENDBRANCH   6   7
ENDBRANCH   5   6
ENDBRANCH   4   5
ENDBRANCH   3   4
ENDBRANCH   2   3
ENDBRANCH   1   2
BRANCH   1  10
ATOM     10  C   UNL     1      15.369   2.872   0.695  1.00  0.00     0.000 C 
BRANCH  10  11
ATOM     11  C   UNL     1      15.480   3.969  -0.378  1.00  0.00    -0.000 C 
BRANCH  11  12
ATOM     12  C   UNL     1      14.896   3.529  -1.733  1.00  0.00    -0.000 C 
BRANCH  12  13
ATOM     13  C   UNL     1      13.634   2.664  -1.581  1.00  0.00    -0.000 C 
BRANCH  13  14
ATOM     14  C   UNL     1      13.601   1.485  -2.570  1.00  0.00    -0.000 C 
BRANCH  14  15
ATOM     15  C   UNL     1      14.540   0.343  -2.151  1.00  0.00    -0.003 C 
ATOM     16  C   UNL     1      14.117  -0.325  -0.843  1.00  0.00     0.004 C 
ENDBRANCH  14  15
ENDBRANCH  13  14
ENDBRANCH  12  13
ENDBRANCH  11  12
ENDBRANCH  10  11
ENDBRANCH   1  10
TORSDOF 12
ENDMDL
MODEL 8
REMARK VINA RESULT:    -4.053     13.980     15.424
REMARK INTER + INTRA:          -8.489
REMARK INTER:                  -6.539
REMARK INTRA:                  -1.950
REMARK UNBOUND:                -1.593
REMARK SMILES CCCCCCCCCCCCCC(=O)[O-]
REMARK SMILES IDX 8 1 9 2 10 3 11 4 12 5 13 6 14 7 15 8 16 9 7 10 6 11 5 12
REMARK SMILES IDX 4 13 3 14 2 15 1 16
REMARK H PARENT
REMARK Flexibility Score: inf
ROOT
ATOM      1  C   UNL     1      16.185   2.290  -0.559  1.00  0.00     0.000 C 
ENDROOT
BRANCH   1   2
ATOM      2  C   UNL     1      15.577   3.695  -0.705  1.00  0.00     0.000 C 
BRANCH   2   3
ATOM      3  C   UNL     1      14.161   3.794  -0.118  1.00  0.00     0.000 C 
BRANCH   3   4
ATOM      4  C   UNL     1      14.200   4.340   1.318  1.00  0.00     0.000 C 
BRANCH   4   5
ATOM      5  C   UNL     1      12.798   4.560   1.907  1.00  0.00     0.006 C 
BRANCH   5   6
ATOM      6  C   UNL     1      11.682   4.068   0.977  1.00  0.00     0.053 C 
BRANCH   6   7
ATOM      7  C   UNL     1      10.459   4.915   1.137  1.00  0.00     0.041 C 
ATOM      8  O   UNL     1      10.050   5.228   2.286  1.00  0.00    -0.550 OA
ATOM      9  O   UNL     1       9.741   5.319   0.017  1.00  0.00    -0.550 OA
ENDBRANCH   6   7
ENDBRANCH   5   6
ENDBRANCH   4   5
ENDBRANCH   3   4
ENDBRANCH   2   3
ENDBRANCH   1   2
BRANCH   1  10
ATOM     10  C   UNL     1      16.275   1.543  -1.902  1.00  0.00     0.000 C 
BRANCH  10  11
ATOM     11  C   UNL     1      15.284   0.370  -1.991  1.00  0.00    -0.000 C 
BRANCH  11  12
ATOM     12  C   UNL     1      13.898   0.805  -2.500  1.00  0.00    -0.000 C 
BRANCH  12  13
ATOM     13  C   UNL     1      12.786   0.569  -1.465  1.00  0.00    -0.000 C 
BRANCH  13  14
ATOM     14  C   UNL     1      13.292  -0.164  -0.209  1.00  0.00    -0.000 C 
BRANCH  14  15
ATOM     15  C   UNL     1      12.842   0.522   1.091  1.00  0.00    -0.003 C 
ATOM     16  C   UNL     1      13.989   0.731   2.079  1.00  0.00     0.004 C 
ENDBRANCH  14  15
ENDBRANCH  13  14
ENDBRANCH  12  13
ENDBRANCH  11  12
ENDBRANCH  10  11
ENDBRANCH   1  10
TORSDOF 12
ENDMDL
MODEL 9
REMARK VINA RESULT:    -2.941      3.236      6.550
REMARK INTER + INTRA:          -6.596
REMARK INTER:                  -5.137
REMARK INTRA:                  -1.460
REMARK UNBOUND:                -1.593
REMARK SMILES CCCCCCCCCCCCCC(=O)[O-]
REMARK SMILES IDX 8 1 9 2 10 3 11 4 12 5 13 6 14 7 15 8 16 9 7 10 6 11 5 12
REMARK SMILES IDX 4 13 3 14 2 15 1 16
REMARK H PARENT
REMARK Flexibility Score: inf
ROOT
ATOM      1  C   UNL     1      15.426  17.048  -2.090  1.00  0.00     0.000 C 
ENDROOT
BRANCH   1   2
ATOM      2  C   UNL     1      14.614  16.461  -0.924  1.00  0.00     0.000 C 
BRANCH   2   3
ATOM      3  C   UNL     1      14.405  17.465   0.220  1.00  0.00     0.000 C 
BRANCH   3   4
ATOM      4  C   UNL     1      15.110  16.991   1.500  1.00  0.00     0.000 C 
BRANCH   4   5
ATOM      5  C   UNL     1      16.166  17.991   2.001  1.00  0.00     0.006 C 
BRANCH   5   6
ATOM      6  C   UNL     1      17.216  18.324   0.934  1.00  0.00     0.053 C 
BRANCH   6   7
ATOM      7  C   UNL     1      18.259  17.251   0.877  1.00  0.00     0.041 C 
ATOM      8  O   UNL     1      19.193  17.231   1.720  1.00  0.00    -0.550 OA
ATOM      9  O   UNL     1      18.226  16.303  -0.139  1.00  0.00    -0.550 OA
ENDBRANCH   6   7
ENDBRANCH   5   6
ENDBRANCH   4   5
ENDBRANCH   3   4
ENDBRANCH   2   3
ENDBRANCH   1   2
BRANCH   1  10
ATOM     10  C   UNL     1      15.384  18.585  -2.124  1.00  0.00     0.000 C 
BRANCH  10  11
ATOM     11  C   UNL     1      14.247  19.125  -3.008  1.00  0.00    -0.000 C 
BRANCH  11  12
ATOM     12  C   UNL     1      13.800  18.112  -4.077  1.00  0.00    -0.000 C 
BRANCH  12  13
ATOM     13  C   UNL     1      12.291  18.182  -4.365  1.00  0.00    -0.000 C 
BRANCH  13  14
ATOM     14  C   UNL     1      11.509  17.032  -3.706  1.00  0.00    -0.000 C 
BRANCH  14  15
ATOM     15  C   UNL     1      12.329  15.733  -3.631  1.00  0.00    -0.003 C 
ATOM     16  C   UNL     1      11.987  14.750  -4.750  1.00  0.00     0.004 C 
ENDBRANCH  14  15
ENDBRANCH  13  14
ENDBRANCH  12  13
ENDBRANCH  11  12
ENDBRANCH  10  11
ENDBRANCH   1  10
TORSDOF 12
ENDMDL
