MODEL 1
REMARK VINA RESULT:    -1.965      0.000      0.000
REMARK INTER + INTRA:          -1.965
REMARK INTER:                  -1.965
REMARK INTRA:                   0.000
REMARK UNBOUND:                 0.000
REMARK SMILES O=C1CCCCC1
REMARK SMILES IDX 5 1 4 2 3 3 2 4 1 5 7 6 6 7
REMARK H PARENT
REMARK Flexibility Score: inf
ROOT
ATOM      1  C   UNL     1     127.125 108.491 133.659  1.00  0.00     0.001 C 
ATOM      2  C   UNL     1     127.040 109.851 132.948  1.00  0.00     0.008 C 
ATOM      3  C   UNL     1     127.121 111.011 133.949  1.00  0.00     0.075 C 
ATOM      4  C   UNL     1     126.136 110.809 135.067  1.00  0.00     0.132 C 
ATOM      5  O   UNL     1     125.463 111.744 135.472  1.00  0.00    -0.300 OA
ATOM      6  C   UNL     1     126.058 109.468 135.743  1.00  0.00     0.075 C 
ATOM      7  C   UNL     1     126.004 108.346 134.699  1.00  0.00     0.008 C 
ENDROOT
TORSDOF 0
ENDMDL
MODEL 2
REMARK VINA RESULT:    -1.913      1.764      2.656
REMARK INTER + INTRA:          -1.913
REMARK INTER:                  -1.913
REMARK INTRA:                   0.000
REMARK UNBOUND:                 0.000
REMARK SMILES O=C1CCCCC1
REMARK SMILES IDX 5 1 4 2 3 3 2 4 1 5 7 6 6 7
REMARK H PARENT
REMARK Flexibility Score: inf
ROOT
ATOM      1  C   UNL     1     126.763 109.213 133.083  1.00  0.00     0.001 C 
ATOM      2  C   UNL     1     127.123 107.785 133.521  1.00  0.00     0.008 C 
ATOM      3  C   UNL     1     126.144 107.260 134.579  1.00  0.00     0.075 C 
ATOM      4  C   UNL     1     125.996 108.256 135.696  1.00  0.00     0.132 C 
ATOM      5  O   UNL     1     125.986 107.881 136.858  1.00  0.00    -0.300 OA
ATOM      6  C   UNL     1     125.766 109.704 135.363  1.00  0.00     0.075 C 
ATOM      7  C   UNL     1     126.754 110.168 134.286  1.00  0.00     0.008 C 
ENDROOT
TORSDOF 0
ENDMDL
MODEL 3
REMARK VINA RESULT:    -1.845      1.330      1.769
REMARK INTER + INTRA:          -1.845
REMARK INTER:                  -1.845
REMARK INTRA:                   0.000
REMARK UNBOUND:                 0.000
REMARK SMILES O=C1CCCCC1
REMARK SMILES IDX 5 1 4 2 3 3 2 4 1 5 7 6 6 7
REMARK H PARENT
REMARK Flexibility Score: inf
ROOT
ATOM      1  C   UNL     1     127.125 109.176 133.802  1.00  0.00     0.001 C 
ATOM      2  C   UNL     1     126.463 110.503 134.204  1.00  0.00     0.008 C 
ATOM      3  C   UNL     1     126.219 110.571 135.717  1.00  0.00     0.075 C 
ATOM      4  C   UNL     1     125.512 109.331 136.190  1.00  0.00     0.132 C 
ATOM      5  O   UNL     1     124.589 109.413 136.986  1.00  0.00    -0.300 OA
ATOM      6  C   UNL     1     126.013 107.985 135.745  1.00  0.00     0.075 C 
ATOM      7  C   UNL     1     126.262 107.981 134.232  1.00  0.00     0.008 C 
ENDROOT
TORSDOF 0
ENDMDL
MODEL 4
REMARK VINA RESULT:    -1.815      1.493      2.545
REMARK INTER + INTRA:          -1.815
REMARK INTER:                  -1.815
REMARK INTRA:                   0.000
REMARK UNBOUND:                 0.000
REMARK SMILES O=C1CCCCC1
REMARK SMILES IDX 5 1 4 2 3 3 2 4 1 5 7 6 6 7
REMARK H PARENT
REMARK Flexibility Score: inf
ROOT
ATOM      1  C   UNL     1     125.981 109.009 135.819  1.00  0.00     0.001 C 
ATOM      2  C   UNL     1     126.053 108.184 134.525  1.00  0.00     0.008 C 
ATOM      3  C   UNL     1     127.125 108.730 133.572  1.00  0.00     0.075 C 
ATOM      4  C   UNL     1     126.950 110.211 133.380  1.00  0.00     0.132 C 
ATOM      5  O   UNL     1     127.049 110.704 132.267  1.00  0.00    -0.300 OA
ATOM      6  C   UNL     1     126.746 111.088 134.584  1.00  0.00     0.075 C 
ATOM      7  C   UNL     1     125.685 110.484 135.512  1.00  0.00     0.008 C 
ENDROOT
TORSDOF 0
ENDMDL
MODEL 5
REMARK VINA RESULT:    -1.770      1.814      3.134
REMARK INTER + INTRA:          -1.770
REMARK INTER:                  -1.770
REMARK INTRA:                   0.000
REMARK UNBOUND:                 0.000
REMARK SMILES O=C1CCCCC1
REMARK SMILES IDX 5 1 4 2 3 3 2 4 1 5 7 6 6 7
REMARK H PARENT
REMARK Flexibility Score: inf
ROOT
ATOM      1  C   UNL     1     126.772 111.280 134.985  1.00  0.00     0.001 C 
ATOM      2  C   UNL     1     125.739 110.540 135.848  1.00  0.00     0.008 C 
ATOM      3  C   UNL     1     126.035 109.035 135.907  1.00  0.00     0.075 C 
ATOM      4  C   UNL     1     126.227 108.484 134.521  1.00  0.00     0.132 C 
ATOM      5  O   UNL     1     125.722 107.418 134.207  1.00  0.00    -0.300 OA
ATOM      6  C   UNL     1     127.125 109.212 133.560  1.00  0.00     0.075 C 
ATOM      7  C   UNL     1     126.803 110.711 133.559  1.00  0.00     0.008 C 
ENDROOT
TORSDOF 0
ENDMDL
MODEL 6
REMARK VINA RESULT:    -1.565      1.708      2.840
REMARK INTER + INTRA:          -1.565
REMARK INTER:                  -1.565
REMARK INTRA:                   0.000
REMARK UNBOUND:                 0.000
REMARK SMILES O=C1CCCCC1
REMARK SMILES IDX 5 1 4 2 3 3 2 4 1 5 7 6 6 7
REMARK H PARENT
REMARK Flexibility Score: inf
ROOT
ATOM      1  C   UNL     1     125.360 108.306 137.158  1.00  0.00     0.001 C 
ATOM      2  C   UNL     1     126.000 109.703 137.185  1.00  0.00     0.008 C 
ATOM      3  C   UNL     1     125.901 110.389 135.816  1.00  0.00     0.075 C 
ATOM      4  C   UNL     1     126.402 109.474 134.733  1.00  0.00     0.132 C 
ATOM      5  O   UNL     1     127.125 109.905 133.848  1.00  0.00    -0.300 OA
ATOM      6  C   UNL     1     125.928 108.048 134.700  1.00  0.00     0.075 C 
ATOM      7  C   UNL     1     126.025 107.420 136.095  1.00  0.00     0.008 C 
ENDROOT
TORSDOF 0
ENDMDL
