MODEL 1
REMARK VINA RESULT:     2.670      0.000      0.000
REMARK INTER + INTRA:           3.419
REMARK INTER:                   3.606
REMARK INTRA:                  -0.187
REMARK UNBOUND:                -0.187
REMARK SMILES CCCCCCCC(=O)[O-]
REMARK SMILES IDX 5 1 6 2 7 3 8 4 9 5 10 6 4 7 3 8 2 9 1 10
REMARK H PARENT
REMARK Flexibility Score: inf
ROOT
ATOM      1  C   UNL     1     -34.913  16.040  16.751  1.00  0.00     0.000 C 
ENDROOT
BRANCH   1   2
ATOM      2  C   UNL     1     -34.351  15.028  17.761  1.00  0.00     0.006 C 
BRANCH   2   3
ATOM      3  C   UNL     1     -33.945  13.706  17.094  1.00  0.00     0.053 C 
BRANCH   3   4
ATOM      4  C   UNL     1     -32.775  13.073  17.782  1.00  0.00     0.041 C 
ATOM      5  O   UNL     1     -32.912  12.571  18.930  1.00  0.00    -0.550 OA
ATOM      6  O   UNL     1     -31.528  13.066  17.172  1.00  0.00    -0.550 OA
ENDBRANCH   3   4
ENDBRANCH   2   3
ENDBRANCH   1   2
BRANCH   1   7
ATOM      7  C   UNL     1     -35.207  17.388  17.428  1.00  0.00     0.000 C 
BRANCH   7   8
ATOM      8  C   UNL     1     -36.692  17.533  17.821  1.00  0.00    -0.000 C 
BRANCH   8   9
ATOM      9  C   UNL     1     -37.546  16.303  17.472  1.00  0.00    -0.003 C 
ATOM     10  C   UNL     1     -38.513  15.909  18.586  1.00  0.00     0.004 C 
ENDBRANCH   8   9
ENDBRANCH   7   8
ENDBRANCH   1   7
TORSDOF 6
ENDMDL
MODEL 2
REMARK VINA RESULT:     3.022      3.370      5.334
REMARK INTER + INTRA:           3.894
REMARK INTER:                   3.954
REMARK INTRA:                  -0.060
REMARK UNBOUND:                -0.187
REMARK SMILES CCCCCCCC(=O)[O-]
REMARK SMILES IDX 5 1 6 2 7 3 8 4 9 5 10 6 4 7 3 8 2 9 1 10
REMARK H PARENT
REMARK Flexibility Score: inf
ROOT
ATOM      1  C   UNL     1     -35.062  17.262  17.391  1.00  0.00     0.000 C 
ENDROOT
BRANCH   1   2
ATOM      2  C   UNL     1     -36.540  17.444  17.764  1.00  0.00     0.006 C 
BRANCH   2   3
ATOM      3  C   UNL     1     -37.367  16.179  17.496  1.00  0.00     0.053 C 
BRANCH   3   4
ATOM      4  C   UNL     1     -38.700  16.231  18.178  1.00  0.00     0.041 C 
ATOM      5  O   UNL     1     -38.901  15.560  19.224  1.00  0.00    -0.550 OA
ATOM      6  O   UNL     1     -39.728  16.994  17.641  1.00  0.00    -0.550 OA
ENDBRANCH   3   4
ENDBRANCH   2   3
ENDBRANCH   1   2
BRANCH   1   7
ATOM      7  C   UNL     1     -34.809  15.861  16.813  1.00  0.00     0.000 C 
BRANCH   7   8
ATOM      8  C   UNL     1     -34.233  14.890  17.864  1.00  0.00    -0.000 C 
BRANCH   8   9
ATOM      9  C   UNL     1     -33.560  13.649  17.255  1.00  0.00    -0.003 C 
ATOM     10  C   UNL     1     -32.830  12.795  18.290  1.00  0.00     0.004 C 
ENDBRANCH   8   9
ENDBRANCH   7   8
ENDBRANCH   1   7
TORSDOF 6
ENDMDL
MODEL 3
REMARK VINA RESULT:     3.444      3.143      5.245
REMARK INTER + INTRA:           4.465
REMARK INTER:                   4.655
REMARK INTRA:                  -0.191
REMARK UNBOUND:                -0.187
REMARK SMILES CCCCCCCC(=O)[O-]
REMARK SMILES IDX 5 1 6 2 7 3 8 4 9 5 10 6 4 7 3 8 2 9 1 10
REMARK H PARENT
REMARK Flexibility Score: inf
ROOT
ATOM      1  C   UNL     1     -33.944  13.921  16.840  1.00  0.00     0.000 C 
ENDROOT
BRANCH   1   2
ATOM      2  C   UNL     1     -34.399  15.164  17.620  1.00  0.00     0.006 C 
BRANCH   2   3
ATOM      3  C   UNL     1     -35.141  16.170  16.729  1.00  0.00     0.053 C 
BRANCH   3   4
ATOM      4  C   UNL     1     -35.794  17.250  17.535  1.00  0.00     0.041 C 
ATOM      5  O   UNL     1     -37.031  17.207  17.767  1.00  0.00    -0.550 OA
ATOM      6  O   UNL     1     -35.043  18.320  18.002  1.00  0.00    -0.550 OA
ENDBRANCH   3   4
ENDBRANCH   2   3
ENDBRANCH   1   2
BRANCH   1   7
ATOM      7  C   UNL     1     -32.741  13.253  17.523  1.00  0.00     0.000 C 
BRANCH   7   8
ATOM      8  C   UNL     1     -33.150  12.009  18.340  1.00  0.00    -0.000 C 
BRANCH   8   9
ATOM      9  C   UNL     1     -33.236  12.266  19.853  1.00  0.00    -0.003 C 
ATOM     10  C   UNL     1     -33.932  11.138  20.613  1.00  0.00     0.004 C 
ENDBRANCH   8   9
ENDBRANCH   7   8
ENDBRANCH   1   7
TORSDOF 6
ENDMDL
MODEL 4
REMARK VINA RESULT:     3.728      1.263      2.295
REMARK INTER + INTRA:           4.848
REMARK INTER:                   5.089
REMARK INTRA:                  -0.241
REMARK UNBOUND:                -0.187
REMARK SMILES CCCCCCCC(=O)[O-]
REMARK SMILES IDX 5 1 6 2 7 3 8 4 9 5 10 6 4 7 3 8 2 9 1 10
REMARK H PARENT
REMARK Flexibility Score: inf
ROOT
ATOM      1  C   UNL     1     -34.312  14.852  17.641  1.00  0.00     0.000 C 
ENDROOT
BRANCH   1   2
ATOM      2  C   UNL     1     -33.562  13.836  16.768  1.00  0.00     0.006 C 
BRANCH   2   3
ATOM      3  C   UNL     1     -33.450  12.461  17.442  1.00  0.00     0.053 C 
BRANCH   3   4
ATOM      4  C   UNL     1     -32.739  12.543  18.757  1.00  0.00     0.041 C 
ATOM      5  O   UNL     1     -31.514  12.834  18.798  1.00  0.00    -0.550 OA
ATOM      6  O   UNL     1     -33.420  12.267  19.935  1.00  0.00    -0.550 OA
ENDBRANCH   3   4
ENDBRANCH   2   3
ENDBRANCH   1   2
BRANCH   1   7
ATOM      7  C   UNL     1     -34.916  15.975  16.783  1.00  0.00     0.000 C 
BRANCH   7   8
ATOM      8  C   UNL     1     -36.247  16.499  17.360  1.00  0.00    -0.000 C 
BRANCH   8   9
ATOM      9  C   UNL     1     -36.196  17.975  17.787  1.00  0.00    -0.003 C 
ATOM     10  C   UNL     1     -34.773  18.524  17.873  1.00  0.00     0.004 C 
ENDBRANCH   8   9
ENDBRANCH   7   8
ENDBRANCH   1   7
TORSDOF 6
ENDMDL
MODEL 5
REMARK VINA RESULT:     4.528      1.921      2.828
REMARK INTER + INTRA:           5.928
REMARK INTER:                   6.110
REMARK INTRA:                  -0.181
REMARK UNBOUND:                -0.187
REMARK SMILES CCCCCCCC(=O)[O-]
REMARK SMILES IDX 5 1 6 2 7 3 8 4 9 5 10 6 4 7 3 8 2 9 1 10
REMARK H PARENT
REMARK Flexibility Score: inf
ROOT
ATOM      1  C   UNL     1     -33.559  14.247  16.814  1.00  0.00     0.000 C 
ENDROOT
BRANCH   1   2
ATOM      2  C   UNL     1     -33.405  12.830  17.385  1.00  0.00     0.006 C 
BRANCH   2   3
ATOM      3  C   UNL     1     -32.585  12.812  18.683  1.00  0.00     0.053 C 
BRANCH   3   4
ATOM      4  C   UNL     1     -33.349  12.194  19.814  1.00  0.00     0.041 C 
ATOM      5  O   UNL     1     -33.616  10.963  19.800  1.00  0.00    -0.550 OA
ATOM      6  O   UNL     1     -33.793  12.982  20.867  1.00  0.00    -0.550 OA
ENDBRANCH   3   4
ENDBRANCH   2   3
ENDBRANCH   1   2
BRANCH   1   7
ATOM      7  C   UNL     1     -34.746  14.975  17.464  1.00  0.00     0.000 C 
BRANCH   7   8
ATOM      8  C   UNL     1     -35.132  16.259  16.701  1.00  0.00    -0.000 C 
BRANCH   8   9
ATOM      9  C   UNL     1     -35.785  17.332  17.589  1.00  0.00    -0.003 C 
ATOM     10  C   UNL     1     -34.832  18.466  17.957  1.00  0.00     0.004 C 
ENDBRANCH   8   9
ENDBRANCH   7   8
ENDBRANCH   1   7
TORSDOF 6
ENDMDL
MODEL 6
REMARK VINA RESULT:     4.593      3.221      4.506
REMARK INTER + INTRA:           6.016
REMARK INTER:                   6.279
REMARK INTRA:                  -0.263
REMARK UNBOUND:                -0.187
REMARK SMILES CCCCCCCC(=O)[O-]
REMARK SMILES IDX 5 1 6 2 7 3 8 4 9 5 10 6 4 7 3 8 2 9 1 10
REMARK H PARENT
REMARK Flexibility Score: inf
ROOT
ATOM      1  C   UNL     1     -37.861  15.738  18.650  1.00  0.00     0.000 C 
ENDROOT
BRANCH   1   2
ATOM      2  C   UNL     1     -37.402  16.434  17.360  1.00  0.00     0.006 C 
BRANCH   2   3
ATOM      3  C   UNL     1     -36.758  17.801  17.635  1.00  0.00     0.053 C 
BRANCH   3   4
ATOM      4  C   UNL     1     -35.263  17.725  17.613  1.00  0.00     0.041 C 
ATOM      5  O   UNL     1     -34.688  16.644  17.318  1.00  0.00    -0.550 OA
ATOM      6  O   UNL     1     -34.504  18.838  17.950  1.00  0.00    -0.550 OA
ENDBRANCH   3   4
ENDBRANCH   2   3
ENDBRANCH   1   2
BRANCH   1   7
ATOM      7  C   UNL     1     -39.374  15.474  18.623  1.00  0.00     0.000 C 
BRANCH   7   8
ATOM      8  C   UNL     1     -40.189  16.764  18.397  1.00  0.00    -0.000 C 
BRANCH   8   9
ATOM      9  C   UNL     1     -40.702  16.925  16.957  1.00  0.00    -0.003 C 
ATOM     10  C   UNL     1     -40.623  18.364  16.451  1.00  0.00     0.004 C 
ENDBRANCH   8   9
ENDBRANCH   7   8
ENDBRANCH   1   7
TORSDOF 6
ENDMDL
