MODEL 1
REMARK VINA RESULT:    -5.493      0.000      0.000
REMARK INTER + INTRA:          -9.984
REMARK INTER:                  -8.705
REMARK INTRA:                  -1.279
REMARK UNBOUND:                -1.279
REMARK SMILES CCCCCCCCCCCC(=O)[O-]
REMARK SMILES IDX 7 1 8 2 9 3 10 4 11 5 12 6 13 7 14 8 6 9 5 10 4 11 3 12 2 13
REMARK SMILES IDX 1 14
REMARK H PARENT
REMARK Flexibility Score: inf
ROOT
ATOM      1  C   UNL     1     -23.065  38.029   7.934  1.00  0.00     0.000 C 
ENDROOT
BRANCH   1   2
ATOM      2  C   UNL     1     -22.273  38.868   6.918  1.00  0.00     0.000 C 
BRANCH   2   3
ATOM      3  C   UNL     1     -22.375  38.312   5.486  1.00  0.00     0.000 C 
BRANCH   3   4
ATOM      4  C   UNL     1     -21.245  38.818   4.571  1.00  0.00     0.006 C 
BRANCH   4   5
ATOM      5  C   UNL     1     -20.356  39.903   5.198  1.00  0.00     0.053 C 
BRANCH   5   6
ATOM      6  C   UNL     1     -20.357  41.166   4.393  1.00  0.00     0.041 C 
ATOM      7  O   UNL     1     -19.535  42.084   4.653  1.00  0.00    -0.550 OA
ATOM      8  O   UNL     1     -21.288  41.342   3.378  1.00  0.00    -0.550 OA
ENDBRANCH   5   6
ENDBRANCH   4   5
ENDBRANCH   3   4
ENDBRANCH   2   3
ENDBRANCH   1   2
BRANCH   1   9
ATOM      9  C   UNL     1     -23.414  36.629   7.406  1.00  0.00     0.000 C 
BRANCH   9  10
ATOM     10  C   UNL     1     -22.374  35.595   7.863  1.00  0.00    -0.000 C 
BRANCH  10  11
ATOM     11  C   UNL     1     -21.609  36.040   9.120  1.00  0.00    -0.000 C 
BRANCH  11  12
ATOM     12  C   UNL     1     -20.108  36.238   8.862  1.00  0.00    -0.000 C 
BRANCH  12  13
ATOM     13  C   UNL     1     -19.742  35.843   7.427  1.00  0.00    -0.003 C 
ATOM     14  C   UNL     1     -18.967  36.956   6.728  1.00  0.00     0.004 C 
ENDBRANCH  12  13
ENDBRANCH  11  12
ENDBRANCH  10  11
ENDBRANCH   9  10
ENDBRANCH   1   9
TORSDOF 10
ENDMDL
MODEL 2
REMARK VINA RESULT:    -5.409      2.628      5.336
REMARK INTER + INTRA:          -9.850
REMARK INTER:                  -8.968
REMARK INTRA:                  -0.882
REMARK UNBOUND:                -1.279
REMARK SMILES CCCCCCCCCCCC(=O)[O-]
REMARK SMILES IDX 7 1 8 2 9 3 10 4 11 5 12 6 13 7 14 8 6 9 5 10 4 11 3 12 2 13
REMARK SMILES IDX 1 14
REMARK H PARENT
REMARK Flexibility Score: inf
ROOT
ATOM      1  C   UNL     1     -21.996  39.238   6.935  1.00  0.00     0.000 C 
ENDROOT
BRANCH   1   2
ATOM      2  C   UNL     1     -22.753  38.367   7.950  1.00  0.00     0.000 C 
BRANCH   2   3
ATOM      3  C   UNL     1     -23.180  37.010   7.362  1.00  0.00     0.000 C 
BRANCH   3   4
ATOM      4  C   UNL     1     -22.257  35.857   7.797  1.00  0.00     0.006 C 
BRANCH   4   5
ATOM      5  C   UNL     1     -21.077  35.595   6.848  1.00  0.00     0.053 C 
BRANCH   5   6
ATOM      6  C   UNL     1     -19.809  36.219   7.342  1.00  0.00     0.041 C 
ATOM      7  O   UNL     1     -19.463  36.085   8.545  1.00  0.00    -0.550 OA
ATOM      8  O   UNL     1     -19.026  36.977   6.480  1.00  0.00    -0.550 OA
ENDBRANCH   5   6
ENDBRANCH   4   5
ENDBRANCH   3   4
ENDBRANCH   2   3
ENDBRANCH   1   2
BRANCH   1   9
ATOM      9  C   UNL     1     -22.376  38.922   5.480  1.00  0.00     0.000 C 
BRANCH   9  10
ATOM     10  C   UNL     1     -21.196  39.195   4.535  1.00  0.00    -0.000 C 
BRANCH  10  11
ATOM     11  C   UNL     1     -20.255  40.290   5.062  1.00  0.00    -0.000 C 
BRANCH  11  12
ATOM     12  C   UNL     1     -20.204  41.520   4.143  1.00  0.00    -0.000 C 
BRANCH  12  13
ATOM     13  C   UNL     1     -18.887  42.284   4.322  1.00  0.00    -0.003 C 
ATOM     14  C   UNL     1     -19.090  43.785   4.140  1.00  0.00     0.004 C 
ENDBRANCH  12  13
ENDBRANCH  11  12
ENDBRANCH  10  11
ENDBRANCH   9  10
ENDBRANCH   1   9
TORSDOF 10
ENDMDL
MODEL 3
REMARK VINA RESULT:    -5.397      0.953      2.662
REMARK INTER + INTRA:          -9.831
REMARK INTER:                  -8.540
REMARK INTRA:                  -1.291
REMARK UNBOUND:                -1.279
REMARK SMILES CCCCCCCCCCCC(=O)[O-]
REMARK SMILES IDX 7 1 8 2 9 3 10 4 11 5 12 6 13 7 14 8 6 9 5 10 4 11 3 12 2 13
REMARK SMILES IDX 1 14
REMARK H PARENT
REMARK Flexibility Score: inf
ROOT
ATOM      1  C   UNL     1     -19.327  36.704   6.631  1.00  0.00     0.000 C 
ENDROOT
BRANCH   1   2
ATOM      2  C   UNL     1     -19.882  38.001   6.018  1.00  0.00     0.000 C 
BRANCH   2   3
ATOM      3  C   UNL     1     -21.202  37.778   5.259  1.00  0.00     0.000 C 
BRANCH   3   4
ATOM      4  C   UNL     1     -22.178  38.960   5.407  1.00  0.00     0.006 C 
BRANCH   4   5
ATOM      5  C   UNL     1     -21.515  40.287   5.805  1.00  0.00     0.053 C 
BRANCH   5   6
ATOM      6  C   UNL     1     -20.898  40.983   4.631  1.00  0.00     0.041 C 
ATOM      7  O   UNL     1     -19.796  41.580   4.755  1.00  0.00    -0.550 OA
ATOM      8  O   UNL     1     -21.556  41.000   3.408  1.00  0.00    -0.550 OA
ENDBRANCH   5   6
ENDBRANCH   4   5
ENDBRANCH   3   4
ENDBRANCH   2   3
ENDBRANCH   1   2
BRANCH   1   9
ATOM      9  C   UNL     1     -20.387  35.919   7.420  1.00  0.00     0.000 C 
BRANCH   9  10
ATOM     10  C   UNL     1     -20.300  36.239   8.920  1.00  0.00    -0.000 C 
BRANCH  10  11
ATOM     11  C   UNL     1     -21.668  36.576   9.534  1.00  0.00    -0.000 C 
BRANCH  11  12
ATOM     12  C   UNL     1     -22.356  37.758   8.835  1.00  0.00    -0.000 C 
BRANCH  12  13
ATOM     13  C   UNL     1     -23.810  37.418   8.486  1.00  0.00    -0.003 C 
ATOM     14  C   UNL     1     -23.881  36.348   7.401  1.00  0.00     0.004 C 
ENDBRANCH  12  13
ENDBRANCH  11  12
ENDBRANCH  10  11
ENDBRANCH   9  10
ENDBRANCH   1   9
TORSDOF 10
ENDMDL
MODEL 4
REMARK VINA RESULT:    -5.375      1.187      2.159
REMARK INTER + INTRA:          -9.796
REMARK INTER:                  -8.884
REMARK INTRA:                  -0.912
REMARK UNBOUND:                -1.279
REMARK SMILES CCCCCCCCCCCC(=O)[O-]
REMARK SMILES IDX 7 1 8 2 9 3 10 4 11 5 12 6 13 7 14 8 6 9 5 10 4 11 3 12 2 13
REMARK SMILES IDX 1 14
REMARK H PARENT
REMARK Flexibility Score: inf
ROOT
ATOM      1  C   UNL     1     -22.140  39.195   7.029  1.00  0.00     0.000 C 
ENDROOT
BRANCH   1   2
ATOM      2  C   UNL     1     -22.202  39.191   5.493  1.00  0.00     0.000 C 
BRANCH   2   3
ATOM      3  C   UNL     1     -20.854  39.558   4.846  1.00  0.00     0.000 C 
BRANCH   3   4
ATOM      4  C   UNL     1     -20.769  41.045   4.454  1.00  0.00     0.006 C 
BRANCH   4   5
ATOM      5  C   UNL     1     -19.345  41.621   4.453  1.00  0.00     0.053 C 
BRANCH   5   6
ATOM      6  C   UNL     1     -19.325  43.070   4.076  1.00  0.00     0.041 C 
ATOM      7  O   UNL     1     -19.580  43.422   2.895  1.00  0.00    -0.550 OA
ATOM      8  O   UNL     1     -18.990  44.030   5.023  1.00  0.00    -0.550 OA
ENDBRANCH   5   6
ENDBRANCH   4   5
ENDBRANCH   3   4
ENDBRANCH   2   3
ENDBRANCH   1   2
BRANCH   1   9
ATOM      9  C   UNL     1     -23.070  38.150   7.665  1.00  0.00     0.000 C 
BRANCH   9  10
ATOM     10  C   UNL     1     -23.064  36.846   6.852  1.00  0.00    -0.000 C 
BRANCH  10  11
ATOM     11  C   UNL     1     -22.016  35.840   7.354  1.00  0.00    -0.000 C 
BRANCH  11  12
ATOM     12  C   UNL     1     -20.710  35.894   6.548  1.00  0.00    -0.000 C 
BRANCH  12  13
ATOM     13  C   UNL     1     -19.519  36.224   7.456  1.00  0.00    -0.003 C 
ATOM     14  C   UNL     1     -19.927  36.220   8.926  1.00  0.00     0.004 C 
ENDBRANCH  12  13
ENDBRANCH  11  12
ENDBRANCH  10  11
ENDBRANCH   9  10
ENDBRANCH   1   9
TORSDOF 10
ENDMDL
MODEL 5
REMARK VINA RESULT:    -5.320      3.116      5.807
REMARK INTER + INTRA:          -9.709
REMARK INTER:                  -8.938
REMARK INTRA:                  -0.771
REMARK UNBOUND:                -1.279
REMARK SMILES CCCCCCCCCCCC(=O)[O-]
REMARK SMILES IDX 7 1 8 2 9 3 10 4 11 5 12 6 13 7 14 8 6 9 5 10 4 11 3 12 2 13
REMARK SMILES IDX 1 14
REMARK H PARENT
REMARK Flexibility Score: inf
ROOT
ATOM      1  C   UNL     1     -22.804  38.642   6.290  1.00  0.00     0.000 C 
ENDROOT
BRANCH   1   2
ATOM      2  C   UNL     1     -22.390  37.408   5.471  1.00  0.00     0.000 C 
BRANCH   2   3
ATOM      3  C   UNL     1     -20.981  36.906   5.831  1.00  0.00     0.000 C 
BRANCH   3   4
ATOM      4  C   UNL     1     -20.998  35.527   6.517  1.00  0.00     0.006 C 
BRANCH   4   5
ATOM      5  C   UNL     1     -21.680  35.510   7.894  1.00  0.00     0.053 C 
BRANCH   5   6
ATOM      6  C   UNL     1     -20.954  36.358   8.892  1.00  0.00     0.041 C 
ATOM      7  O   UNL     1     -21.543  37.317   9.457  1.00  0.00    -0.550 OA
ATOM      8  O   UNL     1     -19.616  36.111   9.173  1.00  0.00    -0.550 OA
ENDBRANCH   5   6
ENDBRANCH   4   5
ENDBRANCH   3   4
ENDBRANCH   2   3
ENDBRANCH   1   2
BRANCH   1   9
ATOM      9  C   UNL     1     -21.656  39.649   6.469  1.00  0.00     0.000 C 
BRANCH   9  10
ATOM     10  C   UNL     1     -21.566  40.596   5.264  1.00  0.00    -0.000 C 
BRANCH  10  11
ATOM     11  C   UNL     1     -20.119  40.825   4.797  1.00  0.00    -0.000 C 
BRANCH  11  12
ATOM     12  C   UNL     1     -19.986  42.022   3.844  1.00  0.00    -0.000 C 
BRANCH  12  13
ATOM     13  C   UNL     1     -18.617  42.695   3.996  1.00  0.00    -0.003 C 
ATOM     14  C   UNL     1     -18.711  43.951   4.856  1.00  0.00     0.004 C 
ENDBRANCH  12  13
ENDBRANCH  11  12
ENDBRANCH  10  11
ENDBRANCH   9  10
ENDBRANCH   1   9
TORSDOF 10
ENDMDL
MODEL 6
REMARK VINA RESULT:    -5.259      2.639      5.432
REMARK INTER + INTRA:          -9.612
REMARK INTER:                  -8.731
REMARK INTRA:                  -0.881
REMARK UNBOUND:                -1.279
REMARK SMILES CCCCCCCCCCCC(=O)[O-]
REMARK SMILES IDX 7 1 8 2 9 3 10 4 11 5 12 6 13 7 14 8 6 9 5 10 4 11 3 12 2 13
REMARK SMILES IDX 1 14
REMARK H PARENT
REMARK Flexibility Score: inf
ROOT
ATOM      1  C   UNL     1     -19.568  36.968   6.444  1.00  0.00     0.000 C 
ENDROOT
BRANCH   1   2
ATOM      2  C   UNL     1     -20.774  36.046   6.201  1.00  0.00     0.000 C 
BRANCH   2   3
ATOM      3  C   UNL     1     -21.333  35.449   7.505  1.00  0.00     0.000 C 
BRANCH   3   4
ATOM      4  C   UNL     1     -20.773  36.139   8.762  1.00  0.00     0.006 C 
BRANCH   4   5
ATOM      5  C   UNL     1     -21.823  36.893   9.594  1.00  0.00     0.053 C 
BRANCH   5   6
ATOM      6  C   UNL     1     -22.688  37.772   8.745  1.00  0.00     0.041 C 
ATOM      7  O   UNL     1     -22.224  38.835   8.256  1.00  0.00    -0.550 OA
ATOM      8  O   UNL     1     -24.017  37.434   8.523  1.00  0.00    -0.550 OA
ENDBRANCH   5   6
ENDBRANCH   4   5
ENDBRANCH   3   4
ENDBRANCH   2   3
ENDBRANCH   1   2
BRANCH   1   9
ATOM      9  C   UNL     1     -19.755  38.366   5.834  1.00  0.00     0.000 C 
BRANCH   9  10
ATOM     10  C   UNL     1     -21.077  38.451   5.057  1.00  0.00    -0.000 C 
BRANCH  10  11
ATOM     11  C   UNL     1     -21.233  39.776   4.295  1.00  0.00    -0.000 C 
BRANCH  11  12
ATOM     12  C   UNL     1     -20.516  40.945   4.986  1.00  0.00    -0.000 C 
BRANCH  12  13
ATOM     13  C   UNL     1     -19.834  41.856   3.958  1.00  0.00    -0.003 C 
ATOM     14  C   UNL     1     -19.281  43.116   4.617  1.00  0.00     0.004 C 
ENDBRANCH  12  13
ENDBRANCH  11  12
ENDBRANCH  10  11
ENDBRANCH   9  10
ENDBRANCH   1   9
TORSDOF 10
ENDMDL
MODEL 7
REMARK VINA RESULT:    -5.197      1.389      2.834
REMARK INTER + INTRA:          -9.515
REMARK INTER:                  -8.597
REMARK INTRA:                  -0.918
REMARK UNBOUND:                -1.279
REMARK SMILES CCCCCCCCCCCC(=O)[O-]
REMARK SMILES IDX 7 1 8 2 9 3 10 4 11 5 12 6 13 7 14 8 6 9 5 10 4 11 3 12 2 13
REMARK SMILES IDX 1 14
REMARK H PARENT
REMARK Flexibility Score: inf
ROOT
ATOM      1  C   UNL     1     -21.243  38.281   4.769  1.00  0.00     0.000 C 
ENDROOT
BRANCH   1   2
ATOM      2  C   UNL     1     -22.333  39.238   5.281  1.00  0.00     0.000 C 
BRANCH   2   3
ATOM      3  C   UNL     1     -21.868  40.705   5.300  1.00  0.00     0.000 C 
BRANCH   3   4
ATOM      4  C   UNL     1     -21.036  41.081   4.060  1.00  0.00     0.006 C 
BRANCH   4   5
ATOM      5  C   UNL     1     -19.610  41.561   4.373  1.00  0.00     0.053 C 
BRANCH   5   6
ATOM      6  C   UNL     1     -19.413  43.004   4.026  1.00  0.00     0.041 C 
ATOM      7  O   UNL     1     -19.219  43.854   4.934  1.00  0.00    -0.550 OA
ATOM      8  O   UNL     1     -19.479  43.416   2.700  1.00  0.00    -0.550 OA
ENDBRANCH   5   6
ENDBRANCH   4   5
ENDBRANCH   3   4
ENDBRANCH   2   3
ENDBRANCH   1   2
BRANCH   1   9
ATOM      9  C   UNL     1     -20.240  37.882   5.864  1.00  0.00     0.000 C 
BRANCH   9  10
ATOM     10  C   UNL     1     -20.473  36.433   6.318  1.00  0.00    -0.000 C 
BRANCH  10  11
ATOM     11  C   UNL     1     -20.629  36.308   7.842  1.00  0.00    -0.000 C 
BRANCH  11  12
ATOM     12  C   UNL     1     -21.967  35.674   8.250  1.00  0.00    -0.000 C 
BRANCH  12  13
ATOM     13  C   UNL     1     -23.117  36.224   7.398  1.00  0.00    -0.003 C 
ATOM     14  C   UNL     1     -23.856  37.344   8.125  1.00  0.00     0.004 C 
ENDBRANCH  12  13
ENDBRANCH  11  12
ENDBRANCH  10  11
ENDBRANCH   9  10
ENDBRANCH   1   9
TORSDOF 10
ENDMDL
MODEL 8
REMARK VINA RESULT:    -5.092     11.936     13.522
REMARK INTER + INTRA:          -9.348
REMARK INTER:                  -8.133
REMARK INTRA:                  -1.215
REMARK UNBOUND:                -1.279
REMARK SMILES CCCCCCCCCCCC(=O)[O-]
REMARK SMILES IDX 7 1 8 2 9 3 10 4 11 5 12 6 13 7 14 8 6 9 5 10 4 11 3 12 2 13
REMARK SMILES IDX 1 14
REMARK H PARENT
REMARK Flexibility Score: inf
ROOT
ATOM      1  C   UNL     1     -18.635  41.634  -7.496  1.00  0.00     0.000 C 
ENDROOT
BRANCH   1   2
ATOM      2  C   UNL     1     -18.628  43.042  -6.878  1.00  0.00     0.000 C 
BRANCH   2   3
ATOM      3  C   UNL     1     -19.930  43.363  -6.124  1.00  0.00     0.000 C 
BRANCH   3   4
ATOM      4  C   UNL     1     -21.187  42.907  -6.888  1.00  0.00     0.006 C 
BRANCH   4   5
ATOM      5  C   UNL     1     -22.081  41.925  -6.114  1.00  0.00     0.053 C 
BRANCH   5   6
ATOM      6  C   UNL     1     -22.262  40.632  -6.846  1.00  0.00     0.041 C 
ATOM      7  O   UNL     1     -22.600  39.592  -6.223  1.00  0.00    -0.550 OA
ATOM      8  O   UNL     1     -22.023  40.568  -8.213  1.00  0.00    -0.550 OA
ENDBRANCH   5   6
ENDBRANCH   4   5
ENDBRANCH   3   4
ENDBRANCH   2   3
ENDBRANCH   1   2
BRANCH   1   9
ATOM      9  C   UNL     1     -18.573  40.521  -6.438  1.00  0.00     0.000 C 
BRANCH   9  10
ATOM     10  C   UNL     1     -17.127  40.286  -5.975  1.00  0.00    -0.000 C 
BRANCH  10  11
ATOM     11  C   UNL     1     -16.997  40.227  -4.445  1.00  0.00    -0.000 C 
BRANCH  11  12
ATOM     12  C   UNL     1     -15.896  41.152  -3.907  1.00  0.00    -0.000 C 
BRANCH  12  13
ATOM     13  C   UNL     1     -16.361  42.613  -3.901  1.00  0.00    -0.003 C 
ATOM     14  C   UNL     1     -17.735  42.752  -3.252  1.00  0.00     0.004 C 
ENDBRANCH  12  13
ENDBRANCH  11  12
ENDBRANCH  10  11
ENDBRANCH   9  10
ENDBRANCH   1   9
TORSDOF 10
ENDMDL
MODEL 9
REMARK VINA RESULT:    -5.070     12.033     13.327
REMARK INTER + INTRA:          -9.313
REMARK INTER:                  -8.071
REMARK INTRA:                  -1.242
REMARK UNBOUND:                -1.279
REMARK SMILES CCCCCCCCCCCC(=O)[O-]
REMARK SMILES IDX 7 1 8 2 9 3 10 4 11 5 12 6 13 7 14 8 6 9 5 10 4 11 3 12 2 13
REMARK SMILES IDX 1 14
REMARK H PARENT
REMARK Flexibility Score: inf
ROOT
ATOM      1  C   UNL     1     -18.785  43.672  -6.152  1.00  0.00     0.000 C 
ENDROOT
BRANCH   1   2
ATOM      2  C   UNL     1     -18.584  42.548  -7.182  1.00  0.00     0.000 C 
BRANCH   2   3
ATOM      3  C   UNL     1     -19.854  41.705  -7.391  1.00  0.00     0.000 C 
BRANCH   3   4
ATOM      4  C   UNL     1     -20.441  41.177  -6.069  1.00  0.00     0.006 C 
BRANCH   4   5
ATOM      5  C   UNL     1     -21.953  40.904  -6.110  1.00  0.00     0.053 C 
BRANCH   5   6
ATOM      6  C   UNL     1     -22.742  42.146  -6.384  1.00  0.00     0.041 C 
ATOM      7  O   UNL     1     -22.762  43.083  -5.544  1.00  0.00    -0.550 OA
ATOM      8  O   UNL     1     -23.485  42.254  -7.553  1.00  0.00    -0.550 OA
ENDBRANCH   5   6
ENDBRANCH   4   5
ENDBRANCH   3   4
ENDBRANCH   2   3
ENDBRANCH   1   2
BRANCH   1   9
ATOM      9  C   UNL     1     -17.611  43.792  -5.167  1.00  0.00     0.000 C 
BRANCH   9  10
ATOM     10  C   UNL     1     -17.842  42.912  -3.930  1.00  0.00    -0.000 C 
BRANCH  10  11
ATOM     11  C   UNL     1     -16.530  42.396  -3.316  1.00  0.00    -0.000 C 
BRANCH  11  12
ATOM     12  C   UNL     1     -15.960  41.185  -4.068  1.00  0.00    -0.000 C 
BRANCH  12  13
ATOM     13  C   UNL     1     -17.033  40.108  -4.268  1.00  0.00    -0.003 C 
ATOM     14  C   UNL     1     -17.119  39.679  -5.729  1.00  0.00     0.004 C 
ENDBRANCH  12  13
ENDBRANCH  11  12
ENDBRANCH  10  11
ENDBRANCH   9  10
ENDBRANCH   1   9
TORSDOF 10
ENDMDL
