MODEL 1
REMARK VINA RESULT:    -2.161      0.000      0.000
REMARK INTER + INTRA:          -6.185
REMARK INTER:                  -4.057
REMARK INTRA:                  -2.129
REMARK UNBOUND:                -2.129
REMARK SMILES CCCCCCCCC=CCCCCCCCC(=O)[O-]
REMARK SMILES IDX 10 1 9 2 11 3 12 4 13 5 14 6 15 7 16 8 17 9 18 10 19 11
REMARK SMILES IDX 20 12 8 13 7 14 6 15 5 16 4 17 3 18 2 19 1 20
REMARK H PARENT
REMARK Flexibility Score: inf
ROOT
ATOM      1  C   UNL     1      28.551  16.472   2.989  1.00  0.00    -0.031 C 
ATOM      2  C   UNL     1      28.009  17.535   2.363  1.00  0.00    -0.031 C 
ENDROOT
BRANCH   1   3
ATOM      3  C   UNL     1      27.947  15.090   3.057  1.00  0.00     0.027 C 
BRANCH   3   4
ATOM      4  C   UNL     1      28.948  14.014   2.615  1.00  0.00     0.004 C 
BRANCH   4   5
ATOM      5  C   UNL     1      30.346  14.589   2.350  1.00  0.00     0.000 C 
BRANCH   5   6
ATOM      6  C   UNL     1      30.873  14.143   0.979  1.00  0.00     0.000 C 
BRANCH   6   7
ATOM      7  C   UNL     1      31.614  15.264   0.227  1.00  0.00     0.000 C 
BRANCH   7   8
ATOM      8  C   UNL     1      30.822  16.575   0.070  1.00  0.00     0.006 C 
BRANCH   8   9
ATOM      9  C   UNL     1      30.853  17.125  -1.361  1.00  0.00     0.053 C 
BRANCH   9  10
ATOM     10  C   UNL     1      32.264  17.270  -1.835  1.00  0.00     0.041 C 
ATOM     11  O   UNL     1      32.661  16.631  -2.845  1.00  0.00    -0.550 OA
ATOM     12  O   UNL     1      33.155  18.073  -1.135  1.00  0.00    -0.550 OA
ENDBRANCH   9  10
ENDBRANCH   8   9
ENDBRANCH   7   8
ENDBRANCH   6   7
ENDBRANCH   5   6
ENDBRANCH   4   5
ENDBRANCH   3   4
ENDBRANCH   1   3
BRANCH   2  13
ATOM     13  C   UNL     1      26.729  17.526   1.562  1.00  0.00     0.027 C 
BRANCH  13  14
ATOM     14  C   UNL     1      27.007  17.459   0.055  1.00  0.00     0.004 C 
BRANCH  14  15
ATOM     15  C   UNL     1      27.491  16.068  -0.387  1.00  0.00     0.000 C 
BRANCH  15  16
ATOM     16  C   UNL     1      26.534  14.947   0.044  1.00  0.00     0.000 C 
BRANCH  16  17
ATOM     17  C   UNL     1      27.087  13.546  -0.269  1.00  0.00    -0.000 C 
BRANCH  17  18
ATOM     18  C   UNL     1      26.928  13.159  -1.751  1.00  0.00    -0.000 C 
BRANCH  18  19
ATOM     19  C   UNL     1      27.727  11.916  -2.182  1.00  0.00    -0.003 C 
ATOM     20  C   UNL     1      27.659  11.652  -3.685  1.00  0.00     0.004 C 
ENDBRANCH  18  19
ENDBRANCH  17  18
ENDBRANCH  16  17
ENDBRANCH  15  16
ENDBRANCH  14  15
ENDBRANCH  13  14
ENDBRANCH   2  13
TORSDOF 15
ENDMDL
MODEL 2
REMARK VINA RESULT:    -1.485      2.706      5.517
REMARK INTER + INTRA:          -4.915
REMARK INTER:                  -2.825
REMARK INTRA:                  -2.091
REMARK UNBOUND:                -2.129
REMARK SMILES CCCCCCCCC=CCCCCCCCC(=O)[O-]
REMARK SMILES IDX 10 1 9 2 11 3 12 4 13 5 14 6 15 7 16 8 17 9 18 10 19 11
REMARK SMILES IDX 20 12 8 13 7 14 6 15 5 16 4 17 3 18 2 19 1 20
REMARK H PARENT
REMARK Flexibility Score: inf
ROOT
ATOM      1  C   UNL     1      28.817  14.494   2.685  1.00  0.00    -0.031 C 
ATOM      2  C   UNL     1      30.014  14.770   2.134  1.00  0.00    -0.031 C 
ENDROOT
BRANCH   1   3
ATOM      3  C   UNL     1      28.014  13.235   2.459  1.00  0.00     0.027 C 
BRANCH   3   4
ATOM      4  C   UNL     1      26.777  13.502   1.591  1.00  0.00     0.004 C 
BRANCH   4   5
ATOM      5  C   UNL     1      27.126  13.635   0.102  1.00  0.00     0.000 C 
BRANCH   5   6
ATOM      6  C   UNL     1      26.830  15.053  -0.407  1.00  0.00     0.000 C 
BRANCH   6   7
ATOM      7  C   UNL     1      28.106  15.872  -0.675  1.00  0.00     0.000 C 
BRANCH   7   8
ATOM      8  C   UNL     1      28.152  17.248   0.014  1.00  0.00     0.006 C 
BRANCH   8   9
ATOM      9  C   UNL     1      26.759  17.804   0.332  1.00  0.00     0.053 C 
BRANCH   9  10
ATOM     10  C   UNL     1      26.624  18.071   1.797  1.00  0.00     0.041 C 
ATOM     11  O   UNL     1      25.643  18.729   2.234  1.00  0.00    -0.550 OA
ATOM     12  O   UNL     1      27.605  17.635   2.678  1.00  0.00    -0.550 OA
ENDBRANCH   9  10
ENDBRANCH   8   9
ENDBRANCH   7   8
ENDBRANCH   6   7
ENDBRANCH   5   6
ENDBRANCH   4   5
ENDBRANCH   3   4
ENDBRANCH   1   3
BRANCH   2  13
ATOM     13  C   UNL     1      30.803  13.848   1.235  1.00  0.00     0.027 C 
BRANCH  13  14
ATOM     14  C   UNL     1      31.805  14.624   0.371  1.00  0.00     0.004 C 
BRANCH  14  15
ATOM     15  C   UNL     1      31.515  16.134   0.357  1.00  0.00     0.000 C 
BRANCH  15  16
ATOM     16  C   UNL     1      31.614  16.739  -1.052  1.00  0.00     0.000 C 
BRANCH  16  17
ATOM     17  C   UNL     1      32.629  17.893  -1.128  1.00  0.00    -0.000 C 
BRANCH  17  18
ATOM     18  C   UNL     1      33.367  17.950  -2.478  1.00  0.00    -0.000 C 
BRANCH  18  19
ATOM     19  C   UNL     1      32.824  16.989  -3.551  1.00  0.00    -0.003 C 
ATOM     20  C   UNL     1      33.896  16.066  -4.125  1.00  0.00     0.004 C 
ENDBRANCH  18  19
ENDBRANCH  17  18
ENDBRANCH  16  17
ENDBRANCH  15  16
ENDBRANCH  14  15
ENDBRANCH  13  14
ENDBRANCH   2  13
TORSDOF 15
ENDMDL
MODEL 3
REMARK VINA RESULT:    -1.447      3.023      6.504
REMARK INTER + INTRA:          -4.846
REMARK INTER:                  -3.786
REMARK INTRA:                  -1.060
REMARK UNBOUND:                -2.129
REMARK SMILES CCCCCCCCC=CCCCCCCCC(=O)[O-]
REMARK SMILES IDX 10 1 9 2 11 3 12 4 13 5 14 6 15 7 16 8 17 9 18 10 19 11
REMARK SMILES IDX 20 12 8 13 7 14 6 15 5 16 4 17 3 18 2 19 1 20
REMARK H PARENT
REMARK Flexibility Score: inf
ROOT
ATOM      1  C   UNL     1      31.071  14.038   1.242  1.00  0.00    -0.031 C 
ATOM      2  C   UNL     1      31.295  15.008   0.335  1.00  0.00    -0.031 C 
ENDROOT
BRANCH   1   3
ATOM      3  C   UNL     1      30.265  14.188   2.509  1.00  0.00     0.027 C 
BRANCH   3   4
ATOM      4  C   UNL     1      28.899  14.834   2.238  1.00  0.00     0.004 C 
BRANCH   4   5
ATOM      5  C   UNL     1      27.765  13.801   2.178  1.00  0.00     0.000 C 
BRANCH   5   6
ATOM      6  C   UNL     1      27.042  13.856   0.825  1.00  0.00     0.000 C 
BRANCH   6   7
ATOM      7  C   UNL     1      27.561  14.985  -0.087  1.00  0.00     0.000 C 
BRANCH   7   8
ATOM      8  C   UNL     1      26.658  16.229  -0.158  1.00  0.00     0.006 C 
BRANCH   8   9
ATOM      9  C   UNL     1      27.367  17.509   0.299  1.00  0.00     0.053 C 
BRANCH   9  10
ATOM     10  C   UNL     1      26.863  17.935   1.642  1.00  0.00     0.041 C 
ATOM     11  O   UNL     1      25.831  18.652   1.733  1.00  0.00    -0.550 OA
ATOM     12  O   UNL     1      27.559  17.582   2.791  1.00  0.00    -0.550 OA
ENDBRANCH   9  10
ENDBRANCH   8   9
ENDBRANCH   7   8
ENDBRANCH   6   7
ENDBRANCH   5   6
ENDBRANCH   4   5
ENDBRANCH   3   4
ENDBRANCH   1   3
BRANCH   2  13
ATOM     13  C   UNL     1      30.732  16.409   0.387  1.00  0.00     0.027 C 
BRANCH  13  14
ATOM     14  C   UNL     1      30.844  17.112  -0.972  1.00  0.00     0.004 C 
BRANCH  14  15
ATOM     15  C   UNL     1      31.988  16.545  -1.828  1.00  0.00     0.000 C 
BRANCH  15  16
ATOM     16  C   UNL     1      32.985  17.628  -2.268  1.00  0.00     0.000 C 
BRANCH  16  17
ATOM     17  C   UNL     1      33.518  18.455  -1.085  1.00  0.00    -0.000 C 
BRANCH  17  18
ATOM     18  C   UNL     1      34.741  19.312  -1.458  1.00  0.00    -0.000 C 
BRANCH  18  19
ATOM     19  C   UNL     1      35.507  19.899  -0.258  1.00  0.00    -0.003 C 
ATOM     20  C   UNL     1      37.020  19.916  -0.466  1.00  0.00     0.004 C 
ENDBRANCH  18  19
ENDBRANCH  17  18
ENDBRANCH  16  17
ENDBRANCH  15  16
ENDBRANCH  14  15
ENDBRANCH  13  14
ENDBRANCH   2  13
TORSDOF 15
ENDMDL
MODEL 4
REMARK VINA RESULT:    -1.434      2.925      6.472
REMARK INTER + INTRA:          -4.820
REMARK INTER:                  -3.927
REMARK INTRA:                  -0.893
REMARK UNBOUND:                -2.129
REMARK SMILES CCCCCCCCC=CCCCCCCCC(=O)[O-]
REMARK SMILES IDX 10 1 9 2 11 3 12 4 13 5 14 6 15 7 16 8 17 9 18 10 19 11
REMARK SMILES IDX 20 12 8 13 7 14 6 15 5 16 4 17 3 18 2 19 1 20
REMARK H PARENT
REMARK Flexibility Score: inf
ROOT
ATOM      1  C   UNL     1      29.924  14.525   2.214  1.00  0.00    -0.031 C 
ATOM      2  C   UNL     1      30.766  14.231   1.204  1.00  0.00    -0.031 C 
ENDROOT
BRANCH   1   3
ATOM      3  C   UNL     1      29.635  15.909   2.743  1.00  0.00     0.027 C 
BRANCH   3   4
ATOM      4  C   UNL     1      28.128  16.149   2.904  1.00  0.00     0.004 C 
BRANCH   4   5
ATOM      5  C   UNL     1      27.762  17.638   2.822  1.00  0.00     0.000 C 
BRANCH   5   6
ATOM      6  C   UNL     1      26.675  17.879   1.765  1.00  0.00     0.000 C 
BRANCH   6   7
ATOM      7  C   UNL     1      27.158  17.588   0.331  1.00  0.00     0.000 C 
BRANCH   7   8
ATOM      8  C   UNL     1      26.623  16.281  -0.282  1.00  0.00     0.006 C 
BRANCH   8   9
ATOM      9  C   UNL     1      27.711  15.216  -0.463  1.00  0.00     0.053 C 
BRANCH   9  10
ATOM     10  C   UNL     1      27.161  13.853  -0.184  1.00  0.00     0.041 C 
ATOM     11  O   UNL     1      26.934  13.055  -1.131  1.00  0.00    -0.550 OA
ATOM     12  O   UNL     1      26.854  13.479   1.119  1.00  0.00    -0.550 OA
ENDBRANCH   9  10
ENDBRANCH   8   9
ENDBRANCH   7   8
ENDBRANCH   6   7
ENDBRANCH   5   6
ENDBRANCH   4   5
ENDBRANCH   3   4
ENDBRANCH   1   3
BRANCH   2  13
ATOM     13  C   UNL     1      31.530  15.235   0.375  1.00  0.00     0.027 C 
BRANCH  13  14
ATOM     14  C   UNL     1      30.643  16.417  -0.038  1.00  0.00     0.004 C 
BRANCH  14  15
ATOM     15  C   UNL     1      31.112  17.067  -1.350  1.00  0.00     0.000 C 
BRANCH  15  16
ATOM     16  C   UNL     1      32.641  17.191  -1.431  1.00  0.00     0.000 C 
BRANCH  16  17
ATOM     17  C   UNL     1      33.146  18.573  -0.980  1.00  0.00    -0.000 C 
BRANCH  17  18
ATOM     18  C   UNL     1      34.609  18.835  -1.383  1.00  0.00    -0.000 C 
BRANCH  18  19
ATOM     19  C   UNL     1      35.334  19.888  -0.526  1.00  0.00    -0.003 C 
ATOM     20  C   UNL     1      36.855  19.809  -0.642  1.00  0.00     0.004 C 
ENDBRANCH  18  19
ENDBRANCH  17  18
ENDBRANCH  16  17
ENDBRANCH  15  16
ENDBRANCH  14  15
ENDBRANCH  13  14
ENDBRANCH   2  13
TORSDOF 15
ENDMDL
MODEL 5
REMARK VINA RESULT:    -1.432     16.939     19.238
REMARK INTER + INTRA:          -4.816
REMARK INTER:                  -3.997
REMARK INTRA:                  -0.819
REMARK UNBOUND:                -2.129
REMARK SMILES CCCCCCCCC=CCCCCCCCC(=O)[O-]
REMARK SMILES IDX 10 1 9 2 11 3 12 4 13 5 14 6 15 7 16 8 17 9 18 10 19 11
REMARK SMILES IDX 20 12 8 13 7 14 6 15 5 16 4 17 3 18 2 19 1 20
REMARK H PARENT
REMARK Flexibility Score: inf
ROOT
ATOM      1  C   UNL     1      22.153  21.700  13.498  1.00  0.00    -0.031 C 
ATOM      2  C   UNL     1      22.084  22.708  12.607  1.00  0.00    -0.031 C 
ENDROOT
BRANCH   1   3
ATOM      3  C   UNL     1      21.598  21.727  14.901  1.00  0.00     0.027 C 
BRANCH   3   4
ATOM      4  C   UNL     1      20.805  20.452  15.220  1.00  0.00     0.004 C 
BRANCH   4   5
ATOM      5  C   UNL     1      19.574  20.732  16.092  1.00  0.00     0.000 C 
BRANCH   5   6
ATOM      6  C   UNL     1      18.283  20.639  15.266  1.00  0.00     0.000 C 
BRANCH   6   7
ATOM      7  C   UNL     1      17.374  21.872  15.432  1.00  0.00     0.000 C 
BRANCH   7   8
ATOM      8  C   UNL     1      17.099  22.656  14.136  1.00  0.00     0.006 C 
BRANCH   8   9
ATOM      9  C   UNL     1      16.875  24.153  14.379  1.00  0.00     0.053 C 
BRANCH   9  10
ATOM     10  C   UNL     1      18.157  24.816  14.773  1.00  0.00     0.041 C 
ATOM     11  O   UNL     1      19.037  25.060  13.905  1.00  0.00    -0.550 OA
ATOM     12  O   UNL     1      18.401  25.124  16.105  1.00  0.00    -0.550 OA
ENDBRANCH   9  10
ENDBRANCH   8   9
ENDBRANCH   7   8
ENDBRANCH   6   7
ENDBRANCH   5   6
ENDBRANCH   4   5
ENDBRANCH   3   4
ENDBRANCH   1   3
BRANCH   2  13
ATOM     13  C   UNL     1      21.385  24.029  12.825  1.00  0.00     0.027 C 
BRANCH  13  14
ATOM     14  C   UNL     1      22.338  25.080  13.409  1.00  0.00     0.004 C 
BRANCH  14  15
ATOM     15  C   UNL     1      22.806  24.719  14.828  1.00  0.00     0.000 C 
BRANCH  15  16
ATOM     16  C   UNL     1      24.266  25.121  15.085  1.00  0.00     0.000 C 
BRANCH  16  17
ATOM     17  C   UNL     1      24.952  24.216  16.123  1.00  0.00    -0.000 C 
BRANCH  17  18
ATOM     18  C   UNL     1      25.942  23.222  15.487  1.00  0.00    -0.000 C 
BRANCH  18  19
ATOM     19  C   UNL     1      25.304  21.921  14.967  1.00  0.00    -0.003 C 
ATOM     20  C   UNL     1      24.902  20.963  16.086  1.00  0.00     0.004 C 
ENDBRANCH  18  19
ENDBRANCH  17  18
ENDBRANCH  16  17
ENDBRANCH  15  16
ENDBRANCH  14  15
ENDBRANCH  13  14
ENDBRANCH   2  13
TORSDOF 15
ENDMDL
MODEL 6
REMARK VINA RESULT:    -1.334      2.512      5.557
REMARK INTER + INTRA:          -4.633
REMARK INTER:                  -3.345
REMARK INTRA:                  -1.288
REMARK UNBOUND:                -2.129
REMARK SMILES CCCCCCCCC=CCCCCCCCC(=O)[O-]
REMARK SMILES IDX 10 1 9 2 11 3 12 4 13 5 14 6 15 7 16 8 17 9 18 10 19 11
REMARK SMILES IDX 20 12 8 13 7 14 6 15 5 16 4 17 3 18 2 19 1 20
REMARK H PARENT
REMARK Flexibility Score: inf
ROOT
ATOM      1  C   UNL     1      28.057  17.531   2.695  1.00  0.00    -0.031 C 
ATOM      2  C   UNL     1      28.917  16.534   2.977  1.00  0.00    -0.031 C 
ENDROOT
BRANCH   1   3
ATOM      3  C   UNL     1      26.768  17.389   1.922  1.00  0.00     0.027 C 
BRANCH   3   4
ATOM      4  C   UNL     1      26.972  17.666   0.426  1.00  0.00     0.004 C 
BRANCH   4   5
ATOM      5  C   UNL     1      27.371  16.405  -0.353  1.00  0.00     0.000 C 
BRANCH   5   6
ATOM      6  C   UNL     1      26.496  15.210   0.051  1.00  0.00     0.000 C 
BRANCH   6   7
ATOM      7  C   UNL     1      27.206  13.856  -0.136  1.00  0.00     0.000 C 
BRANCH   7   8
ATOM      8  C   UNL     1      26.960  13.176  -1.495  1.00  0.00     0.006 C 
BRANCH   8   9
ATOM      9  C   UNL     1      27.696  11.839  -1.636  1.00  0.00     0.053 C 
BRANCH   9  10
ATOM     10  C   UNL     1      27.503  11.277  -3.009  1.00  0.00     0.041 C 
ATOM     11  O   UNL     1      27.200  10.064  -3.160  1.00  0.00    -0.550 OA
ATOM     12  O   UNL     1      27.704  12.080  -4.125  1.00  0.00    -0.550 OA
ENDBRANCH   9  10
ENDBRANCH   8   9
ENDBRANCH   7   8
ENDBRANCH   6   7
ENDBRANCH   5   6
ENDBRANCH   4   5
ENDBRANCH   3   4
ENDBRANCH   1   3
BRANCH   2  13
ATOM     13  C   UNL     1      28.722  15.078   2.626  1.00  0.00     0.027 C 
BRANCH  13  14
ATOM     14  C   UNL     1      30.064  14.354   2.454  1.00  0.00     0.004 C 
BRANCH  14  15
ATOM     15  C   UNL     1      30.411  14.114   0.976  1.00  0.00     0.000 C 
BRANCH  15  16
ATOM     16  C   UNL     1      31.272  15.240   0.383  1.00  0.00     0.000 C 
BRANCH  16  17
ATOM     17  C   UNL     1      30.440  16.476  -0.004  1.00  0.00    -0.000 C 
BRANCH  17  18
ATOM     18  C   UNL     1      30.840  17.059  -1.372  1.00  0.00    -0.000 C 
BRANCH  18  19
ATOM     19  C   UNL     1      32.331  16.907  -1.726  1.00  0.00    -0.003 C 
ATOM     20  C   UNL     1      33.182  18.082  -1.251  1.00  0.00     0.004 C 
ENDBRANCH  18  19
ENDBRANCH  17  18
ENDBRANCH  16  17
ENDBRANCH  15  16
ENDBRANCH  14  15
ENDBRANCH  13  14
ENDBRANCH   2  13
TORSDOF 15
ENDMDL
MODEL 7
REMARK VINA RESULT:    -1.178      2.728      5.698
REMARK INTER + INTRA:          -4.340
REMARK INTER:                  -3.332
REMARK INTRA:                  -1.008
REMARK UNBOUND:                -2.129
REMARK SMILES CCCCCCCCC=CCCCCCCCC(=O)[O-]
REMARK SMILES IDX 10 1 9 2 11 3 12 4 13 5 14 6 15 7 16 8 17 9 18 10 19 11
REMARK SMILES IDX 20 12 8 13 7 14 6 15 5 16 4 17 3 18 2 19 1 20
REMARK H PARENT
REMARK Flexibility Score: inf
ROOT
ATOM      1  C   UNL     1      30.024  14.472   2.313  1.00  0.00    -0.031 C 
ATOM      2  C   UNL     1      30.783  14.211   1.232  1.00  0.00    -0.031 C 
ENDROOT
BRANCH   1   3
ATOM      3  C   UNL     1      29.715  15.844   2.860  1.00  0.00     0.027 C 
BRANCH   3   4
ATOM      4  C   UNL     1      28.202  16.090   2.948  1.00  0.00     0.004 C 
BRANCH   4   5
ATOM      5  C   UNL     1      27.846  17.581   2.853  1.00  0.00     0.000 C 
BRANCH   5   6
ATOM      6  C   UNL     1      26.691  17.807   1.868  1.00  0.00     0.000 C 
BRANCH   6   7
ATOM      7  C   UNL     1      27.108  17.610   0.398  1.00  0.00     0.000 C 
BRANCH   7   8
ATOM      8  C   UNL     1      26.611  16.304  -0.248  1.00  0.00     0.006 C 
BRANCH   8   9
ATOM      9  C   UNL     1      27.712  15.245  -0.378  1.00  0.00     0.053 C 
BRANCH   9  10
ATOM     10  C   UNL     1      27.159  13.880  -0.119  1.00  0.00     0.041 C 
ATOM     11  O   UNL     1      26.862  13.528   1.053  1.00  0.00    -0.550 OA
ATOM     12  O   UNL     1      27.014  12.977  -1.165  1.00  0.00    -0.550 OA
ENDBRANCH   9  10
ENDBRANCH   8   9
ENDBRANCH   7   8
ENDBRANCH   6   7
ENDBRANCH   5   6
ENDBRANCH   4   5
ENDBRANCH   3   4
ENDBRANCH   1   3
BRANCH   2  13
ATOM     13  C   UNL     1      31.417  15.244   0.331  1.00  0.00     0.027 C 
BRANCH  13  14
ATOM     14  C   UNL     1      30.359  16.110  -0.365  1.00  0.00     0.004 C 
BRANCH  14  15
ATOM     15  C   UNL     1      30.976  17.327  -1.073  1.00  0.00     0.000 C 
BRANCH  15  16
ATOM     16  C   UNL     1      32.511  17.286  -1.084  1.00  0.00     0.000 C 
BRANCH  16  17
ATOM     17  C   UNL     1      33.110  17.941  -2.341  1.00  0.00    -0.000 C 
BRANCH  17  18
ATOM     18  C   UNL     1      32.661  17.252  -3.643  1.00  0.00    -0.000 C 
BRANCH  18  19
ATOM     19  C   UNL     1      33.586  16.120  -4.125  1.00  0.00    -0.003 C 
ATOM     20  C   UNL     1      35.065  16.501  -4.092  1.00  0.00     0.004 C 
ENDBRANCH  18  19
ENDBRANCH  17  18
ENDBRANCH  16  17
ENDBRANCH  15  16
ENDBRANCH  14  15
ENDBRANCH  13  14
ENDBRANCH   2  13
TORSDOF 15
ENDMDL
MODEL 8
REMARK VINA RESULT:    -1.118      2.158      4.454
REMARK INTER + INTRA:          -4.228
REMARK INTER:                  -2.665
REMARK INTRA:                  -1.563
REMARK UNBOUND:                -2.129
REMARK SMILES CCCCCCCCC=CCCCCCCCC(=O)[O-]
REMARK SMILES IDX 10 1 9 2 11 3 12 4 13 5 14 6 15 7 16 8 17 9 18 10 19 11
REMARK SMILES IDX 20 12 8 13 7 14 6 15 5 16 4 17 3 18 2 19 1 20
REMARK H PARENT
REMARK Flexibility Score: inf
ROOT
ATOM      1  C   UNL     1      30.047  15.216   2.049  1.00  0.00    -0.031 C 
ATOM      2  C   UNL     1      28.927  14.940   2.745  1.00  0.00    -0.031 C 
ENDROOT
BRANCH   1   3
ATOM      3  C   UNL     1      30.762  14.265   1.121  1.00  0.00     0.027 C 
BRANCH   3   4
ATOM      4  C   UNL     1      31.839  14.982   0.297  1.00  0.00     0.004 C 
BRANCH   4   5
ATOM      5  C   UNL     1      31.412  16.398  -0.117  1.00  0.00     0.000 C 
BRANCH   5   6
ATOM      6  C   UNL     1      32.246  16.898  -1.306  1.00  0.00     0.000 C 
BRANCH   6   7
ATOM      7  C   UNL     1      32.755  18.339  -1.117  1.00  0.00     0.000 C 
BRANCH   7   8
ATOM      8  C   UNL     1      34.226  18.565  -1.508  1.00  0.00     0.006 C 
BRANCH   8   9
ATOM      9  C   UNL     1      34.891  19.692  -0.709  1.00  0.00     0.053 C 
BRANCH   9  10
ATOM     10  C   UNL     1      36.381  19.572  -0.774  1.00  0.00     0.041 C 
ATOM     11  O   UNL     1      37.110  20.364  -0.121  1.00  0.00    -0.550 OA
ATOM     12  O   UNL     1      36.967  18.616  -1.595  1.00  0.00    -0.550 OA
ENDBRANCH   9  10
ENDBRANCH   8   9
ENDBRANCH   7   8
ENDBRANCH   6   7
ENDBRANCH   5   6
ENDBRANCH   4   5
ENDBRANCH   3   4
ENDBRANCH   1   3
BRANCH   2  13
ATOM     13  C   UNL     1      28.145  13.649   2.679  1.00  0.00     0.027 C 
BRANCH  13  14
ATOM     14  C   UNL     1      26.984  13.744   1.680  1.00  0.00     0.004 C 
BRANCH  14  15
ATOM     15  C   UNL     1      27.469  14.036   0.250  1.00  0.00     0.000 C 
BRANCH  15  16
ATOM     16  C   UNL     1      26.893  15.345  -0.310  1.00  0.00     0.000 C 
BRANCH  16  17
ATOM     17  C   UNL     1      27.982  16.394  -0.594  1.00  0.00    -0.000 C 
BRANCH  17  18
ATOM     18  C   UNL     1      27.878  17.626   0.324  1.00  0.00    -0.000 C 
BRANCH  18  19
ATOM     19  C   UNL     1      26.922  17.459   1.520  1.00  0.00    -0.003 C 
ATOM     20  C   UNL     1      25.913  18.599   1.642  1.00  0.00     0.004 C 
ENDBRANCH  18  19
ENDBRANCH  17  18
ENDBRANCH  16  17
ENDBRANCH  15  16
ENDBRANCH  14  15
ENDBRANCH  13  14
ENDBRANCH   2  13
TORSDOF 15
ENDMDL
MODEL 9
REMARK VINA RESULT:    -1.117      1.001      2.623
REMARK INTER + INTRA:          -4.225
REMARK INTER:                  -2.891
REMARK INTRA:                  -1.333
REMARK UNBOUND:                -2.129
REMARK SMILES CCCCCCCCC=CCCCCCCCC(=O)[O-]
REMARK SMILES IDX 10 1 9 2 11 3 12 4 13 5 14 6 15 7 16 8 17 9 18 10 19 11
REMARK SMILES IDX 20 12 8 13 7 14 6 15 5 16 4 17 3 18 2 19 1 20
REMARK H PARENT
REMARK Flexibility Score: inf
ROOT
ATOM      1  C   UNL     1      29.248  16.070   2.615  1.00  0.00    -0.031 C 
ATOM      2  C   UNL     1      29.334  14.729   2.526  1.00  0.00    -0.031 C 
ENDROOT
BRANCH   1   3
ATOM      3  C   UNL     1      28.082  16.842   3.185  1.00  0.00     0.027 C 
BRANCH   3   4
ATOM      4  C   UNL     1      27.030  17.153   2.112  1.00  0.00     0.004 C 
BRANCH   4   5
ATOM      5  C   UNL     1      27.612  17.952   0.938  1.00  0.00     0.000 C 
BRANCH   5   6
ATOM      6  C   UNL     1      27.588  17.125  -0.355  1.00  0.00     0.000 C 
BRANCH   6   7
ATOM      7  C   UNL     1      28.924  16.411  -0.635  1.00  0.00     0.000 C 
BRANCH   7   8
ATOM      8  C   UNL     1      30.140  17.343  -0.786  1.00  0.00     0.006 C 
BRANCH   8   9
ATOM      9  C   UNL     1      31.477  16.595  -0.735  1.00  0.00     0.053 C 
BRANCH   9  10
ATOM     10  C   UNL     1      32.457  17.208  -1.684  1.00  0.00     0.041 C 
ATOM     11  O   UNL     1      32.585  16.747  -2.849  1.00  0.00    -0.550 OA
ATOM     12  O   UNL     1      33.264  18.260  -1.268  1.00  0.00    -0.550 OA
ENDBRANCH   9  10
ENDBRANCH   8   9
ENDBRANCH   7   8
ENDBRANCH   6   7
ENDBRANCH   5   6
ENDBRANCH   4   5
ENDBRANCH   3   4
ENDBRANCH   1   3
BRANCH   2  13
ATOM     13  C   UNL     1      28.307  13.746   3.037  1.00  0.00     0.027 C 
BRANCH  13  14
ATOM     14  C   UNL     1      27.197  13.504   2.006  1.00  0.00     0.004 C 
BRANCH  14  15
ATOM     15  C   UNL     1      27.651  13.833   0.574  1.00  0.00     0.000 C 
BRANCH  15  16
ATOM     16  C   UNL     1      26.484  13.840  -0.426  1.00  0.00     0.000 C 
BRANCH  16  17
ATOM     17  C   UNL     1      26.914  13.398  -1.835  1.00  0.00    -0.000 C 
BRANCH  17  18
ATOM     18  C   UNL     1      27.654  12.047  -1.837  1.00  0.00    -0.000 C 
BRANCH  18  19
ATOM     19  C   UNL     1      27.547  11.256  -3.154  1.00  0.00    -0.003 C 
ATOM     20  C   UNL     1      27.095   9.812  -2.949  1.00  0.00     0.004 C 
ENDBRANCH  18  19
ENDBRANCH  17  18
ENDBRANCH  16  17
ENDBRANCH  15  16
ENDBRANCH  14  15
ENDBRANCH  13  14
ENDBRANCH   2  13
TORSDOF 15
ENDMDL
