MODEL 1
REMARK VINA RESULT:    -3.779      0.000      0.000
REMARK INTER + INTRA:          -4.747
REMARK INTER:                  -4.663
REMARK INTRA:                  -0.084
REMARK UNBOUND:                -0.084
REMARK SMILES CCCCCC(=O)[O-]
REMARK SMILES IDX 4 1 5 2 6 3 7 4 8 5 3 6 2 7 1 8
REMARK H PARENT
REMARK Flexibility Score: inf
ROOT
ATOM      1  C   UNL     1      37.009  72.255  73.976  1.00  0.00     0.006 C 
ENDROOT
BRANCH   1   2
ATOM      2  C   UNL     1      36.683  72.052  75.458  1.00  0.00     0.053 C 
BRANCH   2   3
ATOM      3  C   UNL     1      36.672  70.596  75.799  1.00  0.00     0.041 C 
ATOM      4  O   UNL     1      37.441  70.148  76.690  1.00  0.00    -0.550 OA
ATOM      5  O   UNL     1      35.777  69.741  75.168  1.00  0.00    -0.550 OA
ENDBRANCH   2   3
ENDBRANCH   1   2
BRANCH   1   6
ATOM      6  C   UNL     1      36.979  73.742  73.604  1.00  0.00     0.000 C 
BRANCH   6   7
ATOM      7  C   UNL     1      38.156  74.105  72.690  1.00  0.00    -0.003 C 
ATOM      8  C   UNL     1      39.335  74.642  73.495  1.00  0.00     0.004 C 
ENDBRANCH   6   7
ENDBRANCH   1   6
TORSDOF 4
ENDMDL
MODEL 2
REMARK VINA RESULT:    -3.480      2.825      4.728
REMARK INTER + INTRA:          -4.377
REMARK INTER:                  -4.329
REMARK INTRA:                  -0.048
REMARK UNBOUND:                -0.084
REMARK SMILES CCCCCC(=O)[O-]
REMARK SMILES IDX 4 1 5 2 6 3 7 4 8 5 3 6 2 7 1 8
REMARK H PARENT
REMARK Flexibility Score: inf
ROOT
ATOM      1  C   UNL     1      37.300  72.235  75.093  1.00  0.00     0.006 C 
ENDROOT
BRANCH   1   2
ATOM      2  C   UNL     1      36.623  73.047  73.985  1.00  0.00     0.053 C 
BRANCH   2   3
ATOM      3  C   UNL     1      37.636  73.532  72.998  1.00  0.00     0.041 C 
ATOM      4  O   UNL     1      37.447  73.369  71.763  1.00  0.00    -0.550 OA
ATOM      5  O   UNL     1      38.766  74.211  73.437  1.00  0.00    -0.550 OA
ENDBRANCH   2   3
ENDBRANCH   1   2
BRANCH   1   6
ATOM      6  C   UNL     1      36.445  71.025  75.488  1.00  0.00     0.000 C 
BRANCH   6   7
ATOM      7  C   UNL     1      37.267  70.008  76.290  1.00  0.00    -0.003 C 
ATOM      8  C   UNL     1      36.889  68.577  75.920  1.00  0.00     0.004 C 
ENDBRANCH   6   7
ENDBRANCH   1   6
TORSDOF 4
ENDMDL
MODEL 3
REMARK VINA RESULT:    -3.371      3.351      4.905
REMARK INTER + INTRA:          -4.243
REMARK INTER:                  -4.156
REMARK INTRA:                  -0.086
REMARK UNBOUND:                -0.084
REMARK SMILES CCCCCC(=O)[O-]
REMARK SMILES IDX 4 1 5 2 6 3 7 4 8 5 3 6 2 7 1 8
REMARK H PARENT
REMARK Flexibility Score: inf
ROOT
ATOM      1  C   UNL     1      37.099  73.786  73.593  1.00  0.00     0.006 C 
ENDROOT
BRANCH   1   2
ATOM      2  C   UNL     1      38.058  73.961  72.412  1.00  0.00     0.053 C 
BRANCH   2   3
ATOM      3  C   UNL     1      39.251  74.766  72.821  1.00  0.00     0.041 C 
ATOM      4  O   UNL     1      39.832  75.508  71.984  1.00  0.00    -0.550 OA
ATOM      5  O   UNL     1      39.692  74.736  74.137  1.00  0.00    -0.550 OA
ENDBRANCH   2   3
ENDBRANCH   1   2
BRANCH   1   6
ATOM      6  C   UNL     1      36.952  72.306  73.967  1.00  0.00     0.000 C 
BRANCH   6   7
ATOM      7  C   UNL     1      36.735  72.139  75.476  1.00  0.00    -0.003 C 
ATOM      8  C   UNL     1      36.678  70.665  75.865  1.00  0.00     0.004 C 
ENDBRANCH   6   7
ENDBRANCH   1   6
TORSDOF 4
ENDMDL
MODEL 4
REMARK VINA RESULT:    -3.296      1.382      2.067
REMARK INTER + INTRA:          -4.151
REMARK INTER:                  -4.094
REMARK INTRA:                  -0.057
REMARK UNBOUND:                -0.084
REMARK SMILES CCCCCC(=O)[O-]
REMARK SMILES IDX 4 1 5 2 6 3 7 4 8 5 3 6 2 7 1 8
REMARK H PARENT
REMARK Flexibility Score: inf
ROOT
ATOM      1  C   UNL     1      36.370  71.080  75.501  1.00  0.00     0.006 C 
ENDROOT
BRANCH   1   2
ATOM      2  C   UNL     1      37.115  69.972  76.251  1.00  0.00     0.053 C 
BRANCH   2   3
ATOM      3  C   UNL     1      36.735  68.629  75.716  1.00  0.00     0.041 C 
ATOM      4  O   UNL     1      37.323  67.593  76.127  1.00  0.00    -0.550 OA
ATOM      5  O   UNL     1      35.696  68.514  74.800  1.00  0.00    -0.550 OA
ENDBRANCH   2   3
ENDBRANCH   1   2
BRANCH   1   6
ATOM      6  C   UNL     1      37.318  72.225  75.127  1.00  0.00     0.000 C 
BRANCH   6   7
ATOM      7  C   UNL     1      36.736  73.072  73.989  1.00  0.00    -0.003 C 
ATOM      8  C   UNL     1      37.838  73.794  73.220  1.00  0.00     0.004 C 
ENDBRANCH   6   7
ENDBRANCH   1   6
TORSDOF 4
ENDMDL
MODEL 5
REMARK VINA RESULT:    -3.248     12.762     13.470
REMARK INTER + INTRA:          -4.091
REMARK INTER:                  -4.012
REMARK INTRA:                  -0.079
REMARK UNBOUND:                -0.084
REMARK SMILES CCCCCC(=O)[O-]
REMARK SMILES IDX 4 1 5 2 6 3 7 4 8 5 3 6 2 7 1 8
REMARK H PARENT
REMARK Flexibility Score: inf
ROOT
ATOM      1  C   UNL     1      25.742  66.214  75.887  1.00  0.00     0.006 C 
ENDROOT
BRANCH   1   2
ATOM      2  C   UNL     1      26.813  65.593  74.985  1.00  0.00     0.053 C 
BRANCH   2   3
ATOM      3  C   UNL     1      26.179  64.809  73.881  1.00  0.00     0.041 C 
ATOM      4  O   UNL     1      25.991  63.570  74.010  1.00  0.00    -0.550 OA
ATOM      5  O   UNL     1      25.749  65.454  72.728  1.00  0.00    -0.550 OA
ENDBRANCH   2   3
ENDBRANCH   1   2
BRANCH   1   6
ATOM      6  C   UNL     1      25.929  67.731  76.000  1.00  0.00     0.000 C 
BRANCH   6   7
ATOM      7  C   UNL     1      24.586  68.437  76.217  1.00  0.00    -0.003 C 
ATOM      8  C   UNL     1      23.906  67.951  77.493  1.00  0.00     0.004 C 
ENDBRANCH   6   7
ENDBRANCH   1   6
TORSDOF 4
ENDMDL
MODEL 6
REMARK VINA RESULT:    -3.165     12.630     13.624
REMARK INTER + INTRA:          -3.989
REMARK INTER:                  -3.848
REMARK INTRA:                  -0.141
REMARK UNBOUND:                -0.084
REMARK SMILES CCCCCC(=O)[O-]
REMARK SMILES IDX 4 1 5 2 6 3 7 4 8 5 3 6 2 7 1 8
REMARK H PARENT
REMARK Flexibility Score: inf
ROOT
ATOM      1  C   UNL     1      26.619  66.505  75.458  1.00  0.00     0.006 C 
ENDROOT
BRANCH   1   2
ATOM      2  C   UNL     1      25.780  65.226  75.520  1.00  0.00     0.053 C 
BRANCH   2   3
ATOM      3  C   UNL     1      25.872  64.475  74.230  1.00  0.00     0.041 C 
ATOM      4  O   UNL     1      26.016  65.097  73.144  1.00  0.00    -0.550 OA
ATOM      5  O   UNL     1      25.849  63.087  74.230  1.00  0.00    -0.550 OA
ENDBRANCH   2   3
ENDBRANCH   1   2
BRANCH   1   6
ATOM      6  C   UNL     1      25.828  67.708  75.985  1.00  0.00     0.000 C 
BRANCH   6   7
ATOM      7  C   UNL     1      24.535  67.257  76.674  1.00  0.00    -0.003 C 
ATOM      8  C   UNL     1      23.932  68.384  77.508  1.00  0.00     0.004 C 
ENDBRANCH   6   7
ENDBRANCH   1   6
TORSDOF 4
ENDMDL
MODEL 7
REMARK VINA RESULT:    -3.025     12.801     13.660
REMARK INTER + INTRA:          -3.816
REMARK INTER:                  -3.711
REMARK INTRA:                  -0.105
REMARK UNBOUND:                -0.084
REMARK SMILES CCCCCC(=O)[O-]
REMARK SMILES IDX 4 1 5 2 6 3 7 4 8 5 3 6 2 7 1 8
REMARK H PARENT
REMARK Flexibility Score: inf
ROOT
ATOM      1  C   UNL     1      26.318  67.003  75.534  1.00  0.00     0.006 C 
ENDROOT
BRANCH   1   2
ATOM      2  C   UNL     1      25.019  66.893  76.337  1.00  0.00     0.053 C 
BRANCH   2   3
ATOM      3  C   UNL     1      24.333  68.221  76.410  1.00  0.00     0.041 C 
ATOM      4  O   UNL     1      24.134  68.771  77.525  1.00  0.00    -0.550 OA
ATOM      5  O   UNL     1      23.960  68.875  75.243  1.00  0.00    -0.550 OA
ENDBRANCH   2   3
ENDBRANCH   1   2
BRANCH   1   6
ATOM      6  C   UNL     1      26.834  65.618  75.130  1.00  0.00     0.000 C 
BRANCH   6   7
ATOM      7  C   UNL     1      26.179  65.145  73.827  1.00  0.00    -0.003 C 
ATOM      8  C   UNL     1      25.439  63.826  74.028  1.00  0.00     0.004 C 
ENDBRANCH   6   7
ENDBRANCH   1   6
TORSDOF 4
ENDMDL
MODEL 8
REMARK VINA RESULT:    -3.004     12.877     13.695
REMARK INTER + INTRA:          -3.791
REMARK INTER:                  -3.619
REMARK INTRA:                  -0.172
REMARK UNBOUND:                -0.084
REMARK SMILES CCCCCC(=O)[O-]
REMARK SMILES IDX 4 1 5 2 6 3 7 4 8 5 3 6 2 7 1 8
REMARK H PARENT
REMARK Flexibility Score: inf
ROOT
ATOM      1  C   UNL     1      26.671  65.364  75.074  1.00  0.00     0.006 C 
ENDROOT
BRANCH   1   2
ATOM      2  C   UNL     1      25.853  64.072  74.991  1.00  0.00     0.053 C 
BRANCH   2   3
ATOM      3  C   UNL     1      25.626  63.506  76.356  1.00  0.00     0.041 C 
ATOM      4  O   UNL     1      26.357  62.574  76.786  1.00  0.00    -0.550 OA
ATOM      5  O   UNL     1      24.641  64.042  77.176  1.00  0.00    -0.550 OA
ENDBRANCH   2   3
ENDBRANCH   1   2
BRANCH   1   6
ATOM      6  C   UNL     1      25.779  66.594  74.873  1.00  0.00     0.000 C 
BRANCH   6   7
ATOM      7  C   UNL     1      25.987  67.615  75.998  1.00  0.00    -0.003 C 
ATOM      8  C   UNL     1      24.693  67.857  76.769  1.00  0.00     0.004 C 
ENDBRANCH   6   7
ENDBRANCH   1   6
TORSDOF 4
ENDMDL
MODEL 9
REMARK VINA RESULT:    -2.907     19.118     21.102
REMARK INTER + INTRA:          -3.671
REMARK INTER:                  -3.584
REMARK INTRA:                  -0.087
REMARK UNBOUND:                -0.084
REMARK SMILES CCCCCC(=O)[O-]
REMARK SMILES IDX 4 1 5 2 6 3 7 4 8 5 3 6 2 7 1 8
REMARK H PARENT
REMARK Flexibility Score: inf
ROOT
ATOM      1  C   UNL     1      27.327  58.909  88.099  1.00  0.00     0.006 C 
ENDROOT
BRANCH   1   2
ATOM      2  C   UNL     1      28.130  59.601  86.993  1.00  0.00     0.053 C 
BRANCH   2   3
ATOM      3  C   UNL     1      27.747  61.043  86.892  1.00  0.00     0.041 C 
ATOM      4  O   UNL     1      28.033  61.842  87.823  1.00  0.00    -0.550 OA
ATOM      5  O   UNL     1      27.119  61.517  85.747  1.00  0.00    -0.550 OA
ENDBRANCH   2   3
ENDBRANCH   1   2
BRANCH   1   6
ATOM      6  C   UNL     1      27.476  57.386  88.015  1.00  0.00     0.000 C 
BRANCH   6   7
ATOM      7  C   UNL     1      28.824  56.931  88.588  1.00  0.00    -0.003 C 
ATOM      8  C   UNL     1      28.811  56.953  90.113  1.00  0.00     0.004 C 
ENDBRANCH   6   7
ENDBRANCH   1   6
TORSDOF 4
ENDMDL
