MODEL 1
REMARK VINA RESULT:    -2.963      0.000      0.000
REMARK INTER + INTRA:         -10.940
REMARK INTER:                  -7.467
REMARK INTRA:                  -3.473
REMARK UNBOUND:                -3.473
REMARK SMILES CCCCCCCCCCCCCCCCCCCCCCCCCCCC(=O)[O-]
REMARK SMILES IDX 15 1 16 2 17 3 18 4 19 5 20 6 21 7 22 8 23 9 24 10 25 11
REMARK SMILES IDX 26 12 27 13 28 14 29 15 30 16 14 17 13 18 12 19 11 20 10 21
REMARK SMILES IDX 9 22 8 23 7 24 6 25 5 26 4 27 3 28 2 29 1 30
REMARK H PARENT
REMARK Flexibility Score: inf
ROOT
ATOM      1  C   UNL     1       0.525   9.452  -9.324  1.00  0.00     0.000 C 
ENDROOT
BRANCH   1   2
ATOM      2  C   UNL     1      -0.894   8.925  -9.068  1.00  0.00     0.000 C 
BRANCH   2   3
ATOM      3  C   UNL     1      -1.947   9.890  -9.628  1.00  0.00     0.000 C 
BRANCH   3   4
ATOM      4  C   UNL     1      -3.217   9.135 -10.050  1.00  0.00     0.000 C 
BRANCH   4   5
ATOM      5  C   UNL     1      -4.480  10.020  -9.995  1.00  0.00     0.000 C 
BRANCH   5   6
ATOM      6  C   UNL     1      -5.673   9.356  -9.286  1.00  0.00     0.000 C 
BRANCH   6   7
ATOM      7  C   UNL     1      -6.053  10.056  -7.973  1.00  0.00     0.000 C 
BRANCH   7   8
ATOM      8  C   UNL     1      -7.565  10.015  -7.687  1.00  0.00     0.000 C 
BRANCH   8   9
ATOM      9  C   UNL     1      -7.910   9.941  -6.185  1.00  0.00     0.000 C 
BRANCH   9  10
ATOM     10  C   UNL     1      -8.683   8.664  -5.825  1.00  0.00     0.000 C 
BRANCH  10  11
ATOM     11  C   UNL     1      -7.804   7.703  -5.011  1.00  0.00     0.000 C 
BRANCH  11  12
ATOM     12  C   UNL     1      -7.536   6.374  -5.741  1.00  0.00     0.006 C 
BRANCH  12  13
ATOM     13  C   UNL     1      -8.728   5.403  -5.745  1.00  0.00     0.053 C 
BRANCH  13  14
ATOM     14  C   UNL     1      -9.094   4.968  -7.131  1.00  0.00     0.041 C 
ATOM     15  O   UNL     1      -9.542   5.803  -7.961  1.00  0.00    -0.550 OA
ATOM     16  O   UNL     1      -8.899   3.648  -7.519  1.00  0.00    -0.550 OA
ENDBRANCH  13  14
ENDBRANCH  12  13
ENDBRANCH  11  12
ENDBRANCH  10  11
ENDBRANCH   9  10
ENDBRANCH   8   9
ENDBRANCH   7   8
ENDBRANCH   6   7
ENDBRANCH   5   6
ENDBRANCH   4   5
ENDBRANCH   3   4
ENDBRANCH   2   3
ENDBRANCH   1   2
BRANCH   1  17
ATOM     17  C   UNL     1       1.610   8.408  -9.005  1.00  0.00     0.000 C 
BRANCH  17  18
ATOM     18  C   UNL     1       1.539   7.815  -7.581  1.00  0.00     0.000 C 
BRANCH  18  19
ATOM     19  C   UNL     1       0.896   8.727  -6.519  1.00  0.00     0.000 C 
BRANCH  19  20
ATOM     20  C   UNL     1       0.259   8.001  -5.317  1.00  0.00     0.000 C 
BRANCH  20  21
ATOM     21  C   UNL     1      -1.138   8.527  -4.924  1.00  0.00     0.000 C 
BRANCH  21  22
ATOM     22  C   UNL     1      -1.695   9.558  -5.925  1.00  0.00    -0.000 C 
BRANCH  22  23
ATOM     23  C   UNL     1      -3.159   9.926  -5.621  1.00  0.00    -0.000 C 
BRANCH  23  24
ATOM     24  C   UNL     1      -3.780   9.071  -4.500  1.00  0.00    -0.000 C 
BRANCH  24  25
ATOM     25  C   UNL     1      -4.384   7.763  -5.039  1.00  0.00    -0.000 C 
BRANCH  25  26
ATOM     26  C   UNL     1      -4.147   7.571  -6.548  1.00  0.00    -0.000 C 
BRANCH  26  27
ATOM     27  C   UNL     1      -3.787   6.122  -6.935  1.00  0.00    -0.000 C 
BRANCH  27  28
ATOM     28  C   UNL     1      -4.155   5.805  -8.396  1.00  0.00    -0.000 C 
BRANCH  28  29
ATOM     29  C   UNL     1      -5.671   5.691  -8.614  1.00  0.00    -0.003 C 
ATOM     30  C   UNL     1      -6.085   5.985 -10.054  1.00  0.00     0.004 C 
ENDBRANCH  28  29
ENDBRANCH  27  28
ENDBRANCH  26  27
ENDBRANCH  25  26
ENDBRANCH  24  25
ENDBRANCH  23  24
ENDBRANCH  22  23
ENDBRANCH  21  22
ENDBRANCH  20  21
ENDBRANCH  19  20
ENDBRANCH  18  19
ENDBRANCH  17  18
ENDBRANCH   1  17
TORSDOF 26
ENDMDL
MODEL 2
REMARK VINA RESULT:    -2.670      1.768      5.827
REMARK INTER + INTRA:         -10.202
REMARK INTER:                  -7.161
REMARK INTRA:                  -3.040
REMARK UNBOUND:                -3.473
REMARK SMILES CCCCCCCCCCCCCCCCCCCCCCCCCCCC(=O)[O-]
REMARK SMILES IDX 15 1 16 2 17 3 18 4 19 5 20 6 21 7 22 8 23 9 24 10 25 11
REMARK SMILES IDX 26 12 27 13 28 14 29 15 30 16 14 17 13 18 12 19 11 20 10 21
REMARK SMILES IDX 9 22 8 23 7 24 6 25 5 26 4 27 3 28 2 29 1 30
REMARK H PARENT
REMARK Flexibility Score: inf
ROOT
ATOM      1  C   UNL     1       0.140   9.003  -9.352  1.00  0.00     0.000 C 
ENDROOT
BRANCH   1   2
ATOM      2  C   UNL     1       1.379   9.770  -8.868  1.00  0.00     0.000 C 
BRANCH   2   3
ATOM      3  C   UNL     1       2.651   8.932  -9.054  1.00  0.00     0.000 C 
BRANCH   3   4
ATOM      4  C   UNL     1       2.406   7.467  -8.662  1.00  0.00     0.000 C 
BRANCH   4   5
ATOM      5  C   UNL     1       3.176   7.056  -7.389  1.00  0.00     0.000 C 
BRANCH   5   6
ATOM      6  C   UNL     1       2.301   6.998  -6.125  1.00  0.00     0.000 C 
BRANCH   6   7
ATOM      7  C   UNL     1       0.918   7.633  -6.325  1.00  0.00     0.000 C 
BRANCH   7   8
ATOM      8  C   UNL     1       0.373   8.298  -5.049  1.00  0.00     0.000 C 
BRANCH   8   9
ATOM      9  C   UNL     1      -0.897   9.142  -5.284  1.00  0.00     0.000 C 
BRANCH   9  10
ATOM     10  C   UNL     1      -2.087   8.656  -4.445  1.00  0.00     0.000 C 
BRANCH  10  11
ATOM     11  C   UNL     1      -3.307   8.374  -5.334  1.00  0.00     0.000 C 
BRANCH  11  12
ATOM     12  C   UNL     1      -3.037   7.290  -6.393  1.00  0.00     0.006 C 
BRANCH  12  13
ATOM     13  C   UNL     1      -4.263   6.432  -6.746  1.00  0.00     0.053 C 
BRANCH  13  14
ATOM     14  C   UNL     1      -4.179   5.874  -8.133  1.00  0.00     0.041 C 
ATOM     15  O   UNL     1      -4.139   6.647  -9.127  1.00  0.00    -0.550 OA
ATOM     16  O   UNL     1      -4.098   4.500  -8.326  1.00  0.00    -0.550 OA
ENDBRANCH  13  14
ENDBRANCH  12  13
ENDBRANCH  11  12
ENDBRANCH  10  11
ENDBRANCH   9  10
ENDBRANCH   8   9
ENDBRANCH   7   8
ENDBRANCH   6   7
ENDBRANCH   5   6
ENDBRANCH   4   5
ENDBRANCH   3   4
ENDBRANCH   2   3
ENDBRANCH   1   2
BRANCH   1  17
ATOM     17  C   UNL     1      -1.176   9.663  -8.903  1.00  0.00     0.000 C 
BRANCH  17  18
ATOM     18  C   UNL     1      -2.179   9.947 -10.041  1.00  0.00     0.000 C 
BRANCH  18  19
ATOM     19  C   UNL     1      -3.537   9.229  -9.919  1.00  0.00     0.000 C 
BRANCH  19  20
ATOM     20  C   UNL     1      -4.718  10.114  -9.476  1.00  0.00     0.000 C 
BRANCH  20  21
ATOM     21  C   UNL     1      -5.210   9.843  -8.038  1.00  0.00     0.000 C 
BRANCH  21  22
ATOM     22  C   UNL     1      -6.742   9.722  -7.938  1.00  0.00    -0.000 C 
BRANCH  22  23
ATOM     23  C   UNL     1      -7.299   8.640  -8.881  1.00  0.00    -0.000 C 
BRANCH  23  24
ATOM     24  C   UNL     1      -8.786   8.325  -8.634  1.00  0.00    -0.000 C 
BRANCH  24  25
ATOM     25  C   UNL     1      -9.553   9.547  -8.100  1.00  0.00    -0.000 C 
BRANCH  25  26
ATOM     26  C   UNL     1      -9.610   9.593  -6.563  1.00  0.00    -0.000 C 
BRANCH  26  27
ATOM     27  C   UNL     1      -9.600   8.198  -5.904  1.00  0.00    -0.000 C 
BRANCH  27  28
ATOM     28  C   UNL     1      -8.541   8.090  -4.792  1.00  0.00    -0.000 C 
BRANCH  28  29
ATOM     29  C   UNL     1      -7.416   7.105  -5.139  1.00  0.00    -0.003 C 
ATOM     30  C   UNL     1      -7.899   5.930  -5.987  1.00  0.00     0.004 C 
ENDBRANCH  28  29
ENDBRANCH  27  28
ENDBRANCH  26  27
ENDBRANCH  25  26
ENDBRANCH  24  25
ENDBRANCH  23  24
ENDBRANCH  22  23
ENDBRANCH  21  22
ENDBRANCH  20  21
ENDBRANCH  19  20
ENDBRANCH  18  19
ENDBRANCH  17  18
ENDBRANCH   1  17
TORSDOF 26
ENDMDL
MODEL 3
REMARK VINA RESULT:    -2.581      3.165      7.016
REMARK INTER + INTRA:          -9.978
REMARK INTER:                  -7.852
REMARK INTRA:                  -2.125
REMARK UNBOUND:                -3.473
REMARK SMILES CCCCCCCCCCCCCCCCCCCCCCCCCCCC(=O)[O-]
REMARK SMILES IDX 15 1 16 2 17 3 18 4 19 5 20 6 21 7 22 8 23 9 24 10 25 11
REMARK SMILES IDX 26 12 27 13 28 14 29 15 30 16 14 17 13 18 12 19 11 20 10 21
REMARK SMILES IDX 9 22 8 23 7 24 6 25 5 26 4 27 3 28 2 29 1 30
REMARK H PARENT
REMARK Flexibility Score: inf
ROOT
ATOM      1  C   UNL     1      -4.585   5.874  -7.886  1.00  0.00     0.000 C 
ENDROOT
BRANCH   1   2
ATOM      2  C   UNL     1      -6.116   5.819  -7.998  1.00  0.00     0.000 C 
BRANCH   2   3
ATOM      3  C   UNL     1      -6.628   6.843  -9.020  1.00  0.00     0.000 C 
BRANCH   3   4
ATOM      4  C   UNL     1      -8.078   7.248  -8.714  1.00  0.00     0.000 C 
BRANCH   4   5
ATOM      5  C   UNL     1      -8.967   6.040  -8.350  1.00  0.00     0.000 C 
BRANCH   5   6
ATOM      6  C   UNL     1      -8.885   5.632  -6.869  1.00  0.00     0.000 C 
BRANCH   6   7
ATOM      7  C   UNL     1      -9.770   6.496  -5.960  1.00  0.00     0.000 C 
BRANCH   7   8
ATOM      8  C   UNL     1      -8.959   7.426  -5.041  1.00  0.00     0.000 C 
BRANCH   8   9
ATOM      9  C   UNL     1      -7.444   7.137  -5.050  1.00  0.00     0.000 C 
BRANCH   9  10
ATOM     10  C   UNL     1      -6.609   8.387  -4.735  1.00  0.00     0.000 C 
BRANCH  10  11
ATOM     11  C   UNL     1      -6.224   9.128  -6.024  1.00  0.00     0.000 C 
BRANCH  11  12
ATOM     12  C   UNL     1      -4.721   9.453  -6.100  1.00  0.00     0.006 C 
BRANCH  12  13
ATOM     13  C   UNL     1      -4.155  10.125  -4.839  1.00  0.00     0.053 C 
BRANCH  13  14
ATOM     14  C   UNL     1      -2.940   9.417  -4.322  1.00  0.00     0.041 C 
ATOM     15  O   UNL     1      -2.885   9.047  -3.120  1.00  0.00    -0.550 OA
ATOM     16  O   UNL     1      -1.887   9.125  -5.181  1.00  0.00    -0.550 OA
ENDBRANCH  13  14
ENDBRANCH  12  13
ENDBRANCH  11  12
ENDBRANCH  10  11
ENDBRANCH   9  10
ENDBRANCH   8   9
ENDBRANCH   7   8
ENDBRANCH   6   7
ENDBRANCH   5   6
ENDBRANCH   4   5
ENDBRANCH   3   4
ENDBRANCH   2   3
ENDBRANCH   1   2
BRANCH   1  17
ATOM     17  C   UNL     1      -3.881   5.216  -9.086  1.00  0.00     0.000 C 
BRANCH  17  18
ATOM     18  C   UNL     1      -3.102   6.193  -9.994  1.00  0.00     0.000 C 
BRANCH  18  19
ATOM     19  C   UNL     1      -3.365   7.689  -9.732  1.00  0.00     0.000 C 
BRANCH  19  20
ATOM     20  C   UNL     1      -2.656   8.283  -8.500  1.00  0.00     0.000 C 
BRANCH  20  21
ATOM     21  C   UNL     1      -1.646   9.404  -8.828  1.00  0.00     0.000 C 
BRANCH  21  22
ATOM     22  C   UNL     1      -0.857   9.142 -10.125  1.00  0.00    -0.000 C 
BRANCH  22  23
ATOM     23  C   UNL     1       0.532   9.805 -10.100  1.00  0.00    -0.000 C 
BRANCH  23  24
ATOM     24  C   UNL     1       1.690   8.791 -10.124  1.00  0.00    -0.000 C 
BRANCH  24  25
ATOM     25  C   UNL     1       2.383   8.674  -8.755  1.00  0.00    -0.000 C 
BRANCH  25  26
ATOM     26  C   UNL     1       3.351   7.481  -8.674  1.00  0.00    -0.000 C 
BRANCH  26  27
ATOM     27  C   UNL     1       4.251   7.331  -9.918  1.00  0.00    -0.000 C 
BRANCH  27  28
ATOM     28  C   UNL     1       5.730   7.126  -9.541  1.00  0.00    -0.000 C 
BRANCH  28  29
ATOM     29  C   UNL     1       6.642   8.227 -10.100  1.00  0.00    -0.003 C 
ATOM     30  C   UNL     1       8.103   8.051  -9.690  1.00  0.00     0.004 C 
ENDBRANCH  28  29
ENDBRANCH  27  28
ENDBRANCH  26  27
ENDBRANCH  25  26
ENDBRANCH  24  25
ENDBRANCH  23  24
ENDBRANCH  22  23
ENDBRANCH  21  22
ENDBRANCH  20  21
ENDBRANCH  19  20
ENDBRANCH  18  19
ENDBRANCH  17  18
ENDBRANCH   1  17
TORSDOF 26
ENDMDL
MODEL 4
REMARK VINA RESULT:    -2.530      2.209      6.369
REMARK INTER + INTRA:          -9.849
REMARK INTER:                  -7.377
REMARK INTRA:                  -2.472
REMARK UNBOUND:                -3.473
REMARK SMILES CCCCCCCCCCCCCCCCCCCCCCCCCCCC(=O)[O-]
REMARK SMILES IDX 15 1 16 2 17 3 18 4 19 5 20 6 21 7 22 8 23 9 24 10 25 11
REMARK SMILES IDX 26 12 27 13 28 14 29 15 30 16 14 17 13 18 12 19 11 20 10 21
REMARK SMILES IDX 9 22 8 23 7 24 6 25 5 26 4 27 3 28 2 29 1 30
REMARK H PARENT
REMARK Flexibility Score: inf
ROOT
ATOM      1  C   UNL     1      -0.899   8.999 -10.053  1.00  0.00     0.000 C 
ENDROOT
BRANCH   1   2
ATOM      2  C   UNL     1       0.097   9.646  -9.080  1.00  0.00     0.000 C 
BRANCH   2   3
ATOM      3  C   UNL     1       1.464   9.848  -9.746  1.00  0.00     0.000 C 
BRANCH   3   4
ATOM      4  C   UNL     1       2.095   8.499 -10.125  1.00  0.00     0.000 C 
BRANCH   4   5
ATOM      5  C   UNL     1       3.394   8.212  -9.342  1.00  0.00     0.000 C 
BRANCH   5   6
ATOM      6  C   UNL     1       3.204   7.253  -8.153  1.00  0.00     0.000 C 
BRANCH   6   7
ATOM      7  C   UNL     1       1.892   7.495  -7.393  1.00  0.00     0.000 C 
BRANCH   7   8
ATOM      8  C   UNL     1       1.942   7.001  -5.937  1.00  0.00     0.000 C 
BRANCH   8   9
ATOM      9  C   UNL     1       0.905   7.678  -5.017  1.00  0.00     0.000 C 
BRANCH   9  10
ATOM     10  C   UNL     1      -0.061   8.585  -5.793  1.00  0.00     0.000 C 
BRANCH  10  11
ATOM     11  C   UNL     1      -1.021   9.308  -4.838  1.00  0.00     0.000 C 
BRANCH  11  12
ATOM     12  C   UNL     1      -2.405   9.564  -5.462  1.00  0.00     0.006 C 
BRANCH  12  13
ATOM     13  C   UNL     1      -3.521   8.657  -4.920  1.00  0.00     0.053 C 
BRANCH  13  14
ATOM     14  C   UNL     1      -4.705   9.443  -4.446  1.00  0.00     0.041 C 
ATOM     15  O   UNL     1      -4.789   9.802  -3.242  1.00  0.00    -0.550 OA
ATOM     16  O   UNL     1      -5.695   9.819  -5.346  1.00  0.00    -0.550 OA
ENDBRANCH  13  14
ENDBRANCH  12  13
ENDBRANCH  11  12
ENDBRANCH  10  11
ENDBRANCH   9  10
ENDBRANCH   8   9
ENDBRANCH   7   8
ENDBRANCH   6   7
ENDBRANCH   5   6
ENDBRANCH   4   5
ENDBRANCH   3   4
ENDBRANCH   2   3
ENDBRANCH   1   2
BRANCH   1  17
ATOM     17  C   UNL     1      -2.347   9.462  -9.813  1.00  0.00     0.000 C 
BRANCH  17  18
ATOM     18  C   UNL     1      -3.397   8.330  -9.814  1.00  0.00     0.000 C 
BRANCH  18  19
ATOM     19  C   UNL     1      -3.373   7.407  -8.580  1.00  0.00     0.000 C 
BRANCH  19  20
ATOM     20  C   UNL     1      -4.747   7.108  -7.948  1.00  0.00     0.000 C 
BRANCH  20  21
ATOM     21  C   UNL     1      -5.947   7.371  -8.884  1.00  0.00     0.000 C 
BRANCH  21  22
ATOM     22  C   UNL     1      -6.789   8.587  -8.454  1.00  0.00    -0.000 C 
BRANCH  22  23
ATOM     23  C   UNL     1      -8.272   8.222  -8.259  1.00  0.00    -0.000 C 
BRANCH  23  24
ATOM     24  C   UNL     1      -8.882   8.822  -6.978  1.00  0.00    -0.000 C 
BRANCH  24  25
ATOM     25  C   UNL     1      -8.567   7.970  -5.736  1.00  0.00    -0.000 C 
BRANCH  25  26
ATOM     26  C   UNL     1      -9.438   6.705  -5.641  1.00  0.00    -0.000 C 
BRANCH  26  27
ATOM     27  C   UNL     1      -8.684   5.410  -6.008  1.00  0.00    -0.000 C 
BRANCH  27  28
ATOM     28  C   UNL     1      -9.084   4.880  -7.397  1.00  0.00    -0.000 C 
BRANCH  28  29
ATOM     29  C   UNL     1      -9.567   3.423  -7.359  1.00  0.00    -0.003 C 
ATOM     30  C   UNL     1      -9.880   2.940  -5.944  1.00  0.00     0.004 C 
ENDBRANCH  28  29
ENDBRANCH  27  28
ENDBRANCH  26  27
ENDBRANCH  25  26
ENDBRANCH  24  25
ENDBRANCH  23  24
ENDBRANCH  22  23
ENDBRANCH  21  22
ENDBRANCH  20  21
ENDBRANCH  19  20
ENDBRANCH  18  19
ENDBRANCH  17  18
ENDBRANCH   1  17
TORSDOF 26
ENDMDL
MODEL 5
REMARK VINA RESULT:    -2.499      3.701      8.360
REMARK INTER + INTRA:          -9.769
REMARK INTER:                  -6.561
REMARK INTRA:                  -3.208
REMARK UNBOUND:                -3.473
REMARK SMILES CCCCCCCCCCCCCCCCCCCCCCCCCCCC(=O)[O-]
REMARK SMILES IDX 15 1 16 2 17 3 18 4 19 5 20 6 21 7 22 8 23 9 24 10 25 11
REMARK SMILES IDX 26 12 27 13 28 14 29 15 30 16 14 17 13 18 12 19 11 20 10 21
REMARK SMILES IDX 9 22 8 23 7 24 6 25 5 26 4 27 3 28 2 29 1 30
REMARK H PARENT
REMARK Flexibility Score: inf
ROOT
ATOM      1  C   UNL     1      -7.842   5.668  -6.730  1.00  0.00     0.000 C 
ENDROOT
BRANCH   1   2
ATOM      2  C   UNL     1      -7.366   6.104  -5.336  1.00  0.00     0.000 C 
BRANCH   2   3
ATOM      3  C   UNL     1      -6.639   7.453  -5.402  1.00  0.00     0.000 C 
BRANCH   3   4
ATOM      4  C   UNL     1      -5.125   7.254  -5.566  1.00  0.00     0.000 C 
BRANCH   4   5
ATOM      5  C   UNL     1      -4.302   8.178  -4.644  1.00  0.00     0.000 C 
BRANCH   5   6
ATOM      6  C   UNL     1      -3.158   8.916  -5.363  1.00  0.00     0.000 C 
BRANCH   6   7
ATOM      7  C   UNL     1      -3.656   9.859  -6.468  1.00  0.00     0.000 C 
BRANCH   7   8
ATOM      8  C   UNL     1      -2.629  10.055  -7.597  1.00  0.00     0.000 C 
BRANCH   8   9
ATOM      9  C   UNL     1      -2.355   8.775  -8.413  1.00  0.00     0.000 C 
BRANCH   9  10
ATOM     10  C   UNL     1      -1.213   8.959  -9.423  1.00  0.00     0.000 C 
BRANCH  10  11
ATOM     11  C   UNL     1       0.123   9.190  -8.704  1.00  0.00     0.000 C 
BRANCH  11  12
ATOM     12  C   UNL     1       1.279   8.375  -9.312  1.00  0.00     0.006 C 
BRANCH  12  13
ATOM     13  C   UNL     1       2.654   8.666  -8.690  1.00  0.00     0.053 C 
BRANCH  13  14
ATOM     14  C   UNL     1       3.450   7.416  -8.475  1.00  0.00     0.041 C 
ATOM     15  O   UNL     1       2.996   6.491  -7.752  1.00  0.00    -0.550 OA
ATOM     16  O   UNL     1       4.676   7.254  -9.110  1.00  0.00    -0.550 OA
ENDBRANCH  13  14
ENDBRANCH  12  13
ENDBRANCH  11  12
ENDBRANCH  10  11
ENDBRANCH   9  10
ENDBRANCH   8   9
ENDBRANCH   7   8
ENDBRANCH   6   7
ENDBRANCH   5   6
ENDBRANCH   4   5
ENDBRANCH   3   4
ENDBRANCH   2   3
ENDBRANCH   1   2
BRANCH   1  17
ATOM     17  C   UNL     1      -8.883   4.535  -6.672  1.00  0.00     0.000 C 
BRANCH  17  18
ATOM     18  C   UNL     1      -9.365   4.029  -8.047  1.00  0.00     0.000 C 
BRANCH  18  19
ATOM     19  C   UNL     1     -10.098   5.071  -8.915  1.00  0.00     0.000 C 
BRANCH  19  20
ATOM     20  C   UNL     1      -9.301   6.354  -9.226  1.00  0.00     0.000 C 
BRANCH  20  21
ATOM     21  C   UNL     1     -10.124   7.655  -9.115  1.00  0.00     0.000 C 
BRANCH  21  22
ATOM     22  C   UNL     1     -10.009   8.323  -7.731  1.00  0.00    -0.000 C 
BRANCH  22  23
ATOM     23  C   UNL     1      -8.747   9.198  -7.615  1.00  0.00    -0.000 C 
BRANCH  23  24
ATOM     24  C   UNL     1      -8.165   9.610  -8.980  1.00  0.00    -0.000 C 
BRANCH  24  25
ATOM     25  C   UNL     1      -6.672   9.965  -8.887  1.00  0.00    -0.000 C 
BRANCH  25  26
ATOM     26  C   UNL     1      -5.752   8.761  -9.157  1.00  0.00    -0.000 C 
BRANCH  26  27
ATOM     27  C   UNL     1      -6.389   7.691 -10.067  1.00  0.00    -0.000 C 
BRANCH  27  28
ATOM     28  C   UNL     1      -5.738   6.308  -9.877  1.00  0.00    -0.000 C 
BRANCH  28  29
ATOM     29  C   UNL     1      -4.387   6.384  -9.152  1.00  0.00    -0.003 C 
ATOM     30  C   UNL     1      -4.013   5.074  -8.460  1.00  0.00     0.004 C 
ENDBRANCH  28  29
ENDBRANCH  27  28
ENDBRANCH  26  27
ENDBRANCH  25  26
ENDBRANCH  24  25
ENDBRANCH  23  24
ENDBRANCH  22  23
ENDBRANCH  21  22
ENDBRANCH  20  21
ENDBRANCH  19  20
ENDBRANCH  18  19
ENDBRANCH  17  18
ENDBRANCH   1  17
TORSDOF 26
ENDMDL
MODEL 6
REMARK VINA RESULT:    -2.444      2.135      5.959
REMARK INTER + INTRA:          -9.631
REMARK INTER:                  -7.173
REMARK INTRA:                  -2.458
REMARK UNBOUND:                -3.473
REMARK SMILES CCCCCCCCCCCCCCCCCCCCCCCCCCCC(=O)[O-]
REMARK SMILES IDX 15 1 16 2 17 3 18 4 19 5 20 6 21 7 22 8 23 9 24 10 25 11
REMARK SMILES IDX 26 12 27 13 28 14 29 15 30 16 14 17 13 18 12 19 11 20 10 21
REMARK SMILES IDX 9 22 8 23 7 24 6 25 5 26 4 27 3 28 2 29 1 30
REMARK H PARENT
REMARK Flexibility Score: inf
ROOT
ATOM      1  C   UNL     1       2.012   9.155  -8.895  1.00  0.00     0.000 C 
ENDROOT
BRANCH   1   2
ATOM      2  C   UNL     1       3.378   8.687  -9.417  1.00  0.00     0.000 C 
BRANCH   2   3
ATOM      3  C   UNL     1       3.929   7.539  -8.561  1.00  0.00     0.000 C 
BRANCH   3   4
ATOM      4  C   UNL     1       3.016   6.306  -8.642  1.00  0.00     0.000 C 
BRANCH   4   5
ATOM      5  C   UNL     1       2.641   5.753  -7.251  1.00  0.00     0.000 C 
BRANCH   5   6
ATOM      6  C   UNL     1       2.954   6.719  -6.094  1.00  0.00     0.000 C 
BRANCH   6   7
ATOM      7  C   UNL     1       1.692   7.237  -5.389  1.00  0.00     0.000 C 
BRANCH   7   8
ATOM      8  C   UNL     1       0.734   7.975  -6.340  1.00  0.00     0.000 C 
BRANCH   8   9
ATOM      9  C   UNL     1      -0.056   9.114  -5.662  1.00  0.00     0.000 C 
BRANCH   9  10
ATOM     10  C   UNL     1      -1.222   8.591  -4.811  1.00  0.00     0.000 C 
BRANCH  10  11
ATOM     11  C   UNL     1      -2.285   9.680  -4.608  1.00  0.00     0.000 C 
BRANCH  11  12
ATOM     12  C   UNL     1      -3.204   9.403  -3.405  1.00  0.00     0.006 C 
BRANCH  12  13
ATOM     13  C   UNL     1      -4.691   9.691  -3.665  1.00  0.00     0.053 C 
BRANCH  13  14
ATOM     14  C   UNL     1      -5.213   8.929  -4.845  1.00  0.00     0.041 C 
ATOM     15  O   UNL     1      -4.793   7.768  -5.088  1.00  0.00    -0.550 OA
ATOM     16  O   UNL     1      -6.199   9.487  -5.651  1.00  0.00    -0.550 OA
ENDBRANCH  13  14
ENDBRANCH  12  13
ENDBRANCH  11  12
ENDBRANCH  10  11
ENDBRANCH   9  10
ENDBRANCH   8   9
ENDBRANCH   7   8
ENDBRANCH   6   7
ENDBRANCH   5   6
ENDBRANCH   4   5
ENDBRANCH   3   4
ENDBRANCH   2   3
ENDBRANCH   1   2
BRANCH   1  17
ATOM     17  C   UNL     1       1.104   9.694 -10.015  1.00  0.00     0.000 C 
BRANCH  17  18
ATOM     18  C   UNL     1      -0.283   9.023 -10.102  1.00  0.00     0.000 C 
BRANCH  18  19
ATOM     19  C   UNL     1      -1.219   9.285  -8.907  1.00  0.00     0.000 C 
BRANCH  19  20
ATOM     20  C   UNL     1      -2.574   9.933  -9.253  1.00  0.00     0.000 C 
BRANCH  20  21
ATOM     21  C   UNL     1      -3.677   8.927  -9.646  1.00  0.00     0.000 C 
BRANCH  21  22
ATOM     22  C   UNL     1      -4.258   8.169  -8.437  1.00  0.00    -0.000 C 
BRANCH  22  23
ATOM     23  C   UNL     1      -3.761   6.713  -8.375  1.00  0.00    -0.000 C 
BRANCH  23  24
ATOM     24  C   UNL     1      -4.896   5.691  -8.181  1.00  0.00    -0.000 C 
BRANCH  24  25
ATOM     25  C   UNL     1      -6.232   6.197  -8.750  1.00  0.00    -0.000 C 
BRANCH  25  26
ATOM     26  C   UNL     1      -7.455   5.581  -8.049  1.00  0.00    -0.000 C 
BRANCH  26  27
ATOM     27  C   UNL     1      -7.796   6.252  -6.702  1.00  0.00    -0.000 C 
BRANCH  27  28
ATOM     28  C   UNL     1      -8.736   7.459  -6.879  1.00  0.00    -0.000 C 
BRANCH  28  29
ATOM     29  C   UNL     1      -9.993   7.365  -6.002  1.00  0.00    -0.003 C 
ATOM     30  C   UNL     1      -9.909   8.240  -4.753  1.00  0.00     0.004 C 
ENDBRANCH  28  29
ENDBRANCH  27  28
ENDBRANCH  26  27
ENDBRANCH  25  26
ENDBRANCH  24  25
ENDBRANCH  23  24
ENDBRANCH  22  23
ENDBRANCH  21  22
ENDBRANCH  20  21
ENDBRANCH  19  20
ENDBRANCH  18  19
ENDBRANCH  17  18
ENDBRANCH   1  17
TORSDOF 26
ENDMDL
MODEL 7
REMARK VINA RESULT:    -1.805      2.976      6.946
REMARK INTER + INTRA:          -8.022
REMARK INTER:                  -6.083
REMARK INTRA:                  -1.940
REMARK UNBOUND:                -3.473
REMARK SMILES CCCCCCCCCCCCCCCCCCCCCCCCCCCC(=O)[O-]
REMARK SMILES IDX 15 1 16 2 17 3 18 4 19 5 20 6 21 7 22 8 23 9 24 10 25 11
REMARK SMILES IDX 26 12 27 13 28 14 29 15 30 16 14 17 13 18 12 19 11 20 10 21
REMARK SMILES IDX 9 22 8 23 7 24 6 25 5 26 4 27 3 28 2 29 1 30
REMARK H PARENT
REMARK Flexibility Score: inf
ROOT
ATOM      1  C   UNL     1      -4.040   8.069  -6.722  1.00  0.00     0.000 C 
ENDROOT
BRANCH   1   2
ATOM      2  C   UNL     1      -5.148   7.722  -5.718  1.00  0.00     0.000 C 
BRANCH   2   3
ATOM      3  C   UNL     1      -5.534   8.947  -4.880  1.00  0.00     0.000 C 
BRANCH   3   4
ATOM      4  C   UNL     1      -6.094  10.068  -5.770  1.00  0.00     0.000 C 
BRANCH   4   5
ATOM      5  C   UNL     1      -7.326   9.619  -6.583  1.00  0.00     0.000 C 
BRANCH   5   6
ATOM      6  C   UNL     1      -8.664  10.121  -6.012  1.00  0.00     0.000 C 
BRANCH   6   7
ATOM      7  C   UNL     1      -9.587   8.980  -5.558  1.00  0.00     0.000 C 
BRANCH   7   8
ATOM      8  C   UNL     1      -8.830   7.666  -5.296  1.00  0.00     0.000 C 
BRANCH   8   9
ATOM      9  C   UNL     1      -9.602   6.408  -5.745  1.00  0.00     0.000 C 
BRANCH   9  10
ATOM     10  C   UNL     1      -8.676   5.204  -5.973  1.00  0.00     0.000 C 
BRANCH  10  11
ATOM     11  C   UNL     1      -9.134   4.382  -7.186  1.00  0.00     0.000 C 
BRANCH  11  12
ATOM     12  C   UNL     1      -9.242   5.223  -8.471  1.00  0.00     0.006 C 
BRANCH  12  13
ATOM     13  C   UNL     1      -7.890   5.654  -9.061  1.00  0.00     0.053 C 
BRANCH  13  14
ATOM     14  C   UNL     1      -7.806   7.138  -9.250  1.00  0.00     0.041 C 
ATOM     15  O   UNL     1      -6.763   7.762  -8.922  1.00  0.00    -0.550 OA
ATOM     16  O   UNL     1      -8.864   7.825  -9.832  1.00  0.00    -0.550 OA
ENDBRANCH  13  14
ENDBRANCH  12  13
ENDBRANCH  11  12
ENDBRANCH  10  11
ENDBRANCH   9  10
ENDBRANCH   8   9
ENDBRANCH   7   8
ENDBRANCH   6   7
ENDBRANCH   5   6
ENDBRANCH   4   5
ENDBRANCH   3   4
ENDBRANCH   2   3
ENDBRANCH   1   2
BRANCH   1  17
ATOM     17  C   UNL     1      -2.638   7.697  -6.207  1.00  0.00     0.000 C 
BRANCH  17  18
ATOM     18  C   UNL     1      -1.526   8.701  -6.576  1.00  0.00     0.000 C 
BRANCH  18  19
ATOM     19  C   UNL     1      -1.427   9.057  -8.072  1.00  0.00     0.000 C 
BRANCH  19  20
ATOM     20  C   UNL     1      -0.245   9.966  -8.462  1.00  0.00     0.000 C 
BRANCH  20  21
ATOM     21  C   UNL     1       1.106   9.552  -7.838  1.00  0.00     0.000 C 
BRANCH  21  22
ATOM     22  C   UNL     1       1.729   8.317  -8.516  1.00  0.00    -0.000 C 
BRANCH  22  23
ATOM     23  C   UNL     1       2.486   7.427  -7.513  1.00  0.00    -0.000 C 
BRANCH  23  24
ATOM     24  C   UNL     1       3.868   6.979  -8.021  1.00  0.00    -0.000 C 
BRANCH  24  25
ATOM     25  C   UNL     1       3.955   7.005  -9.557  1.00  0.00    -0.000 C 
BRANCH  25  26
ATOM     26  C   UNL     1       5.039   7.963 -10.079  1.00  0.00    -0.000 C 
BRANCH  26  27
ATOM     27  C   UNL     1       6.447   7.334 -10.125  1.00  0.00    -0.000 C 
BRANCH  27  28
ATOM     28  C   UNL     1       7.475   8.157  -9.326  1.00  0.00    -0.000 C 
BRANCH  28  29
ATOM     29  C   UNL     1       8.874   7.524  -9.331  1.00  0.00    -0.003 C 
ATOM     30  C   UNL     1       9.928   8.413  -8.674  1.00  0.00     0.004 C 
ENDBRANCH  28  29
ENDBRANCH  27  28
ENDBRANCH  26  27
ENDBRANCH  25  26
ENDBRANCH  24  25
ENDBRANCH  23  24
ENDBRANCH  22  23
ENDBRANCH  21  22
ENDBRANCH  20  21
ENDBRANCH  19  20
ENDBRANCH  18  19
ENDBRANCH  17  18
ENDBRANCH   1  17
TORSDOF 26
ENDMDL
