MODEL 1
REMARK VINA RESULT:    -4.858      0.000      0.000
REMARK INTER + INTRA:          -5.353
REMARK INTER:                  -5.994
REMARK INTRA:                   0.641
REMARK UNBOUND:                 0.641
REMARK SMILES C=C1CC[C@@H]2[C@H]1[C@H]1[C@H](CC[C@H]2C)C1(C)C
REMARK SMILES IDX 6 1 5 2 4 3 3 4 2 5 1 6 11 7 12 8 10 9 7 11 8 12 13 13 14 14
REMARK SMILES IDX 15 15 9 16
REMARK H PARENT
REMARK Flexibility Score: 80.00
ROOT
ATOM      1  C   UNL     1       1.867  12.772   3.821  1.00  0.00     0.022 C 
ATOM      2  C   UNL     1       0.809  12.836   4.988  1.00  0.00    -0.000 C 
ATOM      3  C   UNL     1       1.651  13.150   6.253  1.00  0.00     0.009 C 
ATOM      4  C   UNL     1       2.968  13.765   5.798  1.00  0.00     0.031 C 
ATOM      5  C   UNL     1       3.144  13.268   4.413  1.00  0.00    -0.074 C 
ATOM      6  C   UNL     1       4.350  13.016   3.887  1.00  0.00     0.008 C 
ENDROOT
BRANCH   2   7
ATOM      7  C   UNL     1      -0.450  13.796   4.921  1.00  0.00    -0.011 C 
ATOM      8  C   UNL     1      -1.420  13.462   6.075  1.00  0.00     0.008 C 
BRANCH   7   9
ATOM      9  C   UNL     1      -1.257  13.753   3.590  1.00  0.00     0.004 CG0
ATOM     10  G   UNL     1      -0.681  14.672   2.489  1.00  0.00     0.000 G0
ENDBRANCH   7   9
ENDBRANCH   2   7
BRANCH   1  11
ATOM     11  C   UNL     1       1.440  13.374   2.459  1.00  0.00     0.006 C 
ATOM     12  C   UNL     1       0.839  14.775   2.692  1.00  0.00    -0.001 C 
ATOM     13  C   UNL     1       1.906  14.586   1.623  1.00  0.00    -0.029 C 
ATOM     14  C   UNL     1       1.423  14.646   0.166  1.00  0.00     0.012 C 
ATOM     15  C   UNL     1       3.231  15.303   1.917  1.00  0.00     0.012 C 
BRANCH  12  16
ATOM     16  C   UNL     1      -0.675  14.667   2.511  1.00  0.00     0.005 CG0
ATOM     17  G   UNL     1      -1.280  13.740   3.590  1.00  0.00     0.000 G0
ENDBRANCH  12  16
ENDBRANCH   1  11
TORSDOF 0
ENDMDL
MODEL 2
REMARK VINA RESULT:    -4.320      1.202      3.297
REMARK INTER + INTRA:          -4.689
REMARK INTER:                  -5.457
REMARK INTRA:                   0.768
REMARK UNBOUND:                 0.641
REMARK SMILES C=C1CC[C@@H]2[C@H]1[C@H]1[C@H](CC[C@H]2C)C1(C)C
REMARK SMILES IDX 6 1 5 2 4 3 3 4 2 5 1 6 11 7 12 8 10 9 7 11 8 12 13 13 14 14
REMARK SMILES IDX 15 15 9 16
REMARK H PARENT
REMARK Flexibility Score: 80.00
ROOT
ATOM      1  C   UNL     1       0.067  12.877   4.627  1.00  0.00     0.022 C 
ATOM      2  C   UNL     1      -1.020  13.734   3.876  1.00  0.00    -0.000 C 
ATOM      3  C   UNL     1      -1.774  14.477   5.011  1.00  0.00     0.009 C 
ATOM      4  C   UNL     1      -0.870  14.501   6.237  1.00  0.00     0.031 C 
ATOM      5  C   UNL     1       0.035  13.343   6.044  1.00  0.00    -0.074 C 
ATOM      6  C   UNL     1       0.513  12.627   7.070  1.00  0.00     0.008 C 
ENDROOT
BRANCH   2   7
ATOM      7  C   UNL     1      -0.633  14.752   2.724  1.00  0.00    -0.011 C 
ATOM      8  C   UNL     1      -1.908  15.201   1.978  1.00  0.00     0.008 C 
BRANCH   7   9
ATOM      9  C   UNL     1       0.376  14.215   1.667  1.00  0.00     0.004 CG0
ATOM     10  G   UNL     1       1.854  14.368   2.091  1.00  0.00     0.000 G0
ENDBRANCH   7   9
ENDBRANCH   2   7
BRANCH   1  11
ATOM     11  C   UNL     1       1.458  12.769   3.953  1.00  0.00     0.006 C 
ATOM     12  C   UNL     1       1.968  14.185   3.617  1.00  0.00    -0.001 C 
ATOM     13  C   UNL     1       2.884  13.213   4.345  1.00  0.00    -0.029 C 
ATOM     14  C   UNL     1       4.041  12.625   3.522  1.00  0.00     0.012 C 
ATOM     15  C   UNL     1       3.230  13.624   5.783  1.00  0.00     0.012 C 
BRANCH  12  16
ATOM     16  C   UNL     1       1.844  14.377   2.105  1.00  0.00     0.005 CG0
ATOM     17  G   UNL     1       0.374  14.206   1.661  1.00  0.00     0.000 G0
ENDBRANCH  12  16
ENDBRANCH   1  11
TORSDOF 0
ENDMDL
MODEL 3
REMARK VINA RESULT:    -4.248      1.852      4.736
REMARK INTER + INTRA:          -4.600
REMARK INTER:                  -5.476
REMARK INTRA:                   0.877
REMARK UNBOUND:                 0.641
REMARK SMILES C=C1CC[C@@H]2[C@H]1[C@H]1[C@H](CC[C@H]2C)C1(C)C
REMARK SMILES IDX 6 1 5 2 4 3 3 4 2 5 1 6 11 7 12 8 10 9 7 11 8 12 13 13 14 14
REMARK SMILES IDX 15 15 9 16
REMARK H PARENT
REMARK Flexibility Score: 80.00
ROOT
ATOM      1  C   UNL     1       0.907  13.376   2.900  1.00  0.00     0.022 C 
ATOM      2  C   UNL     1       2.401  13.845   2.722  1.00  0.00    -0.000 C 
ATOM      3  C   UNL     1       2.301  15.115   1.836  1.00  0.00     0.009 C 
ATOM      4  C   UNL     1       0.883  15.659   1.954  1.00  0.00     0.031 C 
ATOM      5  C   UNL     1       0.073  14.481   2.344  1.00  0.00    -0.074 C 
ATOM      6  C   UNL     1      -1.200  14.324   1.955  1.00  0.00     0.008 C 
ENDROOT
BRANCH   2   7
ATOM      7  C   UNL     1       3.343  14.123   3.966  1.00  0.00    -0.011 C 
ATOM      8  C   UNL     1       4.813  14.188   3.499  1.00  0.00     0.008 C 
BRANCH   7   9
ATOM      9  C   UNL     1       3.253  13.083   5.121  1.00  0.00     0.004 CG0
ATOM     10  G   UNL     1       2.106  13.366   6.118  1.00  0.00     0.000 G0
ENDBRANCH   7   9
ENDBRANCH   2   7
BRANCH   1  11
ATOM     11  C   UNL     1       0.510  12.826   4.293  1.00  0.00     0.006 C 
ATOM     12  C   UNL     1       0.871  13.869   5.370  1.00  0.00    -0.001 C 
ATOM     13  C   UNL     1      -0.517  13.247   5.366  1.00  0.00    -0.029 C 
ATOM     14  C   UNL     1      -0.808  12.230   6.480  1.00  0.00     0.012 C 
ATOM     15  C   UNL     1      -1.651  14.232   5.049  1.00  0.00     0.012 C 
BRANCH  12  16
ATOM     16  C   UNL     1       2.106  13.359   6.114  1.00  0.00     0.005 CG0
ATOM     17  G   UNL     1       3.256  13.082   5.120  1.00  0.00     0.000 G0
ENDBRANCH  12  16
ENDBRANCH   1  11
TORSDOF 0
ENDMDL
MODEL 4
REMARK VINA RESULT:    -3.989      1.408      3.401
REMARK INTER + INTRA:          -4.280
REMARK INTER:                  -5.091
REMARK INTRA:                   0.811
REMARK UNBOUND:                 0.641
REMARK SMILES C=C1CC[C@@H]2[C@H]1[C@H]1[C@H](CC[C@H]2C)C1(C)C
REMARK SMILES IDX 6 1 5 2 4 3 3 4 2 5 1 6 11 7 12 8 10 9 7 11 8 12 13 13 14 14
REMARK SMILES IDX 15 15 9 16
REMARK H PARENT
REMARK Flexibility Score: 80.00
ROOT
ATOM      1  C   UNL     1       1.986  14.250   1.369  1.00  0.00     0.022 C 
ATOM      2  C   UNL     1       2.776  14.032   2.715  1.00  0.00    -0.000 C 
ATOM      3  C   UNL     1       3.804  15.194   2.750  1.00  0.00     0.009 C 
ATOM      4  C   UNL     1       3.299  16.294   1.824  1.00  0.00     0.031 C 
ATOM      5  C   UNL     1       2.417  15.587   0.865  1.00  0.00    -0.074 C 
ATOM      6  C   UNL     1       2.286  15.974  -0.411  1.00  0.00     0.008 C 
ENDROOT
BRANCH   2   7
ATOM      7  C   UNL     1       2.034  13.923   4.111  1.00  0.00    -0.011 C 
ATOM      8  C   UNL     1       3.010  13.380   5.178  1.00  0.00     0.008 C 
BRANCH   7   9
ATOM      9  C   UNL     1       0.762  13.024   4.126  1.00  0.00     0.004 CG0
ATOM     10  G   UNL     1      -0.519  13.762   3.674  1.00  0.00     0.000 G0
ENDBRANCH   7   9
ENDBRANCH   2   7
BRANCH   1  11
ATOM     11  C   UNL     1       0.463  13.967   1.401  1.00  0.00     0.006 C 
ATOM     12  C   UNL     1      -0.175  14.762   2.558  1.00  0.00    -0.001 C 
ATOM     13  C   UNL     1      -0.798  14.827   1.171  1.00  0.00    -0.029 C 
ATOM     14  C   UNL     1      -2.124  14.072   0.989  1.00  0.00     0.012 C 
ATOM     15  C   UNL     1      -0.719  16.207   0.505  1.00  0.00     0.012 C 
BRANCH  12  16
ATOM     16  C   UNL     1      -0.511  13.772   3.673  1.00  0.00     0.005 CG0
ATOM     17  G   UNL     1       0.763  13.022   4.127  1.00  0.00     0.000 G0
ENDBRANCH  12  16
ENDBRANCH   1  11
TORSDOF 0
ENDMDL
MODEL 5
REMARK VINA RESULT:    -3.638      2.744      4.612
REMARK INTER + INTRA:          -3.848
REMARK INTER:                  -4.412
REMARK INTRA:                   0.564
REMARK UNBOUND:                 0.641
REMARK SMILES C=C1CC[C@@H]2[C@H]1[C@H]1[C@H](CC[C@H]2C)C1(C)C
REMARK SMILES IDX 6 1 5 2 4 3 3 4 2 5 1 6 11 7 12 8 10 9 7 11 8 12 13 13 14 14
REMARK SMILES IDX 15 15 9 16
REMARK H PARENT
REMARK Flexibility Score: 80.00
ROOT
ATOM      1  C   UNL     1       0.454  13.863   0.668  1.00  0.00     0.022 C 
ATOM      2  C   UNL     1      -1.078  13.932   0.307  1.00  0.00    -0.000 C 
ATOM      3  C   UNL     1      -1.788  14.095   1.677  1.00  0.00     0.009 C 
ATOM      4  C   UNL     1      -0.769  14.634   2.672  1.00  0.00     0.031 C 
ATOM      5  C   UNL     1       0.540  14.219   2.115  1.00  0.00    -0.074 C 
ATOM      6  C   UNL     1       1.587  13.909   2.892  1.00  0.00     0.008 C 
ENDROOT
BRANCH   2   7
ATOM      7  C   UNL     1      -1.646  14.990  -0.727  1.00  0.00    -0.011 C 
ATOM      8  C   UNL     1      -3.130  14.683  -1.022  1.00  0.00     0.008 C 
BRANCH   7   9
ATOM      9  C   UNL     1      -0.894  15.067  -2.089  1.00  0.00     0.004 CG0
ATOM     10  G   UNL     1       0.343  15.992  -2.058  1.00  0.00     0.000 G0
ENDBRANCH   7   9
ENDBRANCH   2   7
BRANCH   1  11
ATOM     11  C   UNL     1       1.430  14.586  -0.294  1.00  0.00     0.006 C 
ATOM     12  C   UNL     1       0.886  15.996  -0.600  1.00  0.00    -0.001 C 
ATOM     13  C   UNL     1       2.337  15.830  -0.175  1.00  0.00    -0.029 C 
ATOM     14  C   UNL     1       3.392  16.022  -1.275  1.00  0.00     0.012 C 
ATOM     15  C   UNL     1       2.674  16.451   1.187  1.00  0.00     0.012 C 
BRANCH  12  16
ATOM     16  C   UNL     1       0.337  15.982  -2.027  1.00  0.00     0.005 CG0
ATOM     17  G   UNL     1      -0.904  15.066  -2.116  1.00  0.00     0.000 G0
ENDBRANCH  12  16
ENDBRANCH   1  11
TORSDOF 0
ENDMDL
MODEL 6
REMARK VINA RESULT:    -3.556      1.669      3.667
REMARK INTER + INTRA:          -3.747
REMARK INTER:                  -4.593
REMARK INTRA:                   0.846
REMARK UNBOUND:                 0.641
REMARK SMILES C=C1CC[C@@H]2[C@H]1[C@H]1[C@H](CC[C@H]2C)C1(C)C
REMARK SMILES IDX 6 1 5 2 4 3 3 4 2 5 1 6 11 7 12 8 10 9 7 11 8 12 13 13 14 14
REMARK SMILES IDX 15 15 9 16
REMARK H PARENT
REMARK Flexibility Score: 80.00
ROOT
ATOM      1  C   UNL     1       0.393  14.389   4.173  1.00  0.00     0.022 C 
ATOM      2  C   UNL     1       1.547  13.356   4.465  1.00  0.00    -0.000 C 
ATOM      3  C   UNL     1       0.907  12.329   5.437  1.00  0.00     0.009 C 
ATOM      4  C   UNL     1      -0.606  12.420   5.284  1.00  0.00     0.031 C 
ATOM      5  C   UNL     1      -0.838  13.788   4.764  1.00  0.00    -0.074 C 
ATOM      6  C   UNL     1      -1.933  14.498   5.071  1.00  0.00     0.008 C 
ENDROOT
BRANCH   2   7
ATOM      7  C   UNL     1       2.306  12.599   3.298  1.00  0.00    -0.011 C 
ATOM      8  C   UNL     1       3.595  11.952   3.850  1.00  0.00     0.008 C 
BRANCH   7   9
ATOM      9  C   UNL     1       2.697  13.476   2.073  1.00  0.00     0.004 CG0
ATOM     10  G   UNL     1       1.564  13.623   1.032  1.00  0.00     0.000 G0
ENDBRANCH   7   9
ENDBRANCH   2   7
BRANCH   1  11
ATOM     11  C   UNL     1       0.289  14.926   2.724  1.00  0.00     0.006 C 
ATOM     12  C   UNL     1       0.208  13.735   1.747  1.00  0.00    -0.001 C 
ATOM     13  C   UNL     1      -0.798  14.870   1.629  1.00  0.00    -0.029 C 
ATOM     14  C   UNL     1      -0.617  15.813   0.429  1.00  0.00     0.012 C 
ATOM     15  C   UNL     1      -2.244  14.472   1.953  1.00  0.00     0.012 C 
BRANCH  12  16
ATOM     16  C   UNL     1       1.558  13.624   1.039  1.00  0.00     0.005 CG0
ATOM     17  G   UNL     1       2.698  13.484   2.073  1.00  0.00     0.000 G0
ENDBRANCH  12  16
ENDBRANCH   1  11
TORSDOF 0
ENDMDL
MODEL 7
REMARK VINA RESULT:    -3.516      2.218      4.863
REMARK INTER + INTRA:          -3.697
REMARK INTER:                  -4.552
REMARK INTRA:                   0.855
REMARK UNBOUND:                 0.641
REMARK SMILES C=C1CC[C@@H]2[C@H]1[C@H]1[C@H](CC[C@H]2C)C1(C)C
REMARK SMILES IDX 6 1 5 2 4 3 3 4 2 5 1 6 11 7 12 8 10 9 7 11 8 12 13 13 14 14
REMARK SMILES IDX 15 15 9 16
REMARK H PARENT
REMARK Flexibility Score: 80.00
ROOT
ATOM      1  C   UNL     1       1.897  16.226   1.201  1.00  0.00     0.022 C 
ATOM      2  C   UNL     1       1.337  16.052  -0.262  1.00  0.00    -0.000 C 
ATOM      3  C   UNL     1       2.402  16.731  -1.163  1.00  0.00     0.009 C 
ATOM      4  C   UNL     1       3.708  16.790  -0.382  1.00  0.00     0.031 C 
ATOM      5  C   UNL     1       3.286  16.744   1.038  1.00  0.00    -0.074 C 
ATOM      6  C   UNL     1       3.958  17.379   2.008  1.00  0.00     0.008 C 
ENDROOT
BRANCH   2   7
ATOM      7  C   UNL     1       0.958  14.629  -0.847  1.00  0.00    -0.011 C 
ATOM      8  C   UNL     1       0.108  14.802  -2.125  1.00  0.00     0.008 C 
BRANCH   7   9
ATOM      9  C   UNL     1       0.179  13.691   0.122  1.00  0.00     0.004 CG0
ATOM     10  G   UNL     1       1.094  12.899   1.083  1.00  0.00     0.000 G0
ENDBRANCH   7   9
ENDBRANCH   2   7
BRANCH   1  11
ATOM     11  C   UNL     1       1.700  15.032   2.169  1.00  0.00     0.006 C 
ATOM     12  C   UNL     1       2.273  13.755   1.522  1.00  0.00    -0.001 C 
ATOM     13  C   UNL     1       2.659  14.108   2.951  1.00  0.00    -0.029 C 
ATOM     14  C   UNL     1       2.035  13.241   4.055  1.00  0.00     0.012 C 
ATOM     15  C   UNL     1       4.140  14.462   3.138  1.00  0.00     0.012 C 
BRANCH  12  16
ATOM     16  C   UNL     1       1.093  12.893   1.073  1.00  0.00     0.005 CG0
ATOM     17  G   UNL     1       0.180  13.690   0.114  1.00  0.00     0.000 G0
ENDBRANCH  12  16
ENDBRANCH   1  11
TORSDOF 0
ENDMDL
MODEL 8
REMARK VINA RESULT:    -3.170      2.862      5.332
REMARK INTER + INTRA:          -3.270
REMARK INTER:                  -4.095
REMARK INTRA:                   0.825
REMARK UNBOUND:                 0.641
REMARK SMILES C=C1CC[C@@H]2[C@H]1[C@H]1[C@H](CC[C@H]2C)C1(C)C
REMARK SMILES IDX 6 1 5 2 4 3 3 4 2 5 1 6 11 7 12 8 10 9 7 11 8 12 13 13 14 14
REMARK SMILES IDX 15 15 9 16
REMARK H PARENT
REMARK Flexibility Score: 80.00
ROOT
ATOM      1  C   UNL     1       0.273  15.673   1.292  1.00  0.00     0.022 C 
ATOM      2  C   UNL     1       1.756  15.908   0.811  1.00  0.00    -0.000 C 
ATOM      3  C   UNL     1       2.601  14.945   1.686  1.00  0.00     0.009 C 
ATOM      4  C   UNL     1       1.674  13.858   2.215  1.00  0.00     0.031 C 
ATOM      5  C   UNL     1       0.329  14.480   2.187  1.00  0.00    -0.074 C 
ATOM      6  C   UNL     1      -0.618  14.187   3.089  1.00  0.00     0.008 C 
ENDROOT
BRANCH   2   7
ATOM      7  C   UNL     1       2.172  15.766  -0.711  1.00  0.00    -0.011 C 
ATOM      8  C   UNL     1       3.569  16.388  -0.927  1.00  0.00     0.008 C 
BRANCH   7   9
ATOM      9  C   UNL     1       1.197  16.415  -1.737  1.00  0.00     0.004 CG0
ATOM     10  G   UNL     1       0.015  15.499  -2.128  1.00  0.00     0.000 G0
ENDBRANCH   7   9
ENDBRANCH   2   7
BRANCH   1  11
ATOM     11  C   UNL     1      -0.824  15.683   0.198  1.00  0.00     0.006 C 
ATOM     12  C   UNL     1      -0.437  14.689  -0.916  1.00  0.00    -0.001 C 
ATOM     13  C   UNL     1      -1.837  14.640  -0.322  1.00  0.00    -0.029 C 
ATOM     14  C   UNL     1      -2.971  15.165  -1.216  1.00  0.00     0.012 C 
ATOM     15  C   UNL     1      -2.147  13.359   0.466  1.00  0.00     0.012 C 
BRANCH  12  16
ATOM     16  C   UNL     1       0.022  15.503  -2.125  1.00  0.00     0.005 CG0
ATOM     17  G   UNL     1       1.200  16.424  -1.736  1.00  0.00     0.000 G0
ENDBRANCH  12  16
ENDBRANCH   1  11
TORSDOF 0
ENDMDL
MODEL 9
REMARK VINA RESULT:    -3.144      3.490      5.937
REMARK INTER + INTRA:          -3.239
REMARK INTER:                  -4.037
REMARK INTRA:                   0.798
REMARK UNBOUND:                 0.641
REMARK SMILES C=C1CC[C@@H]2[C@H]1[C@H]1[C@H](CC[C@H]2C)C1(C)C
REMARK SMILES IDX 6 1 5 2 4 3 3 4 2 5 1 6 11 7 12 8 10 9 7 11 8 12 13 13 14 14
REMARK SMILES IDX 15 15 9 16
REMARK H PARENT
REMARK Flexibility Score: 80.00
ROOT
ATOM      1  C   UNL     1      -1.883  15.291   0.689  1.00  0.00     0.022 C 
ATOM      2  C   UNL     1      -0.446  14.651   0.597  1.00  0.00    -0.000 C 
ATOM      3  C   UNL     1      -0.003  14.489   2.075  1.00  0.00     0.009 C 
ATOM      4  C   UNL     1      -1.254  14.497   2.943  1.00  0.00     0.031 C 
ATOM      5  C   UNL     1      -2.255  15.230   2.132  1.00  0.00    -0.074 C 
ATOM      6  C   UNL     1      -3.204  15.999   2.684  1.00  0.00     0.008 C 
ENDROOT
BRANCH   2   7
ATOM      7  C   UNL     1      -0.179  13.308  -0.201  1.00  0.00    -0.011 C 
ATOM      8  C   UNL     1       1.341  13.112  -0.394  1.00  0.00     0.008 C 
BRANCH   7   9
ATOM      9  C   UNL     1      -0.855  13.213  -1.601  1.00  0.00     0.004 CG0
ATOM     10  G   UNL     1      -2.319  12.722  -1.546  1.00  0.00     0.000 G0
ENDBRANCH   7   9
ENDBRANCH   2   7
BRANCH   1  11
ATOM     11  C   UNL     1      -2.936  14.789  -0.332  1.00  0.00     0.006 C 
ATOM     12  C   UNL     1      -3.000  13.250  -0.277  1.00  0.00    -0.001 C 
ATOM     13  C   UNL     1      -4.289  14.056  -0.213  1.00  0.00    -0.029 C 
ATOM     14  C   UNL     1      -5.171  14.025  -1.470  1.00  0.00     0.012 C 
ATOM     15  C   UNL     1      -5.032  13.955   1.126  1.00  0.00     0.012 C 
BRANCH  12  16
ATOM     16  C   UNL     1      -2.313  12.712  -1.532  1.00  0.00     0.005 CG0
ATOM     17  G   UNL     1      -0.854  13.216  -1.604  1.00  0.00     0.000 G0
ENDBRANCH  12  16
ENDBRANCH   1  11
TORSDOF 0
ENDMDL
