MODEL 1
REMARK VINA RESULT:    -2.856      0.000      0.000
REMARK INTER + INTRA:          -3.225
REMARK INTER:                  -3.190
REMARK INTRA:                  -0.034
REMARK UNBOUND:                -0.034
REMARK SMILES CCCC(=O)[O-]
REMARK SMILES IDX 3 1 4 2 5 3 6 4 2 5 1 6
REMARK H PARENT
REMARK Flexibility Score: inf
ROOT
ATOM      1  C   UNL     1     -18.647  43.722  31.872  1.00  0.00     0.052 C 
ENDROOT
BRANCH   1   2
ATOM      2  C   UNL     1     -17.373  44.483  31.671  1.00  0.00     0.041 C 
ATOM      3  O   UNL     1     -17.199  45.166  30.628  1.00  0.00    -0.550 OA
ATOM      4  O   UNL     1     -16.391  44.464  32.653  1.00  0.00    -0.550 OA
ENDBRANCH   1   2
BRANCH   1   5
ATOM      5  C   UNL     1     -19.095  43.744  33.339  1.00  0.00     0.003 C 
ATOM      6  C   UNL     1     -19.250  42.339  33.922  1.00  0.00     0.004 C 
ENDBRANCH   1   5
TORSDOF 2
ENDMDL
MODEL 2
REMARK VINA RESULT:    -2.827      0.089      1.324
REMARK INTER + INTRA:          -3.192
REMARK INTER:                  -3.157
REMARK INTRA:                  -0.035
REMARK UNBOUND:                -0.034
REMARK SMILES CCCC(=O)[O-]
REMARK SMILES IDX 3 1 4 2 5 3 6 4 2 5 1 6
REMARK H PARENT
REMARK Flexibility Score: inf
ROOT
ATOM      1  C   UNL     1     -18.648  43.758  31.962  1.00  0.00     0.052 C 
ENDROOT
BRANCH   1   2
ATOM      2  C   UNL     1     -17.353  44.485  31.773  1.00  0.00     0.041 C 
ATOM      3  O   UNL     1     -16.457  44.425  32.655  1.00  0.00    -0.550 OA
ATOM      4  O   UNL     1     -17.122  45.202  30.606  1.00  0.00    -0.550 OA
ENDBRANCH   1   2
BRANCH   1   5
ATOM      5  C   UNL     1     -19.073  43.730  33.436  1.00  0.00     0.003 C 
ATOM      6  C   UNL     1     -19.288  42.308  33.953  1.00  0.00     0.004 C 
ENDBRANCH   1   5
TORSDOF 2
ENDMDL
MODEL 3
REMARK VINA RESULT:    -2.803      3.301      4.217
REMARK INTER + INTRA:          -3.165
REMARK INTER:                  -3.112
REMARK INTRA:                  -0.053
REMARK UNBOUND:                -0.034
REMARK SMILES CCCC(=O)[O-]
REMARK SMILES IDX 3 1 4 2 5 3 6 4 2 5 1 6
REMARK H PARENT
REMARK Flexibility Score: inf
ROOT
ATOM      1  C   UNL     1     -14.856  44.098  34.190  1.00  0.00     0.052 C 
ENDROOT
BRANCH   1   2
ATOM      2  C   UNL     1     -15.954  44.439  33.231  1.00  0.00     0.041 C 
ATOM      3  O   UNL     1     -17.126  44.629  33.649  1.00  0.00    -0.550 OA
ATOM      4  O   UNL     1     -15.675  44.580  31.877  1.00  0.00    -0.550 OA
ENDBRANCH   1   2
BRANCH   1   5
ATOM      5  C   UNL     1     -13.877  45.266  34.369  1.00  0.00     0.003 C 
ATOM      6  C   UNL     1     -14.428  46.351  35.294  1.00  0.00     0.004 C 
ENDBRANCH   1   5
TORSDOF 2
ENDMDL
MODEL 4
REMARK VINA RESULT:    -2.783      9.443      9.964
REMARK INTER + INTRA:          -3.142
REMARK INTER:                  -3.103
REMARK INTRA:                  -0.039
REMARK UNBOUND:                -0.034
REMARK SMILES CCCC(=O)[O-]
REMARK SMILES IDX 3 1 4 2 5 3 6 4 2 5 1 6
REMARK H PARENT
REMARK Flexibility Score: inf
ROOT
ATOM      1  C   UNL     1     -25.456  39.163  29.341  1.00  0.00     0.052 C 
ENDROOT
BRANCH   1   2
ATOM      2  C   UNL     1     -24.804  37.815  29.301  1.00  0.00     0.041 C 
ATOM      3  O   UNL     1     -25.451  36.808  28.913  1.00  0.00    -0.550 OA
ATOM      4  O   UNL     1     -23.470  37.679  29.662  1.00  0.00    -0.550 OA
ENDBRANCH   1   2
BRANCH   1   5
ATOM      5  C   UNL     1     -24.944  40.075  28.219  1.00  0.00     0.003 C 
ATOM      6  C   UNL     1     -25.833  40.026  26.977  1.00  0.00     0.004 C 
ENDBRANCH   1   5
TORSDOF 2
ENDMDL
MODEL 5
REMARK VINA RESULT:    -2.778      3.276      3.795
REMARK INTER + INTRA:          -3.138
REMARK INTER:                  -3.127
REMARK INTRA:                  -0.011
REMARK UNBOUND:                -0.034
REMARK SMILES CCCC(=O)[O-]
REMARK SMILES IDX 3 1 4 2 5 3 6 4 2 5 1 6
REMARK H PARENT
REMARK Flexibility Score: inf
ROOT
ATOM      1  C   UNL     1     -18.229  41.927  32.550  1.00  0.00     0.052 C 
ENDROOT
BRANCH   1   2
ATOM      2  C   UNL     1     -17.680  40.573  32.877  1.00  0.00     0.041 C 
ATOM      3  O   UNL     1     -17.172  40.349  34.007  1.00  0.00    -0.550 OA
ATOM      4  O   UNL     1     -17.760  39.547  31.944  1.00  0.00    -0.550 OA
ENDBRANCH   1   2
BRANCH   1   5
ATOM      5  C   UNL     1     -19.108  42.471  33.683  1.00  0.00     0.003 C 
ATOM      6  C   UNL     1     -19.338  43.978  33.569  1.00  0.00     0.004 C 
ENDBRANCH   1   5
TORSDOF 2
ENDMDL
MODEL 6
REMARK VINA RESULT:    -2.722      1.808      3.309
REMARK INTER + INTRA:          -3.075
REMARK INTER:                  -3.036
REMARK INTRA:                  -0.039
REMARK UNBOUND:                -0.034
REMARK SMILES CCCC(=O)[O-]
REMARK SMILES IDX 3 1 4 2 5 3 6 4 2 5 1 6
REMARK H PARENT
REMARK Flexibility Score: inf
ROOT
ATOM      1  C   UNL     1     -17.814  43.890  31.414  1.00  0.00     0.052 C 
ENDROOT
BRANCH   1   2
ATOM      2  C   UNL     1     -18.116  44.221  32.843  1.00  0.00     0.041 C 
ATOM      3  O   UNL     1     -17.213  44.673  33.594  1.00  0.00    -0.550 OA
ATOM      4  O   UNL     1     -19.404  44.061  33.336  1.00  0.00    -0.550 OA
ENDBRANCH   1   2
BRANCH   1   5
ATOM      5  C   UNL     1     -17.096  45.045  30.704  1.00  0.00     0.003 C 
ATOM      6  C   UNL     1     -15.658  44.690  30.323  1.00  0.00     0.004 C 
ENDBRANCH   1   5
TORSDOF 2
ENDMDL
MODEL 7
REMARK VINA RESULT:    -2.692      2.345      2.842
REMARK INTER + INTRA:          -3.042
REMARK INTER:                  -3.003
REMARK INTRA:                  -0.038
REMARK UNBOUND:                -0.034
REMARK SMILES CCCC(=O)[O-]
REMARK SMILES IDX 3 1 4 2 5 3 6 4 2 5 1 6
REMARK H PARENT
REMARK Flexibility Score: inf
ROOT
ATOM      1  C   UNL     1     -16.864  44.550  33.522  1.00  0.00     0.052 C 
ENDROOT
BRANCH   1   2
ATOM      2  C   UNL     1     -15.956  43.433  33.933  1.00  0.00     0.041 C 
ATOM      3  O   UNL     1     -14.799  43.680  34.364  1.00  0.00    -0.550 OA
ATOM      4  O   UNL     1     -16.400  42.118  33.873  1.00  0.00    -0.550 OA
ENDBRANCH   1   2
BRANCH   1   5
ATOM      5  C   UNL     1     -18.073  44.036  32.730  1.00  0.00     0.003 C 
ATOM      6  C   UNL     1     -19.368  44.096  33.539  1.00  0.00     0.004 C 
ENDBRANCH   1   5
TORSDOF 2
ENDMDL
MODEL 8
REMARK VINA RESULT:    -2.655      2.178      3.052
REMARK INTER + INTRA:          -3.000
REMARK INTER:                  -2.985
REMARK INTRA:                  -0.015
REMARK UNBOUND:                -0.034
REMARK SMILES CCCC(=O)[O-]
REMARK SMILES IDX 3 1 4 2 5 3 6 4 2 5 1 6
REMARK H PARENT
REMARK Flexibility Score: inf
ROOT
ATOM      1  C   UNL     1     -17.053  44.498  33.281  1.00  0.00     0.052 C 
ENDROOT
BRANCH   1   2
ATOM      2  C   UNL     1     -17.599  44.343  31.896  1.00  0.00     0.041 C 
ATOM      3  O   UNL     1     -18.501  43.498  31.659  1.00  0.00    -0.550 OA
ATOM      4  O   UNL     1     -17.133  45.157  30.871  1.00  0.00    -0.550 OA
ENDBRANCH   1   2
BRANCH   1   5
ATOM      5  C   UNL     1     -15.535  44.283  33.321  1.00  0.00     0.003 C 
ATOM      6  C   UNL     1     -14.839  45.222  34.306  1.00  0.00     0.004 C 
ENDBRANCH   1   5
TORSDOF 2
ENDMDL
MODEL 9
REMARK VINA RESULT:    -2.642      2.443      3.193
REMARK INTER + INTRA:          -2.985
REMARK INTER:                  -2.941
REMARK INTRA:                  -0.045
REMARK UNBOUND:                -0.034
REMARK SMILES CCCC(=O)[O-]
REMARK SMILES IDX 3 1 4 2 5 3 6 4 2 5 1 6
REMARK H PARENT
REMARK Flexibility Score: inf
ROOT
ATOM      1  C   UNL     1     -17.233  44.402  33.395  1.00  0.00     0.052 C 
ENDROOT
BRANCH   1   2
ATOM      2  C   UNL     1     -16.162  43.401  33.703  1.00  0.00     0.041 C 
ATOM      3  O   UNL     1     -15.129  43.750  34.330  1.00  0.00    -0.550 OA
ATOM      4  O   UNL     1     -16.323  42.075  33.324  1.00  0.00    -0.550 OA
ENDBRANCH   1   2
BRANCH   1   5
ATOM      5  C   UNL     1     -17.868  44.150  32.022  1.00  0.00     0.003 C 
ATOM      6  C   UNL     1     -17.124  44.866  30.895  1.00  0.00     0.004 C 
ENDBRANCH   1   5
TORSDOF 2
ENDMDL
