MODEL 1
REMARK VINA RESULT:    -5.252      0.000      0.000
REMARK INTER + INTRA:          -5.252
REMARK INTER:                  -5.252
REMARK INTRA:                   0.000
REMARK UNBOUND:                 0.000
REMARK SMILES CC1=CC[C@]23C[C@H]1C(C)(C)[C@H]2CC[C@@H]3C
REMARK SMILES IDX 15 1 14 2 13 3 12 4 11 5 5 6 4 7 3 8 2 9 7 10 6 11 8 12 9 13
REMARK SMILES IDX 10 14 1 15
REMARK H PARENT
REMARK Flexibility Score: inf
ROOT
ATOM      1  C   UNL     1     140.520 138.007 131.008  1.00  0.00     0.008 C 
ATOM      2  C   UNL     1     139.656 139.275 130.872  1.00  0.00    -0.007 C 
ATOM      3  C   UNL     1     138.910 139.263 129.536  1.00  0.00     0.004 C 
ATOM      4  C   UNL     1     137.590 138.551 129.802  1.00  0.00     0.005 C 
ATOM      5  C   UNL     1     137.265 138.760 131.297  1.00  0.00     0.002 C 
ATOM      6  C   UNL     1     138.531 139.385 131.931  1.00  0.00    -0.020 C 
ATOM      7  C   UNL     1     138.838 138.742 133.321  1.00  0.00     0.035 C 
ATOM      8  C   UNL     1     137.785 139.097 134.359  1.00  0.00    -0.027 C 
ATOM      9  C   UNL     1     136.841 140.041 134.121  1.00  0.00    -0.074 C 
ATOM     10  C   UNL     1     136.729 140.676 132.731  1.00  0.00     0.021 C 
ATOM     11  C   UNL     1     138.141 140.847 132.193  1.00  0.00     0.016 C 
ATOM     12  C   UNL     1     136.077 139.715 131.691  1.00  0.00    -0.025 C 
ATOM     13  C   UNL     1     135.513 140.556 130.516  1.00  0.00     0.012 C 
ATOM     14  C   UNL     1     134.895 138.909 132.284  1.00  0.00     0.012 C 
ATOM     15  C   UNL     1     135.889 140.436 135.216  1.00  0.00     0.039 C 
ENDROOT
TORSDOF 0
ENDMDL
MODEL 2
REMARK VINA RESULT:    -5.192      4.723      6.338
REMARK INTER + INTRA:          -5.192
REMARK INTER:                  -5.192
REMARK INTRA:                   0.000
REMARK UNBOUND:                 0.000
REMARK SMILES CC1=CC[C@]23C[C@H]1C(C)(C)[C@H]2CC[C@@H]3C
REMARK SMILES IDX 15 1 14 2 13 3 12 4 11 5 5 6 4 7 3 8 2 9 7 10 6 11 8 12 9 13
REMARK SMILES IDX 10 14 1 15
REMARK H PARENT
REMARK Flexibility Score: inf
ROOT
ATOM      1  C   UNL     1     133.079 135.830 131.301  1.00  0.00     0.008 C 
ATOM      2  C   UNL     1     133.984 134.602 131.088  1.00  0.00    -0.007 C 
ATOM      3  C   UNL     1     134.705 134.706 129.742  1.00  0.00     0.004 C 
ATOM      4  C   UNL     1     136.004 135.452 130.021  1.00  0.00     0.005 C 
ATOM      5  C   UNL     1     136.363 135.181 131.498  1.00  0.00     0.002 C 
ATOM      6  C   UNL     1     135.132 134.481 132.121  1.00  0.00    -0.020 C 
ATOM      7  C   UNL     1     134.828 135.043 133.546  1.00  0.00     0.035 C 
ATOM      8  C   UNL     1     135.912 134.675 134.548  1.00  0.00    -0.027 C 
ATOM      9  C   UNL     1     136.884 133.779 134.248  1.00  0.00    -0.074 C 
ATOM     10  C   UNL     1     136.993 133.218 132.827  1.00  0.00     0.021 C 
ATOM     11  C   UNL     1     135.578 133.022 132.304  1.00  0.00     0.016 C 
ATOM     12  C   UNL     1     137.591 134.252 131.825  1.00  0.00    -0.025 C 
ATOM     13  C   UNL     1     138.163 133.489 130.600  1.00  0.00     0.012 C 
ATOM     14  C   UNL     1     138.755 135.069 132.437  1.00  0.00     0.012 C 
ATOM     15  C   UNL     1     137.869 133.365 135.306  1.00  0.00     0.039 C 
ENDROOT
TORSDOF 0
ENDMDL
MODEL 3
REMARK VINA RESULT:    -5.186      3.015      4.555
REMARK INTER + INTRA:          -5.186
REMARK INTER:                  -5.186
REMARK INTRA:                   0.000
REMARK UNBOUND:                 0.000
REMARK SMILES CC1=CC[C@]23C[C@H]1C(C)(C)[C@H]2CC[C@@H]3C
REMARK SMILES IDX 15 1 14 2 13 3 12 4 11 5 5 6 4 7 3 8 2 9 7 10 6 11 8 12 9 13
REMARK SMILES IDX 10 14 1 15
REMARK H PARENT
REMARK Flexibility Score: inf
ROOT
ATOM      1  C   UNL     1     137.933 133.156 130.976  1.00  0.00     0.008 C 
ATOM      2  C   UNL     1     139.207 134.016 130.873  1.00  0.00    -0.007 C 
ATOM      3  C   UNL     1     139.235 134.759 129.535  1.00  0.00     0.004 C 
ATOM      4  C   UNL     1     138.520 136.082 129.779  1.00  0.00     0.005 C 
ATOM      5  C   UNL     1     138.689 136.409 131.279  1.00  0.00     0.002 C 
ATOM      6  C   UNL     1     139.292 135.142 131.932  1.00  0.00    -0.020 C 
ATOM      7  C   UNL     1     138.610 134.841 133.304  1.00  0.00     0.035 C 
ATOM      8  C   UNL     1     138.941 135.894 134.350  1.00  0.00    -0.027 C 
ATOM      9  C   UNL     1     139.893 136.835 134.136  1.00  0.00    -0.074 C 
ATOM     10  C   UNL     1     140.566 136.942 132.764  1.00  0.00     0.021 C 
ATOM     11  C   UNL     1     140.748 135.528 132.233  1.00  0.00     0.016 C 
ATOM     12  C   UNL     1     139.637 137.595 131.697  1.00  0.00    -0.025 C 
ATOM     13  C   UNL     1     140.512 138.154 130.544  1.00  0.00     0.012 C 
ATOM     14  C   UNL     1     138.819 138.781 132.265  1.00  0.00     0.012 C 
ATOM     15  C   UNL     1     140.262 137.788 135.240  1.00  0.00     0.039 C 
ENDROOT
TORSDOF 0
ENDMDL
MODEL 4
REMARK VINA RESULT:    -5.185      2.843      4.481
REMARK INTER + INTRA:          -5.185
REMARK INTER:                  -5.185
REMARK INTRA:                   0.000
REMARK UNBOUND:                 0.000
REMARK SMILES CC1=CC[C@]23C[C@H]1C(C)(C)[C@H]2CC[C@@H]3C
REMARK SMILES IDX 15 1 14 2 13 3 12 4 11 5 5 6 4 7 3 8 2 9 7 10 6 11 8 12 9 13
REMARK SMILES IDX 10 14 1 15
REMARK H PARENT
REMARK Flexibility Score: inf
ROOT
ATOM      1  C   UNL     1     135.868 140.525 131.285  1.00  0.00     0.008 C 
ATOM      2  C   UNL     1     134.629 139.635 131.070  1.00  0.00    -0.007 C 
ATOM      3  C   UNL     1     134.744 138.882 129.743  1.00  0.00     0.004 C 
ATOM      4  C   UNL     1     135.463 137.577 130.066  1.00  0.00     0.005 C 
ATOM      5  C   UNL     1     135.160 137.258 131.546  1.00  0.00     0.002 C 
ATOM      6  C   UNL     1     134.469 138.515 132.127  1.00  0.00    -0.020 C 
ATOM      7  C   UNL     1     135.012 138.842 133.555  1.00  0.00     0.035 C 
ATOM      8  C   UNL     1     134.608 137.789 134.574  1.00  0.00    -0.027 C 
ATOM      9  C   UNL     1     133.701 136.825 134.281  1.00  0.00    -0.074 C 
ATOM     10  C   UNL     1     133.163 136.692 132.852  1.00  0.00     0.021 C 
ATOM     11  C   UNL     1     133.000 138.097 132.293  1.00  0.00     0.016 C 
ATOM     12  C   UNL     1     134.204 136.053 131.883  1.00  0.00    -0.025 C 
ATOM     13  C   UNL     1     133.455 135.466 130.658  1.00  0.00     0.012 C 
ATOM     14  C   UNL     1     134.991 134.891 132.538  1.00  0.00     0.012 C 
ATOM     15  C   UNL     1     133.251 135.871 135.353  1.00  0.00     0.039 C 
ENDROOT
TORSDOF 0
ENDMDL
MODEL 5
REMARK VINA RESULT:    -5.132      4.581      6.978
REMARK INTER + INTRA:          -5.132
REMARK INTER:                  -5.132
REMARK INTRA:                   0.000
REMARK UNBOUND:                 0.000
REMARK SMILES CC1=CC[C@]23C[C@H]1C(C)(C)[C@H]2CC[C@@H]3C
REMARK SMILES IDX 15 1 14 2 13 3 12 4 11 5 5 6 4 7 3 8 2 9 7 10 6 11 8 12 9 13
REMARK SMILES IDX 10 14 1 15
REMARK H PARENT
REMARK Flexibility Score: inf
ROOT
ATOM      1  C   UNL     1     132.961 135.358 130.665  1.00  0.00     0.008 C 
ATOM      2  C   UNL     1     134.339 135.773 131.213  1.00  0.00    -0.007 C 
ATOM      3  C   UNL     1     134.439 135.434 132.702  1.00  0.00     0.004 C 
ATOM      4  C   UNL     1     134.984 134.013 132.772  1.00  0.00     0.005 C 
ATOM      5  C   UNL     1     135.810 133.792 131.486  1.00  0.00     0.002 C 
ATOM      6  C   UNL     1     135.525 135.010 130.573  1.00  0.00    -0.020 C 
ATOM      7  C   UNL     1     135.328 134.564 129.090  1.00  0.00     0.035 C 
ATOM      8  C   UNL     1     136.615 134.034 128.477  1.00  0.00    -0.027 C 
ATOM      9  C   UNL     1     137.809 134.164 129.106  1.00  0.00    -0.074 C 
ATOM     10  C   UNL     1     137.865 134.729 130.529  1.00  0.00     0.021 C 
ATOM     11  C   UNL     1     136.822 135.832 130.623  1.00  0.00     0.016 C 
ATOM     12  C   UNL     1     137.378 133.701 131.595  1.00  0.00    -0.025 C 
ATOM     13  C   UNL     1     137.950 134.105 132.980  1.00  0.00     0.012 C 
ATOM     14  C   UNL     1     137.869 132.261 131.301  1.00  0.00     0.012 C 
ATOM     15  C   UNL     1     139.069 133.723 128.414  1.00  0.00     0.039 C 
ENDROOT
TORSDOF 0
ENDMDL
MODEL 6
REMARK VINA RESULT:    -5.124      1.328      3.623
REMARK INTER + INTRA:          -5.124
REMARK INTER:                  -5.124
REMARK INTRA:                   0.000
REMARK UNBOUND:                 0.000
REMARK SMILES CC1=CC[C@]23C[C@H]1C(C)(C)[C@H]2CC[C@@H]3C
REMARK SMILES IDX 15 1 14 2 13 3 12 4 11 5 5 6 4 7 3 8 2 9 7 10 6 11 8 12 9 13
REMARK SMILES IDX 10 14 1 15
REMARK H PARENT
REMARK Flexibility Score: inf
ROOT
ATOM      1  C   UNL     1     140.728 138.494 130.529  1.00  0.00     0.008 C 
ATOM      2  C   UNL     1     139.366 138.043 131.089  1.00  0.00    -0.007 C 
ATOM      3  C   UNL     1     139.274 138.368 132.581  1.00  0.00     0.004 C 
ATOM      4  C   UNL     1     138.696 139.775 132.667  1.00  0.00     0.005 C 
ATOM      5  C   UNL     1     137.851 139.987 131.391  1.00  0.00     0.002 C 
ATOM      6  C   UNL     1     138.155 138.783 130.467  1.00  0.00    -0.020 C 
ATOM      7  C   UNL     1     138.326 139.244 128.984  1.00  0.00     0.035 C 
ATOM      8  C   UNL     1     137.020 139.747 128.389  1.00  0.00    -0.027 C 
ATOM      9  C   UNL     1     135.837 139.585 129.030  1.00  0.00    -0.074 C 
ATOM     10  C   UNL     1     135.809 139.009 130.449  1.00  0.00     0.021 C 
ATOM     11  C   UNL     1     136.879 137.930 130.524  1.00  0.00     0.016 C 
ATOM     12  C   UNL     1     136.283 140.040 131.518  1.00  0.00    -0.025 C 
ATOM     13  C   UNL     1     135.736 139.612 132.905  1.00  0.00     0.012 C 
ATOM     14  C   UNL     1     135.755 141.469 131.240  1.00  0.00     0.012 C 
ATOM     15  C   UNL     1     134.559 140.001 128.354  1.00  0.00     0.039 C 
ENDROOT
TORSDOF 0
ENDMDL
MODEL 7
REMARK VINA RESULT:    -5.118      1.395      4.161
REMARK INTER + INTRA:          -5.118
REMARK INTER:                  -5.118
REMARK INTRA:                   0.000
REMARK UNBOUND:                 0.000
REMARK SMILES CC1=CC[C@]23C[C@H]1C(C)(C)[C@H]2CC[C@@H]3C
REMARK SMILES IDX 15 1 14 2 13 3 12 4 11 5 5 6 4 7 3 8 2 9 7 10 6 11 8 12 9 13
REMARK SMILES IDX 10 14 1 15
REMARK H PARENT
REMARK Flexibility Score: inf
ROOT
ATOM      1  C   UNL     1     137.256 140.580 135.344  1.00  0.00     0.008 C 
ATOM      2  C   UNL     1     136.894 139.670 134.156  1.00  0.00    -0.007 C 
ATOM      3  C   UNL     1     136.408 140.512 132.974  1.00  0.00     0.004 C 
ATOM      4  C   UNL     1     137.653 140.853 132.165  1.00  0.00     0.005 C 
ATOM      5  C   UNL     1     138.676 139.727 132.428  1.00  0.00     0.002 C 
ATOM      6  C   UNL     1     138.095 138.876 133.584  1.00  0.00    -0.020 C 
ATOM      7  C   UNL     1     139.207 138.490 134.610  1.00  0.00     0.035 C 
ATOM      8  C   UNL     1     140.220 137.523 134.016  1.00  0.00    -0.027 C 
ATOM      9  C   UNL     1     140.015 136.924 132.817  1.00  0.00    -0.074 C 
ATOM     10  C   UNL     1     138.808 137.322 131.961  1.00  0.00     0.021 C 
ATOM     11  C   UNL     1     137.642 137.574 132.905  1.00  0.00     0.016 C 
ATOM     12  C   UNL     1     139.001 138.708 131.273  1.00  0.00    -0.025 C 
ATOM     13  C   UNL     1     138.048 138.798 130.052  1.00  0.00     0.012 C 
ATOM     14  C   UNL     1     140.442 138.914 130.744  1.00  0.00     0.012 C 
ATOM     15  C   UNL     1     140.991 135.894 132.321  1.00  0.00     0.039 C 
ENDROOT
TORSDOF 0
ENDMDL
MODEL 8
REMARK VINA RESULT:    -5.092      3.039      5.527
REMARK INTER + INTRA:          -5.092
REMARK INTER:                  -5.092
REMARK INTRA:                   0.000
REMARK UNBOUND:                 0.000
REMARK SMILES CC1=CC[C@]23C[C@H]1C(C)(C)[C@H]2CC[C@@H]3C
REMARK SMILES IDX 15 1 14 2 13 3 12 4 11 5 5 6 4 7 3 8 2 9 7 10 6 11 8 12 9 13
REMARK SMILES IDX 10 14 1 15
REMARK H PARENT
REMARK Flexibility Score: inf
ROOT
ATOM      1  C   UNL     1     138.446 132.983 130.701  1.00  0.00     0.008 C 
ATOM      2  C   UNL     1     138.013 134.364 131.228  1.00  0.00    -0.007 C 
ATOM      3  C   UNL     1     138.344 134.488 132.717  1.00  0.00     0.004 C 
ATOM      4  C   UNL     1     139.758 135.051 132.784  1.00  0.00     0.005 C 
ATOM      5  C   UNL     1     139.976 135.861 131.488  1.00  0.00     0.002 C 
ATOM      6  C   UNL     1     138.765 135.550 130.574  1.00  0.00    -0.020 C 
ATOM      7  C   UNL     1     139.220 135.337 129.096  1.00  0.00     0.035 C 
ATOM      8  C   UNL     1     139.737 136.622 128.467  1.00  0.00    -0.027 C 
ATOM      9  C   UNL     1     139.591 137.823 129.079  1.00  0.00    -0.074 C 
ATOM     10  C   UNL     1     139.019 137.892 130.499  1.00  0.00     0.021 C 
ATOM     11  C   UNL     1     137.928 136.837 130.603  1.00  0.00     0.016 C 
ATOM     12  C   UNL     1     140.048 137.432 131.576  1.00  0.00    -0.025 C 
ATOM     13  C   UNL     1     139.631 138.018 132.951  1.00  0.00     0.012 C 
ATOM     14  C   UNL     1     141.483 137.935 131.282  1.00  0.00     0.012 C 
ATOM     15  C   UNL     1     140.020 139.078 128.371  1.00  0.00     0.039 C 
ENDROOT
TORSDOF 0
ENDMDL
MODEL 9
REMARK VINA RESULT:    -5.088      2.043      4.419
REMARK INTER + INTRA:          -5.088
REMARK INTER:                  -5.088
REMARK INTRA:                   0.000
REMARK UNBOUND:                 0.000
REMARK SMILES CC1=CC[C@]23C[C@H]1C(C)(C)[C@H]2CC[C@@H]3C
REMARK SMILES IDX 15 1 14 2 13 3 12 4 11 5 5 6 4 7 3 8 2 9 7 10 6 11 8 12 9 13
REMARK SMILES IDX 10 14 1 15
REMARK H PARENT
REMARK Flexibility Score: inf
ROOT
ATOM      1  C   UNL     1     133.250 137.075 135.218  1.00  0.00     0.008 C 
ATOM      2  C   UNL     1     134.146 136.761 134.004  1.00  0.00    -0.007 C 
ATOM      3  C   UNL     1     133.293 136.278 132.829  1.00  0.00     0.004 C 
ATOM      4  C   UNL     1     132.904 137.530 132.053  1.00  0.00     0.005 C 
ATOM      5  C   UNL     1     134.009 138.577 132.317  1.00  0.00     0.002 C 
ATOM      6  C   UNL     1     134.897 137.994 133.443  1.00  0.00    -0.020 C 
ATOM      7  C   UNL     1     135.275 139.095 134.485  1.00  0.00     0.035 C 
ATOM      8  C   UNL     1     136.203 140.145 133.894  1.00  0.00    -0.027 C 
ATOM      9  C   UNL     1     136.783 139.981 132.680  1.00  0.00    -0.074 C 
ATOM     10  C   UNL     1     136.399 138.782 131.806  1.00  0.00     0.021 C 
ATOM     11  C   UNL     1     136.196 137.591 132.730  1.00  0.00     0.016 C 
ATOM     12  C   UNL     1     134.995 138.952 131.149  1.00  0.00    -0.025 C 
ATOM     13  C   UNL     1     134.906 138.023 129.910  1.00  0.00     0.012 C 
ATOM     14  C   UNL     1     134.741 140.398 130.655  1.00  0.00     0.012 C 
ATOM     15  C   UNL     1     137.778 140.994 132.185  1.00  0.00     0.039 C 
ENDROOT
TORSDOF 0
ENDMDL
