MODEL 1
REMARK VINA RESULT:    -5.559      0.000      0.000
REMARK INTER + INTRA:         -11.255
REMARK INTER:                  -9.785
REMARK INTRA:                  -1.471
REMARK UNBOUND:                -1.471
REMARK SMILES CCCCCCC=CCCCCCCCC(=O)[O-]
REMARK SMILES IDX 10 1 11 2 12 3 13 4 14 5 15 6 16 7 17 8 18 9 9 10 8 11 7 12
REMARK SMILES IDX 6 13 5 14 4 15 3 16 2 17 1 18
REMARK H PARENT
REMARK Flexibility Score: inf
ROOT
ATOM      1  C   UNL     1      11.934   3.856  53.487  1.00  0.00     0.004 C 
ENDROOT
BRANCH   1   2
ATOM      2  C   UNL     1      12.553   5.263  53.403  1.00  0.00     0.000 C 
BRANCH   2   3
ATOM      3  C   UNL     1      11.580   6.309  52.838  1.00  0.00     0.000 C 
BRANCH   3   4
ATOM      4  C   UNL     1      11.702   7.638  53.593  1.00  0.00     0.000 C 
BRANCH   4   5
ATOM      5  C   UNL     1      11.297   7.475  55.064  1.00  0.00     0.006 C 
BRANCH   5   6
ATOM      6  C   UNL     1       9.792   7.221  55.228  1.00  0.00     0.053 C 
BRANCH   6   7
ATOM      7  C   UNL     1       8.998   8.484  55.094  1.00  0.00     0.041 C 
ATOM      8  O   UNL     1       9.320   9.509  55.752  1.00  0.00    -0.550 OA
ATOM      9  O   UNL     1       7.881   8.520  54.269  1.00  0.00    -0.550 OA
ENDBRANCH   6   7
ENDBRANCH   5   6
ENDBRANCH   4   5
ENDBRANCH   3   4
ENDBRANCH   2   3
ENDBRANCH   1   2
BRANCH   1  10
ATOM     10  C   UNL     1      10.774   3.734  54.491  1.00  0.00     0.027 C 
BRANCH  10  11
ATOM     11  C   UNL     1      11.235   3.807  55.922  1.00  0.00    -0.031 C 
ATOM     12  C   UNL     1      12.320   3.141  56.346  1.00  0.00    -0.031 C 
BRANCH  12  13
ATOM     13  C   UNL     1      12.780   3.213  57.777  1.00  0.00     0.027 C 
BRANCH  13  14
ATOM     14  C   UNL     1      13.446   1.910  58.244  1.00  0.00     0.004 C 
BRANCH  14  15
ATOM     15  C   UNL     1      14.013   1.098  57.068  1.00  0.00     0.000 C 
BRANCH  15  16
ATOM     16  C   UNL     1      15.471   0.662  57.292  1.00  0.00    -0.000 C 
BRANCH  16  17
ATOM     17  C   UNL     1      16.358   0.813  56.039  1.00  0.00    -0.003 C 
ATOM     18  C   UNL     1      16.348   2.237  55.486  1.00  0.00     0.004 C 
ENDBRANCH  16  17
ENDBRANCH  15  16
ENDBRANCH  14  15
ENDBRANCH  13  14
ENDBRANCH  12  13
ENDBRANCH  10  11
ENDBRANCH   1  10
TORSDOF 13
ENDMDL
MODEL 2
REMARK VINA RESULT:    -5.471      1.241      1.960
REMARK INTER + INTRA:         -11.099
REMARK INTER:                  -9.879
REMARK INTRA:                  -1.220
REMARK UNBOUND:                -1.471
REMARK SMILES CCCCCCC=CCCCCCCCC(=O)[O-]
REMARK SMILES IDX 10 1 11 2 12 3 13 4 14 5 15 6 16 7 17 8 18 9 9 10 8 11 7 12
REMARK SMILES IDX 6 13 5 14 4 15 3 16 2 17 1 18
REMARK H PARENT
REMARK Flexibility Score: inf
ROOT
ATOM      1  C   UNL     1      10.433   3.792  55.129  1.00  0.00     0.004 C 
ENDROOT
BRANCH   1   2
ATOM      2  C   UNL     1      11.299   3.718  53.858  1.00  0.00     0.000 C 
BRANCH   2   3
ATOM      3  C   UNL     1      12.411   4.776  53.831  1.00  0.00     0.000 C 
BRANCH   3   4
ATOM      4  C   UNL     1      12.227   5.738  52.651  1.00  0.00     0.000 C 
BRANCH   4   5
ATOM      5  C   UNL     1      11.903   7.156  53.142  1.00  0.00     0.006 C 
BRANCH   5   6
ATOM      6  C   UNL     1      10.428   7.312  53.535  1.00  0.00     0.053 C 
BRANCH   6   7
ATOM      7  C   UNL     1      10.277   7.836  54.930  1.00  0.00     0.041 C 
ATOM      8  O   UNL     1      11.264   8.338  55.529  1.00  0.00    -0.550 OA
ATOM      9  O   UNL     1       9.054   7.739  55.581  1.00  0.00    -0.550 OA
ENDBRANCH   6   7
ENDBRANCH   5   6
ENDBRANCH   4   5
ENDBRANCH   3   4
ENDBRANCH   2   3
ENDBRANCH   1   2
BRANCH   1  10
ATOM     10  C   UNL     1      11.092   4.545  56.299  1.00  0.00     0.027 C 
BRANCH  10  11
ATOM     11  C   UNL     1      11.708   3.616  57.312  1.00  0.00    -0.031 C 
ATOM     12  C   UNL     1      12.656   2.731  56.969  1.00  0.00    -0.031 C 
BRANCH  12  13
ATOM     13  C   UNL     1      13.271   1.802  57.982  1.00  0.00     0.027 C 
BRANCH  13  14
ATOM     14  C   UNL     1      14.440   0.994  57.400  1.00  0.00     0.004 C 
BRANCH  14  15
ATOM     15  C   UNL     1      15.218   1.786  56.337  1.00  0.00     0.000 C 
BRANCH  15  16
ATOM     16  C   UNL     1      16.685   1.341  56.216  1.00  0.00    -0.000 C 
BRANCH  16  17
ATOM     17  C   UNL     1      16.948  -0.073  56.773  1.00  0.00    -0.003 C 
ATOM     18  C   UNL     1      17.794  -0.049  58.046  1.00  0.00     0.004 C 
ENDBRANCH  16  17
ENDBRANCH  15  16
ENDBRANCH  14  15
ENDBRANCH  13  14
ENDBRANCH  12  13
ENDBRANCH  10  11
ENDBRANCH   1  10
TORSDOF 13
ENDMDL
MODEL 3
REMARK VINA RESULT:    -5.466      4.292      7.596
REMARK INTER + INTRA:         -11.090
REMARK INTER:                  -9.699
REMARK INTRA:                  -1.392
REMARK UNBOUND:                -1.471
REMARK SMILES CCCCCCC=CCCCCCCCC(=O)[O-]
REMARK SMILES IDX 10 1 11 2 12 3 13 4 14 5 15 6 16 7 17 8 18 9 9 10 8 11 7 12
REMARK SMILES IDX 6 13 5 14 4 15 3 16 2 17 1 18
REMARK H PARENT
REMARK Flexibility Score: inf
ROOT
ATOM      1  C   UNL     1      11.115   4.850  56.946  1.00  0.00     0.004 C 
ENDROOT
BRANCH   1   2
ATOM      2  C   UNL     1      11.850   3.743  57.724  1.00  0.00     0.000 C 
BRANCH   2   3
ATOM      3  C   UNL     1      12.984   3.098  56.914  1.00  0.00     0.000 C 
BRANCH   3   4
ATOM      4  C   UNL     1      13.050   1.587  57.168  1.00  0.00     0.000 C 
BRANCH   4   5
ATOM      5  C   UNL     1      14.465   1.159  57.581  1.00  0.00     0.006 C 
BRANCH   5   6
ATOM      6  C   UNL     1      15.489   1.376  56.458  1.00  0.00     0.053 C 
BRANCH   6   7
ATOM      7  C   UNL     1      16.547   0.316  56.458  1.00  0.00     0.041 C 
ATOM      8  O   UNL     1      16.587  -0.538  55.533  1.00  0.00    -0.550 OA
ATOM      9  O   UNL     1      17.468   0.251  57.495  1.00  0.00    -0.550 OA
ENDBRANCH   6   7
ENDBRANCH   5   6
ENDBRANCH   4   5
ENDBRANCH   3   4
ENDBRANCH   2   3
ENDBRANCH   1   2
BRANCH   1  10
ATOM     10  C   UNL     1       9.865   4.366  56.189  1.00  0.00     0.027 C 
BRANCH  10  11
ATOM     11  C   UNL     1       9.371   5.371  55.184  1.00  0.00    -0.031 C 
ATOM     12  C   UNL     1       9.526   6.691  55.373  1.00  0.00    -0.031 C 
BRANCH  12  13
ATOM     13  C   UNL     1       9.031   7.696  54.368  1.00  0.00     0.027 C 
BRANCH  13  14
ATOM     14  C   UNL     1       9.855   7.681  53.073  1.00  0.00     0.004 C 
BRANCH  14  15
ATOM     15  C   UNL     1      11.361   7.541  53.347  1.00  0.00     0.000 C 
BRANCH  15  16
ATOM     16  C   UNL     1      11.999   6.363  52.591  1.00  0.00    -0.000 C 
BRANCH  16  17
ATOM     17  C   UNL     1      12.444   5.208  53.512  1.00  0.00    -0.003 C 
ATOM     18  C   UNL     1      11.930   3.851  53.033  1.00  0.00     0.004 C 
ENDBRANCH  16  17
ENDBRANCH  15  16
ENDBRANCH  14  15
ENDBRANCH  13  14
ENDBRANCH  12  13
ENDBRANCH  10  11
ENDBRANCH   1  10
TORSDOF 13
ENDMDL
MODEL 4
REMARK VINA RESULT:    -5.438      1.636      2.440
REMARK INTER + INTRA:         -11.041
REMARK INTER:                  -9.827
REMARK INTRA:                  -1.214
REMARK UNBOUND:                -1.471
REMARK SMILES CCCCCCC=CCCCCCCCC(=O)[O-]
REMARK SMILES IDX 10 1 11 2 12 3 13 4 14 5 15 6 16 7 17 8 18 9 9 10 8 11 7 12
REMARK SMILES IDX 6 13 5 14 4 15 3 16 2 17 1 18
REMARK H PARENT
REMARK Flexibility Score: inf
ROOT
ATOM      1  C   UNL     1      11.022   3.412  54.496  1.00  0.00     0.004 C 
ENDROOT
BRANCH   1   2
ATOM      2  C   UNL     1       9.650   3.815  55.068  1.00  0.00     0.000 C 
BRANCH   2   3
ATOM      3  C   UNL     1       9.673   5.185  55.763  1.00  0.00     0.000 C 
BRANCH   3   4
ATOM      4  C   UNL     1       9.432   6.316  54.756  1.00  0.00     0.000 C 
BRANCH   4   5
ATOM      5  C   UNL     1      10.199   7.583  55.157  1.00  0.00     0.006 C 
BRANCH   5   6
ATOM      6  C   UNL     1      11.384   7.864  54.223  1.00  0.00     0.053 C 
BRANCH   6   7
ATOM      7  C   UNL     1      11.072   7.501  52.804  1.00  0.00     0.041 C 
ATOM      8  O   UNL     1      10.252   8.189  52.139  1.00  0.00    -0.550 OA
ATOM      9  O   UNL     1      11.660   6.385  52.225  1.00  0.00    -0.550 OA
ENDBRANCH   6   7
ENDBRANCH   5   6
ENDBRANCH   4   5
ENDBRANCH   3   4
ENDBRANCH   2   3
ENDBRANCH   1   2
BRANCH   1  10
ATOM     10  C   UNL     1      12.186   4.305  54.960  1.00  0.00     0.027 C 
BRANCH  10  11
ATOM     11  C   UNL     1      12.976   3.690  56.085  1.00  0.00    -0.031 C 
ATOM     12  C   UNL     1      12.534   2.608  56.745  1.00  0.00    -0.031 C 
BRANCH  12  13
ATOM     13  C   UNL     1      13.323   1.994  57.869  1.00  0.00     0.027 C 
BRANCH  13  14
ATOM     14  C   UNL     1      14.149   0.784  57.411  1.00  0.00     0.004 C 
BRANCH  14  15
ATOM     15  C   UNL     1      15.578   0.809  57.980  1.00  0.00     0.000 C 
BRANCH  15  16
ATOM     16  C   UNL     1      16.649   0.521  56.915  1.00  0.00    -0.000 C 
BRANCH  16  17
ATOM     17  C   UNL     1      16.309   1.098  55.525  1.00  0.00    -0.003 C 
ATOM     18  C   UNL     1      16.451   2.619  55.476  1.00  0.00     0.004 C 
ENDBRANCH  16  17
ENDBRANCH  15  16
ENDBRANCH  14  15
ENDBRANCH  13  14
ENDBRANCH  12  13
ENDBRANCH  10  11
ENDBRANCH   1  10
TORSDOF 13
ENDMDL
MODEL 5
REMARK VINA RESULT:    -5.434      4.353      8.206
REMARK INTER + INTRA:         -11.034
REMARK INTER:                 -10.017
REMARK INTRA:                  -1.017
REMARK UNBOUND:                -1.471
REMARK SMILES CCCCCCC=CCCCCCCCC(=O)[O-]
REMARK SMILES IDX 10 1 11 2 12 3 13 4 14 5 15 6 16 7 17 8 18 9 9 10 8 11 7 12
REMARK SMILES IDX 6 13 5 14 4 15 3 16 2 17 1 18
REMARK H PARENT
REMARK Flexibility Score: inf
ROOT
ATOM      1  C   UNL     1      10.784   3.434  54.612  1.00  0.00     0.004 C 
ENDROOT
BRANCH   1   2
ATOM      2  C   UNL     1      12.008   3.505  55.543  1.00  0.00     0.000 C 
BRANCH   2   3
ATOM      3  C   UNL     1      13.202   4.228  54.903  1.00  0.00     0.000 C 
BRANCH   3   4
ATOM      4  C   UNL     1      14.469   4.053  55.749  1.00  0.00     0.000 C 
BRANCH   4   5
ATOM      5  C   UNL     1      14.706   2.575  56.088  1.00  0.00     0.006 C 
BRANCH   5   6
ATOM      6  C   UNL     1      16.106   2.102  55.678  1.00  0.00     0.053 C 
BRANCH   6   7
ATOM      7  C   UNL     1      16.445   0.775  56.284  1.00  0.00     0.041 C 
ATOM      8  O   UNL     1      16.700   0.686  57.514  1.00  0.00    -0.550 OA
ATOM      9  O   UNL     1      16.510  -0.359  55.485  1.00  0.00    -0.550 OA
ENDBRANCH   6   7
ENDBRANCH   5   6
ENDBRANCH   4   5
ENDBRANCH   3   4
ENDBRANCH   2   3
ENDBRANCH   1   2
BRANCH   1  10
ATOM     10  C   UNL     1       9.499   4.033  55.211  1.00  0.00     0.027 C 
BRANCH  10  11
ATOM     11  C   UNL     1       9.670   5.467  55.636  1.00  0.00    -0.031 C 
ATOM     12  C   UNL     1       9.522   6.480  54.768  1.00  0.00    -0.031 C 
BRANCH  12  13
ATOM     13  C   UNL     1       9.695   7.913  55.193  1.00  0.00     0.027 C 
BRANCH  13  14
ATOM     14  C   UNL     1       8.392   8.718  55.079  1.00  0.00     0.004 C 
BRANCH  14  15
ATOM     15  C   UNL     1       7.715   8.531  53.711  1.00  0.00     0.000 C 
BRANCH  15  16
ATOM     16  C   UNL     1       8.201   9.546  52.662  1.00  0.00    -0.000 C 
BRANCH  16  17
ATOM     17  C   UNL     1       8.441   8.927  51.270  1.00  0.00    -0.003 C 
ATOM     18  C   UNL     1       9.579   7.908  51.274  1.00  0.00     0.004 C 
ENDBRANCH  16  17
ENDBRANCH  15  16
ENDBRANCH  14  15
ENDBRANCH  13  14
ENDBRANCH  12  13
ENDBRANCH  10  11
ENDBRANCH   1  10
TORSDOF 13
ENDMDL
MODEL 6
REMARK VINA RESULT:    -5.383      3.161      6.913
REMARK INTER + INTRA:         -10.944
REMARK INTER:                  -8.935
REMARK INTRA:                  -2.009
REMARK UNBOUND:                -1.471
REMARK SMILES CCCCCCC=CCCCCCCCC(=O)[O-]
REMARK SMILES IDX 10 1 11 2 12 3 13 4 14 5 15 6 16 7 17 8 18 9 9 10 8 11 7 12
REMARK SMILES IDX 6 13 5 14 4 15 3 16 2 17 1 18
REMARK H PARENT
REMARK Flexibility Score: inf
ROOT
ATOM      1  C   UNL     1       9.592   3.851  54.721  1.00  0.00     0.004 C 
ENDROOT
BRANCH   1   2
ATOM      2  C   UNL     1      10.904   3.208  54.235  1.00  0.00     0.000 C 
BRANCH   2   3
ATOM      3  C   UNL     1      11.725   4.139  53.331  1.00  0.00     0.000 C 
BRANCH   3   4
ATOM      4  C   UNL     1      12.880   4.783  54.108  1.00  0.00     0.000 C 
BRANCH   4   5
ATOM      5  C   UNL     1      13.485   3.794  55.114  1.00  0.00     0.006 C 
BRANCH   5   6
ATOM      6  C   UNL     1      13.407   4.311  56.556  1.00  0.00     0.053 C 
BRANCH   6   7
ATOM      7  C   UNL     1      12.740   3.324  57.465  1.00  0.00     0.041 C 
ATOM      8  O   UNL     1      12.720   2.101  57.167  1.00  0.00    -0.550 OA
ATOM      9  O   UNL     1      12.111   3.760  58.624  1.00  0.00    -0.550 OA
ENDBRANCH   6   7
ENDBRANCH   5   6
ENDBRANCH   4   5
ENDBRANCH   3   4
ENDBRANCH   2   3
ENDBRANCH   1   2
BRANCH   1  10
ATOM     10  C   UNL     1       9.752   4.758  55.954  1.00  0.00     0.027 C 
BRANCH  10  11
ATOM     11  C   UNL     1       9.445   6.201  55.656  1.00  0.00    -0.031 C 
ATOM     12  C   UNL     1      10.420   7.104  55.467  1.00  0.00    -0.031 C 
BRANCH  12  13
ATOM     13  C   UNL     1      10.112   8.547  55.169  1.00  0.00     0.027 C 
BRANCH  13  14
ATOM     14  C   UNL     1       8.609   8.851  55.243  1.00  0.00     0.004 C 
BRANCH  14  15
ATOM     15  C   UNL     1       8.047   9.325  53.893  1.00  0.00     0.000 C 
BRANCH  15  16
ATOM     16  C   UNL     1       7.977   8.199  52.847  1.00  0.00    -0.000 C 
BRANCH  16  17
ATOM     17  C   UNL     1       8.929   8.408  51.651  1.00  0.00    -0.003 C 
ATOM     18  C   UNL     1      10.124   7.455  51.685  1.00  0.00     0.004 C 
ENDBRANCH  16  17
ENDBRANCH  15  16
ENDBRANCH  14  15
ENDBRANCH  13  14
ENDBRANCH  12  13
ENDBRANCH  10  11
ENDBRANCH   1  10
TORSDOF 13
ENDMDL
MODEL 7
REMARK VINA RESULT:    -5.382      3.241      7.251
REMARK INTER + INTRA:         -10.942
REMARK INTER:                  -9.069
REMARK INTRA:                  -1.874
REMARK UNBOUND:                -1.471
REMARK SMILES CCCCCCC=CCCCCCCCC(=O)[O-]
REMARK SMILES IDX 10 1 11 2 12 3 13 4 14 5 15 6 16 7 17 8 18 9 9 10 8 11 7 12
REMARK SMILES IDX 6 13 5 14 4 15 3 16 2 17 1 18
REMARK H PARENT
REMARK Flexibility Score: inf
ROOT
ATOM      1  C   UNL     1      11.936   4.755  52.732  1.00  0.00     0.004 C 
ENDROOT
BRANCH   1   2
ATOM      2  C   UNL     1      11.806   3.777  53.914  1.00  0.00     0.000 C 
BRANCH   2   3
ATOM      3  C   UNL     1      10.371   3.677  54.450  1.00  0.00     0.000 C 
BRANCH   3   4
ATOM      4  C   UNL     1      10.246   4.358  55.819  1.00  0.00     0.000 C 
BRANCH   4   5
ATOM      5  C   UNL     1      11.622   4.528  56.477  1.00  0.00     0.006 C 
BRANCH   5   6
ATOM      6  C   UNL     1      11.858   3.510  57.601  1.00  0.00     0.053 C 
BRANCH   6   7
ATOM      7  C   UNL     1      13.063   2.661  57.338  1.00  0.00     0.041 C 
ATOM      8  O   UNL     1      13.917   3.018  56.485  1.00  0.00    -0.550 OA
ATOM      9  O   UNL     1      13.227   1.457  58.012  1.00  0.00    -0.550 OA
ENDBRANCH   6   7
ENDBRANCH   5   6
ENDBRANCH   4   5
ENDBRANCH   3   4
ENDBRANCH   2   3
ENDBRANCH   1   2
BRANCH   1  10
ATOM     10  C   UNL     1      12.516   6.130  53.110  1.00  0.00     0.027 C 
BRANCH  10  11
ATOM     11  C   UNL     1      11.450   7.128  53.473  1.00  0.00    -0.031 C 
ATOM     12  C   UNL     1      11.433   7.735  54.670  1.00  0.00    -0.031 C 
BRANCH  12  13
ATOM     13  C   UNL     1      10.366   8.733  55.033  1.00  0.00     0.027 C 
BRANCH  13  14
ATOM     14  C   UNL     1       9.013   8.065  55.318  1.00  0.00     0.004 C 
BRANCH  14  15
ATOM     15  C   UNL     1       7.908   8.572  54.376  1.00  0.00     0.000 C 
BRANCH  15  16
ATOM     16  C   UNL     1       8.454   9.434  53.226  1.00  0.00    -0.000 C 
BRANCH  16  17
ATOM     17  C   UNL     1       8.017   8.947  51.829  1.00  0.00    -0.003 C 
ATOM     18  C   UNL     1       9.166   8.306  51.050  1.00  0.00     0.004 C 
ENDBRANCH  16  17
ENDBRANCH  15  16
ENDBRANCH  14  15
ENDBRANCH  13  14
ENDBRANCH  12  13
ENDBRANCH  10  11
ENDBRANCH   1  10
TORSDOF 13
ENDMDL
MODEL 8
REMARK VINA RESULT:    -5.371      1.268      2.027
REMARK INTER + INTRA:         -10.923
REMARK INTER:                  -9.728
REMARK INTRA:                  -1.195
REMARK UNBOUND:                -1.471
REMARK SMILES CCCCCCC=CCCCCCCCC(=O)[O-]
REMARK SMILES IDX 10 1 11 2 12 3 13 4 14 5 15 6 16 7 17 8 18 9 9 10 8 11 7 12
REMARK SMILES IDX 6 13 5 14 4 15 3 16 2 17 1 18
REMARK H PARENT
REMARK Flexibility Score: inf
ROOT
ATOM      1  C   UNL     1      12.425   5.387  53.217  1.00  0.00     0.004 C 
ENDROOT
BRANCH   1   2
ATOM      2  C   UNL     1      11.432   6.543  52.992  1.00  0.00     0.000 C 
BRANCH   2   3
ATOM      3  C   UNL     1      11.036   7.251  54.296  1.00  0.00     0.000 C 
BRANCH   3   4
ATOM      4  C   UNL     1       9.569   6.976  54.648  1.00  0.00     0.000 C 
BRANCH   4   5
ATOM      5  C   UNL     1       8.852   8.267  55.065  1.00  0.00     0.006 C 
BRANCH   5   6
ATOM      6  C   UNL     1       7.753   8.667  54.072  1.00  0.00     0.053 C 
BRANCH   6   7
ATOM      7  C   UNL     1       8.326   9.157  52.778  1.00  0.00     0.041 C 
ATOM      8  O   UNL     1       7.861   8.744  51.682  1.00  0.00    -0.550 OA
ATOM      9  O   UNL     1       9.393  10.046  52.781  1.00  0.00    -0.550 OA
ENDBRANCH   6   7
ENDBRANCH   5   6
ENDBRANCH   4   5
ENDBRANCH   3   4
ENDBRANCH   2   3
ENDBRANCH   1   2
BRANCH   1  10
ATOM     10  C   UNL     1      11.785   3.988  53.174  1.00  0.00     0.027 C 
BRANCH  10  11
ATOM     11  C   UNL     1      11.396   3.487  54.539  1.00  0.00    -0.031 C 
ATOM     12  C   UNL     1      12.027   3.902  55.647  1.00  0.00    -0.031 C 
BRANCH  12  13
ATOM     13  C   UNL     1      11.638   3.400  57.012  1.00  0.00     0.027 C 
BRANCH  13  14
ATOM     14  C   UNL     1      12.820   2.770  57.762  1.00  0.00     0.004 C 
BRANCH  14  15
ATOM     15  C   UNL     1      13.971   2.391  56.815  1.00  0.00     0.000 C 
BRANCH  15  16
ATOM     16  C   UNL     1      14.667   1.080  57.216  1.00  0.00    -0.000 C 
BRANCH  16  17
ATOM     17  C   UNL     1      16.024   0.862  56.515  1.00  0.00    -0.003 C 
ATOM     18  C   UNL     1      16.385   2.012  55.577  1.00  0.00     0.004 C 
ENDBRANCH  16  17
ENDBRANCH  15  16
ENDBRANCH  14  15
ENDBRANCH  13  14
ENDBRANCH  12  13
ENDBRANCH  10  11
ENDBRANCH   1  10
TORSDOF 13
ENDMDL
MODEL 9
REMARK VINA RESULT:    -5.356      1.673      3.053
REMARK INTER + INTRA:         -10.897
REMARK INTER:                 -10.021
REMARK INTRA:                  -0.875
REMARK UNBOUND:                -1.471
REMARK SMILES CCCCCCC=CCCCCCCCC(=O)[O-]
REMARK SMILES IDX 10 1 11 2 12 3 13 4 14 5 15 6 16 7 17 8 18 9 9 10 8 11 7 12
REMARK SMILES IDX 6 13 5 14 4 15 3 16 2 17 1 18
REMARK H PARENT
REMARK Flexibility Score: inf
ROOT
ATOM      1  C   UNL     1      12.557   4.206  54.535  1.00  0.00     0.004 C 
ENDROOT
BRANCH   1   2
ATOM      2  C   UNL     1      11.040   3.945  54.526  1.00  0.00     0.000 C 
BRANCH   2   3
ATOM      3  C   UNL     1      10.419   3.995  55.930  1.00  0.00     0.000 C 
BRANCH   3   4
ATOM      4  C   UNL     1       9.537   5.238  56.098  1.00  0.00     0.000 C 
BRANCH   4   5
ATOM      5  C   UNL     1       9.517   6.076  54.812  1.00  0.00     0.006 C 
BRANCH   5   6
ATOM      6  C   UNL     1       9.534   7.583  55.100  1.00  0.00     0.053 C 
BRANCH   6   7
ATOM      7  C   UNL     1       8.513   8.316  54.287  1.00  0.00     0.041 C 
ATOM      8  O   UNL     1       7.960   9.351  54.747  1.00  0.00    -0.550 OA
ATOM      9  O   UNL     1       8.147   7.840  53.035  1.00  0.00    -0.550 OA
ENDBRANCH   6   7
ENDBRANCH   5   6
ENDBRANCH   4   5
ENDBRANCH   3   4
ENDBRANCH   2   3
ENDBRANCH   1   2
BRANCH   1  10
ATOM     10  C   UNL     1      13.210   4.096  55.924  1.00  0.00     0.027 C 
BRANCH  10  11
ATOM     11  C   UNL     1      14.332   3.093  55.960  1.00  0.00    -0.031 C 
ATOM     12  C   UNL     1      15.587   3.430  55.623  1.00  0.00    -0.031 C 
BRANCH  12  13
ATOM     13  C   UNL     1      16.708   2.427  55.658  1.00  0.00     0.027 C 
BRANCH  13  14
ATOM     14  C   UNL     1      16.230   1.004  55.334  1.00  0.00     0.004 C 
BRANCH  14  15
ATOM     15  C   UNL     1      16.646  -0.006  56.418  1.00  0.00     0.000 C 
BRANCH  15  16
ATOM     16  C   UNL     1      17.458   0.639  57.554  1.00  0.00    -0.000 C 
BRANCH  16  17
ATOM     17  C   UNL     1      17.863  -0.355  58.663  1.00  0.00    -0.003 C 
ATOM     18  C   UNL     1      17.384   0.090  60.045  1.00  0.00     0.004 C 
ENDBRANCH  16  17
ENDBRANCH  15  16
ENDBRANCH  14  15
ENDBRANCH  13  14
ENDBRANCH  12  13
ENDBRANCH  10  11
ENDBRANCH   1  10
TORSDOF 13
ENDMDL
