MODEL 1
REMARK VINA RESULT:     0.000      0.000      0.000
REMARK INTER + INTRA:          -0.282
REMARK INTER:                   0.000
REMARK INTRA:                  -0.282
REMARK UNBOUND:                -0.282
REMARK SMILES CCCCCC(=O)[O-]
REMARK SMILES IDX 4 1 5 2 6 3 7 4 8 5 3 6 2 7 1 8
REMARK H PARENT
REMARK Flexibility Score: inf
ROOT
ATOM      1  C   UNL     1     179.806 178.397 181.693  1.00  0.00     0.006 C 
ENDROOT
BRANCH   1   2
ATOM      2  C   UNL     1     180.830 177.551 180.920  1.00  0.00     0.053 C 
BRANCH   2   3
ATOM      3  C   UNL     1     180.207 176.332 180.313  1.00  0.00     0.041 C 
ATOM      4  O   UNL     1     179.735 175.427 181.052  1.00  0.00    -0.550 OA
ATOM      5  O   UNL     1     180.115 176.209 178.933  1.00  0.00    -0.550 OA
ENDBRANCH   2   3
ENDBRANCH   1   2
BRANCH   1   6
ATOM      6  C   UNL     1     178.575 178.822 180.867  1.00  0.00     0.000 C 
BRANCH   6   7
ATOM      7  C   UNL     1     177.224 178.333 181.418  1.00  0.00    -0.003 C 
ATOM      8  C   UNL     1     177.360 177.534 182.713  1.00  0.00     0.004 C 
ENDBRANCH   6   7
ENDBRANCH   1   6
TORSDOF 4
ENDMDL
MODEL 2
REMARK VINA RESULT:     0.000      4.467      5.735
REMARK INTER + INTRA:          -0.282
REMARK INTER:                   0.000
REMARK INTRA:                  -0.282
REMARK UNBOUND:                -0.282
REMARK SMILES CCCCCC(=O)[O-]
REMARK SMILES IDX 4 1 5 2 6 3 7 4 8 5 3 6 2 7 1 8
REMARK H PARENT
REMARK Flexibility Score: inf
ROOT
ATOM      1  C   UNL     1     179.081 175.417 177.206  1.00  0.00     0.006 C 
ENDROOT
BRANCH   1   2
ATOM      2  C   UNL     1     177.696 176.026 177.477  1.00  0.00     0.053 C 
BRANCH   2   3
ATOM      3  C   UNL     1     177.595 177.435 176.980  1.00  0.00     0.041 C 
ATOM      4  O   UNL     1     178.302 178.341 177.496  1.00  0.00    -0.550 OA
ATOM      5  O   UNL     1     176.746 177.743 175.925  1.00  0.00    -0.550 OA
ENDBRANCH   2   3
ENDBRANCH   1   2
BRANCH   1   6
ATOM      6  C   UNL     1     179.519 175.460 175.728  1.00  0.00     0.000 C 
BRANCH   6   7
ATOM      7  C   UNL     1     180.817 176.241 175.458  1.00  0.00    -0.003 C 
ATOM      8  C   UNL     1     181.449 176.808 176.729  1.00  0.00     0.004 C 
ENDBRANCH   6   7
ENDBRANCH   1   6
TORSDOF 4
ENDMDL
MODEL 3
REMARK VINA RESULT:     0.000      4.672      5.628
REMARK INTER + INTRA:          -0.282
REMARK INTER:                   0.000
REMARK INTRA:                  -0.282
REMARK UNBOUND:                -0.282
REMARK SMILES CCCCCC(=O)[O-]
REMARK SMILES IDX 4 1 5 2 6 3 7 4 8 5 3 6 2 7 1 8
REMARK H PARENT
REMARK Flexibility Score: inf
ROOT
ATOM      1  C   UNL     1     178.160 177.046 176.897  1.00  0.00     0.006 C 
ENDROOT
BRANCH   1   2
ATOM      2  C   UNL     1     176.719 177.034 177.433  1.00  0.00     0.053 C 
BRANCH   2   3
ATOM      3  C   UNL     1     176.210 178.416 177.706  1.00  0.00     0.041 C 
ATOM      4  O   UNL     1     176.739 179.119 178.608  1.00  0.00    -0.550 OA
ATOM      5  O   UNL     1     175.175 178.942 176.944  1.00  0.00    -0.550 OA
ENDBRANCH   2   3
ENDBRANCH   1   2
BRANCH   1   6
ATOM      6  C   UNL     1     178.367 177.915 175.640  1.00  0.00     0.000 C 
BRANCH   6   7
ATOM      7  C   UNL     1     179.386 179.057 175.801  1.00  0.00    -0.003 C 
ATOM      8  C   UNL     1     180.028 179.094 177.187  1.00  0.00     0.004 C 
ENDBRANCH   6   7
ENDBRANCH   1   6
TORSDOF 4
ENDMDL
MODEL 4
REMARK VINA RESULT:     0.000      5.314      6.185
REMARK INTER + INTRA:          -0.282
REMARK INTER:                   0.000
REMARK INTRA:                  -0.282
REMARK UNBOUND:                -0.282
REMARK SMILES CCCCCC(=O)[O-]
REMARK SMILES IDX 4 1 5 2 6 3 7 4 8 5 3 6 2 7 1 8
REMARK H PARENT
REMARK Flexibility Score: inf
ROOT
ATOM      1  C   UNL     1     182.061 181.237 181.898  1.00  0.00     0.006 C 
ENDROOT
BRANCH   1   2
ATOM      2  C   UNL     1     182.916 182.201 182.735  1.00  0.00     0.053 C 
BRANCH   2   3
ATOM      3  C   UNL     1     184.216 181.584 183.150  1.00  0.00     0.041 C 
ATOM      4  O   UNL     1     184.227 180.597 183.933  1.00  0.00    -0.550 OA
ATOM      5  O   UNL     1     185.413 182.076 182.647  1.00  0.00    -0.550 OA
ENDBRANCH   2   3
ENDBRANCH   1   2
BRANCH   1   6
ATOM      6  C   UNL     1     182.770 180.674 180.650  1.00  0.00     0.000 C 
BRANCH   6   7
ATOM      7  C   UNL     1     182.902 179.141 180.614  1.00  0.00    -0.003 C 
ATOM      8  C   UNL     1     182.270 178.458 181.826  1.00  0.00     0.004 C 
ENDBRANCH   6   7
ENDBRANCH   1   6
TORSDOF 4
ENDMDL
MODEL 5
REMARK VINA RESULT:     0.000     10.228     11.379
REMARK INTER + INTRA:          -0.282
REMARK INTER:                   0.000
REMARK INTRA:                  -0.282
REMARK UNBOUND:                -0.282
REMARK SMILES CCCCCC(=O)[O-]
REMARK SMILES IDX 4 1 5 2 6 3 7 4 8 5 3 6 2 7 1 8
REMARK H PARENT
REMARK Flexibility Score: inf
ROOT
ATOM      1  C   UNL     1     188.948 178.938 187.309  1.00  0.00     0.006 C 
ENDROOT
BRANCH   1   2
ATOM      2  C   UNL     1     188.844 180.093 188.317  1.00  0.00     0.053 C 
BRANCH   2   3
ATOM      3  C   UNL     1     187.459 180.661 188.379  1.00  0.00     0.041 C 
ATOM      4  O   UNL     1     186.968 181.244 187.376  1.00  0.00    -0.550 OA
ATOM      5  O   UNL     1     186.698 180.518 189.531  1.00  0.00    -0.550 OA
ENDBRANCH   2   3
ENDBRANCH   1   2
BRANCH   1   6
ATOM      6  C   UNL     1     187.945 177.791 187.545  1.00  0.00     0.000 C 
BRANCH   6   7
ATOM      7  C   UNL     1     186.984 177.517 186.375  1.00  0.00    -0.003 C 
ATOM      8  C   UNL     1     187.230 178.429 185.174  1.00  0.00     0.004 C 
ENDBRANCH   6   7
ENDBRANCH   1   6
TORSDOF 4
ENDMDL
MODEL 6
REMARK VINA RESULT:     0.000      6.230      7.004
REMARK INTER + INTRA:          -0.282
REMARK INTER:                   0.000
REMARK INTRA:                  -0.282
REMARK UNBOUND:                -0.282
REMARK SMILES CCCCCC(=O)[O-]
REMARK SMILES IDX 4 1 5 2 6 3 7 4 8 5 3 6 2 7 1 8
REMARK H PARENT
REMARK Flexibility Score: inf
ROOT
ATOM      1  C   UNL     1     180.460 184.250 182.880  1.00  0.00     0.006 C 
ENDROOT
BRANCH   1   2
ATOM      2  C   UNL     1     179.843 182.876 183.187  1.00  0.00     0.053 C 
BRANCH   2   3
ATOM      3  C   UNL     1     178.840 182.467 182.153  1.00  0.00     0.041 C 
ATOM      4  O   UNL     1     177.774 183.123 182.011  1.00  0.00    -0.550 OA
ATOM      5  O   UNL     1     179.096 181.384 181.323  1.00  0.00    -0.550 OA
ENDBRANCH   2   3
ENDBRANCH   1   2
BRANCH   1   6
ATOM      6  C   UNL     1     181.104 184.364 181.483  1.00  0.00     0.000 C 
BRANCH   6   7
ATOM      7  C   UNL     1     180.498 185.449 180.576  1.00  0.00    -0.003 C 
ATOM      8  C   UNL     1     179.377 186.237 181.252  1.00  0.00     0.004 C 
ENDBRANCH   6   7
ENDBRANCH   1   6
TORSDOF 4
ENDMDL
MODEL 7
REMARK VINA RESULT:     0.000      7.686      8.875
REMARK INTER + INTRA:          -0.282
REMARK INTER:                   0.000
REMARK INTRA:                  -0.282
REMARK UNBOUND:                -0.282
REMARK SMILES CCCCCC(=O)[O-]
REMARK SMILES IDX 4 1 5 2 6 3 7 4 8 5 3 6 2 7 1 8
REMARK H PARENT
REMARK Flexibility Score: inf
ROOT
ATOM      1  C   UNL     1     177.873 183.909 174.597  1.00  0.00     0.006 C 
ENDROOT
BRANCH   1   2
ATOM      2  C   UNL     1     177.504 183.075 175.834  1.00  0.00     0.053 C 
BRANCH   2   3
ATOM      3  C   UNL     1     178.007 181.668 175.733  1.00  0.00     0.041 C 
ATOM      4  O   UNL     1     177.556 180.896 174.846  1.00  0.00    -0.550 OA
ATOM      5  O   UNL     1     178.998 181.219 176.596  1.00  0.00    -0.550 OA
ENDBRANCH   2   3
ENDBRANCH   1   2
BRANCH   1   6
ATOM      6  C   UNL     1     179.381 183.938 174.272  1.00  0.00     0.000 C 
BRANCH   6   7
ATOM      7  C   UNL     1     179.756 183.387 172.885  1.00  0.00    -0.003 C 
ATOM      8  C   UNL     1     178.543 182.939 172.072  1.00  0.00     0.004 C 
ENDBRANCH   6   7
ENDBRANCH   1   6
TORSDOF 4
ENDMDL
MODEL 8
REMARK VINA RESULT:     0.000      7.260      8.666
REMARK INTER + INTRA:          -0.282
REMARK INTER:                   0.000
REMARK INTRA:                  -0.282
REMARK UNBOUND:                -0.282
REMARK SMILES CCCCCC(=O)[O-]
REMARK SMILES IDX 4 1 5 2 6 3 7 4 8 5 3 6 2 7 1 8
REMARK H PARENT
REMARK Flexibility Score: inf
ROOT
ATOM      1  C   UNL     1     188.058 177.911 182.946  1.00  0.00     0.006 C 
ENDROOT
BRANCH   1   2
ATOM      2  C   UNL     1     186.750 177.875 182.139  1.00  0.00     0.053 C 
BRANCH   2   3
ATOM      3  C   UNL     1     185.549 177.736 183.023  1.00  0.00     0.041 C 
ATOM      4  O   UNL     1     185.380 176.688 183.700  1.00  0.00    -0.550 OA
ATOM      5  O   UNL     1     184.635 178.776 183.125  1.00  0.00    -0.550 OA
ENDBRANCH   2   3
ENDBRANCH   1   2
BRANCH   1   6
ATOM      6  C   UNL     1     188.108 179.002 184.035  1.00  0.00     0.000 C 
BRANCH   6   7
ATOM      7  C   UNL     1     188.305 178.479 185.468  1.00  0.00    -0.003 C 
ATOM      8  C   UNL     1     188.445 176.959 185.537  1.00  0.00     0.004 C 
ENDBRANCH   6   7
ENDBRANCH   1   6
TORSDOF 4
ENDMDL
MODEL 9
REMARK VINA RESULT:     0.000      7.359      8.804
REMARK INTER + INTRA:          -0.282
REMARK INTER:                   0.000
REMARK INTRA:                  -0.282
REMARK UNBOUND:                -0.282
REMARK SMILES CCCCCC(=O)[O-]
REMARK SMILES IDX 4 1 5 2 6 3 7 4 8 5 3 6 2 7 1 8
REMARK H PARENT
REMARK Flexibility Score: inf
ROOT
ATOM      1  C   UNL     1     188.593 176.161 182.340  1.00  0.00     0.006 C 
ENDROOT
BRANCH   1   2
ATOM      2  C   UNL     1     187.490 175.854 181.315  1.00  0.00     0.053 C 
BRANCH   2   3
ATOM      3  C   UNL     1     186.183 175.539 181.975  1.00  0.00     0.041 C 
ATOM      4  O   UNL     1     186.066 174.508 182.690  1.00  0.00    -0.550 OA
ATOM      5  O   UNL     1     185.103 176.400 181.829  1.00  0.00    -0.550 OA
ENDBRANCH   2   3
ENDBRANCH   1   2
BRANCH   1   6
ATOM      6  C   UNL     1     188.247 177.291 183.332  1.00  0.00     0.000 C 
BRANCH   6   7
ATOM      7  C   UNL     1     188.251 176.876 184.814  1.00  0.00    -0.003 C 
ATOM      8  C   UNL     1     188.632 175.411 185.024  1.00  0.00     0.004 C 
ENDBRANCH   6   7
ENDBRANCH   1   6
TORSDOF 4
ENDMDL
