MODEL 1
REMARK VINA RESULT:    -5.696      0.000      0.000
REMARK INTER + INTRA:          -7.177
REMARK INTER:                  -6.862
REMARK INTRA:                  -0.315
REMARK UNBOUND:                -0.315
REMARK SMILES O=c1c(O)c(-c2ccc(O)c(O)c2)oc2cc(O)cc(O)c12
REMARK SMILES IDX 5 1 3 2 2 3 1 4 22 5 20 6 19 7 17 8 16 9 15 10 14 11 6 12
REMARK SMILES IDX 7 13 8 14 9 15 13 16 11 17 10 18 12 20 4 22 21 24 18 26
REMARK H PARENT 10 19 12 21 4 23 21 25 18 27
REMARK Flexibility Score: inf
ROOT
ATOM      1  C   UNL     1       4.779   4.531  -3.435  1.00  0.00     0.180 A 
ATOM      2  C   UNL     1       5.309   3.266  -3.132  1.00  0.00     0.208 A 
ATOM      3  C   UNL     1       5.253   2.253  -4.102  1.00  0.00     0.238 A 
ATOM      4  O   UNL     1       5.662   1.102  -3.797  1.00  0.00    -0.285 OA
ATOM      5  C   UNL     1       4.719   2.533  -5.383  1.00  0.00     0.111 A 
ATOM      6  C   UNL     1       4.654   1.595  -6.459  1.00  0.00     0.134 A 
ATOM      7  C   UNL     1       4.006   1.953  -7.648  1.00  0.00     0.093 A 
ATOM      8  C   UNL     1       3.480   3.231  -7.826  1.00  0.00     0.123 A 
ATOM      9  C   UNL     1       3.588   4.173  -6.802  1.00  0.00     0.094 A 
ATOM     10  C   UNL     1       4.193   3.835  -5.589  1.00  0.00     0.146 A 
ATOM     11  O   UNL     1       4.254   4.754  -4.634  1.00  0.00    -0.452 OA
ENDROOT
BRANCH   1  12
ATOM     12  C   UNL     1       4.787   5.645  -2.459  1.00  0.00     0.025 A 
ATOM     13  C   UNL     1       5.832   6.585  -2.431  1.00  0.00     0.016 A 
ATOM     14  C   UNL     1       5.830   7.613  -1.483  1.00  0.00     0.051 A 
ATOM     15  C   UNL     1       4.798   7.710  -0.545  1.00  0.00     0.157 A 
ATOM     16  C   UNL     1       3.763   5.732  -1.502  1.00  0.00     0.062 A 
ATOM     17  C   UNL     1       3.759   6.764  -0.551  1.00  0.00     0.158 A 
BRANCH  15  18
ATOM     18  O   UNL     1       4.823   8.747   0.385  1.00  0.00    -0.504 OA
ATOM     19  H   UNL     1       5.687   9.093   0.784  1.00  0.00     0.293 HD
ENDBRANCH  15  18
BRANCH  17  20
ATOM     20  O   UNL     1       2.731   6.850   0.386  1.00  0.00    -0.504 OA
ATOM     21  H   UNL     1       2.036   6.118   0.479  1.00  0.00     0.293 HD
ENDBRANCH  17  20
ENDBRANCH   1  12
BRANCH   2  22
ATOM     22  O   UNL     1       5.901   3.031  -1.887  1.00  0.00    -0.502 OA
ATOM     23  H   UNL     1       6.001   2.101  -1.499  1.00  0.00     0.293 HD
ENDBRANCH   2  22
BRANCH   6  24
ATOM     24  O   UNL     1       5.225   0.320  -6.422  1.00  0.00    -0.507 OA
ATOM     25  H   UNL     1       5.896   0.007  -5.738  1.00  0.00     0.293 HD
ENDBRANCH   6  24
BRANCH   8  26
ATOM     26  O   UNL     1       2.859   3.558  -9.030  1.00  0.00    -0.508 OA
ATOM     27  H   UNL     1       2.868   2.922  -9.819  1.00  0.00     0.293 HD
ENDBRANCH   8  26
TORSDOF 6
ENDMDL
MODEL 2
REMARK VINA RESULT:    -5.424     14.368     16.100
REMARK INTER + INTRA:          -6.849
REMARK INTER:                  -6.518
REMARK INTRA:                  -0.331
REMARK UNBOUND:                -0.315
REMARK SMILES O=c1c(O)c(-c2ccc(O)c(O)c2)oc2cc(O)cc(O)c12
REMARK SMILES IDX 5 1 3 2 2 3 1 4 22 5 20 6 19 7 17 8 16 9 15 10 14 11 6 12
REMARK SMILES IDX 7 13 8 14 9 15 13 16 11 17 10 18 12 20 4 22 21 24 18 26
REMARK H PARENT 10 19 12 21 4 23 21 25 18 27
REMARK Flexibility Score: inf
ROOT
ATOM      1  C   UNL     1      -1.312  -5.413   6.162  1.00  0.00     0.180 A 
ATOM      2  C   UNL     1      -1.387  -4.885   7.462  1.00  0.00     0.208 A 
ATOM      3  C   UNL     1      -0.221  -4.830   8.242  1.00  0.00     0.238 A 
ATOM      4  O   UNL     1      -0.310  -4.425   9.430  1.00  0.00    -0.285 OA
ATOM      5  C   UNL     1       1.015  -5.250   7.693  1.00  0.00     0.111 A 
ATOM      6  C   UNL     1       2.268  -5.195   8.378  1.00  0.00     0.134 A 
ATOM      7  C   UNL     1       3.409  -5.739   7.773  1.00  0.00     0.093 A 
ATOM      8  C   UNL     1       3.357  -6.274   6.487  1.00  0.00     0.123 A 
ATOM      9  C   UNL     1       2.150  -6.282   5.788  1.00  0.00     0.094 A 
ATOM     10  C   UNL     1       0.986  -5.783   6.378  1.00  0.00     0.146 A 
ATOM     11  O   UNL     1      -0.146  -5.830   5.686  1.00  0.00    -0.452 OA
ENDROOT
BRANCH   1  12
ATOM     12  C   UNL     1      -2.501  -5.518   5.284  1.00  0.00     0.025 A 
ATOM     13  C   UNL     1      -3.312  -6.666   5.284  1.00  0.00     0.016 A 
ATOM     14  C   UNL     1      -4.414  -6.752   4.429  1.00  0.00     0.051 A 
ATOM     15  C   UNL     1      -4.715  -5.703   3.554  1.00  0.00     0.157 A 
ATOM     16  C   UNL     1      -2.793  -4.475   4.389  1.00  0.00     0.062 A 
ATOM     17  C   UNL     1      -3.899  -4.559   3.531  1.00  0.00     0.158 A 
BRANCH  15  18
ATOM     18  O   UNL     1      -5.822  -5.817   2.715  1.00  0.00    -0.504 OA
ATOM     19  H   UNL     1      -6.382  -6.660   2.673  1.00  0.00     0.293 HD
ENDBRANCH  15  18
BRANCH  17  20
ATOM     20  O   UNL     1      -4.189  -3.513   2.656  1.00  0.00    -0.504 OA
ATOM     21  H   UNL     1      -4.956  -2.874   2.829  1.00  0.00     0.293 HD
ENDBRANCH  17  20
ENDBRANCH   1  12
BRANCH   2  22
ATOM     22  O   UNL     1      -2.602  -4.404   7.958  1.00  0.00    -0.502 OA
ATOM     23  H   UNL     1      -3.161  -4.924   8.624  1.00  0.00     0.293 HD
ENDBRANCH   2  22
BRANCH   6  24
ATOM     24  O   UNL     1       2.451  -4.602   9.629  1.00  0.00    -0.507 OA
ATOM     25  H   UNL     1       3.112  -3.868   9.830  1.00  0.00     0.293 HD
ENDBRANCH   6  24
BRANCH   8  26
ATOM     26  O   UNL     1       4.516  -6.790   5.910  1.00  0.00    -0.508 OA
ATOM     27  H   UNL     1       4.950  -6.347   5.108  1.00  0.00     0.293 HD
ENDBRANCH   8  26
TORSDOF 6
ENDMDL
MODEL 3
REMARK VINA RESULT:    -5.263     10.729     11.943
REMARK INTER + INTRA:          -6.654
REMARK INTER:                  -6.337
REMARK INTRA:                  -0.317
REMARK UNBOUND:                -0.315
REMARK SMILES O=c1c(O)c(-c2ccc(O)c(O)c2)oc2cc(O)cc(O)c12
REMARK SMILES IDX 5 1 3 2 2 3 1 4 22 5 20 6 19 7 17 8 16 9 15 10 14 11 6 12
REMARK SMILES IDX 7 13 8 14 9 15 13 16 11 17 10 18 12 20 4 22 21 24 18 26
REMARK H PARENT 10 19 12 21 4 23 21 25 18 27
REMARK Flexibility Score: inf
ROOT
ATOM      1  C   UNL     1      -6.838   3.223  -4.363  1.00  0.00     0.180 A 
ATOM      2  C   UNL     1      -5.857   3.760  -5.214  1.00  0.00     0.208 A 
ATOM      3  C   UNL     1      -5.817   3.346  -6.554  1.00  0.00     0.238 A 
ATOM      4  O   UNL     1      -4.890   3.774  -7.290  1.00  0.00    -0.285 OA
ATOM      5  C   UNL     1      -6.793   2.443  -7.042  1.00  0.00     0.111 A 
ATOM      6  C   UNL     1      -6.876   1.990  -8.395  1.00  0.00     0.134 A 
ATOM      7  C   UNL     1      -7.820   1.014  -8.738  1.00  0.00     0.093 A 
ATOM      8  C   UNL     1      -8.724   0.522  -7.798  1.00  0.00     0.123 A 
ATOM      9  C   UNL     1      -8.687   0.999  -6.487  1.00  0.00     0.094 A 
ATOM     10  C   UNL     1      -7.733   1.944  -6.104  1.00  0.00     0.146 A 
ATOM     11  O   UNL     1      -7.719   2.354  -4.841  1.00  0.00    -0.452 OA
ENDROOT
BRANCH   1  12
ATOM     12  C   UNL     1      -6.934   3.600  -2.934  1.00  0.00     0.025 A 
ATOM     13  C   UNL     1      -7.634   4.748  -2.525  1.00  0.00     0.016 A 
ATOM     14  C   UNL     1      -7.690   5.096  -1.172  1.00  0.00     0.051 A 
ATOM     15  C   UNL     1      -7.039   4.315  -0.212  1.00  0.00     0.157 A 
ATOM     16  C   UNL     1      -6.263   2.829  -1.970  1.00  0.00     0.062 A 
ATOM     17  C   UNL     1      -6.319   3.176  -0.612  1.00  0.00     0.158 A 
BRANCH  15  18
ATOM     18  O   UNL     1      -7.115   4.686   1.129  1.00  0.00    -0.504 OA
ATOM     19  H   UNL     1      -6.919   4.035   1.880  1.00  0.00     0.293 HD
ENDBRANCH  15  18
BRANCH  17  20
ATOM     20  O   UNL     1      -5.661   2.397   0.338  1.00  0.00    -0.504 OA
ATOM     21  H   UNL     1      -4.745   2.002   0.159  1.00  0.00     0.293 HD
ENDBRANCH  17  20
ENDBRANCH   1  12
BRANCH   2  22
ATOM     22  O   UNL     1      -4.949   4.708  -4.731  1.00  0.00    -0.502 OA
ATOM     23  H   UNL     1      -4.992   5.685  -4.995  1.00  0.00     0.293 HD
ENDBRANCH   2  22
BRANCH   6  24
ATOM     24  O   UNL     1      -6.081   2.479  -9.435  1.00  0.00    -0.507 OA
ATOM     25  H   UNL     1      -5.262   3.054  -9.315  1.00  0.00     0.293 HD
ENDBRANCH   6  24
BRANCH   8  26
ATOM     26  O   UNL     1      -9.661  -0.436  -8.181  1.00  0.00    -0.508 OA
ATOM     27  H   UNL     1     -10.441  -0.202  -8.784  1.00  0.00     0.293 HD
ENDBRANCH   8  26
TORSDOF 6
ENDMDL
MODEL 4
REMARK VINA RESULT:    -5.211     14.154     16.053
REMARK INTER + INTRA:          -6.592
REMARK INTER:                  -6.282
REMARK INTRA:                  -0.310
REMARK UNBOUND:                -0.315
REMARK SMILES O=c1c(O)c(-c2ccc(O)c(O)c2)oc2cc(O)cc(O)c12
REMARK SMILES IDX 5 1 3 2 2 3 1 4 22 5 20 6 19 7 17 8 16 9 15 10 14 11 6 12
REMARK SMILES IDX 7 13 8 14 9 15 13 16 11 17 10 18 12 20 4 22 21 24 18 26
REMARK H PARENT 10 19 12 21 4 23 21 25 18 27
REMARK Flexibility Score: inf
ROOT
ATOM      1  C   UNL     1      -2.848  -5.159   5.038  1.00  0.00     0.180 A 
ATOM      2  C   UNL     1      -3.358  -4.896   6.321  1.00  0.00     0.208 A 
ATOM      3  C   UNL     1      -2.472  -4.847   7.408  1.00  0.00     0.238 A 
ATOM      4  O   UNL     1      -2.944  -4.686   8.564  1.00  0.00    -0.285 OA
ATOM      5  C   UNL     1      -1.081  -5.005   7.193  1.00  0.00     0.111 A 
ATOM      6  C   UNL     1      -0.086  -4.928   8.215  1.00  0.00     0.134 A 
ATOM      7  C   UNL     1       1.250  -5.207   7.900  1.00  0.00     0.093 A 
ATOM      8  C   UNL     1       1.638  -5.495   6.593  1.00  0.00     0.123 A 
ATOM      9  C   UNL     1       0.682  -5.517   5.576  1.00  0.00     0.094 A 
ATOM     10  C   UNL     1      -0.665  -5.282   5.865  1.00  0.00     0.146 A 
ATOM     11  O   UNL     1      -1.543  -5.335   4.871  1.00  0.00    -0.452 OA
ENDROOT
BRANCH   1  12
ATOM     12  C   UNL     1      -3.722  -5.241   3.844  1.00  0.00     0.025 A 
ATOM     13  C   UNL     1      -4.455  -6.404   3.552  1.00  0.00     0.016 A 
ATOM     14  C   UNL     1      -5.253  -6.466   2.406  1.00  0.00     0.051 A 
ATOM     15  C   UNL     1      -5.320  -5.378   1.530  1.00  0.00     0.157 A 
ATOM     16  C   UNL     1      -3.773  -4.158   2.951  1.00  0.00     0.062 A 
ATOM     17  C   UNL     1      -4.574  -4.218   1.801  1.00  0.00     0.158 A 
BRANCH  15  18
ATOM     18  O   UNL     1      -6.126  -5.469   0.397  1.00  0.00    -0.504 OA
ATOM     19  H   UNL     1      -7.120  -5.277   0.426  1.00  0.00     0.293 HD
ENDBRANCH  15  18
BRANCH  17  20
ATOM     20  O   UNL     1      -4.630  -3.133   0.928  1.00  0.00    -0.504 OA
ATOM     21  H   UNL     1      -3.822  -2.844   0.389  1.00  0.00     0.293 HD
ENDBRANCH  17  20
ENDBRANCH   1  12
BRANCH   2  22
ATOM     22  O   UNL     1      -4.725  -4.667   6.502  1.00  0.00    -0.502 OA
ATOM     23  H   UNL     1      -5.084  -4.072   7.238  1.00  0.00     0.293 HD
ENDBRANCH   2  22
BRANCH   6  24
ATOM     24  O   UNL     1      -0.350  -4.562   9.538  1.00  0.00    -0.507 OA
ATOM     25  H   UNL     1       0.074  -3.784  10.018  1.00  0.00     0.293 HD
ENDBRANCH   6  24
BRANCH   8  26
ATOM     26  O   UNL     1       2.979  -5.749   6.314  1.00  0.00    -0.508 OA
ATOM     27  H   UNL     1       3.649  -4.997   6.209  1.00  0.00     0.293 HD
ENDBRANCH   8  26
TORSDOF 6
ENDMDL
MODEL 5
REMARK VINA RESULT:    -5.143      1.857      3.687
REMARK INTER + INTRA:          -6.510
REMARK INTER:                  -6.213
REMARK INTRA:                  -0.297
REMARK UNBOUND:                -0.315
REMARK SMILES O=c1c(O)c(-c2ccc(O)c(O)c2)oc2cc(O)cc(O)c12
REMARK SMILES IDX 5 1 3 2 2 3 1 4 22 5 20 6 19 7 17 8 16 9 15 10 14 11 6 12
REMARK SMILES IDX 7 13 8 14 9 15 13 16 11 17 10 18 12 20 4 22 21 24 18 26
REMARK H PARENT 10 19 12 21 4 23 21 25 18 27
REMARK Flexibility Score: inf
ROOT
ATOM      1  C   UNL     1       4.557   3.318  -5.457  1.00  0.00     0.180 A 
ATOM      2  C   UNL     1       3.721   3.646  -6.538  1.00  0.00     0.208 A 
ATOM      3  C   UNL     1       3.740   2.836  -7.684  1.00  0.00     0.238 A 
ATOM      4  O   UNL     1       3.045   3.179  -8.676  1.00  0.00    -0.285 OA
ATOM      5  C   UNL     1       4.552   1.677  -7.714  1.00  0.00     0.111 A 
ATOM      6  C   UNL     1       4.616   0.758  -8.807  1.00  0.00     0.134 A 
ATOM      7  C   UNL     1       5.537  -0.298  -8.767  1.00  0.00     0.093 A 
ATOM      8  C   UNL     1       6.347  -0.506  -7.653  1.00  0.00     0.123 A 
ATOM      9  C   UNL     1       6.253   0.353  -6.558  1.00  0.00     0.094 A 
ATOM     10  C   UNL     1       5.373   1.438  -6.582  1.00  0.00     0.146 A 
ATOM     11  O   UNL     1       5.332   2.243  -5.527  1.00  0.00    -0.452 OA
ENDROOT
BRANCH   1  12
ATOM     12  C   UNL     1       4.603   4.132  -4.220  1.00  0.00     0.025 A 
ATOM     13  C   UNL     1       5.312   5.344  -4.168  1.00  0.00     0.016 A 
ATOM     14  C   UNL     1       5.362   6.082  -2.982  1.00  0.00     0.051 A 
ATOM     15  C   UNL     1       4.719   5.617  -1.831  1.00  0.00     0.157 A 
ATOM     16  C   UNL     1       3.977   3.656  -3.057  1.00  0.00     0.062 A 
ATOM     17  C   UNL     1       4.024   4.396  -1.866  1.00  0.00     0.158 A 
BRANCH  15  18
ATOM     18  O   UNL     1       4.784   6.376  -0.664  1.00  0.00    -0.504 OA
ATOM     19  H   UNL     1       5.663   6.717  -0.291  1.00  0.00     0.293 HD
ENDBRANCH  15  18
BRANCH  17  20
ATOM     20  O   UNL     1       3.388   3.922  -0.720  1.00  0.00    -0.504 OA
ATOM     21  H   UNL     1       2.611   4.421  -0.300  1.00  0.00     0.293 HD
ENDBRANCH  17  20
ENDBRANCH   1  12
BRANCH   2  22
ATOM     22  O   UNL     1       2.870   4.752  -6.458  1.00  0.00    -0.502 OA
ATOM     23  H   UNL     1       1.864   4.673  -6.552  1.00  0.00     0.293 HD
ENDBRANCH   2  22
BRANCH   6  24
ATOM     24  O   UNL     1       3.789   0.820  -9.931  1.00  0.00    -0.507 OA
ATOM     25  H   UNL     1       2.951   0.276 -10.064  1.00  0.00     0.293 HD
ENDBRANCH   6  24
BRANCH   8  26
ATOM     26  O   UNL     1       7.238  -1.577  -7.642  1.00  0.00    -0.508 OA
ATOM     27  H   UNL     1       7.682  -1.888  -6.786  1.00  0.00     0.293 HD
ENDBRANCH   8  26
TORSDOF 6
ENDMDL
MODEL 6
REMARK VINA RESULT:    -5.143      1.656      6.853
REMARK INTER + INTRA:          -6.510
REMARK INTER:                  -6.385
REMARK INTRA:                  -0.125
REMARK UNBOUND:                -0.315
REMARK SMILES O=c1c(O)c(-c2ccc(O)c(O)c2)oc2cc(O)cc(O)c12
REMARK SMILES IDX 5 1 3 2 2 3 1 4 22 5 20 6 19 7 17 8 16 9 15 10 14 11 6 12
REMARK SMILES IDX 7 13 8 14 9 15 13 16 11 17 10 18 12 20 4 22 21 24 18 26
REMARK H PARENT 10 19 12 21 4 23 21 25 18 27
REMARK Flexibility Score: inf
ROOT
ATOM      1  C   UNL     1       4.865   4.063  -3.201  1.00  0.00     0.180 A 
ATOM      2  C   UNL     1       4.117   3.887  -2.024  1.00  0.00     0.208 A 
ATOM      3  C   UNL     1       4.002   4.957  -1.123  1.00  0.00     0.238 A 
ATOM      4  O   UNL     1       3.394   4.768  -0.037  1.00  0.00    -0.285 OA
ATOM      5  C   UNL     1       4.588   6.207  -1.435  1.00  0.00     0.111 A 
ATOM      6  C   UNL     1       4.496   7.375  -0.617  1.00  0.00     0.134 A 
ATOM      7  C   UNL     1       5.207   8.527  -0.976  1.00  0.00     0.093 A 
ATOM      8  C   UNL     1       5.952   8.577  -2.153  1.00  0.00     0.123 A 
ATOM      9  C   UNL     1       6.003   7.461  -2.988  1.00  0.00     0.094 A 
ATOM     10  C   UNL     1       5.337   6.284  -2.638  1.00  0.00     0.146 A 
ATOM     11  O   UNL     1       5.431   5.238  -3.451  1.00  0.00    -0.452 OA
ENDROOT
BRANCH   1  12
ATOM     12  C   UNL     1       5.044   2.977  -4.192  1.00  0.00     0.025 A 
ATOM     13  C   UNL     1       4.527   3.083  -5.495  1.00  0.00     0.016 A 
ATOM     14  C   UNL     1       4.687   2.034  -6.405  1.00  0.00     0.051 A 
ATOM     15  C   UNL     1       5.351   0.863  -6.026  1.00  0.00     0.157 A 
ATOM     16  C   UNL     1       5.690   1.791  -3.807  1.00  0.00     0.062 A 
ATOM     17  C   UNL     1       5.853   0.738  -4.719  1.00  0.00     0.158 A 
BRANCH  15  18
ATOM     18  O   UNL     1       5.497  -0.164  -6.956  1.00  0.00    -0.504 OA
ATOM     19  H   UNL     1       6.085  -0.070  -7.776  1.00  0.00     0.293 HD
ENDBRANCH  15  18
BRANCH  17  20
ATOM     20  O   UNL     1       6.509  -0.429  -4.333  1.00  0.00    -0.504 OA
ATOM     21  H   UNL     1       6.010  -1.201  -3.905  1.00  0.00     0.293 HD
ENDBRANCH  17  20
ENDBRANCH   1  12
BRANCH   2  22
ATOM     22  O   UNL     1       3.482   2.668  -1.770  1.00  0.00    -0.502 OA
ATOM     23  H   UNL     1       3.776   1.801  -2.204  1.00  0.00     0.293 HD
ENDBRANCH   2  22
BRANCH   6  24
ATOM     24  O   UNL     1       3.709   7.464   0.534  1.00  0.00    -0.507 OA
ATOM     25  H   UNL     1       4.059   7.655   1.460  1.00  0.00     0.293 HD
ENDBRANCH   6  24
BRANCH   8  26
ATOM     26  O   UNL     1       6.632   9.747  -2.487  1.00  0.00    -0.508 OA
ATOM     27  H   UNL     1       7.614   9.868  -2.270  1.00  0.00     0.293 HD
ENDBRANCH   8  26
TORSDOF 6
ENDMDL
MODEL 7
REMARK VINA RESULT:    -5.139      2.502      3.797
REMARK INTER + INTRA:          -6.505
REMARK INTER:                  -6.184
REMARK INTRA:                  -0.321
REMARK UNBOUND:                -0.315
REMARK SMILES O=c1c(O)c(-c2ccc(O)c(O)c2)oc2cc(O)cc(O)c12
REMARK SMILES IDX 5 1 3 2 2 3 1 4 22 5 20 6 19 7 17 8 16 9 15 10 14 11 6 12
REMARK SMILES IDX 7 13 8 14 9 15 13 16 11 17 10 18 12 20 4 22 21 24 18 26
REMARK H PARENT 10 19 12 21 4 23 21 25 18 27
REMARK Flexibility Score: inf
ROOT
ATOM      1  C   UNL     1       5.644   1.850  -5.428  1.00  0.00     0.180 A 
ATOM      2  C   UNL     1       6.934   1.295  -5.478  1.00  0.00     0.208 A 
ATOM      3  C   UNL     1       7.195   0.258  -6.388  1.00  0.00     0.238 A 
ATOM      4  O   UNL     1       8.331  -0.283  -6.374  1.00  0.00    -0.285 OA
ATOM      5  C   UNL     1       6.180  -0.172  -7.276  1.00  0.00     0.111 A 
ATOM      6  C   UNL     1       6.347  -1.183  -8.272  1.00  0.00     0.134 A 
ATOM      7  C   UNL     1       5.240  -1.601  -9.023  1.00  0.00     0.093 A 
ATOM      8  C   UNL     1       3.992  -1.003  -8.862  1.00  0.00     0.123 A 
ATOM      9  C   UNL     1       3.831   0.025  -7.931  1.00  0.00     0.094 A 
ATOM     10  C   UNL     1       4.906   0.438  -7.140  1.00  0.00     0.146 A 
ATOM     11  O   UNL     1       4.703   1.403  -6.251  1.00  0.00    -0.452 OA
ENDROOT
BRANCH   1  12
ATOM     12  C   UNL     1       5.287   2.935  -4.485  1.00  0.00     0.025 A 
ATOM     13  C   UNL     1       5.504   4.285  -4.807  1.00  0.00     0.016 A 
ATOM     14  C   UNL     1       5.183   5.290  -3.890  1.00  0.00     0.051 A 
ATOM     15  C   UNL     1       4.655   4.963  -2.637  1.00  0.00     0.157 A 
ATOM     16  C   UNL     1       4.777   2.608  -3.218  1.00  0.00     0.062 A 
ATOM     17  C   UNL     1       4.453   3.615  -2.297  1.00  0.00     0.158 A 
BRANCH  15  18
ATOM     18  O   UNL     1       4.342   5.987  -1.745  1.00  0.00    -0.504 OA
ATOM     19  H   UNL     1       4.882   6.843  -1.696  1.00  0.00     0.293 HD
ENDBRANCH  15  18
BRANCH  17  20
ATOM     20  O   UNL     1       3.934   3.281  -1.047  1.00  0.00    -0.504 OA
ATOM     21  H   UNL     1       3.004   3.571  -0.764  1.00  0.00     0.293 HD
ENDBRANCH  17  20
ENDBRANCH   1  12
BRANCH   2  22
ATOM     22  O   UNL     1       7.943   1.786  -4.644  1.00  0.00    -0.502 OA
ATOM     23  H   UNL     1       8.764   2.258  -5.004  1.00  0.00     0.293 HD
ENDBRANCH   2  22
BRANCH   6  24
ATOM     24  O   UNL     1       7.569  -1.786  -8.578  1.00  0.00    -0.507 OA
ATOM     25  H   UNL     1       8.394  -1.746  -8.000  1.00  0.00     0.293 HD
ENDBRANCH   6  24
BRANCH   8  26
ATOM     26  O   UNL     1       2.919  -1.432  -9.640  1.00  0.00    -0.508 OA
ATOM     27  H   UNL     1       2.246  -2.104  -9.288  1.00  0.00     0.293 HD
ENDBRANCH   8  26
TORSDOF 6
ENDMDL
MODEL 8
REMARK VINA RESULT:    -5.129     13.231     15.039
REMARK INTER + INTRA:          -6.493
REMARK INTER:                  -6.210
REMARK INTRA:                  -0.283
REMARK UNBOUND:                -0.315
REMARK SMILES O=c1c(O)c(-c2ccc(O)c(O)c2)oc2cc(O)cc(O)c12
REMARK SMILES IDX 5 1 3 2 2 3 1 4 22 5 20 6 19 7 17 8 16 9 15 10 14 11 6 12
REMARK SMILES IDX 7 13 8 14 9 15 13 16 11 17 10 18 12 20 4 22 21 24 18 26
REMARK H PARENT 10 19 12 21 4 23 21 25 18 27
REMARK Flexibility Score: inf
ROOT
ATOM      1  C   UNL     1      -3.429  -6.580   0.570  1.00  0.00     0.180 A 
ATOM      2  C   UNL     1      -4.400  -6.986  -0.362  1.00  0.00     0.208 A 
ATOM      3  C   UNL     1      -5.322  -6.041  -0.839  1.00  0.00     0.238 A 
ATOM      4  O   UNL     1      -6.234  -6.429  -1.616  1.00  0.00    -0.285 OA
ATOM      5  C   UNL     1      -5.228  -4.691  -0.425  1.00  0.00     0.111 A 
ATOM      6  C   UNL     1      -6.081  -3.639  -0.880  1.00  0.00     0.134 A 
ATOM      7  C   UNL     1      -5.962  -2.362  -0.318  1.00  0.00     0.093 A 
ATOM      8  C   UNL     1      -4.981  -2.080   0.632  1.00  0.00     0.123 A 
ATOM      9  C   UNL     1      -4.106  -3.087   1.043  1.00  0.00     0.094 A 
ATOM     10  C   UNL     1      -4.225  -4.381   0.530  1.00  0.00     0.146 A 
ATOM     11  O   UNL     1      -3.386  -5.313   0.966  1.00  0.00    -0.452 OA
ENDROOT
BRANCH   1  12
ATOM     12  C   UNL     1      -2.432  -7.520   1.131  1.00  0.00     0.025 A 
ATOM     13  C   UNL     1      -2.557  -8.027   2.436  1.00  0.00     0.016 A 
ATOM     14  C   UNL     1      -1.590  -8.894   2.952  1.00  0.00     0.051 A 
ATOM     15  C   UNL     1      -0.481  -9.257   2.182  1.00  0.00     0.157 A 
ATOM     16  C   UNL     1      -1.306  -7.869   0.367  1.00  0.00     0.062 A 
ATOM     17  C   UNL     1      -0.335  -8.740   0.883  1.00  0.00     0.158 A 
BRANCH  15  18
ATOM     18  O   UNL     1       0.466 -10.125   2.723  1.00  0.00    -0.504 OA
ATOM     19  H   UNL     1       1.436  -9.860   2.839  1.00  0.00     0.293 HD
ENDBRANCH  15  18
BRANCH  17  20
ATOM     20  O   UNL     1       0.772  -9.092   0.112  1.00  0.00    -0.504 OA
ATOM     21  H   UNL     1       0.869  -8.783  -0.848  1.00  0.00     0.293 HD
ENDBRANCH  17  20
ENDBRANCH   1  12
BRANCH   2  22
ATOM     22  O   UNL     1      -4.429  -8.307  -0.817  1.00  0.00    -0.502 OA
ATOM     23  H   UNL     1      -5.156  -8.959  -0.549  1.00  0.00     0.293 HD
ENDBRANCH   2  22
BRANCH   6  24
ATOM     24  O   UNL     1      -7.036  -3.788  -1.889  1.00  0.00    -0.507 OA
ATOM     25  H   UNL     1      -7.168  -3.150  -2.659  1.00  0.00     0.293 HD
ENDBRANCH   6  24
BRANCH   8  26
ATOM     26  O   UNL     1      -4.881  -0.793   1.155  1.00  0.00    -0.508 OA
ATOM     27  H   UNL     1      -4.007  -0.441   1.529  1.00  0.00     0.293 HD
ENDBRANCH   8  26
TORSDOF 6
ENDMDL
MODEL 9
REMARK VINA RESULT:    -5.112     13.582     14.448
REMARK INTER + INTRA:          -6.472
REMARK INTER:                  -6.213
REMARK INTRA:                  -0.260
REMARK UNBOUND:                -0.315
REMARK SMILES O=c1c(O)c(-c2ccc(O)c(O)c2)oc2cc(O)cc(O)c12
REMARK SMILES IDX 5 1 3 2 2 3 1 4 22 5 20 6 19 7 17 8 16 9 15 10 14 11 6 12
REMARK SMILES IDX 7 13 8 14 9 15 13 16 11 17 10 18 12 20 4 22 21 24 18 26
REMARK H PARENT 10 19 12 21 4 23 21 25 18 27
REMARK Flexibility Score: inf
ROOT
ATOM      1  C   UNL     1      -3.020  -5.306   3.747  1.00  0.00     0.180 A 
ATOM      2  C   UNL     1      -2.997  -6.520   3.040  1.00  0.00     0.208 A 
ATOM      3  C   UNL     1      -3.514  -6.558   1.736  1.00  0.00     0.238 A 
ATOM      4  O   UNL     1      -3.558  -7.665   1.137  1.00  0.00    -0.285 OA
ATOM      5  C   UNL     1      -3.996  -5.371   1.133  1.00  0.00     0.111 A 
ATOM      6  C   UNL     1      -4.500  -5.284  -0.201  1.00  0.00     0.134 A 
ATOM      7  C   UNL     1      -5.049  -4.077  -0.654  1.00  0.00     0.093 A 
ATOM      8  C   UNL     1      -5.053  -2.940   0.152  1.00  0.00     0.123 A 
ATOM      9  C   UNL     1      -4.512  -2.999   1.437  1.00  0.00     0.094 A 
ATOM     10  C   UNL     1      -3.993  -4.198   1.932  1.00  0.00     0.146 A 
ATOM     11  O   UNL     1      -3.508  -4.216   3.168  1.00  0.00    -0.452 OA
ENDROOT
BRANCH   1  12
ATOM     12  C   UNL     1      -2.507  -5.190   5.132  1.00  0.00     0.025 A 
ATOM     13  C   UNL     1      -3.379  -5.054   6.226  1.00  0.00     0.016 A 
ATOM     14  C   UNL     1      -2.870  -4.921   7.521  1.00  0.00     0.051 A 
ATOM     15  C   UNL     1      -1.489  -4.908   7.742  1.00  0.00     0.157 A 
ATOM     16  C   UNL     1      -1.121  -5.154   5.354  1.00  0.00     0.062 A 
ATOM     17  C   UNL     1      -0.608  -5.022   6.653  1.00  0.00     0.158 A 
BRANCH  15  18
ATOM     18  O   UNL     1      -1.012  -4.776   9.044  1.00  0.00    -0.504 OA
ATOM     19  H   UNL     1      -1.594  -4.434   9.800  1.00  0.00     0.293 HD
ENDBRANCH  15  18
BRANCH  17  20
ATOM     20  O   UNL     1       0.769  -5.002   6.864  1.00  0.00    -0.504 OA
ATOM     21  H   UNL     1       1.316  -5.856   6.881  1.00  0.00     0.293 HD
ENDBRANCH  17  20
ENDBRANCH   1  12
BRANCH   2  22
ATOM     22  O   UNL     1      -2.448  -7.665   3.625  1.00  0.00    -0.502 OA
ATOM     23  H   UNL     1      -3.018  -8.382   4.057  1.00  0.00     0.293 HD
ENDBRANCH   2  22
BRANCH   6  24
ATOM     24  O   UNL     1      -4.464  -6.334  -1.122  1.00  0.00    -0.507 OA
ATOM     25  H   UNL     1      -4.887  -6.316  -2.036  1.00  0.00     0.293 HD
ENDBRANCH   6  24
BRANCH   8  26
ATOM     26  O   UNL     1      -5.591  -1.752  -0.339  1.00  0.00    -0.508 OA
ATOM     27  H   UNL     1      -6.586  -1.563  -0.294  1.00  0.00     0.293 HD
ENDBRANCH   8  26
TORSDOF 6
ENDMDL
