MODEL 1
REMARK VINA RESULT:    -5.646      0.000      0.000
REMARK INTER + INTRA:          -6.233
REMARK INTER:                  -5.976
REMARK INTRA:                  -0.257
REMARK UNBOUND:                -0.257
REMARK SMILES CC1=C[C@H]2C(=C(C)CC[C@@H]2C(C)C)CC1
REMARK SMILES IDX 1 1 2 2 3 3 4 4 10 5 9 6 8 7 6 8 5 9 14 10 15 11 7 12 11 13
REMARK SMILES IDX 12 14 13 15
REMARK H PARENT
REMARK Flexibility Score: inf
ROOT
ATOM      1  C   UNL     1       2.305  18.771  17.436  1.00  0.00     0.039 C 
ATOM      2  C   UNL     1       1.633  17.632  16.721  1.00  0.00    -0.076 C 
ATOM      3  C   UNL     1       1.609  16.404  17.275  1.00  0.00    -0.020 C 
ATOM      4  C   UNL     1       0.977  15.252  16.518  1.00  0.00     0.041 C 
ATOM      5  C   UNL     1       1.188  13.881  17.231  1.00  0.00     0.003 C 
ATOM      6  C   UNL     1       0.981  12.736  16.221  1.00  0.00     0.009 C 
ATOM      7  C   UNL     1       1.981  12.854  15.078  1.00  0.00     0.031 C 
ATOM      8  C   UNL     1       1.910  14.203  14.401  1.00  0.00    -0.073 C 
ATOM      9  C   UNL     1       1.501  15.314  15.075  1.00  0.00    -0.064 C 
ATOM     10  C   UNL     1       1.525  16.687  14.403  1.00  0.00     0.036 C 
ATOM     11  C   UNL     1       1.045  17.813  15.339  1.00  0.00     0.035 C 
ATOM     12  C   UNL     1       2.415  14.293  12.979  1.00  0.00     0.039 C 
ENDROOT
BRANCH   5  13
ATOM     13  C   UNL     1       0.298  13.638  18.503  1.00  0.00    -0.013 C 
ATOM     14  C   UNL     1       0.090  12.157  18.869  1.00  0.00     0.007 C 
ATOM     15  C   UNL     1      -1.060  14.350  18.437  1.00  0.00     0.007 C 
ENDBRANCH   5  13
TORSDOF 1
ENDMDL
MODEL 2
REMARK VINA RESULT:    -5.190      1.527      4.744
REMARK INTER + INTRA:          -5.751
REMARK INTER:                  -5.584
REMARK INTRA:                  -0.167
REMARK UNBOUND:                -0.257
REMARK SMILES CC1=C[C@H]2C(=C(C)CC[C@@H]2C(C)C)CC1
REMARK SMILES IDX 1 1 2 2 3 3 4 4 10 5 9 6 8 7 6 8 5 9 14 10 15 11 7 12 11 13
REMARK SMILES IDX 12 14 13 15
REMARK H PARENT
REMARK Flexibility Score: inf
ROOT
ATOM      1  C   UNL     1       4.128  13.874  13.375  1.00  0.00     0.039 C 
ATOM      2  C   UNL     1       2.752  13.867  13.981  1.00  0.00    -0.076 C 
ATOM      3  C   UNL     1       2.206  15.011  14.435  1.00  0.00    -0.020 C 
ATOM      4  C   UNL     1       0.841  14.980  15.095  1.00  0.00     0.041 C 
ATOM      5  C   UNL     1       0.442  16.359  15.707  1.00  0.00     0.003 C 
ATOM      6  C   UNL     1      -0.669  16.156  16.755  1.00  0.00     0.009 C 
ATOM      7  C   UNL     1      -0.178  15.246  17.873  1.00  0.00     0.031 C 
ATOM      8  C   UNL     1       0.326  13.923  17.347  1.00  0.00    -0.073 C 
ATOM      9  C   UNL     1       0.844  13.811  16.091  1.00  0.00    -0.064 C 
ATOM     10  C   UNL     1       1.437  12.487  15.607  1.00  0.00     0.036 C 
ATOM     11  C   UNL     1       1.987  12.575  14.171  1.00  0.00     0.035 C 
ATOM     12  C   UNL     1       0.337  12.753  18.304  1.00  0.00     0.039 C 
ENDROOT
BRANCH   5  13
ATOM     13  C   UNL     1       0.004  17.456  14.670  1.00  0.00    -0.013 C 
ATOM     14  C   UNL     1       1.155  18.321  14.125  1.00  0.00     0.007 C 
ATOM     15  C   UNL     1      -1.124  18.360  15.185  1.00  0.00     0.007 C 
ENDBRANCH   5  13
TORSDOF 1
ENDMDL
MODEL 3
REMARK VINA RESULT:    -4.922      1.088      4.041
REMARK INTER + INTRA:          -5.467
REMARK INTER:                  -5.186
REMARK INTRA:                  -0.281
REMARK UNBOUND:                -0.257
REMARK SMILES CC1=C[C@H]2C(=C(C)CC[C@@H]2C(C)C)CC1
REMARK SMILES IDX 1 1 2 2 3 3 4 4 10 5 9 6 8 7 6 8 5 9 14 10 15 11 7 12 11 13
REMARK SMILES IDX 12 14 13 15
REMARK H PARENT
REMARK Flexibility Score: inf
ROOT
ATOM      1  C   UNL     1      -0.027  18.393  13.748  1.00  0.00     0.039 C 
ATOM      2  C   UNL     1       0.707  17.345  14.538  1.00  0.00    -0.076 C 
ATOM      3  C   UNL     1       0.934  16.130  14.004  1.00  0.00    -0.020 C 
ATOM      4  C   UNL     1       1.625  15.064  14.832  1.00  0.00     0.041 C 
ATOM      5  C   UNL     1       1.652  13.676  14.118  1.00  0.00     0.003 C 
ATOM      6  C   UNL     1       1.899  12.566  15.156  1.00  0.00     0.009 C 
ATOM      7  C   UNL     1       0.785  12.561  16.196  1.00  0.00     0.031 C 
ATOM      8  C   UNL     1       0.626  13.909  16.861  1.00  0.00    -0.073 C 
ATOM      9  C   UNL     1       0.960  15.061  16.216  1.00  0.00    -0.064 C 
ATOM     10  C   UNL     1       0.704  16.421  16.866  1.00  0.00     0.036 C 
ATOM     11  C   UNL     1       1.132  17.597  15.967  1.00  0.00     0.035 C 
ATOM     12  C   UNL     1      -0.022  13.936  18.227  1.00  0.00     0.039 C 
ENDROOT
BRANCH   5  13
ATOM     13  C   UNL     1       2.684  13.544  12.940  1.00  0.00    -0.013 C 
ATOM     14  C   UNL     1       2.663  12.186  12.216  1.00  0.00     0.007 C 
ATOM     15  C   UNL     1       4.123  13.888  13.354  1.00  0.00     0.007 C 
ENDBRANCH   5  13
TORSDOF 1
ENDMDL
MODEL 4
REMARK VINA RESULT:    -4.828      1.286      3.876
REMARK INTER + INTRA:          -5.367
REMARK INTER:                  -5.111
REMARK INTRA:                  -0.256
REMARK UNBOUND:                -0.257
REMARK SMILES CC1=C[C@H]2C(=C(C)CC[C@@H]2C(C)C)CC1
REMARK SMILES IDX 1 1 2 2 3 3 4 4 10 5 9 6 8 7 6 8 5 9 14 10 15 11 7 12 11 13
REMARK SMILES IDX 12 14 13 15
REMARK H PARENT
REMARK Flexibility Score: inf
ROOT
ATOM      1  C   UNL     1       1.484  11.245  13.075  1.00  0.00     0.039 C 
ATOM      2  C   UNL     1       1.923  12.452  13.857  1.00  0.00    -0.076 C 
ATOM      3  C   UNL     1       1.350  12.735  15.042  1.00  0.00    -0.020 C 
ATOM      4  C   UNL     1       1.763  13.986  15.794  1.00  0.00     0.041 C 
ATOM      5  C   UNL     1       0.882  14.243  17.056  1.00  0.00     0.003 C 
ATOM      6  C   UNL     1       1.003  15.719  17.479  1.00  0.00     0.009 C 
ATOM      7  C   UNL     1       0.526  16.630  16.354  1.00  0.00     0.031 C 
ATOM      8  C   UNL     1       1.264  16.367  15.062  1.00  0.00    -0.073 C 
ATOM      9  C   UNL     1       1.785  15.140  14.781  1.00  0.00    -0.064 C 
ATOM     10  C   UNL     1       2.444  14.864  13.428  1.00  0.00     0.036 C 
ATOM     11  C   UNL     1       2.949  13.414  13.301  1.00  0.00     0.035 C 
ATOM     12  C   UNL     1       1.305  17.486  14.047  1.00  0.00     0.039 C 
ENDROOT
BRANCH   5  13
ATOM     13  C   UNL     1       1.178  13.310  18.286  1.00  0.00    -0.013 C 
ATOM     14  C   UNL     1      -0.065  12.904  19.099  1.00  0.00     0.007 C 
ATOM     15  C   UNL     1       2.251  13.872  19.229  1.00  0.00     0.007 C 
ENDBRANCH   5  13
TORSDOF 1
ENDMDL
MODEL 5
REMARK VINA RESULT:    -4.776      1.684      4.668
REMARK INTER + INTRA:          -5.312
REMARK INTER:                  -5.020
REMARK INTRA:                  -0.292
REMARK UNBOUND:                -0.257
REMARK SMILES CC1=C[C@H]2C(=C(C)CC[C@@H]2C(C)C)CC1
REMARK SMILES IDX 1 1 2 2 3 3 4 4 10 5 9 6 8 7 6 8 5 9 14 10 15 11 7 12 11 13
REMARK SMILES IDX 12 14 13 15
REMARK H PARENT
REMARK Flexibility Score: inf
ROOT
ATOM      1  C   UNL     1       0.616  12.744  18.715  1.00  0.00     0.039 C 
ATOM      2  C   UNL     1       0.339  13.376  17.380  1.00  0.00    -0.076 C 
ATOM      3  C   UNL     1       1.356  13.681  16.551  1.00  0.00    -0.020 C 
ATOM      4  C   UNL     1       1.067  14.370  15.231  1.00  0.00     0.041 C 
ATOM      5  C   UNL     1       2.368  14.797  14.482  1.00  0.00     0.003 C 
ATOM      6  C   UNL     1       2.033  15.888  13.448  1.00  0.00     0.009 C 
ATOM      7  C   UNL     1       1.443  17.109  14.141  1.00  0.00     0.031 C 
ATOM      8  C   UNL     1       0.235  16.757  14.977  1.00  0.00    -0.073 C 
ATOM      9  C   UNL     1       0.087  15.517  15.522  1.00  0.00    -0.064 C 
ATOM     10  C   UNL     1      -1.093  15.206  16.443  1.00  0.00     0.036 C 
ATOM     11  C   UNL     1      -1.066  13.759  16.971  1.00  0.00     0.035 C 
ATOM     12  C   UNL     1      -0.749  17.865  15.275  1.00  0.00     0.039 C 
ENDROOT
BRANCH   5  13
ATOM     13  C   UNL     1       3.161  13.630  13.791  1.00  0.00    -0.013 C 
ATOM     14  C   UNL     1       4.294  14.089  12.854  1.00  0.00     0.007 C 
ATOM     15  C   UNL     1       2.254  12.633  13.056  1.00  0.00     0.007 C 
ENDBRANCH   5  13
TORSDOF 1
ENDMDL
MODEL 6
REMARK VINA RESULT:    -4.764      1.363      5.045
REMARK INTER + INTRA:          -5.299
REMARK INTER:                  -5.198
REMARK INTRA:                  -0.101
REMARK UNBOUND:                -0.257
REMARK SMILES CC1=C[C@H]2C(=C(C)CC[C@@H]2C(C)C)CC1
REMARK SMILES IDX 1 1 2 2 3 3 4 4 10 5 9 6 8 7 6 8 5 9 14 10 15 11 7 12 11 13
REMARK SMILES IDX 12 14 13 15
REMARK H PARENT
REMARK Flexibility Score: inf
ROOT
ATOM      1  C   UNL     1       3.492  13.043  12.568  1.00  0.00     0.039 C 
ATOM      2  C   UNL     1       2.450  13.487  13.556  1.00  0.00    -0.076 C 
ATOM      3  C   UNL     1       2.356  14.784  13.905  1.00  0.00    -0.020 C 
ATOM      4  C   UNL     1       1.337  15.209  14.944  1.00  0.00     0.041 C 
ATOM      5  C   UNL     1       1.483  16.710  15.345  1.00  0.00     0.003 C 
ATOM      6  C   UNL     1       0.796  16.951  16.702  1.00  0.00     0.009 C 
ATOM      7  C   UNL     1       1.442  16.090  17.780  1.00  0.00     0.031 C 
ATOM      8  C   UNL     1       1.434  14.625  17.415  1.00  0.00    -0.073 C 
ATOM      9  C   UNL     1       1.440  14.219  16.114  1.00  0.00    -0.064 C 
ATOM     10  C   UNL     1       1.529  12.734  15.761  1.00  0.00     0.036 C 
ATOM     11  C   UNL     1       1.544  12.487  14.240  1.00  0.00     0.035 C 
ATOM     12  C   UNL     1       1.530  13.627  18.546  1.00  0.00     0.039 C 
ENDROOT
BRANCH   5  13
ATOM     13  C   UNL     1       0.954  17.745  14.288  1.00  0.00    -0.013 C 
ATOM     14  C   UNL     1      -0.464  17.459  13.761  1.00  0.00     0.007 C 
ATOM     15  C   UNL     1       1.913  17.949  13.107  1.00  0.00     0.007 C 
ENDBRANCH   5  13
TORSDOF 1
ENDMDL
MODEL 7
REMARK VINA RESULT:    -4.706      1.459      4.294
REMARK INTER + INTRA:          -5.238
REMARK INTER:                  -4.947
REMARK INTRA:                  -0.291
REMARK UNBOUND:                -0.257
REMARK SMILES CC1=C[C@H]2C(=C(C)CC[C@@H]2C(C)C)CC1
REMARK SMILES IDX 1 1 2 2 3 3 4 4 10 5 9 6 8 7 6 8 5 9 14 10 15 11 7 12 11 13
REMARK SMILES IDX 12 14 13 15
REMARK H PARENT
REMARK Flexibility Score: inf
ROOT
ATOM      1  C   UNL     1      -0.011  12.476  19.381  1.00  0.00     0.039 C 
ATOM      2  C   UNL     1      -0.193  13.151  18.049  1.00  0.00    -0.076 C 
ATOM      3  C   UNL     1       0.523  12.748  16.982  1.00  0.00    -0.020 C 
ATOM      4  C   UNL     1       0.371  13.473  15.660  1.00  0.00     0.041 C 
ATOM      5  C   UNL     1       1.394  12.984  14.588  1.00  0.00     0.003 C 
ATOM      6  C   UNL     1       1.531  14.046  13.482  1.00  0.00     0.009 C 
ATOM      7  C   UNL     1       2.030  15.360  14.072  1.00  0.00     0.031 C 
ATOM      8  C   UNL     1       1.144  15.848  15.194  1.00  0.00    -0.073 C 
ATOM      9  C   UNL     1       0.424  14.979  15.958  1.00  0.00    -0.064 C 
ATOM     10  C   UNL     1      -0.392  15.480  17.150  1.00  0.00     0.036 C 
ATOM     11  C   UNL     1      -1.114  14.341  17.894  1.00  0.00     0.035 C 
ATOM     12  C   UNL     1       1.173  17.327  15.507  1.00  0.00     0.039 C 
ENDROOT
BRANCH   5  13
ATOM     13  C   UNL     1       1.081  11.583  13.947  1.00  0.00    -0.013 C 
ATOM     14  C   UNL     1       1.920  11.243  12.702  1.00  0.00     0.007 C 
ATOM     15  C   UNL     1      -0.409  11.378  13.639  1.00  0.00     0.007 C 
ENDBRANCH   5  13
TORSDOF 1
ENDMDL
MODEL 8
REMARK VINA RESULT:    -4.517      1.716      3.930
REMARK INTER + INTRA:          -5.038
REMARK INTER:                  -4.781
REMARK INTRA:                  -0.256
REMARK UNBOUND:                -0.257
REMARK SMILES CC1=C[C@H]2C(=C(C)CC[C@@H]2C(C)C)CC1
REMARK SMILES IDX 1 1 2 2 3 3 4 4 10 5 9 6 8 7 6 8 5 9 14 10 15 11 7 12 11 13
REMARK SMILES IDX 12 14 13 15
REMARK H PARENT
REMARK Flexibility Score: inf
ROOT
ATOM      1  C   UNL     1       4.126  13.298  12.451  1.00  0.00     0.039 C 
ATOM      2  C   UNL     1       3.398  14.511  12.960  1.00  0.00    -0.076 C 
ATOM      3  C   UNL     1       2.641  14.430  14.071  1.00  0.00    -0.020 C 
ATOM      4  C   UNL     1       1.868  15.647  14.542  1.00  0.00     0.041 C 
ATOM      5  C   UNL     1       0.918  15.326  15.738  1.00  0.00     0.003 C 
ATOM      6  C   UNL     1      -0.164  16.416  15.845  1.00  0.00     0.009 C 
ATOM      7  C   UNL     1      -0.988  16.467  14.564  1.00  0.00     0.031 C 
ATOM      8  C   UNL     1      -0.123  16.671  13.342  1.00  0.00    -0.073 C 
ATOM      9  C   UNL     1       1.171  16.247  13.312  1.00  0.00    -0.064 C 
ATOM     10  C   UNL     1       2.003  16.375  12.035  1.00  0.00     0.036 C 
ATOM     11  C   UNL     1       3.431  15.819  12.201  1.00  0.00     0.035 C 
ATOM     12  C   UNL     1      -0.782  17.264  12.117  1.00  0.00     0.039 C 
ENDROOT
BRANCH   5  13
ATOM     13  C   UNL     1       1.626  15.138  17.129  1.00  0.00    -0.013 C 
ATOM     14  C   UNL     1       0.957  14.108  18.057  1.00  0.00     0.007 C 
ATOM     15  C   UNL     1       1.835  16.458  17.885  1.00  0.00     0.007 C 
ENDBRANCH   5  13
TORSDOF 1
ENDMDL
MODEL 9
REMARK VINA RESULT:    -4.387      1.730      4.439
REMARK INTER + INTRA:          -4.900
REMARK INTER:                  -4.640
REMARK INTRA:                  -0.260
REMARK UNBOUND:                -0.257
REMARK SMILES CC1=C[C@H]2C(=C(C)CC[C@@H]2C(C)C)CC1
REMARK SMILES IDX 1 1 2 2 3 3 4 4 10 5 9 6 8 7 6 8 5 9 14 10 15 11 7 12 11 13
REMARK SMILES IDX 12 14 13 15
REMARK H PARENT
REMARK Flexibility Score: inf
ROOT
ATOM      1  C   UNL     1      -0.100  12.928  17.595  1.00  0.00     0.039 C 
ATOM      2  C   UNL     1       0.728  13.865  16.760  1.00  0.00    -0.076 C 
ATOM      3  C   UNL     1       0.170  14.526  15.728  1.00  0.00    -0.020 C 
ATOM      4  C   UNL     1       1.030  15.424  14.860  1.00  0.00     0.041 C 
ATOM      5  C   UNL     1       0.258  15.973  13.620  1.00  0.00     0.003 C 
ATOM      6  C   UNL     1       1.263  16.443  12.552  1.00  0.00     0.009 C 
ATOM      7  C   UNL     1       2.142  15.280  12.108  1.00  0.00     0.031 C 
ATOM      8  C   UNL     1       2.846  14.625  13.274  1.00  0.00    -0.073 C 
ATOM      9  C   UNL     1       2.310  14.645  14.526  1.00  0.00    -0.064 C 
ATOM     10  C   UNL     1       2.986  13.896  15.675  1.00  0.00     0.036 C 
ATOM     11  C   UNL     1       2.213  14.024  17.002  1.00  0.00     0.035 C 
ATOM     12  C   UNL     1       4.111  13.854  12.976  1.00  0.00     0.039 C 
ENDROOT
BRANCH   5  13
ATOM     13  C   UNL     1      -0.775  17.119  13.921  1.00  0.00    -0.013 C 
ATOM     14  C   UNL     1      -1.125  18.004  12.711  1.00  0.00     0.007 C 
ATOM     15  C   UNL     1      -0.370  18.003  15.109  1.00  0.00     0.007 C 
ENDBRANCH   5  13
TORSDOF 1
ENDMDL
