MODEL 1
REMARK VINA RESULT:    -4.272      0.000      0.000
REMARK INTER + INTRA:          -5.193
REMARK INTER:                  -4.897
REMARK INTRA:                  -0.297
REMARK UNBOUND:                -0.297
REMARK SMILES O=C1C[C@@H](c2ccc(O)cc2)Oc2cc(O)cc(O)c21
REMARK SMILES IDX 3 1 4 2 12 3 13 4 14 5 15 6 17 7 18 8 20 9 2 10 1 11 5 12
REMARK SMILES IDX 6 13 11 14 7 15 10 16 8 17 9 18 19 20 16 22
REMARK H PARENT 9 19 19 21 16 23
REMARK Flexibility Score: inf
ROOT
ATOM      1  C   UNL     1      34.387 -32.663   9.446  1.00  0.00     0.131 C 
ATOM      2  C   UNL     1      35.756 -32.145   8.985  1.00  0.00     0.211 C 
ATOM      3  O   UNL     1      35.892 -30.752   9.279  1.00  0.00    -0.484 OA
ATOM      4  C   UNL     1      35.413 -30.180  10.466  1.00  0.00     0.138 A 
ATOM      5  C   UNL     1      35.822 -28.889  10.807  1.00  0.00     0.093 A 
ATOM      6  C   UNL     1      35.374 -28.297  11.989  1.00  0.00     0.123 A 
ATOM      7  C   UNL     1      34.488 -28.990  12.820  1.00  0.00     0.093 A 
ATOM      8  C   UNL     1      34.033 -30.269  12.477  1.00  0.00     0.133 A 
ATOM      9  C   UNL     1      34.525 -30.892  11.299  1.00  0.00     0.102 A 
ATOM     10  C   UNL     1      34.168 -32.269  10.876  1.00  0.00     0.174 C 
ATOM     11  O   UNL     1      33.740 -33.125  11.693  1.00  0.00    -0.294 OA
ENDROOT
BRANCH   2  12
ATOM     12  C   UNL     1      35.947 -32.382   7.507  1.00  0.00    -0.007 A 
ATOM     13  C   UNL     1      34.904 -32.929   6.738  1.00  0.00     0.011 A 
ATOM     14  C   UNL     1      37.144 -32.010   6.870  1.00  0.00     0.011 A 
ATOM     15  C   UNL     1      35.066 -33.122   5.363  1.00  0.00     0.046 A 
ATOM     16  C   UNL     1      37.303 -32.204   5.495  1.00  0.00     0.046 A 
ATOM     17  C   UNL     1      36.265 -32.763   4.737  1.00  0.00     0.115 A 
BRANCH  17  18
ATOM     18  O   UNL     1      36.412 -32.961   3.367  1.00  0.00    -0.508 OA
ATOM     19  H   UNL     1      35.721 -33.472   2.829  1.00  0.00     0.293 HD
ENDBRANCH  17  18
ENDBRANCH   2  12
BRANCH   8  20
ATOM     20  O   UNL     1      33.078 -30.857  13.310  1.00  0.00    -0.507 OA
ATOM     21  H   UNL     1      33.246 -31.107  14.273  1.00  0.00     0.293 HD
ENDBRANCH   8  20
BRANCH   6  22
ATOM     22  O   UNL     1      35.810 -27.017  12.325  1.00  0.00    -0.508 OA
ATOM     23  H   UNL     1      35.157 -26.277  12.552  1.00  0.00     0.293 HD
ENDBRANCH   6  22
TORSDOF 4
ENDMDL
MODEL 2
REMARK VINA RESULT:    -3.187     21.825     23.421
REMARK INTER + INTRA:          -3.950
REMARK INTER:                  -3.633
REMARK INTRA:                  -0.317
REMARK UNBOUND:                -0.297
REMARK SMILES O=C1C[C@@H](c2ccc(O)cc2)Oc2cc(O)cc(O)c21
REMARK SMILES IDX 3 1 4 2 12 3 13 4 14 5 15 6 17 7 18 8 20 9 2 10 1 11 5 12
REMARK SMILES IDX 6 13 11 14 7 15 10 16 8 17 9 18 19 20 16 22
REMARK H PARENT 9 19 19 21 16 23
REMARK Flexibility Score: inf
ROOT
ATOM      1  C   UNL     1      20.962 -16.710   3.495  1.00  0.00     0.131 C 
ATOM      2  C   UNL     1      20.428 -15.316   3.852  1.00  0.00     0.211 C 
ATOM      3  O   UNL     1      20.575 -14.422   2.745  1.00  0.00    -0.484 OA
ATOM      4  C   UNL     1      20.352 -14.818   1.419  1.00  0.00     0.138 A 
ATOM      5  C   UNL     1      20.242 -13.838   0.430  1.00  0.00     0.093 A 
ATOM      6  C   UNL     1      20.005 -14.199  -0.897  1.00  0.00     0.123 A 
ATOM      7  C   UNL     1      19.906 -15.552  -1.241  1.00  0.00     0.093 A 
ATOM      8  C   UNL     1      20.053 -16.552  -0.273  1.00  0.00     0.133 A 
ATOM      9  C   UNL     1      20.247 -16.185   1.086  1.00  0.00     0.102 A 
ATOM     10  C   UNL     1      20.345 -17.156   2.203  1.00  0.00     0.174 C 
ATOM     11  O   UNL     1      19.876 -18.321   2.113  1.00  0.00    -0.294 OA
ENDROOT
BRANCH   2  12
ATOM     12  C   UNL     1      21.145 -14.764   5.061  1.00  0.00    -0.007 A 
ATOM     13  C   UNL     1      21.676 -15.635   6.027  1.00  0.00     0.011 A 
ATOM     14  C   UNL     1      21.338 -13.379   5.208  1.00  0.00     0.011 A 
ATOM     15  C   UNL     1      22.366 -15.129   7.132  1.00  0.00     0.046 A 
ATOM     16  C   UNL     1      22.029 -12.875   6.314  1.00  0.00     0.046 A 
ATOM     17  C   UNL     1      22.543 -13.749   7.281  1.00  0.00     0.115 A 
BRANCH  17  18
ATOM     18  O   UNL     1      23.233 -13.259   8.387  1.00  0.00    -0.508 OA
ATOM     19  H   UNL     1      23.032 -13.588   9.324  1.00  0.00     0.293 HD
ENDBRANCH  17  18
ENDBRANCH   2  12
BRANCH   8  20
ATOM     20  O   UNL     1      20.036 -17.878  -0.710  1.00  0.00    -0.507 OA
ATOM     21  H   UNL     1      20.159 -18.157  -1.672  1.00  0.00     0.293 HD
ENDBRANCH   8  20
BRANCH   6  22
ATOM     22  O   UNL     1      19.876 -13.208  -1.866  1.00  0.00    -0.508 OA
ATOM     23  H   UNL     1      20.624 -13.005  -2.521  1.00  0.00     0.293 HD
ENDBRANCH   6  22
TORSDOF 4
ENDMDL
MODEL 3
REMARK VINA RESULT:    -3.164     20.207     21.392
REMARK INTER + INTRA:          -3.923
REMARK INTER:                  -3.624
REMARK INTRA:                  -0.300
REMARK UNBOUND:                -0.297
REMARK SMILES O=C1C[C@@H](c2ccc(O)cc2)Oc2cc(O)cc(O)c21
REMARK SMILES IDX 3 1 4 2 12 3 13 4 14 5 15 6 17 7 18 8 20 9 2 10 1 11 5 12
REMARK SMILES IDX 6 13 11 14 7 15 10 16 8 17 9 18 19 20 16 22
REMARK H PARENT 9 19 19 21 16 23
REMARK Flexibility Score: inf
ROOT
ATOM      1  C   UNL     1      20.774 -14.348   4.417  1.00  0.00     0.131 C 
ATOM      2  C   UNL     1      20.539 -15.865   4.430  1.00  0.00     0.211 C 
ATOM      3  O   UNL     1      21.639 -16.538   5.048  1.00  0.00    -0.484 OA
ATOM      4  C   UNL     1      22.297 -16.033   6.179  1.00  0.00     0.138 A 
ATOM      5  C   UNL     1      23.165 -16.867   6.886  1.00  0.00     0.093 A 
ATOM      6  C   UNL     1      23.823 -16.398   8.023  1.00  0.00     0.123 A 
ATOM      7  C   UNL     1      23.634 -15.076   8.439  1.00  0.00     0.093 A 
ATOM      8  C   UNL     1      22.799 -14.210   7.722  1.00  0.00     0.133 A 
ATOM      9  C   UNL     1      22.091 -14.699   6.592  1.00  0.00     0.102 A 
ATOM     10  C   UNL     1      21.129 -13.893   5.801  1.00  0.00     0.174 C 
ATOM     11  O   UNL     1      20.565 -12.875   6.280  1.00  0.00    -0.294 OA
ENDROOT
BRANCH   2  12
ATOM     12  C   UNL     1      20.336 -16.386   3.028  1.00  0.00    -0.007 A 
ATOM     13  C   UNL     1      20.380 -15.505   1.933  1.00  0.00     0.011 A 
ATOM     14  C   UNL     1      20.157 -17.761   2.794  1.00  0.00     0.011 A 
ATOM     15  C   UNL     1      20.222 -15.988   0.631  1.00  0.00     0.046 A 
ATOM     16  C   UNL     1      20.001 -18.241   1.490  1.00  0.00     0.046 A 
ATOM     17  C   UNL     1      20.030 -17.355   0.405  1.00  0.00     0.115 A 
BRANCH  17  18
ATOM     18  O   UNL     1      19.875 -17.822  -0.898  1.00  0.00    -0.508 OA
ATOM     19  H   UNL     1      19.761 -17.185  -1.678  1.00  0.00     0.293 HD
ENDBRANCH  17  18
ENDBRANCH   2  12
BRANCH   8  20
ATOM     20  O   UNL     1      22.736 -12.881   8.146  1.00  0.00    -0.507 OA
ATOM     21  H   UNL     1      22.067 -12.210   7.799  1.00  0.00     0.293 HD
ENDBRANCH   8  20
BRANCH   6  22
ATOM     22  O   UNL     1      24.668 -17.251   8.729  1.00  0.00    -0.508 OA
ATOM     23  H   UNL     1      24.464 -17.530   9.682  1.00  0.00     0.293 HD
ENDBRANCH   6  22
TORSDOF 4
ENDMDL
MODEL 4
REMARK VINA RESULT:    -2.757      1.019      1.146
REMARK INTER + INTRA:          -3.456
REMARK INTER:                  -3.139
REMARK INTRA:                  -0.317
REMARK UNBOUND:                -0.297
REMARK SMILES O=C1C[C@@H](c2ccc(O)cc2)Oc2cc(O)cc(O)c21
REMARK SMILES IDX 3 1 4 2 12 3 13 4 14 5 15 6 17 7 18 8 20 9 2 10 1 11 5 12
REMARK SMILES IDX 6 13 11 14 7 15 10 16 8 17 9 18 19 20 16 22
REMARK H PARENT 9 19 19 21 16 23
REMARK Flexibility Score: inf
ROOT
ATOM      1  C   UNL     1      34.085 -31.436   9.537  1.00  0.00     0.131 C 
ATOM      2  C   UNL     1      35.575 -31.654   9.244  1.00  0.00     0.211 C 
ATOM      3  O   UNL     1      36.323 -30.468   9.528  1.00  0.00    -0.484 OA
ATOM      4  C   UNL     1      36.052 -29.651  10.635  1.00  0.00     0.138 A 
ATOM      5  C   UNL     1      36.985 -28.680  11.003  1.00  0.00     0.093 A 
ATOM      6  C   UNL     1      36.752 -27.861  12.109  1.00  0.00     0.123 A 
ATOM      7  C   UNL     1      35.562 -27.995  12.833  1.00  0.00     0.093 A 
ATOM      8  C   UNL     1      34.595 -28.935  12.458  1.00  0.00     0.133 A 
ATOM      9  C   UNL     1      34.852 -29.802  11.362  1.00  0.00     0.102 A 
ATOM     10  C   UNL     1      33.932 -30.879  10.921  1.00  0.00     0.174 C 
ATOM     11  O   UNL     1      33.068 -31.372  11.693  1.00  0.00    -0.294 OA
ENDROOT
BRANCH   2  12
ATOM     12  C   UNL     1      35.782 -32.062   7.805  1.00  0.00    -0.007 A 
ATOM     13  C   UNL     1      34.774 -32.758   7.116  1.00  0.00     0.011 A 
ATOM     14  C   UNL     1      36.958 -31.705   7.122  1.00  0.00     0.011 A 
ATOM     15  C   UNL     1      34.950 -33.111   5.775  1.00  0.00     0.046 A 
ATOM     16  C   UNL     1      37.131 -32.059   5.780  1.00  0.00     0.046 A 
ATOM     17  C   UNL     1      36.127 -32.766   5.103  1.00  0.00     0.115 A 
BRANCH  17  18
ATOM     18  O   UNL     1      36.288 -33.125   3.767  1.00  0.00    -0.508 OA
ATOM     19  H   UNL     1      35.558 -32.963   3.084  1.00  0.00     0.293 HD
ENDBRANCH  17  18
ENDBRANCH   2  12
BRANCH   8  20
ATOM     20  O   UNL     1      33.396 -28.944  13.174  1.00  0.00    -0.507 OA
ATOM     21  H   UNL     1      32.971 -28.121  13.574  1.00  0.00     0.293 HD
ENDBRANCH   8  20
BRANCH   6  22
ATOM     22  O   UNL     1      37.704 -26.913  12.474  1.00  0.00    -0.508 OA
ATOM     23  H   UNL     1      38.697 -27.106  12.410  1.00  0.00     0.293 HD
ENDBRANCH   6  22
TORSDOF 4
ENDMDL
MODEL 5
REMARK VINA RESULT:    -2.511     21.051     21.918
REMARK INTER + INTRA:          -3.175
REMARK INTER:                  -2.863
REMARK INTRA:                  -0.312
REMARK UNBOUND:                -0.297
REMARK SMILES O=C1C[C@@H](c2ccc(O)cc2)Oc2cc(O)cc(O)c21
REMARK SMILES IDX 3 1 4 2 12 3 13 4 14 5 15 6 17 7 18 8 20 9 2 10 1 11 5 12
REMARK SMILES IDX 6 13 11 14 7 15 10 16 8 17 9 18 19 20 16 22
REMARK H PARENT 9 19 19 21 16 23
REMARK Flexibility Score: inf
ROOT
ATOM      1  C   UNL     1      21.178 -15.832   1.763  1.00  0.00     0.131 C 
ATOM      2  C   UNL     1      19.949 -16.703   2.059  1.00  0.00     0.211 C 
ATOM      3  O   UNL     1      19.903 -17.052   3.446  1.00  0.00    -0.484 OA
ATOM      4  C   UNL     1      20.249 -16.153   4.464  1.00  0.00     0.138 A 
ATOM      5  C   UNL     1      19.916 -16.465   5.784  1.00  0.00     0.093 A 
ATOM      6  C   UNL     1      20.234 -15.584   6.819  1.00  0.00     0.123 A 
ATOM      7  C   UNL     1      20.915 -14.395   6.533  1.00  0.00     0.093 A 
ATOM      8  C   UNL     1      21.293 -14.081   5.223  1.00  0.00     0.133 A 
ATOM      9  C   UNL     1      20.929 -14.954   4.162  1.00  0.00     0.102 A 
ATOM     10  C   UNL     1      21.214 -14.687   2.731  1.00  0.00     0.174 C 
ATOM     11  O   UNL     1      21.431 -13.524   2.303  1.00  0.00    -0.294 OA
ENDROOT
BRANCH   2  12
ATOM     12  C   UNL     1      19.963 -17.952   1.212  1.00  0.00    -0.007 A 
ATOM     13  C   UNL     1      19.914 -19.219   1.819  1.00  0.00     0.011 A 
ATOM     14  C   UNL     1      19.969 -17.865  -0.191  1.00  0.00     0.011 A 
ATOM     15  C   UNL     1      19.896 -20.377   1.037  1.00  0.00     0.046 A 
ATOM     16  C   UNL     1      19.951 -19.025  -0.971  1.00  0.00     0.046 A 
ATOM     17  C   UNL     1      19.917 -20.285  -0.359  1.00  0.00     0.115 A 
BRANCH  17  18
ATOM     18  O   UNL     1      19.899 -21.448  -1.126  1.00  0.00    -0.508 OA
ATOM     19  H   UNL     1      20.681 -21.704  -1.717  1.00  0.00     0.293 HD
ENDBRANCH  17  18
ENDBRANCH   2  12
BRANCH   8  20
ATOM     20  O   UNL     1      22.052 -12.924   5.032  1.00  0.00    -0.507 OA
ATOM     21  H   UNL     1      21.709 -11.990   5.201  1.00  0.00     0.293 HD
ENDBRANCH   8  20
BRANCH   6  22
ATOM     22  O   UNL     1      19.875 -15.901   8.126  1.00  0.00    -0.508 OA
ATOM     23  H   UNL     1      20.086 -15.281   8.900  1.00  0.00     0.293 HD
ENDBRANCH   6  22
TORSDOF 4
ENDMDL
