MODEL 1
REMARK VINA RESULT:    -3.751      0.000      0.000
REMARK INTER + INTRA:          -4.563
REMARK INTER:                  -5.286
REMARK INTRA:                   0.722
REMARK UNBOUND:                 0.722
REMARK SMILES CC1=CCC(=C(C)C)C(=O)CC(C)=CCC1
REMARK SMILES IDX 12 1 14 2 13 3 15 4 16 5 2 6 1 7 3 8 11 10 9 11 10 12 5 13
REMARK SMILES IDX 6 14 7 15 8 16 4 17
REMARK H PARENT
REMARK Flexibility Score: 60.00
ROOT
ATOM      1  C   UNL     1      14.300  18.531  17.753  1.00  0.00    -0.070 C 
ATOM      2  C   UNL     1      13.363  19.462  18.056  1.00  0.00    -0.027 C 
ATOM      3  C   UNL     1      15.703  18.768  18.254  1.00  0.00     0.039 C 
ENDROOT
BRANCH   2   4
ATOM      4  C   UNL     1      11.887  19.377  17.750  1.00  0.00     0.032 C 
BRANCH   4   5
ATOM      5  C   UNL     1      11.421  20.474  16.775  1.00  0.00     0.034 C 
BRANCH   5   6
ATOM      6  C   UNL     1      12.360  20.627  15.594  1.00  0.00    -0.077 C 
ATOM      7  C   UNL     1      13.148  21.906  15.466  1.00  0.00     0.039 C 
ATOM      8  C   UNL     1      12.514  19.689  14.632  1.00  0.00    -0.023 CG0
ATOM      9  G   UNL     1      11.791  18.366  14.565  1.00  0.00     0.000 G0
ENDBRANCH   5   6
ENDBRANCH   4   5
ENDBRANCH   2   4
BRANCH   1  10
ATOM     10  C   UNL     1      14.000  17.246  16.999  1.00  0.00     0.111 C 
BRANCH  10  11
ATOM     11  C   UNL     1      14.035  17.457  15.506  1.00  0.00     0.163 C 
ATOM     12  O   UNL     1      15.107  17.877  14.991  1.00  0.00    -0.294 OA
BRANCH  11  13
ATOM     13  C   UNL     1      12.832  17.233  14.646  1.00  0.00    -0.002 C 
ATOM     14  C   UNL     1      12.620  16.047  13.998  1.00  0.00    -0.069 C 
ATOM     15  C   UNL     1      13.555  14.872  14.174  1.00  0.00     0.039 C 
ATOM     16  C   UNL     1      11.421  15.843  13.098  1.00  0.00     0.039 C 
BRANCH  13  17
ATOM     17  C   UNL     1      11.812  18.356  14.581  1.00  0.00     0.066 CG0
ATOM     18  G   UNL     1      12.515  19.691  14.638  1.00  0.00     0.000 G0
ENDBRANCH  13  17
ENDBRANCH  11  13
ENDBRANCH  10  11
ENDBRANCH   1  10
TORSDOF 0
ENDMDL
MODEL 2
REMARK VINA RESULT:    -3.728      1.728      3.871
REMARK INTER + INTRA:          -4.531
REMARK INTER:                  -5.019
REMARK INTRA:                   0.488
REMARK UNBOUND:                 0.722
REMARK SMILES CC1=CCC(=C(C)C)C(=O)CC(C)=CCC1
REMARK SMILES IDX 12 1 14 2 13 3 15 4 16 5 2 6 1 7 3 8 11 10 9 11 10 12 5 13
REMARK SMILES IDX 6 14 7 15 8 16 4 17
REMARK H PARENT
REMARK Flexibility Score: 60.00
ROOT
ATOM      1  C   UNL     1      14.027  18.329  17.274  1.00  0.00    -0.070 C 
ATOM      2  C   UNL     1      14.770  17.252  16.922  1.00  0.00    -0.027 C 
ATOM      3  C   UNL     1      14.758  19.523  17.836  1.00  0.00     0.039 C 
ENDROOT
BRANCH   2   4
ATOM      4  C   UNL     1      14.265  15.999  16.247  1.00  0.00     0.032 C 
BRANCH   4   5
ATOM      5  C   UNL     1      14.228  16.127  14.713  1.00  0.00     0.034 C 
BRANCH   5   6
ATOM      6  C   UNL     1      13.008  15.457  14.111  1.00  0.00    -0.077 C 
ATOM      7  C   UNL     1      12.965  13.951  14.069  1.00  0.00     0.039 C 
ATOM      8  C   UNL     1      11.963  16.136  13.585  1.00  0.00    -0.023 CG0
ATOM      9  G   UNL     1      11.838  17.638  13.502  1.00  0.00     0.000 G0
ENDBRANCH   5   6
ENDBRANCH   4   5
ENDBRANCH   2   4
BRANCH   1  10
ATOM     10  C   UNL     1      12.524  18.419  17.074  1.00  0.00     0.111 C 
BRANCH  10  11
ATOM     11  C   UNL     1      12.178  18.934  15.699  1.00  0.00     0.163 C 
ATOM     12  O   UNL     1      12.665  20.040  15.338  1.00  0.00    -0.294 OA
BRANCH  11  13
ATOM     13  C   UNL     1      11.243  18.199  14.790  1.00  0.00    -0.002 C 
ATOM     14  C   UNL     1       9.907  18.094  15.064  1.00  0.00    -0.069 C 
ATOM     15  C   UNL     1       9.288  18.777  16.262  1.00  0.00     0.039 C 
ATOM     16  C   UNL     1       8.976  17.315  14.159  1.00  0.00     0.039 C 
BRANCH  13  17
ATOM     17  C   UNL     1      11.830  17.636  13.508  1.00  0.00     0.066 CG0
ATOM     18  G   UNL     1      11.938  16.134  13.612  1.00  0.00     0.000 G0
ENDBRANCH  13  17
ENDBRANCH  11  13
ENDBRANCH  10  11
ENDBRANCH   1  10
TORSDOF 0
ENDMDL
MODEL 3
REMARK VINA RESULT:    -3.680      1.772      3.634
REMARK INTER + INTRA:          -4.463
REMARK INTER:                  -5.105
REMARK INTRA:                   0.642
REMARK UNBOUND:                 0.722
REMARK SMILES CC1=CCC(=C(C)C)C(=O)CC(C)=CCC1
REMARK SMILES IDX 12 1 14 2 13 3 15 4 16 5 2 6 1 7 3 8 11 10 9 11 10 12 5 13
REMARK SMILES IDX 6 14 7 15 8 16 4 17
REMARK H PARENT
REMARK Flexibility Score: 60.00
ROOT
ATOM      1  C   UNL     1      13.265  19.289  17.419  1.00  0.00    -0.070 C 
ATOM      2  C   UNL     1      14.176  18.348  17.762  1.00  0.00    -0.027 C 
ATOM      3  C   UNL     1      11.932  19.257  18.125  1.00  0.00     0.039 C 
ENDROOT
BRANCH   2   4
ATOM      4  C   UNL     1      15.599  18.257  17.264  1.00  0.00     0.032 C 
BRANCH   4   5
ATOM      5  C   UNL     1      15.680  18.076  15.737  1.00  0.00     0.034 C 
BRANCH   5   6
ATOM      6  C   UNL     1      14.823  16.924  15.249  1.00  0.00    -0.077 C 
ATOM      7  C   UNL     1      15.139  15.536  15.744  1.00  0.00     0.039 C 
ATOM      8  C   UNL     1      13.803  17.068  14.373  1.00  0.00    -0.023 CG0
ATOM      9  G   UNL     1      13.358  18.364  13.741  1.00  0.00     0.000 G0
ENDBRANCH   5   6
ENDBRANCH   4   5
ENDBRANCH   2   4
BRANCH   1  10
ATOM     10  C   UNL     1      13.536  20.402  16.420  1.00  0.00     0.111 C 
BRANCH  10  11
ATOM     11  C   UNL     1      12.601  20.326  15.238  1.00  0.00     0.163 C 
ATOM     12  O   UNL     1      12.060  21.392  14.839  1.00  0.00    -0.294 OA
BRANCH  11  13
ATOM     13  C   UNL     1      12.269  19.026  14.575  1.00  0.00    -0.002 C 
ATOM     14  C   UNL     1      11.021  18.472  14.662  1.00  0.00    -0.069 C 
ATOM     15  C   UNL     1       9.889  19.179  15.372  1.00  0.00     0.039 C 
ATOM     16  C   UNL     1      10.704  17.138  14.020  1.00  0.00     0.039 C 
BRANCH  13  17
ATOM     17  C   UNL     1      13.358  18.382  13.735  1.00  0.00     0.066 CG0
ATOM     18  G   UNL     1      13.789  17.082  14.367  1.00  0.00     0.000 G0
ENDBRANCH  13  17
ENDBRANCH  11  13
ENDBRANCH  10  11
ENDBRANCH   1  10
TORSDOF 0
ENDMDL
MODEL 4
REMARK VINA RESULT:    -3.587      1.933      4.006
REMARK INTER + INTRA:          -4.333
REMARK INTER:                  -5.053
REMARK INTRA:                   0.721
REMARK UNBOUND:                 0.722
REMARK SMILES CC1=CCC(=C(C)C)C(=O)CC(C)=CCC1
REMARK SMILES IDX 12 1 14 2 13 3 15 4 16 5 2 6 1 7 3 8 11 10 9 11 10 12 5 13
REMARK SMILES IDX 6 14 7 15 8 16 4 17
REMARK H PARENT
REMARK Flexibility Score: 60.00
ROOT
ATOM      1  C   UNL     1      15.322  18.734  17.014  1.00  0.00    -0.070 C 
ATOM      2  C   UNL     1      16.182  17.995  16.272  1.00  0.00    -0.027 C 
ATOM      3  C   UNL     1      15.559  18.790  18.503  1.00  0.00     0.039 C 
ENDROOT
BRANCH   2   4
ATOM      4  C   UNL     1      16.196  17.884  14.766  1.00  0.00     0.032 C 
BRANCH   4   5
ATOM      5  C   UNL     1      15.900  16.455  14.275  1.00  0.00     0.034 C 
BRANCH   5   6
ATOM      6  C   UNL     1      14.798  15.791  15.076  1.00  0.00    -0.077 C 
ATOM      7  C   UNL     1      15.135  14.556  15.874  1.00  0.00     0.039 C 
ATOM      8  C   UNL     1      13.518  16.228  15.096  1.00  0.00    -0.023 CG0
ATOM      9  G   UNL     1      12.980  17.419  14.340  1.00  0.00     0.000 G0
ENDBRANCH   5   6
ENDBRANCH   4   5
ENDBRANCH   2   4
BRANCH   1  10
ATOM     10  C   UNL     1      14.185  19.552  16.424  1.00  0.00     0.111 C 
BRANCH  10  11
ATOM     11  C   UNL     1      12.873  18.811  16.497  1.00  0.00     0.163 C 
ATOM     12  O   UNL     1      12.390  18.570  17.637  1.00  0.00    -0.294 OA
BRANCH  11  13
ATOM     13  C   UNL     1      12.172  18.318  15.271  1.00  0.00    -0.002 C 
ATOM     14  C   UNL     1      10.901  18.717  14.959  1.00  0.00    -0.069 C 
ATOM     15  C   UNL     1      10.162  19.735  15.799  1.00  0.00     0.039 C 
ATOM     16  C   UNL     1      10.184  18.184  13.737  1.00  0.00     0.039 C 
BRANCH  13  17
ATOM     17  C   UNL     1      12.960  17.411  14.343  1.00  0.00     0.066 CG0
ATOM     18  G   UNL     1      13.507  16.237  15.118  1.00  0.00     0.000 G0
ENDBRANCH  13  17
ENDBRANCH  11  13
ENDBRANCH  10  11
ENDBRANCH   1  10
TORSDOF 0
ENDMDL
MODEL 5
REMARK VINA RESULT:    -3.424      1.582      2.150
REMARK INTER + INTRA:          -4.103
REMARK INTER:                  -4.681
REMARK INTRA:                   0.578
REMARK UNBOUND:                 0.722
REMARK SMILES CC1=CCC(=C(C)C)C(=O)CC(C)=CCC1
REMARK SMILES IDX 12 1 14 2 13 3 15 4 16 5 2 6 1 7 3 8 11 10 9 11 10 12 5 13
REMARK SMILES IDX 6 14 7 15 8 16 4 17
REMARK H PARENT
REMARK Flexibility Score: 60.00
ROOT
ATOM      1  C   UNL     1      14.171  18.349  17.347  1.00  0.00    -0.070 C 
ATOM      2  C   UNL     1      13.104  19.132  17.634  1.00  0.00    -0.027 C 
ATOM      3  C   UNL     1      15.525  18.818  17.823  1.00  0.00     0.039 C 
ENDROOT
BRANCH   2   4
ATOM      4  C   UNL     1      11.656  18.808  17.350  1.00  0.00     0.032 C 
BRANCH   4   5
ATOM      5  C   UNL     1      11.147  19.465  16.054  1.00  0.00     0.034 C 
BRANCH   5   6
ATOM      6  C   UNL     1      12.077  20.556  15.560  1.00  0.00    -0.077 C 
ATOM      7  C   UNL     1      12.038  21.897  16.248  1.00  0.00     0.039 C 
ATOM      8  C   UNL     1      12.925  20.402  14.518  1.00  0.00    -0.023 CG0
ATOM      9  G   UNL     1      13.083  19.154  13.685  1.00  0.00     0.000 G0
ENDBRANCH   5   6
ENDBRANCH   4   5
ENDBRANCH   2   4
BRANCH   1  10
ATOM     10  C   UNL     1      14.070  17.009  16.638  1.00  0.00     0.111 C 
BRANCH  10  11
ATOM     11  C   UNL     1      13.554  17.165  15.229  1.00  0.00     0.163 C 
ATOM     12  O   UNL     1      12.670  16.361  14.827  1.00  0.00    -0.294 OA
BRANCH  11  13
ATOM     13  C   UNL     1      14.095  18.204  14.298  1.00  0.00    -0.002 C 
ATOM     14  C   UNL     1      15.423  18.256  13.971  1.00  0.00    -0.069 C 
ATOM     15  C   UNL     1      16.403  17.222  14.475  1.00  0.00     0.039 C 
ATOM     16  C   UNL     1      15.969  19.334  13.060  1.00  0.00     0.039 C 
BRANCH  13  17
ATOM     17  C   UNL     1      13.094  19.157  13.670  1.00  0.00     0.066 CG0
ATOM     18  G   UNL     1      12.936  20.380  14.540  1.00  0.00     0.000 G0
ENDBRANCH  13  17
ENDBRANCH  11  13
ENDBRANCH  10  11
ENDBRANCH   1  10
TORSDOF 0
ENDMDL
MODEL 6
REMARK VINA RESULT:    -3.343      5.610      8.323
REMARK INTER + INTRA:          -3.988
REMARK INTER:                  -4.680
REMARK INTRA:                   0.691
REMARK UNBOUND:                 0.722
REMARK SMILES CC1=CCC(=C(C)C)C(=O)CC(C)=CCC1
REMARK SMILES IDX 12 1 14 2 13 3 15 4 16 5 2 6 1 7 3 8 11 10 9 11 10 12 5 13
REMARK SMILES IDX 6 14 7 15 8 16 4 17
REMARK H PARENT
REMARK Flexibility Score: 60.00
ROOT
ATOM      1  C   UNL     1      11.732  26.597  15.033  1.00  0.00    -0.070 C 
ATOM      2  C   UNL     1      11.225  25.406  15.434  1.00  0.00    -0.027 C 
ATOM      3  C   UNL     1      10.909  27.411  14.065  1.00  0.00     0.039 C 
ENDROOT
BRANCH   2   4
ATOM      4  C   UNL     1      11.822  24.483  16.469  1.00  0.00     0.032 C 
BRANCH   4   5
ATOM      5  C   UNL     1      12.278  23.139  15.870  1.00  0.00     0.034 C 
BRANCH   5   6
ATOM      6  C   UNL     1      12.927  23.309  14.510  1.00  0.00    -0.077 C 
ATOM      7  C   UNL     1      12.230  22.727  13.306  1.00  0.00     0.039 C 
ATOM      8  C   UNL     1      14.111  23.932  14.316  1.00  0.00    -0.023 CG0
ATOM      9  G   UNL     1      14.973  24.545  15.394  1.00  0.00     0.000 G0
ENDBRANCH   5   6
ENDBRANCH   4   5
ENDBRANCH   2   4
BRANCH   1  10
ATOM     10  C   UNL     1      13.037  27.176  15.551  1.00  0.00     0.111 C 
BRANCH  10  11
ATOM     11  C   UNL     1      14.188  26.864  14.627  1.00  0.00     0.163 C 
ATOM     12  O   UNL     1      14.153  27.331  13.456  1.00  0.00    -0.294 OA
BRANCH  11  13
ATOM     13  C   UNL     1      15.324  25.985  15.046  1.00  0.00    -0.002 C 
ATOM     14  C   UNL     1      16.599  26.466  15.170  1.00  0.00    -0.069 C 
ATOM     15  C   UNL     1      16.916  27.929  14.961  1.00  0.00     0.039 C 
ATOM     16  C   UNL     1      17.749  25.561  15.556  1.00  0.00     0.039 C 
BRANCH  13  17
ATOM     17  C   UNL     1      14.989  24.547  15.402  1.00  0.00     0.066 CG0
ATOM     18  G   UNL     1      14.101  23.950  14.337  1.00  0.00     0.000 G0
ENDBRANCH  13  17
ENDBRANCH  11  13
ENDBRANCH  10  11
ENDBRANCH   1  10
TORSDOF 0
ENDMDL
MODEL 7
REMARK VINA RESULT:    -3.269      1.532      2.434
REMARK INTER + INTRA:          -3.884
REMARK INTER:                  -4.904
REMARK INTRA:                   1.020
REMARK UNBOUND:                 0.722
REMARK SMILES CC1=CCC(=C(C)C)C(=O)CC(C)=CCC1
REMARK SMILES IDX 12 1 14 2 13 3 15 4 16 5 2 6 1 7 3 8 11 10 9 11 10 12 5 13
REMARK SMILES IDX 6 14 7 15 8 16 4 17
REMARK H PARENT
REMARK Flexibility Score: 60.00
ROOT
ATOM      1  C   UNL     1      13.916  19.475  17.296  1.00  0.00    -0.070 C 
ATOM      2  C   UNL     1      12.692  19.354  17.863  1.00  0.00    -0.027 C 
ATOM      3  C   UNL     1      15.060  18.737  17.947  1.00  0.00     0.039 C 
ENDROOT
BRANCH   2   4
ATOM      4  C   UNL     1      11.398  19.916  17.325  1.00  0.00     0.032 C 
BRANCH   4   5
ATOM      5  C   UNL     1      10.547  18.854  16.604  1.00  0.00     0.034 C 
BRANCH   5   6
ATOM      6  C   UNL     1      10.728  18.899  15.099  1.00  0.00    -0.077 C 
ATOM      7  C   UNL     1       9.785  19.752  14.289  1.00  0.00     0.039 C 
ATOM      8  C   UNL     1      11.674  18.196  14.436  1.00  0.00    -0.023 CG0
ATOM      9  G   UNL     1      12.683  17.264  15.063  1.00  0.00     0.000 G0
ENDBRANCH   5   6
ENDBRANCH   4   5
ENDBRANCH   2   4
BRANCH   1  10
ATOM     10  C   UNL     1      14.182  20.253  16.017  1.00  0.00     0.111 C 
BRANCH  10  11
ATOM     11  C   UNL     1      14.194  19.348  14.811  1.00  0.00     0.163 C 
ATOM     12  O   UNL     1      14.248  19.881  13.669  1.00  0.00    -0.294 OA
BRANCH  11  13
ATOM     13  C   UNL     1      14.092  17.860  14.936  1.00  0.00    -0.002 C 
ATOM     14  C   UNL     1      15.204  17.066  14.998  1.00  0.00    -0.069 C 
ATOM     15  C   UNL     1      16.597  17.654  15.018  1.00  0.00     0.039 C 
ATOM     16  C   UNL     1      15.093  15.559  15.085  1.00  0.00     0.039 C 
BRANCH  13  17
ATOM     17  C   UNL     1      12.698  17.273  15.065  1.00  0.00     0.066 CG0
ATOM     18  G   UNL     1      11.690  18.202  14.434  1.00  0.00     0.000 G0
ENDBRANCH  13  17
ENDBRANCH  11  13
ENDBRANCH  10  11
ENDBRANCH   1  10
TORSDOF 0
ENDMDL
MODEL 8
REMARK VINA RESULT:    -3.258      1.496      4.134
REMARK INTER + INTRA:          -3.869
REMARK INTER:                  -4.660
REMARK INTRA:                   0.790
REMARK UNBOUND:                 0.722
REMARK SMILES CC1=CCC(=C(C)C)C(=O)CC(C)=CCC1
REMARK SMILES IDX 12 1 14 2 13 3 15 4 16 5 2 6 1 7 3 8 11 10 9 11 10 12 5 13
REMARK SMILES IDX 6 14 7 15 8 16 4 17
REMARK H PARENT
REMARK Flexibility Score: 60.00
ROOT
ATOM      1  C   UNL     1      14.035  18.530  17.608  1.00  0.00    -0.070 C 
ATOM      2  C   UNL     1      14.601  17.447  17.024  1.00  0.00    -0.027 C 
ATOM      3  C   UNL     1      14.961  19.566  18.198  1.00  0.00     0.039 C 
ENDROOT
BRANCH   2   4
ATOM      4  C   UNL     1      13.875  16.349  16.284  1.00  0.00     0.032 C 
BRANCH   4   5
ATOM      5  C   UNL     1      14.236  16.305  14.788  1.00  0.00     0.034 C 
BRANCH   5   6
ATOM      6  C   UNL     1      13.119  16.839  13.913  1.00  0.00    -0.077 C 
ATOM      7  C   UNL     1      12.238  15.851  13.191  1.00  0.00     0.039 C 
ATOM      8  C   UNL     1      12.881  18.157  13.722  1.00  0.00    -0.023 CG0
ATOM      9  G   UNL     1      13.671  19.293  14.326  1.00  0.00     0.000 G0
ENDBRANCH   5   6
ENDBRANCH   4   5
ENDBRANCH   2   4
BRANCH   1  10
ATOM     10  C   UNL     1      12.537  18.785  17.642  1.00  0.00     0.111 C 
BRANCH  10  11
ATOM     11  C   UNL     1      12.012  19.185  16.286  1.00  0.00     0.163 C 
ATOM     12  O   UNL     1      10.883  18.747  15.933  1.00  0.00    -0.294 OA
BRANCH  11  13
ATOM     13  C   UNL     1      12.810  20.033  15.346  1.00  0.00    -0.002 C 
ATOM     14  C   UNL     1      12.824  21.397  15.442  1.00  0.00    -0.069 C 
ATOM     15  C   UNL     1      12.091  22.120  16.550  1.00  0.00     0.039 C 
ATOM     16  C   UNL     1      13.602  22.249  14.464  1.00  0.00     0.039 C 
BRANCH  13  17
ATOM     17  C   UNL     1      13.667  19.309  14.323  1.00  0.00     0.066 CG0
ATOM     18  G   UNL     1      12.892  18.158  13.729  1.00  0.00     0.000 G0
ENDBRANCH  13  17
ENDBRANCH  11  13
ENDBRANCH  10  11
ENDBRANCH   1  10
TORSDOF 0
ENDMDL
MODEL 9
REMARK VINA RESULT:    -3.254      2.337      4.722
REMARK INTER + INTRA:          -3.863
REMARK INTER:                  -4.259
REMARK INTRA:                   0.396
REMARK UNBOUND:                 0.722
REMARK SMILES CC1=CCC(=C(C)C)C(=O)CC(C)=CCC1
REMARK SMILES IDX 12 1 14 2 13 3 15 4 16 5 2 6 1 7 3 8 11 10 9 11 10 12 5 13
REMARK SMILES IDX 6 14 7 15 8 16 4 17
REMARK H PARENT
REMARK Flexibility Score: 60.00
ROOT
ATOM      1  C   UNL     1      10.855  15.884  13.715  1.00  0.00    -0.070 C 
ATOM      2  C   UNL     1       9.564  15.585  13.996  1.00  0.00    -0.027 C 
ATOM      3  C   UNL     1      11.798  14.731  13.473  1.00  0.00     0.039 C 
ENDROOT
BRANCH   2   4
ATOM      4  C   UNL     1       8.435  16.573  14.169  1.00  0.00     0.032 C 
BRANCH   4   5
ATOM      5  C   UNL     1       8.383  17.171  15.587  1.00  0.00     0.034 C 
BRANCH   5   6
ATOM      6  C   UNL     1       8.458  18.685  15.573  1.00  0.00    -0.077 C 
ATOM      7  C   UNL     1       7.292  19.455  15.005  1.00  0.00     0.039 C 
ATOM      8  C   UNL     1       9.524  19.387  16.018  1.00  0.00    -0.023 CG0
ATOM      9  G   UNL     1      10.794  18.799  16.586  1.00  0.00     0.000 G0
ENDBRANCH   5   6
ENDBRANCH   4   5
ENDBRANCH   2   4
BRANCH   1  10
ATOM     10  C   UNL     1      11.381  17.303  13.569  1.00  0.00     0.111 C 
BRANCH  10  11
ATOM     11  C   UNL     1      12.221  17.707  14.756  1.00  0.00     0.163 C 
ATOM     12  O   UNL     1      13.177  16.956  15.090  1.00  0.00    -0.294 OA
BRANCH  11  13
ATOM     13  C   UNL     1      11.917  18.932  15.560  1.00  0.00    -0.002 C 
ATOM     14  C   UNL     1      12.558  20.119  15.334  1.00  0.00    -0.069 C 
ATOM     15  C   UNL     1      13.556  20.278  14.209  1.00  0.00     0.039 C 
ATOM     16  C   UNL     1      12.272  21.342  16.178  1.00  0.00     0.039 C 
BRANCH  13  17
ATOM     17  C   UNL     1      10.810  18.821  16.594  1.00  0.00     0.066 CG0
ATOM     18  G   UNL     1       9.531  19.397  16.038  1.00  0.00     0.000 G0
ENDBRANCH  13  17
ENDBRANCH  11  13
ENDBRANCH  10  11
ENDBRANCH   1  10
TORSDOF 0
ENDMDL
