MODEL 1
REMARK VINA RESULT:    -4.576      0.000      0.000
REMARK INTER + INTRA:          -5.001
REMARK INTER:                  -4.977
REMARK INTRA:                  -0.024
REMARK UNBOUND:                -0.024
REMARK SMILES COc1ccccc1O
REMARK SMILES IDX 3 1 4 2 5 3 6 4 7 5 8 6 2 7 1 8 9 9
REMARK H PARENT 9 10
REMARK Flexibility Score: inf
ROOT
ATOM      1  C   UNL     1     -33.239  11.455 -35.660  1.00  0.00     0.160 A 
ATOM      2  C   UNL     1     -33.046  11.980 -36.955  1.00  0.00     0.050 A 
ATOM      3  C   UNL     1     -32.276  11.285 -37.891  1.00  0.00     0.004 A 
ATOM      4  C   UNL     1     -31.693  10.065 -37.551  1.00  0.00     0.004 A 
ATOM      5  C   UNL     1     -31.877   9.533 -36.273  1.00  0.00     0.050 A 
ATOM      6  C   UNL     1     -32.646  10.221 -35.326  1.00  0.00     0.157 A 
ENDROOT
BRANCH   1   7
ATOM      7  O   UNL     1     -34.005  12.123 -34.694  1.00  0.00    -0.493 OA
ATOM      8  C   UNL     1     -33.479  13.032 -33.733  1.00  0.00     0.278 C 
ENDBRANCH   1   7
BRANCH   6   9
ATOM      9  O   UNL     1     -32.810   9.663 -34.058  1.00  0.00    -0.504 OA
ATOM     10  H   UNL     1     -32.619   8.686 -33.871  1.00  0.00     0.293 HD
ENDBRANCH   6   9
TORSDOF 2
ENDMDL
MODEL 2
REMARK VINA RESULT:    -4.454      1.720      3.147
REMARK INTER + INTRA:          -4.868
REMARK INTER:                  -4.837
REMARK INTRA:                  -0.031
REMARK UNBOUND:                -0.024
REMARK SMILES COc1ccccc1O
REMARK SMILES IDX 3 1 4 2 5 3 6 4 7 5 8 6 2 7 1 8 9 9
REMARK H PARENT 9 10
REMARK Flexibility Score: inf
ROOT
ATOM      1  C   UNL     1     -33.039  10.600 -36.276  1.00  0.00     0.160 A 
ATOM      2  C   UNL     1     -33.623  11.883 -36.245  1.00  0.00     0.050 A 
ATOM      3  C   UNL     1     -33.512  12.683 -35.105  1.00  0.00     0.004 A 
ATOM      4  C   UNL     1     -32.820  12.217 -33.987  1.00  0.00     0.004 A 
ATOM      5  C   UNL     1     -32.236  10.948 -34.005  1.00  0.00     0.050 A 
ATOM      6  C   UNL     1     -32.342  10.138 -35.142  1.00  0.00     0.157 A 
ENDROOT
BRANCH   1   7
ATOM      7  O   UNL     1     -33.130   9.769 -37.402  1.00  0.00    -0.493 OA
ATOM      8  C   UNL     1     -32.962  10.209 -38.746  1.00  0.00     0.278 C 
ENDBRANCH   1   7
BRANCH   6   9
ATOM      9  O   UNL     1     -31.747   8.876 -35.127  1.00  0.00    -0.504 OA
ATOM     10  H   UNL     1     -31.142   8.556 -35.872  1.00  0.00     0.293 HD
ENDBRANCH   6   9
TORSDOF 2
ENDMDL
MODEL 3
REMARK VINA RESULT:    -4.398      1.463      2.798
REMARK INTER + INTRA:          -4.807
REMARK INTER:                  -4.780
REMARK INTRA:                  -0.027
REMARK UNBOUND:                -0.024
REMARK SMILES COc1ccccc1O
REMARK SMILES IDX 3 1 4 2 5 3 6 4 7 5 8 6 2 7 1 8 9 9
REMARK H PARENT 9 10
REMARK Flexibility Score: inf
ROOT
ATOM      1  C   UNL     1     -33.091  11.722 -36.834  1.00  0.00     0.160 A 
ATOM      2  C   UNL     1     -32.302  10.698 -37.397  1.00  0.00     0.050 A 
ATOM      3  C   UNL     1     -31.697   9.741 -36.577  1.00  0.00     0.004 A 
ATOM      4  C   UNL     1     -31.870   9.792 -35.194  1.00  0.00     0.004 A 
ATOM      5  C   UNL     1     -32.650  10.802 -34.625  1.00  0.00     0.050 A 
ATOM      6  C   UNL     1     -33.260  11.765 -35.436  1.00  0.00     0.157 A 
ENDROOT
BRANCH   1   7
ATOM      7  O   UNL     1     -33.714  12.699 -37.624  1.00  0.00    -0.493 OA
ATOM      8  C   UNL     1     -34.156  12.495 -38.962  1.00  0.00     0.278 C 
ENDBRANCH   1   7
BRANCH   6   9
ATOM      9  O   UNL     1     -34.033  12.760 -34.834  1.00  0.00    -0.504 OA
ATOM     10  H   UNL     1     -34.123  12.838 -33.829  1.00  0.00     0.293 HD
ENDBRANCH   6   9
TORSDOF 2
ENDMDL
MODEL 4
REMARK VINA RESULT:    -4.374      2.255      3.346
REMARK INTER + INTRA:          -4.781
REMARK INTER:                  -4.738
REMARK INTRA:                  -0.044
REMARK UNBOUND:                -0.024
REMARK SMILES COc1ccccc1O
REMARK SMILES IDX 3 1 4 2 5 3 6 4 7 5 8 6 2 7 1 8 9 9
REMARK H PARENT 9 10
REMARK Flexibility Score: inf
ROOT
ATOM      1  C   UNL     1     -32.747  11.208 -37.431  1.00  0.00     0.160 A 
ATOM      2  C   UNL     1     -33.495  11.858 -36.428  1.00  0.00     0.050 A 
ATOM      3  C   UNL     1     -33.309  11.528 -35.083  1.00  0.00     0.004 A 
ATOM      4  C   UNL     1     -32.380  10.552 -34.723  1.00  0.00     0.004 A 
ATOM      5  C   UNL     1     -31.632   9.901 -35.708  1.00  0.00     0.050 A 
ATOM      6  C   UNL     1     -31.811  10.224 -37.058  1.00  0.00     0.157 A 
ENDROOT
BRANCH   1   7
ATOM      7  O   UNL     1     -32.906  11.513 -38.792  1.00  0.00    -0.493 OA
ATOM      8  C   UNL     1     -34.055  11.182 -39.564  1.00  0.00     0.278 C 
ENDBRANCH   1   7
BRANCH   6   9
ATOM      9  O   UNL     1     -31.048   9.555 -38.016  1.00  0.00    -0.504 OA
ATOM     10  H   UNL     1     -31.155   8.565 -38.195  1.00  0.00     0.293 HD
ENDBRANCH   6   9
TORSDOF 2
ENDMDL
MODEL 5
REMARK VINA RESULT:    -4.296      1.493      2.697
REMARK INTER + INTRA:          -4.696
REMARK INTER:                  -4.650
REMARK INTRA:                  -0.046
REMARK UNBOUND:                -0.024
REMARK SMILES COc1ccccc1O
REMARK SMILES IDX 3 1 4 2 5 3 6 4 7 5 8 6 2 7 1 8 9 9
REMARK H PARENT 9 10
REMARK Flexibility Score: inf
ROOT
ATOM      1  C   UNL     1     -33.743  10.288 -35.956  1.00  0.00     0.160 A 
ATOM      2  C   UNL     1     -33.360   9.822 -37.231  1.00  0.00     0.050 A 
ATOM      3  C   UNL     1     -32.919  10.719 -38.208  1.00  0.00     0.004 A 
ATOM      4  C   UNL     1     -32.857  12.084 -37.928  1.00  0.00     0.004 A 
ATOM      5  C   UNL     1     -33.234  12.558 -36.669  1.00  0.00     0.050 A 
ATOM      6  C   UNL     1     -33.677  11.669 -35.683  1.00  0.00     0.157 A 
ENDROOT
BRANCH   1   7
ATOM      7  O   UNL     1     -34.190   9.418 -34.950  1.00  0.00    -0.493 OA
ATOM      8  C   UNL     1     -35.504   8.875 -34.877  1.00  0.00     0.278 C 
ENDBRANCH   1   7
BRANCH   6   9
ATOM      9  O   UNL     1     -34.045  12.175 -34.436  1.00  0.00    -0.504 OA
ATOM     10  H   UNL     1     -34.410  13.112 -34.322  1.00  0.00     0.293 HD
ENDBRANCH   6   9
TORSDOF 2
ENDMDL
MODEL 6
REMARK VINA RESULT:    -4.266      0.989      1.076
REMARK INTER + INTRA:          -4.664
REMARK INTER:                  -4.639
REMARK INTRA:                  -0.025
REMARK UNBOUND:                -0.024
REMARK SMILES COc1ccccc1O
REMARK SMILES IDX 3 1 4 2 5 3 6 4 7 5 8 6 2 7 1 8 9 9
REMARK H PARENT 9 10
REMARK Flexibility Score: inf
ROOT
ATOM      1  C   UNL     1     -32.821  10.995 -35.969  1.00  0.00     0.160 A 
ATOM      2  C   UNL     1     -33.241  11.741 -37.090  1.00  0.00     0.050 A 
ATOM      3  C   UNL     1     -33.083  11.227 -38.380  1.00  0.00     0.004 A 
ATOM      4  C   UNL     1     -32.508   9.969 -38.567  1.00  0.00     0.004 A 
ATOM      5  C   UNL     1     -32.090   9.221 -37.465  1.00  0.00     0.050 A 
ATOM      6  C   UNL     1     -32.243   9.726 -36.169  1.00  0.00     0.157 A 
ENDROOT
BRANCH   1   7
ATOM      7  O   UNL     1     -32.964  11.478 -34.660  1.00  0.00    -0.493 OA
ATOM      8  C   UNL     1     -33.638  12.683 -34.313  1.00  0.00     0.278 C 
ENDBRANCH   1   7
BRANCH   6   9
ATOM      9  O   UNL     1     -31.814   8.952 -35.090  1.00  0.00    -0.504 OA
ATOM     10  H   UNL     1     -31.320   9.352 -34.302  1.00  0.00     0.293 HD
ENDBRANCH   6   9
TORSDOF 2
ENDMDL
MODEL 7
REMARK VINA RESULT:    -4.246      1.964      3.907
REMARK INTER + INTRA:          -4.642
REMARK INTER:                  -4.615
REMARK INTRA:                  -0.027
REMARK UNBOUND:                -0.024
REMARK SMILES COc1ccccc1O
REMARK SMILES IDX 3 1 4 2 5 3 6 4 7 5 8 6 2 7 1 8 9 9
REMARK H PARENT 9 10
REMARK Flexibility Score: inf
ROOT
ATOM      1  C   UNL     1     -32.576  10.392 -36.812  1.00  0.00     0.160 A 
ATOM      2  C   UNL     1     -32.073   9.832 -35.619  1.00  0.00     0.050 A 
ATOM      3  C   UNL     1     -32.223  10.507 -34.405  1.00  0.00     0.004 A 
ATOM      4  C   UNL     1     -32.872  11.741 -34.364  1.00  0.00     0.004 A 
ATOM      5  C   UNL     1     -33.375  12.305 -35.539  1.00  0.00     0.050 A 
ATOM      6  C   UNL     1     -33.230  11.638 -36.761  1.00  0.00     0.157 A 
ENDROOT
BRANCH   1   7
ATOM      7  O   UNL     1     -32.445   9.744 -38.049  1.00  0.00    -0.493 OA
ATOM      8  C   UNL     1     -31.371   8.875 -38.397  1.00  0.00     0.278 C 
ENDBRANCH   1   7
BRANCH   6   9
ATOM      9  O   UNL     1     -33.744  12.229 -37.916  1.00  0.00    -0.504 OA
ATOM     10  H   UNL     1     -33.648  11.803 -38.829  1.00  0.00     0.293 HD
ENDBRANCH   6   9
TORSDOF 2
ENDMDL
MODEL 8
REMARK VINA RESULT:    -4.201      3.305      4.914
REMARK INTER + INTRA:          -4.593
REMARK INTER:                  -4.568
REMARK INTRA:                  -0.025
REMARK UNBOUND:                -0.024
REMARK SMILES COc1ccccc1O
REMARK SMILES IDX 3 1 4 2 5 3 6 4 7 5 8 6 2 7 1 8 9 9
REMARK H PARENT 9 10
REMARK Flexibility Score: inf
ROOT
ATOM      1  C   UNL     1     -33.734  10.823 -39.320  1.00  0.00     0.160 A 
ATOM      2  C   UNL     1     -33.101   9.989 -38.375  1.00  0.00     0.050 A 
ATOM      3  C   UNL     1     -32.752  10.485 -37.116  1.00  0.00     0.004 A 
ATOM      4  C   UNL     1     -33.028  11.812 -36.785  1.00  0.00     0.004 A 
ATOM      5  C   UNL     1     -33.656  12.648 -37.712  1.00  0.00     0.050 A 
ATOM      6  C   UNL     1     -34.009  12.161 -38.976  1.00  0.00     0.157 A 
ENDROOT
BRANCH   1   7
ATOM      7  O   UNL     1     -34.099  10.360 -40.593  1.00  0.00    -0.493 OA
ATOM      8  C   UNL     1     -33.765   9.077 -41.112  1.00  0.00     0.278 C 
ENDBRANCH   1   7
BRANCH   6   9
ATOM      9  O   UNL     1     -34.635  13.023 -39.878  1.00  0.00    -0.504 OA
ATOM     10  H   UNL     1     -35.311  12.695 -40.555  1.00  0.00     0.293 HD
ENDBRANCH   6   9
TORSDOF 2
ENDMDL
MODEL 9
REMARK VINA RESULT:    -4.088      1.065      2.272
REMARK INTER + INTRA:          -4.470
REMARK INTER:                  -4.429
REMARK INTRA:                  -0.041
REMARK UNBOUND:                -0.024
REMARK SMILES COc1ccccc1O
REMARK SMILES IDX 3 1 4 2 5 3 6 4 7 5 8 6 2 7 1 8 9 9
REMARK H PARENT 9 10
REMARK Flexibility Score: inf
ROOT
ATOM      1  C   UNL     1     -33.182  11.277 -35.631  1.00  0.00     0.160 A 
ATOM      2  C   UNL     1     -32.544  10.152 -35.068  1.00  0.00     0.050 A 
ATOM      3  C   UNL     1     -31.771   9.305 -35.866  1.00  0.00     0.004 A 
ATOM      4  C   UNL     1     -31.626   9.566 -37.229  1.00  0.00     0.004 A 
ATOM      5  C   UNL     1     -32.252  10.677 -37.798  1.00  0.00     0.050 A 
ATOM      6  C   UNL     1     -33.029  11.533 -37.008  1.00  0.00     0.157 A 
ENDROOT
BRANCH   1   7
ATOM      7  O   UNL     1     -33.964  12.151 -34.861  1.00  0.00    -0.493 OA
ATOM      8  C   UNL     1     -33.463  12.968 -33.809  1.00  0.00     0.278 C 
ENDBRANCH   1   7
BRANCH   6   9
ATOM      9  O   UNL     1     -33.640  12.634 -37.609  1.00  0.00    -0.504 OA
ATOM     10  H   UNL     1     -33.578  13.565 -37.217  1.00  0.00     0.293 HD
ENDBRANCH   6   9
TORSDOF 2
ENDMDL
