MODEL 1
REMARK VINA RESULT:    -7.069      0.000      0.000
REMARK INTER + INTRA:         -11.232
REMARK INTER:                  -9.961
REMARK INTRA:                  -1.271
REMARK UNBOUND:                -1.271
REMARK SMILES COc1c(O[C@@H]2O[C@@H](C(=O)[O-])[C@@H](O)[C@H](O)[C@@H]2O)cc(O)c2c(=O)cc(-c3ccccc3)oc12
REMARK SMILES IDX 5 1 6 2 8 3 12 4 7 5 14 6 16 7 9 8 10 9 11 10 13 11 15 13
REMARK SMILES IDX 17 15 4 17 3 18 18 19 33 20 19 21 21 22 32 23 22 24 25 25
REMARK SMILES IDX 24 26 23 27 2 28 1 29 20 30 26 32 27 33 31 34 28 35 30 36
REMARK SMILES IDX 29 37
REMARK H PARENT 13 12 15 14 17 16 20 31
REMARK Flexibility Score: inf
ROOT
ATOM      1  O   UNL     1      28.943  28.911 -15.774  1.00  0.00    -0.458 OA
ENDROOT
BRANCH   1   2
ATOM      2  C   UNL     1      29.653  30.109 -15.365  1.00  0.00     0.339 C 
ATOM      3  C   UNL     1      30.820  31.146 -13.603  1.00  0.00     0.199 C 
ATOM      4  C   UNL     1      30.778  32.454 -14.469  1.00  0.00     0.180 C 
ATOM      5  O   UNL     1      29.871  30.148 -13.973  1.00  0.00    -0.328 OA
ATOM      6  C   UNL     1      29.355  32.658 -15.034  1.00  0.00     0.181 C 
ATOM      7  C   UNL     1      28.877  31.395 -15.805  1.00  0.00     0.214 C 
BRANCH   3   8
ATOM      8  C   UNL     1      32.209  30.555 -13.479  1.00  0.00     0.073 C 
ATOM      9  O   UNL     1      32.821  30.560 -12.377  1.00  0.00    -0.547 OA
ATOM     10  O   UNL     1      32.856  30.058 -14.607  1.00  0.00    -0.547 OA
ENDBRANCH   3   8
BRANCH   4  11
ATOM     11  O   UNL     1      31.697  32.422 -15.536  1.00  0.00    -0.387 OA
ATOM     12  H   UNL     1      32.489  31.877 -15.256  1.00  0.00     0.211 HD
ENDBRANCH   4  11
BRANCH   6  13
ATOM     13  O   UNL     1      28.451  32.982 -13.995  1.00  0.00    -0.387 OA
ATOM     14  H   UNL     1      28.342  33.955 -13.977  1.00  0.00     0.211 HD
ENDBRANCH   6  13
BRANCH   7  15
ATOM     15  O   UNL     1      27.507  31.191 -15.569  1.00  0.00    -0.384 OA
ATOM     16  H   UNL     1      27.214  31.864 -14.896  1.00  0.00     0.211 HD
ENDBRANCH   7  15
ENDBRANCH   1   2
BRANCH   1  17
ATOM     17  C   UNL     1      29.108  28.122 -16.933  1.00  0.00     0.172 A 
ATOM     18  C   UNL     1      30.117  27.144 -17.106  1.00  0.00     0.205 A 
ATOM     19  C   UNL     1      28.124  28.259 -17.927  1.00  0.00     0.097 A 
ATOM     20  C   UNL     1      29.798  26.029 -17.889  1.00  0.00     0.188 A 
ATOM     21  C   UNL     1      27.989  27.294 -18.934  1.00  0.00     0.134 A 
ATOM     22  C   UNL     1      28.759  26.107 -18.845  1.00  0.00     0.111 A 
ATOM     23  O   UNL     1      30.440  24.885 -17.659  1.00  0.00    -0.452 OA
ATOM     24  C   UNL     1      28.487  24.937 -19.589  1.00  0.00     0.197 A 
ATOM     25  C   UNL     1      30.097  23.734 -18.234  1.00  0.00     0.138 A 
ATOM     26  C   UNL     1      29.187  23.753 -19.307  1.00  0.00     0.100 A 
ATOM     27  O   UNL     1      27.544  24.878 -20.414  1.00  0.00    -0.289 OA
BRANCH  18  28
ATOM     28  O   UNL     1      31.409  27.283 -16.598  1.00  0.00    -0.490 OA
ATOM     29  C   UNL     1      31.690  26.873 -15.248  1.00  0.00     0.278 C 
ENDBRANCH  18  28
BRANCH  21  30
ATOM     30  O   UNL     1      27.060  27.572 -19.942  1.00  0.00    -0.507 OA
ATOM     31  H   UNL     1      26.603  28.454 -20.057  1.00  0.00     0.293 HD
ENDBRANCH  21  30
BRANCH  25  32
ATOM     32  C   UNL     1      30.488  22.467 -17.548  1.00  0.00     0.017 A 
ATOM     33  C   UNL     1      31.439  22.519 -16.497  1.00  0.00     0.012 A 
ATOM     34  C   UNL     1      30.335  21.254 -18.249  1.00  0.00     0.012 A 
ATOM     35  C   UNL     1      32.396  21.502 -16.354  1.00  0.00     0.001 A 
ATOM     36  C   UNL     1      31.273  20.219 -18.080  1.00  0.00     0.001 A 
ATOM     37  C   UNL     1      32.342  20.368 -17.174  1.00  0.00     0.000 A 
ENDBRANCH  25  32
ENDBRANCH   1  17
TORSDOF 9
ENDMDL
MODEL 2
REMARK VINA RESULT:    -6.811      2.383      8.619
REMARK INTER + INTRA:         -10.870
REMARK INTER:                  -9.885
REMARK INTRA:                  -0.984
REMARK UNBOUND:                -1.271
REMARK SMILES COc1c(O[C@@H]2O[C@@H](C(=O)[O-])[C@@H](O)[C@H](O)[C@@H]2O)cc(O)c2c(=O)cc(-c3ccccc3)oc12
REMARK SMILES IDX 5 1 6 2 8 3 12 4 7 5 14 6 16 7 9 8 10 9 11 10 13 11 15 13
REMARK SMILES IDX 17 15 4 17 3 18 18 19 33 20 19 21 21 22 32 23 22 24 25 25
REMARK SMILES IDX 24 26 23 27 2 28 1 29 20 30 26 32 27 33 31 34 28 35 30 36
REMARK SMILES IDX 29 37
REMARK H PARENT 13 12 15 14 17 16 20 31
REMARK Flexibility Score: inf
ROOT
ATOM      1  O   UNL     1      30.387  24.039 -18.780  1.00  0.00    -0.458 OA
ENDROOT
BRANCH   1   2
ATOM      2  C   UNL     1      30.076  22.629 -18.936  1.00  0.00     0.339 C 
ATOM      3  C   UNL     1      30.987  20.463 -19.088  1.00  0.00     0.199 C 
ATOM      4  C   UNL     1      29.547  19.986 -19.486  1.00  0.00     0.180 C 
ATOM      5  O   UNL     1      31.221  21.863 -19.236  1.00  0.00    -0.328 OA
ATOM      6  C   UNL     1      28.956  20.941 -20.547  1.00  0.00     0.181 C 
ATOM      7  C   UNL     1      29.001  22.415 -20.053  1.00  0.00     0.214 C 
BRANCH   3   8
ATOM      8  C   UNL     1      31.420  19.983 -17.718  1.00  0.00     0.073 C 
ATOM      9  O   UNL     1      31.234  20.692 -16.692  1.00  0.00    -0.547 OA
ATOM     10  O   UNL     1      32.097  18.773 -17.588  1.00  0.00    -0.547 OA
ENDBRANCH   3   8
BRANCH   4  11
ATOM     11  O   UNL     1      28.674  19.929 -18.381  1.00  0.00    -0.387 OA
ATOM     12  H   UNL     1      27.822  20.393 -18.627  1.00  0.00     0.211 HD
ENDBRANCH   4  11
BRANCH   6  13
ATOM     13  O   UNL     1      29.645  20.804 -21.775  1.00  0.00    -0.387 OA
ATOM     14  H   UNL     1      29.536  19.881 -22.084  1.00  0.00     0.211 HD
ENDBRANCH   6  13
BRANCH   7  15
ATOM     15  O   UNL     1      29.304  23.263 -21.131  1.00  0.00    -0.384 OA
ATOM     16  H   UNL     1      28.488  23.796 -21.334  1.00  0.00     0.211 HD
ENDBRANCH   7  15
ENDBRANCH   1   2
BRANCH   1  17
ATOM     17  C   UNL     1      29.727  25.022 -18.012  1.00  0.00     0.172 A 
ATOM     18  C   UNL     1      30.192  25.525 -16.774  1.00  0.00     0.205 A 
ATOM     19  C   UNL     1      28.588  25.606 -18.592  1.00  0.00     0.097 A 
ATOM     20  C   UNL     1      29.902  26.862 -16.477  1.00  0.00     0.188 A 
ATOM     21  C   UNL     1      28.074  26.813 -18.096  1.00  0.00     0.134 A 
ATOM     22  C   UNL     1      28.809  27.507 -17.103  1.00  0.00     0.111 A 
ATOM     23  O   UNL     1      30.718  27.524 -15.658  1.00  0.00    -0.452 OA
ATOM     24  C   UNL     1      28.587  28.859 -16.762  1.00  0.00     0.197 A 
ATOM     25  C   UNL     1      30.621  28.835 -15.444  1.00  0.00     0.138 A 
ATOM     26  C   UNL     1      29.477  29.516 -15.898  1.00  0.00     0.100 A 
ATOM     27  O   UNL     1      27.687  29.542 -17.307  1.00  0.00    -0.289 OA
BRANCH  18  28
ATOM     28  O   UNL     1      30.850  24.737 -15.828  1.00  0.00    -0.490 OA
ATOM     29  C   UNL     1      32.119  24.144 -16.157  1.00  0.00     0.278 C 
ENDBRANCH  18  28
BRANCH  21  30
ATOM     30  O   UNL     1      26.875  27.258 -18.661  1.00  0.00    -0.507 OA
ATOM     31  H   UNL     1      26.535  28.196 -18.591  1.00  0.00     0.293 HD
ENDBRANCH  21  30
BRANCH  25  32
ATOM     32  C   UNL     1      31.840  29.556 -14.972  1.00  0.00     0.017 A 
ATOM     33  C   UNL     1      32.178  29.508 -13.596  1.00  0.00     0.012 A 
ATOM     34  C   UNL     1      32.308  30.645 -15.737  1.00  0.00     0.012 A 
ATOM     35  C   UNL     1      32.703  30.640 -12.953  1.00  0.00     0.001 A 
ATOM     36  C   UNL     1      32.868  31.766 -15.096  1.00  0.00     0.001 A 
ATOM     37  C   UNL     1      33.010  31.788 -13.694  1.00  0.00     0.000 A 
ENDBRANCH  25  32
ENDBRANCH   1  17
TORSDOF 9
ENDMDL
MODEL 3
REMARK VINA RESULT:    -6.455      2.556      8.981
REMARK INTER + INTRA:         -10.368
REMARK INTER:                  -9.938
REMARK INTRA:                  -0.429
REMARK UNBOUND:                -1.271
REMARK SMILES COc1c(O[C@@H]2O[C@@H](C(=O)[O-])[C@@H](O)[C@H](O)[C@@H]2O)cc(O)c2c(=O)cc(-c3ccccc3)oc12
REMARK SMILES IDX 5 1 6 2 8 3 12 4 7 5 14 6 16 7 9 8 10 9 11 10 13 11 15 13
REMARK SMILES IDX 17 15 4 17 3 18 18 19 33 20 19 21 21 22 32 23 22 24 25 25
REMARK SMILES IDX 24 26 23 27 2 28 1 29 20 30 26 32 27 33 31 34 28 35 30 36
REMARK SMILES IDX 29 37
REMARK H PARENT 13 12 15 14 17 16 20 31
REMARK Flexibility Score: inf
ROOT
ATOM      1  O   UNL     1      30.581  23.205 -18.653  1.00  0.00    -0.458 OA
ENDROOT
BRANCH   1   2
ATOM      2  C   UNL     1      30.073  22.148 -19.508  1.00  0.00     0.339 C 
ATOM      3  C   UNL     1      28.162  20.912 -20.112  1.00  0.00     0.199 C 
ATOM      4  C   UNL     1      29.132  19.985 -20.924  1.00  0.00     0.180 C 
ATOM      5  O   UNL     1      28.790  21.716 -19.114  1.00  0.00    -0.328 OA
ATOM      6  C   UNL     1      30.364  19.636 -20.059  1.00  0.00     0.181 C 
ATOM      7  C   UNL     1      31.050  20.925 -19.525  1.00  0.00     0.214 C 
BRANCH   3   8
ATOM      8  C   UNL     1      27.257  21.749 -20.992  1.00  0.00     0.073 C 
ATOM      9  O   UNL     1      26.890  21.335 -22.125  1.00  0.00    -0.547 OA
ATOM     10  O   UNL     1      26.875  23.024 -20.583  1.00  0.00    -0.547 OA
ENDBRANCH   3   8
BRANCH   4  11
ATOM     11  O   UNL     1      29.566  20.580 -22.125  1.00  0.00    -0.387 OA
ATOM     12  H   UNL     1      28.761  20.798 -22.678  1.00  0.00     0.211 HD
ENDBRANCH   4  11
BRANCH   6  13
ATOM     13  O   UNL     1      29.995  18.786 -18.990  1.00  0.00    -0.387 OA
ATOM     14  H   UNL     1      29.119  18.399 -19.197  1.00  0.00     0.211 HD
ENDBRANCH   6  13
BRANCH   7  15
ATOM     15  O   UNL     1      31.510  20.705 -18.216  1.00  0.00    -0.384 OA
ATOM     16  H   UNL     1      31.190  19.806 -17.931  1.00  0.00     0.211 HD
ENDBRANCH   7  15
ENDBRANCH   1   2
BRANCH   1  17
ATOM     17  C   UNL     1      29.879  24.221 -17.969  1.00  0.00     0.172 A 
ATOM     18  C   UNL     1      30.316  24.838 -16.773  1.00  0.00     0.205 A 
ATOM     19  C   UNL     1      28.722  24.712 -18.598  1.00  0.00     0.097 A 
ATOM     20  C   UNL     1      29.973  26.182 -16.585  1.00  0.00     0.188 A 
ATOM     21  C   UNL     1      28.159  25.933 -18.202  1.00  0.00     0.134 A 
ATOM     22  C   UNL     1      28.861  26.733 -17.265  1.00  0.00     0.111 A 
ATOM     23  O   UNL     1      30.757  26.939 -15.819  1.00  0.00    -0.452 OA
ATOM     24  C   UNL     1      28.584  28.098 -17.035  1.00  0.00     0.197 A 
ATOM     25  C   UNL     1      30.609  28.258 -15.711  1.00  0.00     0.138 A 
ATOM     26  C   UNL     1      29.443  28.856 -16.222  1.00  0.00     0.100 A 
ATOM     27  O   UNL     1      27.663  28.700 -17.636  1.00  0.00    -0.289 OA
BRANCH  18  28
ATOM     28  O   UNL     1      30.997  24.154 -15.765  1.00  0.00    -0.490 OA
ATOM     29  C   UNL     1      31.896  23.086 -16.113  1.00  0.00     0.278 C 
ENDBRANCH  18  28
BRANCH  21  30
ATOM     30  O   UNL     1      26.948  26.285 -18.806  1.00  0.00    -0.507 OA
ATOM     31  H   UNL     1      26.128  26.560 -18.302  1.00  0.00     0.293 HD
ENDBRANCH  21  30
BRANCH  25  32
ATOM     32  C   UNL     1      31.796  29.061 -15.294  1.00  0.00     0.017 A 
ATOM     33  C   UNL     1      32.243  28.980 -13.951  1.00  0.00     0.012 A 
ATOM     34  C   UNL     1      32.110  30.220 -16.034  1.00  0.00     0.012 A 
ATOM     35  C   UNL     1      32.720  30.125 -13.291  1.00  0.00     0.001 A 
ATOM     36  C   UNL     1      32.622  31.356 -15.379  1.00  0.00     0.001 A 
ATOM     37  C   UNL     1      32.871  31.327 -13.992  1.00  0.00     0.000 A 
ENDBRANCH  25  32
ENDBRANCH   1  17
TORSDOF 9
ENDMDL
MODEL 4
REMARK VINA RESULT:    -6.206      2.227      4.237
REMARK INTER + INTRA:         -10.016
REMARK INTER:                  -9.174
REMARK INTRA:                  -0.842
REMARK UNBOUND:                -1.271
REMARK SMILES COc1c(O[C@@H]2O[C@@H](C(=O)[O-])[C@@H](O)[C@H](O)[C@@H]2O)cc(O)c2c(=O)cc(-c3ccccc3)oc12
REMARK SMILES IDX 5 1 6 2 8 3 12 4 7 5 14 6 16 7 9 8 10 9 11 10 13 11 15 13
REMARK SMILES IDX 17 15 4 17 3 18 18 19 33 20 19 21 21 22 32 23 22 24 25 25
REMARK SMILES IDX 24 26 23 27 2 28 1 29 20 30 26 32 27 33 31 34 28 35 30 36
REMARK SMILES IDX 29 37
REMARK H PARENT 13 12 15 14 17 16 20 31
REMARK Flexibility Score: inf
ROOT
ATOM      1  O   UNL     1      29.884  25.618 -16.214  1.00  0.00    -0.458 OA
ENDROOT
BRANCH   1   2
ATOM      2  C   UNL     1      30.097  26.961 -15.707  1.00  0.00     0.339 C 
ATOM      3  C   UNL     1      29.984  29.255 -16.225  1.00  0.00     0.199 C 
ATOM      4  C   UNL     1      30.733  29.504 -14.869  1.00  0.00     0.180 C 
ATOM      5  O   UNL     1      30.085  27.926 -16.734  1.00  0.00    -0.328 OA
ATOM      6  C   UNL     1      31.921  28.525 -14.743  1.00  0.00     0.181 C 
ATOM      7  C   UNL     1      31.450  27.053 -14.924  1.00  0.00     0.214 C 
BRANCH   3   8
ATOM      8  C   UNL     1      28.544  29.723 -16.208  1.00  0.00     0.073 C 
ATOM      9  O   UNL     1      27.670  29.157 -16.919  1.00  0.00    -0.547 OA
ATOM     10  O   UNL     1      28.184  30.836 -15.453  1.00  0.00    -0.547 OA
ENDBRANCH   3   8
BRANCH   4  11
ATOM     11  O   UNL     1      29.888  29.348 -13.752  1.00  0.00    -0.387 OA
ATOM     12  H   UNL     1      30.012  30.138 -13.150  1.00  0.00     0.211 HD
ENDBRANCH   4  11
BRANCH   6  13
ATOM     13  O   UNL     1      32.930  28.846 -15.682  1.00  0.00    -0.387 OA
ATOM     14  H   UNL     1      33.528  28.075 -15.763  1.00  0.00     0.211 HD
ENDBRANCH   6  13
BRANCH   7  15
ATOM     15  O   UNL     1      32.425  26.332 -15.635  1.00  0.00    -0.384 OA
ATOM     16  H   UNL     1      33.224  26.919 -15.731  1.00  0.00     0.211 HD
ENDBRANCH   7  15
ENDBRANCH   1   2
BRANCH   1  17
ATOM     17  C   UNL     1      29.720  25.178 -17.545  1.00  0.00     0.172 A 
ATOM     18  C   UNL     1      30.221  23.957 -18.058  1.00  0.00     0.205 A 
ATOM     19  C   UNL     1      28.908  25.974 -18.371  1.00  0.00     0.097 A 
ATOM     20  C   UNL     1      29.473  23.331 -19.062  1.00  0.00     0.188 A 
ATOM     21  C   UNL     1      28.395  25.463 -19.571  1.00  0.00     0.134 A 
ATOM     22  C   UNL     1      28.584  24.088 -19.861  1.00  0.00     0.111 A 
ATOM     23  O   UNL     1      29.563  22.009 -19.193  1.00  0.00    -0.452 OA
ATOM     24  C   UNL     1      27.855  23.386 -20.846  1.00  0.00     0.197 A 
ATOM     25  C   UNL     1      28.775  21.306 -20.004  1.00  0.00     0.138 A 
ATOM     26  C   UNL     1      27.981  21.991 -20.942  1.00  0.00     0.100 A 
ATOM     27  O   UNL     1      26.994  23.948 -21.563  1.00  0.00    -0.289 OA
BRANCH  18  28
ATOM     28  O   UNL     1      31.440  23.404 -17.661  1.00  0.00    -0.490 OA
ATOM     29  C   UNL     1      31.502  22.606 -16.465  1.00  0.00     0.278 C 
ENDBRANCH  18  28
BRANCH  21  30
ATOM     30  O   UNL     1      27.692  26.362 -20.380  1.00  0.00    -0.507 OA
ATOM     31  H   UNL     1      28.120  27.099 -20.904  1.00  0.00     0.293 HD
ENDBRANCH  21  30
BRANCH  25  32
ATOM     32  C   UNL     1      28.576  19.858 -19.702  1.00  0.00     0.017 A 
ATOM     33  C   UNL     1      29.545  18.924 -20.148  1.00  0.00     0.012 A 
ATOM     34  C   UNL     1      27.263  19.399 -19.470  1.00  0.00     0.012 A 
ATOM     35  C   UNL     1      29.150  17.663 -20.624  1.00  0.00     0.001 A 
ATOM     36  C   UNL     1      26.875  18.121 -19.914  1.00  0.00     0.001 A 
ATOM     37  C   UNL     1      27.807  17.274 -20.548  1.00  0.00     0.000 A 
ENDBRANCH  25  32
ENDBRANCH   1  17
TORSDOF 9
ENDMDL
MODEL 5
REMARK VINA RESULT:    -6.138      1.792      3.452
REMARK INTER + INTRA:          -9.921
REMARK INTER:                  -8.842
REMARK INTRA:                  -1.079
REMARK UNBOUND:                -1.271
REMARK SMILES COc1c(O[C@@H]2O[C@@H](C(=O)[O-])[C@@H](O)[C@H](O)[C@@H]2O)cc(O)c2c(=O)cc(-c3ccccc3)oc12
REMARK SMILES IDX 5 1 6 2 8 3 12 4 7 5 14 6 16 7 9 8 10 9 11 10 13 11 15 13
REMARK SMILES IDX 17 15 4 17 3 18 18 19 33 20 19 21 21 22 32 23 22 24 25 25
REMARK SMILES IDX 24 26 23 27 2 28 1 29 20 30 26 32 27 33 31 34 28 35 30 36
REMARK SMILES IDX 29 37
REMARK H PARENT 13 12 15 14 17 16 20 31
REMARK Flexibility Score: inf
ROOT
ATOM      1  O   UNL     1      29.577  28.925 -16.692  1.00  0.00    -0.458 OA
ENDROOT
BRANCH   1   2
ATOM      2  C   UNL     1      29.680  30.043 -15.771  1.00  0.00     0.339 C 
ATOM      3  C   UNL     1      30.379  30.710 -13.624  1.00  0.00     0.199 C 
ATOM      4  C   UNL     1      29.655  32.071 -13.912  1.00  0.00     0.180 C 
ATOM      5  O   UNL     1      29.977  29.624 -14.458  1.00  0.00    -0.328 OA
ATOM      6  C   UNL     1      28.257  31.801 -14.512  1.00  0.00     0.181 C 
ATOM      7  C   UNL     1      28.358  30.881 -15.762  1.00  0.00     0.214 C 
BRANCH   3   8
ATOM      8  C   UNL     1      31.888  30.831 -13.582  1.00  0.00     0.073 C 
ATOM      9  O   UNL     1      32.627  29.898 -13.999  1.00  0.00    -0.547 OA
ATOM     10  O   UNL     1      32.479  31.956 -13.013  1.00  0.00    -0.547 OA
ENDBRANCH   3   8
BRANCH   4  11
ATOM     11  O   UNL     1      30.384  32.892 -14.795  1.00  0.00    -0.387 OA
ATOM     12  H   UNL     1      31.204  33.217 -14.321  1.00  0.00     0.211 HD
ENDBRANCH   4  11
BRANCH   6  13
ATOM     13  O   UNL     1      27.403  31.230 -13.539  1.00  0.00    -0.387 OA
ATOM     14  H   UNL     1      26.976  31.959 -13.043  1.00  0.00     0.211 HD
ENDBRANCH   6  13
BRANCH   7  15
ATOM     15  O   UNL     1      27.268  29.994 -15.782  1.00  0.00    -0.384 OA
ATOM     16  H   UNL     1      26.696  30.202 -14.993  1.00  0.00     0.211 HD
ENDBRANCH   7  15
ENDBRANCH   1   2
BRANCH   1  17
ATOM     17  C   UNL     1      29.801  27.551 -16.462  1.00  0.00     0.172 A 
ATOM     18  C   UNL     1      28.928  26.513 -16.867  1.00  0.00     0.205 A 
ATOM     19  C   UNL     1      31.036  27.207 -15.886  1.00  0.00     0.097 A 
ATOM     20  C   UNL     1      29.508  25.288 -17.214  1.00  0.00     0.188 A 
ATOM     21  C   UNL     1      31.505  25.887 -15.941  1.00  0.00     0.134 A 
ATOM     22  C   UNL     1      30.787  24.942 -16.717  1.00  0.00     0.111 A 
ATOM     23  O   UNL     1      28.867  24.500 -18.075  1.00  0.00    -0.452 OA
ATOM     24  C   UNL     1      31.313  23.695 -17.120  1.00  0.00     0.197 A 
ATOM     25  C   UNL     1      29.408  23.398 -18.591  1.00  0.00     0.138 A 
ATOM     26  C   UNL     1      30.601  22.901 -18.034  1.00  0.00     0.100 A 
ATOM     27  O   UNL     1      32.464  23.321 -16.790  1.00  0.00    -0.289 OA
BRANCH  18  28
ATOM     28  O   UNL     1      27.537  26.640 -16.863  1.00  0.00    -0.490 OA
ATOM     29  C   UNL     1      26.875  27.235 -17.993  1.00  0.00     0.278 C 
ENDBRANCH  18  28
BRANCH  21  30
ATOM     30  O   UNL     1      32.687  25.617 -15.244  1.00  0.00    -0.507 OA
ATOM     31  H   UNL     1      33.238  24.791 -15.371  1.00  0.00     0.293 HD
ENDBRANCH  21  30
BRANCH  25  32
ATOM     32  C   UNL     1      28.871  22.899 -19.890  1.00  0.00     0.017 A 
ATOM     33  C   UNL     1      27.467  22.861 -20.085  1.00  0.00     0.012 A 
ATOM     34  C   UNL     1      29.674  22.026 -20.653  1.00  0.00     0.012 A 
ATOM     35  C   UNL     1      26.875  21.798 -20.786  1.00  0.00     0.001 A 
ATOM     36  C   UNL     1      29.080  20.982 -21.386  1.00  0.00     0.001 A 
ATOM     37  C   UNL     1      27.678  20.831 -21.403  1.00  0.00     0.000 A 
ENDBRANCH  25  32
ENDBRANCH   1  17
TORSDOF 9
ENDMDL
MODEL 6
REMARK VINA RESULT:    -6.128      5.223     11.685
REMARK INTER + INTRA:          -9.907
REMARK INTER:                  -8.795
REMARK INTRA:                  -1.112
REMARK UNBOUND:                -1.271
REMARK SMILES COc1c(O[C@@H]2O[C@@H](C(=O)[O-])[C@@H](O)[C@H](O)[C@@H]2O)cc(O)c2c(=O)cc(-c3ccccc3)oc12
REMARK SMILES IDX 5 1 6 2 8 3 12 4 7 5 14 6 16 7 9 8 10 9 11 10 13 11 15 13
REMARK SMILES IDX 17 15 4 17 3 18 18 19 33 20 19 21 21 22 32 23 22 24 25 25
REMARK SMILES IDX 24 26 23 27 2 28 1 29 20 30 26 32 27 33 31 34 28 35 30 36
REMARK SMILES IDX 29 37
REMARK H PARENT 13 12 15 14 17 16 20 31
REMARK Flexibility Score: inf
ROOT
ATOM      1  O   UNL     1      29.175  18.828 -20.306  1.00  0.00    -0.458 OA
ENDROOT
BRANCH   1   2
ATOM      2  C   UNL     1      29.288  17.407 -20.581  1.00  0.00     0.339 C 
ATOM      3  C   UNL     1      30.078  15.799 -22.108  1.00  0.00     0.199 C 
ATOM      4  C   UNL     1      29.294  14.740 -21.257  1.00  0.00     0.180 C 
ATOM      5  O   UNL     1      29.669  17.152 -21.914  1.00  0.00    -0.328 OA
ATOM      6  C   UNL     1      27.876  15.269 -20.946  1.00  0.00     0.181 C 
ATOM      7  C   UNL     1      27.940  16.670 -20.275  1.00  0.00     0.214 C 
BRANCH   3   8
ATOM      8  C   UNL     1      31.582  15.665 -21.993  1.00  0.00     0.073 C 
ATOM      9  O   UNL     1      32.326  16.683 -21.983  1.00  0.00    -0.547 OA
ATOM     10  O   UNL     1      32.167  14.402 -21.965  1.00  0.00    -0.547 OA
ENDBRANCH   3   8
BRANCH   4  11
ATOM     11  O   UNL     1      29.946  14.433 -20.047  1.00  0.00    -0.387 OA
ATOM     12  H   UNL     1      30.807  14.943 -20.013  1.00  0.00     0.211 HD
ENDBRANCH   4  11
BRANCH   6  13
ATOM     13  O   UNL     1      27.094  15.314 -22.125  1.00  0.00    -0.387 OA
ATOM     14  H   UNL     1      26.579  16.147 -22.117  1.00  0.00     0.211 HD
ENDBRANCH   6  13
BRANCH   7  15
ATOM     15  O   UNL     1      26.883  17.466 -20.746  1.00  0.00    -0.384 OA
ATOM     16  H   UNL     1      27.280  18.257 -21.202  1.00  0.00     0.211 HD
ENDBRANCH   7  15
ENDBRANCH   1   2
BRANCH   1  17
ATOM     17  C   UNL     1      30.102  19.700 -19.696  1.00  0.00     0.172 A 
ATOM     18  C   UNL     1      30.131  21.103 -19.880  1.00  0.00     0.205 A 
ATOM     19  C   UNL     1      30.979  19.124 -18.761  1.00  0.00     0.097 A 
ATOM     20  C   UNL     1      30.558  21.881 -18.798  1.00  0.00     0.188 A 
ATOM     21  C   UNL     1      31.681  19.929 -17.853  1.00  0.00     0.134 A 
ATOM     22  C   UNL     1      31.377  21.312 -17.795  1.00  0.00     0.111 A 
ATOM     23  O   UNL     1      30.115  23.133 -18.699  1.00  0.00    -0.452 OA
ATOM     24  C   UNL     1      31.758  22.155 -16.727  1.00  0.00     0.197 A 
ATOM     25  C   UNL     1      30.331  23.895 -17.629  1.00  0.00     0.138 A 
ATOM     26  C   UNL     1      31.262  23.467 -16.665  1.00  0.00     0.100 A 
ATOM     27  O   UNL     1      32.427  21.734 -15.754  1.00  0.00    -0.289 OA
BRANCH  18  28
ATOM     28  O   UNL     1      29.826  21.720 -21.094  1.00  0.00    -0.490 OA
ATOM     29  C   UNL     1      28.504  22.243 -21.314  1.00  0.00     0.278 C 
ENDBRANCH  18  28
BRANCH  21  30
ATOM     30  O   UNL     1      32.614  19.279 -17.038  1.00  0.00    -0.507 OA
ATOM     31  H   UNL     1      32.377  18.594 -16.348  1.00  0.00     0.293 HD
ENDBRANCH  21  30
BRANCH  25  32
ATOM     32  C   UNL     1      29.391  25.026 -17.377  1.00  0.00     0.017 A 
ATOM     33  C   UNL     1      28.189  25.102 -18.126  1.00  0.00     0.012 A 
ATOM     34  C   UNL     1      29.911  26.216 -16.827  1.00  0.00     0.012 A 
ATOM     35  C   UNL     1      27.697  26.345 -18.556  1.00  0.00     0.001 A 
ATOM     36  C   UNL     1      29.394  27.462 -17.229  1.00  0.00     0.001 A 
ATOM     37  C   UNL     1      28.323  27.528 -18.143  1.00  0.00     0.000 A 
ENDBRANCH  25  32
ENDBRANCH   1  17
TORSDOF 9
ENDMDL
MODEL 7
REMARK VINA RESULT:    -6.112      3.102      6.119
REMARK INTER + INTRA:          -9.885
REMARK INTER:                  -8.727
REMARK INTRA:                  -1.158
REMARK UNBOUND:                -1.271
REMARK SMILES COc1c(O[C@@H]2O[C@@H](C(=O)[O-])[C@@H](O)[C@H](O)[C@@H]2O)cc(O)c2c(=O)cc(-c3ccccc3)oc12
REMARK SMILES IDX 5 1 6 2 8 3 12 4 7 5 14 6 16 7 9 8 10 9 11 10 13 11 15 13
REMARK SMILES IDX 17 15 4 17 3 18 18 19 33 20 19 21 21 22 32 23 22 24 25 25
REMARK SMILES IDX 24 26 23 27 2 28 1 29 20 30 26 32 27 33 31 34 28 35 30 36
REMARK SMILES IDX 29 37
REMARK H PARENT 13 12 15 14 17 16 20 31
REMARK Flexibility Score: inf
ROOT
ATOM      1  O   UNL     1      29.670  23.609 -17.583  1.00  0.00    -0.458 OA
ENDROOT
BRANCH   1   2
ATOM      2  C   UNL     1      29.536  25.029 -17.312  1.00  0.00     0.339 C 
ATOM      3  C   UNL     1      29.445  27.172 -18.281  1.00  0.00     0.199 C 
ATOM      4  C   UNL     1      29.541  27.736 -16.820  1.00  0.00     0.180 C 
ATOM      5  O   UNL     1      29.863  25.817 -18.434  1.00  0.00    -0.328 OA
ATOM      6  C   UNL     1      30.653  26.991 -16.047  1.00  0.00     0.181 C 
ATOM      7  C   UNL     1      30.431  25.453 -16.100  1.00  0.00     0.214 C 
BRANCH   3   8
ATOM      8  C   UNL     1      28.091  27.398 -18.922  1.00  0.00     0.073 C 
ATOM      9  O   UNL     1      27.376  28.385 -18.599  1.00  0.00    -0.547 OA
ATOM     10  O   UNL     1      27.589  26.471 -19.831  1.00  0.00    -0.547 OA
ENDBRANCH   3   8
BRANCH   4  11
ATOM     11  O   UNL     1      28.328  27.612 -16.115  1.00  0.00    -0.387 OA
ATOM     12  H   UNL     1      28.231  26.660 -15.818  1.00  0.00     0.211 HD
ENDBRANCH   4  11
BRANCH   6  13
ATOM     13  O   UNL     1      31.926  27.331 -16.562  1.00  0.00    -0.387 OA
ATOM     14  H   UNL     1      32.369  26.505 -16.848  1.00  0.00     0.211 HD
ENDBRANCH   6  13
BRANCH   7  15
ATOM     15  O   UNL     1      31.671  24.803 -16.214  1.00  0.00    -0.384 OA
ATOM     16  H   UNL     1      32.327  25.465 -16.564  1.00  0.00     0.211 HD
ENDBRANCH   7  15
ENDBRANCH   1   2
BRANCH   1  17
ATOM     17  C   UNL     1      29.541  22.912 -18.803  1.00  0.00     0.172 A 
ATOM     18  C   UNL     1      30.409  21.883 -19.240  1.00  0.00     0.205 A 
ATOM     19  C   UNL     1      28.400  23.205 -19.571  1.00  0.00     0.097 A 
ATOM     20  C   UNL     1      29.850  20.865 -20.021  1.00  0.00     0.188 A 
ATOM     21  C   UNL     1      27.992  22.341 -20.597  1.00  0.00     0.134 A 
ATOM     22  C   UNL     1      28.658  21.098 -20.745  1.00  0.00     0.111 A 
ATOM     23  O   UNL     1      30.422  19.662 -20.003  1.00  0.00    -0.452 OA
ATOM     24  C   UNL     1      28.147  20.019 -21.500  1.00  0.00     0.197 A 
ATOM     25  C   UNL     1      29.877  18.592 -20.577  1.00  0.00     0.138 A 
ATOM     26  C   UNL     1      28.783  18.769 -21.445  1.00  0.00     0.100 A 
ATOM     27  O   UNL     1      27.063  20.099 -22.125  1.00  0.00    -0.289 OA
BRANCH  18  28
ATOM     28  O   UNL     1      31.782  21.885 -18.990  1.00  0.00    -0.490 OA
ATOM     29  C   UNL     1      32.266  21.530 -17.682  1.00  0.00     0.278 C 
ENDBRANCH  18  28
BRANCH  21  30
ATOM     30  O   UNL     1      26.915  22.770 -21.379  1.00  0.00    -0.507 OA
ATOM     31  H   UNL     1      26.149  23.312 -21.032  1.00  0.00     0.293 HD
ENDBRANCH  21  30
BRANCH  25  32
ATOM     32  C   UNL     1      30.280  17.247 -20.073  1.00  0.00     0.017 A 
ATOM     33  C   UNL     1      31.622  17.038 -19.667  1.00  0.00     0.012 A 
ATOM     34  C   UNL     1      29.524  16.128 -20.479  1.00  0.00     0.012 A 
ATOM     35  C   UNL     1      32.266  15.820 -19.939  1.00  0.00     0.001 A 
ATOM     36  C   UNL     1      30.162  14.896 -20.718  1.00  0.00     0.001 A 
ATOM     37  C   UNL     1      31.548  14.759 -20.505  1.00  0.00     0.000 A 
ENDBRANCH  25  32
ENDBRANCH   1  17
TORSDOF 9
ENDMDL
MODEL 8
REMARK VINA RESULT:    -6.076      5.411     11.695
REMARK INTER + INTRA:          -9.833
REMARK INTER:                  -8.757
REMARK INTRA:                  -1.076
REMARK UNBOUND:                -1.271
REMARK SMILES COc1c(O[C@@H]2O[C@@H](C(=O)[O-])[C@@H](O)[C@H](O)[C@@H]2O)cc(O)c2c(=O)cc(-c3ccccc3)oc12
REMARK SMILES IDX 5 1 6 2 8 3 12 4 7 5 14 6 16 7 9 8 10 9 11 10 13 11 15 13
REMARK SMILES IDX 17 15 4 17 3 18 18 19 33 20 19 21 21 22 32 23 22 24 25 25
REMARK SMILES IDX 24 26 23 27 2 28 1 29 20 30 26 32 27 33 31 34 28 35 30 36
REMARK SMILES IDX 29 37
REMARK H PARENT 13 12 15 14 17 16 20 31
REMARK Flexibility Score: inf
ROOT
ATOM      1  O   UNL     1      30.605  17.849 -19.339  1.00  0.00    -0.458 OA
ENDROOT
BRANCH   1   2
ATOM      2  C   UNL     1      31.405  16.647 -19.491  1.00  0.00     0.339 C 
ATOM      3  C   UNL     1      33.518  15.680 -19.111  1.00  0.00     0.199 C 
ATOM      4  C   UNL     1      33.024  14.479 -19.991  1.00  0.00     0.180 C 
ATOM      5  O   UNL     1      32.776  16.888 -19.268  1.00  0.00    -0.328 OA
ATOM      6  C   UNL     1      32.342  15.017 -21.269  1.00  0.00     0.181 C 
ATOM      7  C   UNL     1      31.212  16.024 -20.914  1.00  0.00     0.214 C 
BRANCH   3   8
ATOM      8  C   UNL     1      33.673  15.325 -17.647  1.00  0.00     0.073 C 
ATOM      9  O   UNL     1      33.732  16.223 -16.764  1.00  0.00    -0.547 OA
ATOM     10  O   UNL     1      33.823  13.994 -17.267  1.00  0.00    -0.547 OA
ENDBRANCH   3   8
BRANCH   4  11
ATOM     11  O   UNL     1      32.121  13.644 -19.304  1.00  0.00    -0.387 OA
ATOM     12  H   UNL     1      31.189  13.941 -19.520  1.00  0.00     0.211 HD
ENDBRANCH   4  11
BRANCH   6  13
ATOM     13  O   UNL     1      33.296  15.616 -22.125  1.00  0.00    -0.387 OA
ATOM     14  H   UNL     1      33.815  14.903 -22.551  1.00  0.00     0.211 HD
ENDBRANCH   6  13
BRANCH   7  15
ATOM     15  O   UNL     1      31.197  17.065 -21.857  1.00  0.00    -0.384 OA
ATOM     16  H   UNL     1      32.074  17.535 -21.801  1.00  0.00     0.211 HD
ENDBRANCH   7  15
ENDBRANCH   1   2
BRANCH   1  17
ATOM     17  C   UNL     1      31.013  19.164 -19.030  1.00  0.00     0.172 A 
ATOM     18  C   UNL     1      30.706  20.307 -19.806  1.00  0.00     0.205 A 
ATOM     19  C   UNL     1      31.677  19.340 -17.803  1.00  0.00     0.097 A 
ATOM     20  C   UNL     1      30.538  21.518 -19.123  1.00  0.00     0.188 A 
ATOM     21  C   UNL     1      31.806  20.617 -17.240  1.00  0.00     0.134 A 
ATOM     22  C   UNL     1      31.127  21.701 -17.849  1.00  0.00     0.111 A 
ATOM     23  O   UNL     1      29.757  22.451 -19.663  1.00  0.00    -0.452 OA
ATOM     24  C   UNL     1      30.903  22.943 -17.216  1.00  0.00     0.197 A 
ATOM     25  C   UNL     1      29.405  23.562 -19.019  1.00  0.00     0.138 A 
ATOM     26  C   UNL     1      30.068  23.895 -17.823  1.00  0.00     0.100 A 
ATOM     27  O   UNL     1      31.323  23.185 -16.059  1.00  0.00    -0.289 OA
BRANCH  18  28
ATOM     28  O   UNL     1      30.638  20.288 -21.200  1.00  0.00    -0.490 OA
ATOM     29  C   UNL     1      29.409  19.913 -21.846  1.00  0.00     0.278 C 
ENDBRANCH  18  28
BRANCH  21  30
ATOM     30  O   UNL     1      32.579  20.708 -16.077  1.00  0.00    -0.507 OA
ATOM     31  H   UNL     1      32.232  20.526 -15.156  1.00  0.00     0.293 HD
ENDBRANCH  21  30
BRANCH  25  32
ATOM     32  C   UNL     1      28.157  24.256 -19.454  1.00  0.00     0.017 A 
ATOM     33  C   UNL     1      27.876  24.361 -20.840  1.00  0.00     0.012 A 
ATOM     34  C   UNL     1      27.583  25.204 -18.583  1.00  0.00     0.012 A 
ATOM     35  C   UNL     1      27.297  25.529 -21.361  1.00  0.00     0.001 A 
ATOM     36  C   UNL     1      26.968  26.358 -19.104  1.00  0.00     0.001 A 
ATOM     37  C   UNL     1      26.879  26.550 -20.497  1.00  0.00     0.000 A 
ENDBRANCH  25  32
ENDBRANCH   1  17
TORSDOF 9
ENDMDL
MODEL 9
REMARK VINA RESULT:    -5.985      1.475      3.110
REMARK INTER + INTRA:          -9.705
REMARK INTER:                  -8.784
REMARK INTRA:                  -0.921
REMARK UNBOUND:                -1.271
REMARK SMILES COc1c(O[C@@H]2O[C@@H](C(=O)[O-])[C@@H](O)[C@H](O)[C@@H]2O)cc(O)c2c(=O)cc(-c3ccccc3)oc12
REMARK SMILES IDX 5 1 6 2 8 3 12 4 7 5 14 6 16 7 9 8 10 9 11 10 13 11 15 13
REMARK SMILES IDX 17 15 4 17 3 18 18 19 33 20 19 21 21 22 32 23 22 24 25 25
REMARK SMILES IDX 24 26 23 27 2 28 1 29 20 30 26 32 27 33 31 34 28 35 30 36
REMARK SMILES IDX 29 37
REMARK H PARENT 13 12 15 14 17 16 20 31
REMARK Flexibility Score: inf
ROOT
ATOM      1  O   UNL     1      29.800  26.946 -15.682  1.00  0.00    -0.458 OA
ENDROOT
BRANCH   1   2
ATOM      2  C   UNL     1      30.165  28.251 -15.161  1.00  0.00     0.339 C 
ATOM      3  C   UNL     1      29.930  30.575 -15.454  1.00  0.00     0.199 C 
ATOM      4  C   UNL     1      31.042  30.732 -14.359  1.00  0.00     0.180 C 
ATOM      5  O   UNL     1      29.865  29.288 -16.067  1.00  0.00    -0.328 OA
ATOM      6  C   UNL     1      32.206  29.760 -14.655  1.00  0.00     0.181 C 
ATOM      7  C   UNL     1      31.688  28.301 -14.800  1.00  0.00     0.214 C 
BRANCH   3   8
ATOM      8  C   UNL     1      28.561  31.024 -14.986  1.00  0.00     0.073 C 
ATOM      9  O   UNL     1      27.513  30.596 -15.541  1.00  0.00    -0.547 OA
ATOM     10  O   UNL     1      28.450  31.974 -13.975  1.00  0.00    -0.547 OA
ENDBRANCH   3   8
BRANCH   4  11
ATOM     11  O   UNL     1      30.556  30.486 -13.060  1.00  0.00    -0.387 OA
ATOM     12  H   UNL     1      29.855  31.169 -12.849  1.00  0.00     0.211 HD
ENDBRANCH   4  11
BRANCH   6  13
ATOM     13  O   UNL     1      32.902  30.162 -15.820  1.00  0.00    -0.387 OA
ATOM     14  H   UNL     1      33.840  30.310 -15.579  1.00  0.00     0.211 HD
ENDBRANCH   6  13
BRANCH   7  15
ATOM     15  O   UNL     1      32.406  27.646 -15.814  1.00  0.00    -0.384 OA
ATOM     16  H   UNL     1      32.841  26.847 -15.406  1.00  0.00     0.211 HD
ENDBRANCH   7  15
ENDBRANCH   1   2
BRANCH   1  17
ATOM     17  C   UNL     1      29.651  26.525 -17.021  1.00  0.00     0.172 A 
ATOM     18  C   UNL     1      30.282  25.389 -17.583  1.00  0.00     0.205 A 
ATOM     19  C   UNL     1      28.722  27.235 -17.800  1.00  0.00     0.097 A 
ATOM     20  C   UNL     1      29.587  24.703 -18.586  1.00  0.00     0.188 A 
ATOM     21  C   UNL     1      28.240  26.697 -19.001  1.00  0.00     0.134 A 
ATOM     22  C   UNL     1      28.588  25.365 -19.337  1.00  0.00     0.111 A 
ATOM     23  O   UNL     1      29.835  23.406 -18.759  1.00  0.00    -0.452 OA
ATOM     24  C   UNL     1      27.921  24.604 -20.323  1.00  0.00     0.197 A 
ATOM     25  C   UNL     1      29.114  22.633 -19.569  1.00  0.00     0.138 A 
ATOM     26  C   UNL     1      28.214  23.238 -20.465  1.00  0.00     0.100 A 
ATOM     27  O   UNL     1      26.976  25.074 -20.999  1.00  0.00    -0.289 OA
BRANCH  18  28
ATOM     28  O   UNL     1      31.571  24.981 -17.236  1.00  0.00    -0.490 OA
ATOM     29  C   UNL     1      31.748  23.951 -16.248  1.00  0.00     0.278 C 
ENDBRANCH  18  28
BRANCH  21  30
ATOM     30  O   UNL     1      27.408  27.524 -19.763  1.00  0.00    -0.507 OA
ATOM     31  H   UNL     1      27.505  27.663 -20.749  1.00  0.00     0.293 HD
ENDBRANCH  21  30
BRANCH  25  32
ATOM     32  C   UNL     1      29.105  21.164 -19.306  1.00  0.00     0.017 A 
ATOM     33  C   UNL     1      30.173  20.590 -18.571  1.00  0.00     0.012 A 
ATOM     34  C   UNL     1      28.376  20.334 -20.183  1.00  0.00     0.012 A 
ATOM     35  C   UNL     1      30.677  19.326 -18.919  1.00  0.00     0.001 A 
ATOM     36  C   UNL     1      28.860  19.052 -20.504  1.00  0.00     0.001 A 
ATOM     37  C   UNL     1      30.047  18.570 -19.916  1.00  0.00     0.000 A 
ENDBRANCH  25  32
ENDBRANCH   1  17
TORSDOF 9
ENDMDL
