MODEL 1
REMARK VINA RESULT:    -6.259      0.000      0.000
REMARK INTER + INTRA:          -7.701
REMARK INTER:                  -7.539
REMARK INTRA:                  -0.162
REMARK UNBOUND:                -0.162
REMARK SMILES Oc1cc(O)c2cc(O)c(-c3ccc(O)c(O)c3)[o+]c2c1.[Cl-]
REMARK SMILES IDX 10 1 19 2 20 3 21 4 2 5 3 6 4 7 6 8 7 9 8 10 11 11 12 12
REMARK SMILES IDX 13 13 14 14 18 15 16 16 15 17 17 19 9 21 1 23 5 25
REMARK H PARENT 15 18 17 20 9 22 1 24 5 26
REMARK Flexibility Score: inf
ROOT
ATOM      1  C   UNL     1      -7.436  14.377  -2.785  1.00  0.00     0.402 A 
ATOM      2  O   UNL     1      -7.451  15.069  -3.921  1.00  0.00    -0.202 OA
ATOM      3  C   UNL     1      -7.524  14.501  -5.121  1.00  0.00     0.368 A 
ATOM      4  C   UNL     1      -7.531  15.313  -6.258  1.00  0.00     0.162 A 
ATOM      5  C   UNL     1      -7.603  14.745  -7.530  1.00  0.00     0.128 A 
ATOM      6  C   UNL     1      -7.668  13.354  -7.669  1.00  0.00     0.093 A 
ATOM      7  C   UNL     1      -7.661  12.518  -6.546  1.00  0.00     0.136 A 
ATOM      8  C   UNL     1      -7.591  13.093  -5.250  1.00  0.00     0.125 A 
ATOM      9  C   UNL     1      -7.592  12.335  -4.068  1.00  0.00     0.078 A 
ATOM     10  C   UNL     1      -7.526  12.973  -2.825  1.00  0.00     0.223 A 
ENDROOT
BRANCH   1  11
ATOM     11  C   UNL     1      -7.342  15.125  -1.511  1.00  0.00     0.087 A 
ATOM     12  C   UNL     1      -8.354  16.014  -1.108  1.00  0.00     0.022 A 
ATOM     13  C   UNL     1      -8.255  16.692   0.110  1.00  0.00     0.051 A 
ATOM     14  C   UNL     1      -7.153  16.481   0.950  1.00  0.00     0.157 A 
ATOM     15  C   UNL     1      -6.251  14.902  -0.656  1.00  0.00     0.068 A 
ATOM     16  C   UNL     1      -6.148  15.579   0.565  1.00  0.00     0.158 A 
BRANCH  14  17
ATOM     17  O   UNL     1      -7.058  17.159   2.163  1.00  0.00    -0.504 OA
ATOM     18  H   UNL     1      -6.625  18.073   2.228  1.00  0.00     0.293 HD
ENDBRANCH  14  17
BRANCH  16  19
ATOM     19  O   UNL     1      -5.042  15.340   1.380  1.00  0.00    -0.504 OA
ATOM     20  H   UNL     1      -4.225  14.844   1.045  1.00  0.00     0.293 HD
ENDBRANCH  16  19
ENDBRANCH   1  11
BRANCH  10  21
ATOM     21  O   UNL     1      -7.577  12.223  -1.650  1.00  0.00    -0.500 OA
ATOM     22  H   UNL     1      -6.940  11.454  -1.480  1.00  0.00     0.294 HD
ENDBRANCH  10  21
BRANCH   5  23
ATOM     23  O   UNL     1      -7.611  15.572  -8.651  1.00  0.00    -0.507 OA
ATOM     24  H   UNL     1      -7.895  15.227  -9.561  1.00  0.00     0.293 HD
ENDBRANCH   5  23
BRANCH   7  25
ATOM     25  O   UNL     1      -7.725  11.140  -6.768  1.00  0.00    -0.507 OA
ATOM     26  H   UNL     1      -7.279  10.447  -6.184  1.00  0.00     0.293 HD
ENDBRANCH   7  25
TORSDOF 6
ENDMDL
MODEL 2
REMARK VINA RESULT:    -6.091      1.831      7.174
REMARK INTER + INTRA:          -7.499
REMARK INTER:                  -7.551
REMARK INTRA:                   0.052
REMARK UNBOUND:                -0.162
REMARK SMILES Oc1cc(O)c2cc(O)c(-c3ccc(O)c(O)c3)[o+]c2c1.[Cl-]
REMARK SMILES IDX 10 1 19 2 20 3 21 4 2 5 3 6 4 7 6 8 7 9 8 10 11 11 12 12
REMARK SMILES IDX 13 13 14 14 18 15 16 16 15 17 17 19 9 21 1 23 5 25
REMARK H PARENT 15 18 17 20 9 22 1 24 5 26
REMARK Flexibility Score: inf
ROOT
ATOM      1  C   UNL     1      -7.759  15.311  -2.577  1.00  0.00     0.402 A 
ATOM      2  O   UNL     1      -7.350  14.397  -1.702  1.00  0.00    -0.202 OA
ATOM      3  C   UNL     1      -7.384  14.580  -0.386  1.00  0.00     0.368 A 
ATOM      4  C   UNL     1      -6.929  13.560   0.454  1.00  0.00     0.162 A 
ATOM      5  C   UNL     1      -6.950  13.726   1.840  1.00  0.00     0.128 A 
ATOM      6  C   UNL     1      -7.428  14.920   2.391  1.00  0.00     0.093 A 
ATOM      7  C   UNL     1      -7.888  15.957   1.571  1.00  0.00     0.136 A 
ATOM      8  C   UNL     1      -7.871  15.791   0.161  1.00  0.00     0.125 A 
ATOM      9  C   UNL     1      -8.325  16.771  -0.737  1.00  0.00     0.078 A 
ATOM     10  C   UNL     1      -8.282  16.532  -2.114  1.00  0.00     0.223 A 
ENDROOT
BRANCH   1  11
ATOM     11  C   UNL     1      -7.662  14.991  -4.020  1.00  0.00     0.087 A 
ATOM     12  C   UNL     1      -8.719  15.271  -4.905  1.00  0.00     0.022 A 
ATOM     13  C   UNL     1      -8.596  14.981  -6.266  1.00  0.00     0.051 A 
ATOM     14  C   UNL     1      -7.412  14.422  -6.767  1.00  0.00     0.157 A 
ATOM     15  C   UNL     1      -6.471  14.450  -4.530  1.00  0.00     0.068 A 
ATOM     16  C   UNL     1      -6.345  14.158  -5.893  1.00  0.00     0.158 A 
BRANCH  14  17
ATOM     17  O   UNL     1      -7.293  14.134  -8.124  1.00  0.00    -0.504 OA
ATOM     18  H   UNL     1      -7.554  14.808  -8.835  1.00  0.00     0.293 HD
ENDBRANCH  14  17
BRANCH  16  19
ATOM     19  O   UNL     1      -5.150  13.609  -6.360  1.00  0.00    -0.504 OA
ATOM     20  H   UNL     1      -4.303  13.613  -5.803  1.00  0.00     0.293 HD
ENDBRANCH  16  19
ENDBRANCH   1  11
BRANCH  10  21
ATOM     21  O   UNL     1      -8.779  17.485  -3.005  1.00  0.00    -0.500 OA
ATOM     22  H   UNL     1      -9.164  17.222  -3.904  1.00  0.00     0.294 HD
ENDBRANCH  10  21
BRANCH   5  23
ATOM     23  O   UNL     1      -6.493  12.697   2.660  1.00  0.00    -0.507 OA
ATOM     24  H   UNL     1      -6.271  11.781   2.287  1.00  0.00     0.293 HD
ENDBRANCH   5  23
BRANCH   7  25
ATOM     25  O   UNL     1      -8.345  17.120   2.198  1.00  0.00    -0.507 OA
ATOM     26  H   UNL     1      -8.363  18.032   1.766  1.00  0.00     0.293 HD
ENDBRANCH   7  25
TORSDOF 6
ENDMDL
MODEL 3
REMARK VINA RESULT:    -6.060      3.232      8.477
REMARK INTER + INTRA:          -7.462
REMARK INTER:                  -7.272
REMARK INTRA:                  -0.190
REMARK UNBOUND:                -0.162
REMARK SMILES Oc1cc(O)c2cc(O)c(-c3ccc(O)c(O)c3)[o+]c2c1.[Cl-]
REMARK SMILES IDX 10 1 19 2 20 3 21 4 2 5 3 6 4 7 6 8 7 9 8 10 11 11 12 12
REMARK SMILES IDX 13 13 14 14 18 15 16 16 15 17 17 19 9 21 1 23 5 25
REMARK H PARENT 15 18 17 20 9 22 1 24 5 26
REMARK Flexibility Score: inf
ROOT
ATOM      1  C   UNL     1      -7.561  16.058   1.354  1.00  0.00     0.402 A 
ATOM      2  O   UNL     1      -7.187  17.171   1.979  1.00  0.00    -0.202 OA
ATOM      3  C   UNL     1      -6.886  17.216   3.272  1.00  0.00     0.368 A 
ATOM      4  C   UNL     1      -6.507  18.435   3.839  1.00  0.00     0.162 A 
ATOM      5  C   UNL     1      -6.188  18.513   5.196  1.00  0.00     0.128 A 
ATOM      6  C   UNL     1      -6.250  17.365   5.993  1.00  0.00     0.093 A 
ATOM      7  C   UNL     1      -6.629  16.132   5.449  1.00  0.00     0.136 A 
ATOM      8  C   UNL     1      -6.950  16.048   4.069  1.00  0.00     0.125 A 
ATOM      9  C   UNL     1      -7.327  14.853   3.435  1.00  0.00     0.078 A 
ATOM     10  C   UNL     1      -7.625  14.847   2.069  1.00  0.00     0.223 A 
ENDROOT
BRANCH   1  11
ATOM     11  C   UNL     1      -7.879  16.138  -0.091  1.00  0.00     0.087 A 
ATOM     12  C   UNL     1      -8.964  16.899  -0.560  1.00  0.00     0.022 A 
ATOM     13  C   UNL     1      -9.231  16.979  -1.930  1.00  0.00     0.051 A 
ATOM     14  C   UNL     1      -8.411  16.313  -2.850  1.00  0.00     0.157 A 
ATOM     15  C   UNL     1      -7.048  15.490  -1.019  1.00  0.00     0.068 A 
ATOM     16  C   UNL     1      -7.313  15.567  -2.391  1.00  0.00     0.158 A 
BRANCH  14  17
ATOM     17  O   UNL     1      -8.681  16.393  -4.215  1.00  0.00    -0.504 OA
ATOM     18  H   UNL     1      -8.775  15.562  -4.787  1.00  0.00     0.293 HD
ENDBRANCH  14  17
BRANCH  16  19
ATOM     19  O   UNL     1      -6.473  14.898  -3.281  1.00  0.00    -0.504 OA
ATOM     20  H   UNL     1      -6.562  15.001  -4.285  1.00  0.00     0.293 HD
ENDBRANCH  16  19
ENDBRANCH   1  11
BRANCH  10  21
ATOM     21  O   UNL     1      -7.950  13.651   1.428  1.00  0.00    -0.500 OA
ATOM     22  H   UNL     1      -7.244  13.078   0.981  1.00  0.00     0.294 HD
ENDBRANCH  10  21
BRANCH   5  23
ATOM     23  O   UNL     1      -5.811  19.738   5.743  1.00  0.00    -0.507 OA
ATOM     24  H   UNL     1      -4.948  19.841   6.264  1.00  0.00     0.293 HD
ENDBRANCH   5  23
BRANCH   7  25
ATOM     25  O   UNL     1      -6.671  15.033   6.311  1.00  0.00    -0.507 OA
ATOM     26  H   UNL     1      -6.297  14.120   6.092  1.00  0.00     0.293 HD
ENDBRANCH   7  25
TORSDOF 6
ENDMDL
MODEL 4
REMARK VINA RESULT:    -6.000      1.730      1.853
REMARK INTER + INTRA:          -7.390
REMARK INTER:                  -7.144
REMARK INTRA:                  -0.246
REMARK UNBOUND:                -0.162
REMARK SMILES Oc1cc(O)c2cc(O)c(-c3ccc(O)c(O)c3)[o+]c2c1.[Cl-]
REMARK SMILES IDX 10 1 19 2 20 3 21 4 2 5 3 6 4 7 6 8 7 9 8 10 11 11 12 12
REMARK SMILES IDX 13 13 14 14 18 15 16 16 15 17 17 19 9 21 1 23 5 25
REMARK H PARENT 15 18 17 20 9 22 1 24 5 26
REMARK Flexibility Score: inf
ROOT
ATOM      1  C   UNL     1      -8.439  15.114  -2.013  1.00  0.00     0.402 A 
ATOM      2  O   UNL     1      -7.827  15.387  -3.162  1.00  0.00    -0.202 OA
ATOM      3  C   UNL     1      -8.267  14.962  -4.342  1.00  0.00     0.368 A 
ATOM      4  C   UNL     1      -7.553  15.299  -5.495  1.00  0.00     0.162 A 
ATOM      5  C   UNL     1      -7.988  14.864  -6.747  1.00  0.00     0.128 A 
ATOM      6  C   UNL     1      -9.146  14.084  -6.849  1.00  0.00     0.093 A 
ATOM      7  C   UNL     1      -9.878  13.732  -5.709  1.00  0.00     0.136 A 
ATOM      8  C   UNL     1      -9.440  14.176  -4.434  1.00  0.00     0.125 A 
ATOM      9  C   UNL     1     -10.117  13.882  -3.240  1.00  0.00     0.078 A 
ATOM     10  C   UNL     1      -9.627  14.359  -2.020  1.00  0.00     0.223 A 
ENDROOT
BRANCH   1  11
ATOM     11  C   UNL     1      -7.845  15.638  -0.761  1.00  0.00     0.087 A 
ATOM     12  C   UNL     1      -8.467  16.666  -0.031  1.00  0.00     0.022 A 
ATOM     13  C   UNL     1      -7.899  17.130   1.159  1.00  0.00     0.051 A 
ATOM     14  C   UNL     1      -6.713  16.563   1.645  1.00  0.00     0.157 A 
ATOM     15  C   UNL     1      -6.668  15.060  -0.259  1.00  0.00     0.068 A 
ATOM     16  C   UNL     1      -6.097  15.521   0.932  1.00  0.00     0.158 A 
BRANCH  14  17
ATOM     17  O   UNL     1      -6.150  17.027   2.832  1.00  0.00    -0.504 OA
ATOM     18  H   UNL     1      -6.653  16.983   3.711  1.00  0.00     0.293 HD
ENDBRANCH  14  17
BRANCH  16  19
ATOM     19  O   UNL     1      -4.920  14.931   1.392  1.00  0.00    -0.504 OA
ATOM     20  H   UNL     1      -4.391  15.318   2.165  1.00  0.00     0.293 HD
ENDBRANCH  16  19
ENDBRANCH   1  11
BRANCH  10  21
ATOM     21  O   UNL     1     -10.326  14.110  -0.839  1.00  0.00    -0.500 OA
ATOM     22  H   UNL     1      -9.849  13.877   0.024  1.00  0.00     0.294 HD
ENDBRANCH  10  21
BRANCH   5  23
ATOM     23  O   UNL     1      -7.264  15.212  -7.885  1.00  0.00    -0.507 OA
ATOM     24  H   UNL     1      -6.491  14.645  -8.214  1.00  0.00     0.293 HD
ENDBRANCH   5  23
BRANCH   7  25
ATOM     25  O   UNL     1     -11.020  12.948  -5.895  1.00  0.00    -0.507 OA
ATOM     26  H   UNL     1     -11.205  12.084  -5.405  1.00  0.00     0.293 HD
ENDBRANCH   7  25
TORSDOF 6
ENDMDL
MODEL 5
REMARK VINA RESULT:    -5.950      1.213      2.526
REMARK INTER + INTRA:          -7.329
REMARK INTER:                  -7.171
REMARK INTRA:                  -0.157
REMARK UNBOUND:                -0.162
REMARK SMILES Oc1cc(O)c2cc(O)c(-c3ccc(O)c(O)c3)[o+]c2c1.[Cl-]
REMARK SMILES IDX 10 1 19 2 20 3 21 4 2 5 3 6 4 7 6 8 7 9 8 10 11 11 12 12
REMARK SMILES IDX 13 13 14 14 18 15 16 16 15 17 17 19 9 21 1 23 5 25
REMARK H PARENT 15 18 17 20 9 22 1 24 5 26
REMARK Flexibility Score: inf
ROOT
ATOM      1  C   UNL     1      -7.770  15.144  -2.678  1.00  0.00     0.402 A 
ATOM      2  O   UNL     1      -7.351  13.991  -3.191  1.00  0.00    -0.202 OA
ATOM      3  C   UNL     1      -7.425  13.697  -4.485  1.00  0.00     0.368 A 
ATOM      4  C   UNL     1      -6.960  12.457  -4.928  1.00  0.00     0.162 A 
ATOM      5  C   UNL     1      -7.028  12.119  -6.281  1.00  0.00     0.128 A 
ATOM      6  C   UNL     1      -7.566  13.029  -7.199  1.00  0.00     0.093 A 
ATOM      7  C   UNL     1      -8.040  14.278  -6.780  1.00  0.00     0.136 A 
ATOM      8  C   UNL     1      -7.969  14.625  -5.405  1.00  0.00     0.125 A 
ATOM      9  C   UNL     1      -8.407  15.859  -4.897  1.00  0.00     0.078 A 
ATOM     10  C   UNL     1      -8.300  16.131  -3.529  1.00  0.00     0.223 A 
ENDROOT
BRANCH   1  11
ATOM     11  C   UNL     1      -7.642  15.349  -1.217  1.00  0.00     0.087 A 
ATOM     12  C   UNL     1      -8.760  15.645  -0.418  1.00  0.00     0.022 A 
ATOM     13  C   UNL     1      -8.619  15.812   0.962  1.00  0.00     0.051 A 
ATOM     14  C   UNL     1      -7.362  15.670   1.566  1.00  0.00     0.157 A 
ATOM     15  C   UNL     1      -6.389  15.188  -0.604  1.00  0.00     0.068 A 
ATOM     16  C   UNL     1      -6.243  15.354   0.778  1.00  0.00     0.158 A 
BRANCH  14  17
ATOM     17  O   UNL     1      -7.224  15.837   2.942  1.00  0.00    -0.504 OA
ATOM     18  H   UNL     1      -7.200  15.045   3.574  1.00  0.00     0.293 HD
ENDBRANCH  14  17
BRANCH  16  19
ATOM     19  O   UNL     1      -4.980  15.199   1.349  1.00  0.00    -0.504 OA
ATOM     20  H   UNL     1      -4.135  15.192   0.790  1.00  0.00     0.293 HD
ENDBRANCH  16  19
ENDBRANCH   1  11
BRANCH  10  21
ATOM     21  O   UNL     1      -8.689  17.376  -3.032  1.00  0.00    -0.500 OA
ATOM     22  H   UNL     1      -8.011  18.050  -2.696  1.00  0.00     0.294 HD
ENDBRANCH  10  21
BRANCH   5  23
ATOM     23  O   UNL     1      -6.558  10.878  -6.703  1.00  0.00    -0.507 OA
ATOM     24  H   UNL     1      -5.568  10.700  -6.824  1.00  0.00     0.293 HD
ENDBRANCH   5  23
BRANCH   7  25
ATOM     25  O   UNL     1      -8.566  15.128  -7.757  1.00  0.00    -0.507 OA
ATOM     26  H   UNL     1      -8.281  15.129  -8.726  1.00  0.00     0.293 HD
ENDBRANCH   7  25
TORSDOF 6
ENDMDL
MODEL 6
REMARK VINA RESULT:    -5.921      2.031      2.193
REMARK INTER + INTRA:          -7.294
REMARK INTER:                  -6.963
REMARK INTRA:                  -0.331
REMARK UNBOUND:                -0.162
REMARK SMILES Oc1cc(O)c2cc(O)c(-c3ccc(O)c(O)c3)[o+]c2c1.[Cl-]
REMARK SMILES IDX 10 1 19 2 20 3 21 4 2 5 3 6 4 7 6 8 7 9 8 10 11 11 12 12
REMARK SMILES IDX 13 13 14 14 18 15 16 16 15 17 17 19 9 21 1 23 5 25
REMARK H PARENT 15 18 17 20 9 22 1 24 5 26
REMARK Flexibility Score: inf
ROOT
ATOM      1  C   UNL     1      -8.471  14.309  -3.100  1.00  0.00     0.402 A 
ATOM      2  O   UNL     1      -7.961  14.638  -4.284  1.00  0.00    -0.202 OA
ATOM      3  C   UNL     1      -8.604  14.454  -5.432  1.00  0.00     0.368 A 
ATOM      4  C   UNL     1      -7.983  14.828  -6.626  1.00  0.00     0.162 A 
ATOM      5  C   UNL     1      -8.632  14.644  -7.848  1.00  0.00     0.128 A 
ATOM      6  C   UNL     1      -9.912  14.079  -7.877  1.00  0.00     0.093 A 
ATOM      7  C   UNL     1     -10.555  13.694  -6.695  1.00  0.00     0.136 A 
ATOM      8  C   UNL     1      -9.899  13.884  -5.450  1.00  0.00     0.125 A 
ATOM      9  C   UNL     1     -10.472  13.540  -4.216  1.00  0.00     0.078 A 
ATOM     10  C   UNL     1      -9.766  13.761  -3.029  1.00  0.00     0.223 A 
ENDROOT
BRANCH   1  11
ATOM     11  C   UNL     1      -7.652  14.556  -1.891  1.00  0.00     0.087 A 
ATOM     12  C   UNL     1      -7.832  15.710  -1.108  1.00  0.00     0.022 A 
ATOM     13  C   UNL     1      -7.062  15.911   0.041  1.00  0.00     0.051 A 
ATOM     14  C   UNL     1      -6.114  14.955   0.434  1.00  0.00     0.157 A 
ATOM     15  C   UNL     1      -6.716  13.593  -1.482  1.00  0.00     0.068 A 
ATOM     16  C   UNL     1      -5.944  13.790  -0.331  1.00  0.00     0.158 A 
BRANCH  14  17
ATOM     17  O   UNL     1      -5.349  15.159   1.580  1.00  0.00    -0.504 OA
ATOM     18  H   UNL     1      -4.788  15.994   1.702  1.00  0.00     0.293 HD
ENDBRANCH  14  17
BRANCH  16  19
ATOM     19  O   UNL     1      -5.015  12.817   0.035  1.00  0.00    -0.504 OA
ATOM     20  H   UNL     1      -4.741  12.672   1.000  1.00  0.00     0.293 HD
ENDBRANCH  16  19
ENDBRANCH   1  11
BRANCH  10  21
ATOM     21  O   UNL     1     -10.354  13.467  -1.799  1.00  0.00    -0.500 OA
ATOM     22  H   UNL     1     -10.605  14.195  -1.141  1.00  0.00     0.294 HD
ENDBRANCH  10  21
BRANCH   5  23
ATOM     23  O   UNL     1      -7.996  15.025  -9.027  1.00  0.00    -0.507 OA
ATOM     24  H   UNL     1      -7.814  15.999  -9.239  1.00  0.00     0.293 HD
ENDBRANCH   5  23
BRANCH   7  25
ATOM     25  O   UNL     1     -11.831  13.134  -6.809  1.00  0.00    -0.507 OA
ATOM     26  H   UNL     1     -12.034  12.272  -7.294  1.00  0.00     0.293 HD
ENDBRANCH   7  25
TORSDOF 6
ENDMDL
MODEL 7
REMARK VINA RESULT:    -5.826      2.309      7.768
REMARK INTER + INTRA:          -7.179
REMARK INTER:                  -6.826
REMARK INTRA:                  -0.353
REMARK UNBOUND:                -0.162
REMARK SMILES Oc1cc(O)c2cc(O)c(-c3ccc(O)c(O)c3)[o+]c2c1.[Cl-]
REMARK SMILES IDX 10 1 19 2 20 3 21 4 2 5 3 6 4 7 6 8 7 9 8 10 11 11 12 12
REMARK SMILES IDX 13 13 14 14 18 15 16 16 15 17 17 19 9 21 1 23 5 25
REMARK H PARENT 15 18 17 20 9 22 1 24 5 26
REMARK Flexibility Score: inf
ROOT
ATOM      1  C   UNL     1      -8.100  15.740  -0.680  1.00  0.00     0.402 A 
ATOM      2  O   UNL     1      -9.094  16.323  -0.016  1.00  0.00    -0.202 OA
ATOM      3  C   UNL     1      -8.962  16.819   1.210  1.00  0.00     0.368 A 
ATOM      4  C   UNL     1     -10.067  17.411   1.826  1.00  0.00     0.162 A 
ATOM      5  C   UNL     1      -9.959  17.936   3.115  1.00  0.00     0.128 A 
ATOM      6  C   UNL     1      -8.737  17.869   3.794  1.00  0.00     0.093 A 
ATOM      7  C   UNL     1      -7.616  17.279   3.199  1.00  0.00     0.136 A 
ATOM      8  C   UNL     1      -7.722  16.747   1.887  1.00  0.00     0.125 A 
ATOM      9  C   UNL     1      -6.647  16.150   1.208  1.00  0.00     0.078 A 
ATOM     10  C   UNL     1      -6.827  15.651  -0.087  1.00  0.00     0.223 A 
ENDROOT
BRANCH   1  11
ATOM     11  C   UNL     1      -8.375  15.219  -2.038  1.00  0.00     0.087 A 
ATOM     12  C   UNL     1      -8.785  13.890  -2.243  1.00  0.00     0.022 A 
ATOM     13  C   UNL     1      -9.061  13.427  -3.533  1.00  0.00     0.051 A 
ATOM     14  C   UNL     1      -8.947  14.287  -4.633  1.00  0.00     0.157 A 
ATOM     15  C   UNL     1      -8.282  16.082  -3.142  1.00  0.00     0.068 A 
ATOM     16  C   UNL     1      -8.558  15.622  -4.435  1.00  0.00     0.158 A 
BRANCH  14  17
ATOM     17  O   UNL     1      -9.222  13.822  -5.918  1.00  0.00    -0.504 OA
ATOM     18  H   UNL     1      -8.824  12.958  -6.266  1.00  0.00     0.293 HD
ENDBRANCH  14  17
BRANCH  16  19
ATOM     19  O   UNL     1      -8.441  16.506  -5.507  1.00  0.00    -0.504 OA
ATOM     20  H   UNL     1      -9.250  16.950  -5.928  1.00  0.00     0.293 HD
ENDBRANCH  16  19
ENDBRANCH   1  11
BRANCH  10  21
ATOM     21  O   UNL     1      -5.748  15.104  -0.782  1.00  0.00    -0.500 OA
ATOM     22  H   UNL     1      -4.790  15.276  -0.499  1.00  0.00     0.294 HD
ENDBRANCH  10  21
BRANCH   5  23
ATOM     23  O   UNL     1     -11.072  18.524   3.712  1.00  0.00    -0.507 OA
ATOM     24  H   UNL     1     -11.992  18.105   3.643  1.00  0.00     0.293 HD
ENDBRANCH   5  23
BRANCH   7  25
ATOM     25  O   UNL     1      -6.433  17.247   3.944  1.00  0.00    -0.507 OA
ATOM     26  H   UNL     1      -5.699  16.565   3.819  1.00  0.00     0.293 HD
ENDBRANCH   7  25
TORSDOF 6
ENDMDL
MODEL 8
REMARK VINA RESULT:    -5.815      1.883      6.876
REMARK INTER + INTRA:          -7.166
REMARK INTER:                  -6.845
REMARK INTRA:                  -0.321
REMARK UNBOUND:                -0.162
REMARK SMILES Oc1cc(O)c2cc(O)c(-c3ccc(O)c(O)c3)[o+]c2c1.[Cl-]
REMARK SMILES IDX 10 1 19 2 20 3 21 4 2 5 3 6 4 7 6 8 7 9 8 10 11 11 12 12
REMARK SMILES IDX 13 13 14 14 18 15 16 16 15 17 17 19 9 21 1 23 5 25
REMARK H PARENT 15 18 17 20 9 22 1 24 5 26
REMARK Flexibility Score: inf
ROOT
ATOM      1  C   UNL     1      -7.621  14.585  -2.070  1.00  0.00     0.402 A 
ATOM      2  O   UNL     1      -7.153  15.565  -1.302  1.00  0.00    -0.202 OA
ATOM      3  C   UNL     1      -7.160  15.518   0.026  1.00  0.00     0.368 A 
ATOM      4  C   UNL     1      -6.648  16.601   0.747  1.00  0.00     0.162 A 
ATOM      5  C   UNL     1      -6.645  16.581   2.142  1.00  0.00     0.128 A 
ATOM      6  C   UNL     1      -7.159  15.473   2.824  1.00  0.00     0.093 A 
ATOM      7  C   UNL     1      -7.680  14.377   2.125  1.00  0.00     0.136 A 
ATOM      8  C   UNL     1      -7.680  14.392   0.706  1.00  0.00     0.125 A 
ATOM      9  C   UNL     1      -8.169  13.333  -0.077  1.00  0.00     0.078 A 
ATOM     10  C   UNL     1      -8.132  13.418  -1.472  1.00  0.00     0.223 A 
ENDROOT
BRANCH   1  11
ATOM     11  C   UNL     1      -7.566  14.760  -3.539  1.00  0.00     0.087 A 
ATOM     12  C   UNL     1      -8.524  15.529  -4.222  1.00  0.00     0.022 A 
ATOM     13  C   UNL     1      -8.438  15.698  -5.607  1.00  0.00     0.051 A 
ATOM     14  C   UNL     1      -7.387  15.115  -6.327  1.00  0.00     0.157 A 
ATOM     15  C   UNL     1      -6.503  14.194  -4.263  1.00  0.00     0.068 A 
ATOM     16  C   UNL     1      -6.414  14.361  -5.650  1.00  0.00     0.158 A 
BRANCH  14  17
ATOM     17  O   UNL     1      -7.305  15.284  -7.707  1.00  0.00    -0.504 OA
ATOM     18  H   UNL     1      -7.209  16.203  -8.124  1.00  0.00     0.293 HD
ENDBRANCH  14  17
BRANCH  16  19
ATOM     19  O   UNL     1      -5.351  13.773  -6.336  1.00  0.00    -0.504 OA
ATOM     20  H   UNL     1      -5.415  13.526  -7.316  1.00  0.00     0.293 HD
ENDBRANCH  16  19
ENDBRANCH   1  11
BRANCH  10  21
ATOM     21  O   UNL     1      -8.570  12.346  -2.251  1.00  0.00    -0.500 OA
ATOM     22  H   UNL     1      -8.917  11.491  -1.832  1.00  0.00     0.294 HD
ENDBRANCH  10  21
BRANCH   5  23
ATOM     23  O   UNL     1      -6.129  17.669   2.843  1.00  0.00    -0.507 OA
ATOM     24  H   UNL     1      -6.447  17.896   3.778  1.00  0.00     0.293 HD
ENDBRANCH   5  23
BRANCH   7  25
ATOM     25  O   UNL     1      -8.178  13.310   2.879  1.00  0.00    -0.507 OA
ATOM     26  H   UNL     1      -8.103  13.237   3.883  1.00  0.00     0.293 HD
ENDBRANCH   7  25
TORSDOF 6
ENDMDL
MODEL 9
REMARK VINA RESULT:    -5.652      2.293      7.785
REMARK INTER + INTRA:          -6.971
REMARK INTER:                  -6.639
REMARK INTRA:                  -0.332
REMARK UNBOUND:                -0.162
REMARK SMILES Oc1cc(O)c2cc(O)c(-c3ccc(O)c(O)c3)[o+]c2c1.[Cl-]
REMARK SMILES IDX 10 1 19 2 20 3 21 4 2 5 3 6 4 7 6 8 7 9 8 10 11 11 12 12
REMARK SMILES IDX 13 13 14 14 18 15 16 16 15 17 17 19 9 21 1 23 5 25
REMARK H PARENT 15 18 17 20 9 22 1 24 5 26
REMARK Flexibility Score: inf
ROOT
ATOM      1  C   UNL     1      -8.616  15.887  -0.765  1.00  0.00     0.402 A 
ATOM      2  O   UNL     1      -7.629  16.367  -0.014  1.00  0.00    -0.202 OA
ATOM      3  C   UNL     1      -7.817  16.882   1.196  1.00  0.00     0.368 A 
ATOM      4  C   UNL     1      -6.716  17.365   1.908  1.00  0.00     0.162 A 
ATOM      5  C   UNL     1      -6.883  17.914   3.180  1.00  0.00     0.128 A 
ATOM      6  C   UNL     1      -8.161  17.982   3.746  1.00  0.00     0.093 A 
ATOM      7  C   UNL     1      -9.281  17.506   3.053  1.00  0.00     0.136 A 
ATOM      8  C   UNL     1      -9.113  16.944   1.760  1.00  0.00     0.125 A 
ATOM      9  C   UNL     1     -10.176  16.431   0.999  1.00  0.00     0.078 A 
ATOM     10  C   UNL     1      -9.932  15.888  -0.267  1.00  0.00     0.223 A 
ENDROOT
BRANCH   1  11
ATOM     11  C   UNL     1      -8.280  15.347  -2.103  1.00  0.00     0.087 A 
ATOM     12  C   UNL     1      -7.814  14.031  -2.265  1.00  0.00     0.022 A 
ATOM     13  C   UNL     1      -7.524  13.536  -3.540  1.00  0.00     0.051 A 
ATOM     14  C   UNL     1      -7.711  14.343  -4.671  1.00  0.00     0.157 A 
ATOM     15  C   UNL     1      -8.485  16.144  -3.241  1.00  0.00     0.068 A 
ATOM     16  C   UNL     1      -8.196  15.652  -4.519  1.00  0.00     0.158 A 
BRANCH  14  17
ATOM     17  O   UNL     1      -7.421  13.847  -5.940  1.00  0.00    -0.504 OA
ATOM     18  H   UNL     1      -6.653  13.204  -6.096  1.00  0.00     0.293 HD
ENDBRANCH  14  17
BRANCH  16  19
ATOM     19  O   UNL     1      -8.400  16.478  -5.625  1.00  0.00    -0.504 OA
ATOM     20  H   UNL     1      -8.644  17.457  -5.526  1.00  0.00     0.293 HD
ENDBRANCH  16  19
ENDBRANCH   1  11
BRANCH  10  21
ATOM     21  O   UNL     1     -10.979  15.332  -1.003  1.00  0.00    -0.500 OA
ATOM     22  H   UNL     1     -11.835  15.019  -0.559  1.00  0.00     0.294 HD
ENDBRANCH  10  21
BRANCH   5  23
ATOM     23  O   UNL     1      -5.773  18.389   3.874  1.00  0.00    -0.507 OA
ATOM     24  H   UNL     1      -5.825  18.626   4.858  1.00  0.00     0.293 HD
ENDBRANCH   5  23
BRANCH   7  25
ATOM     25  O   UNL     1     -10.523  17.614   3.685  1.00  0.00    -0.507 OA
ATOM     26  H   UNL     1     -10.648  17.802   4.669  1.00  0.00     0.293 HD
ENDBRANCH   7  25
TORSDOF 6
ENDMDL
