MODEL 1
REMARK VINA RESULT:    -4.101      0.000      0.000
REMARK INTER + INTRA:         -12.684
REMARK INTER:                  -9.375
REMARK INTRA:                  -3.309
REMARK UNBOUND:                -3.309
REMARK SMILES CCCCCCCCCCCCCCCCCCCCCCCC(=O)[O-]
REMARK SMILES IDX 13 1 14 2 15 3 16 4 17 5 18 6 19 7 20 8 21 9 22 10 23 11
REMARK SMILES IDX 24 12 25 13 26 14 12 15 11 16 10 17 9 18 8 19 7 20 6 21 5 22
REMARK SMILES IDX 4 23 3 24 2 25 1 26
REMARK H PARENT
REMARK Flexibility Score: inf
ROOT
ATOM      1  C   UNL     1       2.807  25.903 110.764  1.00  0.00     0.000 C 
ENDROOT
BRANCH   1   2
ATOM      2  C   UNL     1       3.477  27.086 110.054  1.00  0.00     0.000 C 
BRANCH   2   3
ATOM      3  C   UNL     1       3.025  28.421 110.659  1.00  0.00     0.000 C 
BRANCH   3   4
ATOM      4  C   UNL     1       1.740  28.922 109.985  1.00  0.00     0.000 C 
BRANCH   4   5
ATOM      5  C   UNL     1       0.727  29.505 110.988  1.00  0.00     0.000 C 
BRANCH   5   6
ATOM      6  C   UNL     1       1.251  30.685 111.832  1.00  0.00     0.000 C 
BRANCH   6   7
ATOM      7  C   UNL     1       1.452  30.380 113.331  1.00  0.00     0.000 C 
BRANCH   7   8
ATOM      8  C   UNL     1       2.809  30.830 113.907  1.00  0.00     0.000 C 
BRANCH   8   9
ATOM      9  C   UNL     1       3.945  30.971 112.874  1.00  0.00     0.000 C 
BRANCH   9  10
ATOM     10  C   UNL     1       5.365  30.798 113.441  1.00  0.00     0.006 C 
BRANCH  10  11
ATOM     11  C   UNL     1       5.404  30.833 114.973  1.00  0.00     0.053 C 
BRANCH  11  12
ATOM     12  C   UNL     1       6.661  31.489 115.451  1.00  0.00     0.041 C 
ATOM     13  O   UNL     1       6.712  31.996 116.602  1.00  0.00    -0.550 OA
ATOM     14  O   UNL     1       7.762  31.581 114.608  1.00  0.00    -0.550 OA
ENDBRANCH  11  12
ENDBRANCH  10  11
ENDBRANCH   9  10
ENDBRANCH   8   9
ENDBRANCH   7   8
ENDBRANCH   6   7
ENDBRANCH   5   6
ENDBRANCH   4   5
ENDBRANCH   3   4
ENDBRANCH   2   3
ENDBRANCH   1   2
BRANCH   1  15
ATOM     15  C   UNL     1       2.332  26.303 112.168  1.00  0.00     0.000 C 
BRANCH  15  16
ATOM     16  C   UNL     1       2.746  25.285 113.244  1.00  0.00     0.000 C 
BRANCH  16  17
ATOM     17  C   UNL     1       3.558  25.933 114.381  1.00  0.00     0.000 C 
BRANCH  17  18
ATOM     18  C   UNL     1       4.245  27.239 113.943  1.00  0.00    -0.000 C 
BRANCH  18  19
ATOM     19  C   UNL     1       5.790  27.176 113.962  1.00  0.00    -0.000 C 
BRANCH  19  20
ATOM     20  C   UNL     1       6.380  26.069 113.065  1.00  0.00    -0.000 C 
BRANCH  20  21
ATOM     21  C   UNL     1       6.646  26.485 111.606  1.00  0.00    -0.000 C 
BRANCH  21  22
ATOM     22  C   UNL     1       7.876  25.824 110.955  1.00  0.00    -0.000 C 
BRANCH  22  23
ATOM     23  C   UNL     1       8.153  26.344 109.534  1.00  0.00    -0.000 C 
BRANCH  23  24
ATOM     24  C   UNL     1       7.988  25.252 108.465  1.00  0.00    -0.000 C 
BRANCH  24  25
ATOM     25  C   UNL     1       7.387  25.793 107.158  1.00  0.00    -0.003 C 
ATOM     26  C   UNL     1       6.232  26.749 107.439  1.00  0.00     0.004 C 
ENDBRANCH  24  25
ENDBRANCH  23  24
ENDBRANCH  22  23
ENDBRANCH  21  22
ENDBRANCH  20  21
ENDBRANCH  19  20
ENDBRANCH  18  19
ENDBRANCH  17  18
ENDBRANCH  16  17
ENDBRANCH  15  16
ENDBRANCH   1  15
TORSDOF 22
ENDMDL
MODEL 2
REMARK VINA RESULT:    -4.066      1.937      4.346
REMARK INTER + INTRA:         -12.604
REMARK INTER:                  -8.673
REMARK INTRA:                  -3.931
REMARK UNBOUND:                -3.309
REMARK SMILES CCCCCCCCCCCCCCCCCCCCCCCC(=O)[O-]
REMARK SMILES IDX 13 1 14 2 15 3 16 4 17 5 18 6 19 7 20 8 21 9 22 10 23 11
REMARK SMILES IDX 24 12 25 13 26 14 12 15 11 16 10 17 9 18 8 19 7 20 6 21 5 22
REMARK SMILES IDX 4 23 3 24 2 25 1 26
REMARK H PARENT
REMARK Flexibility Score: inf
ROOT
ATOM      1  C   UNL     1       0.577  24.099 113.443  1.00  0.00     0.000 C 
ENDROOT
BRANCH   1   2
ATOM      2  C   UNL     1       0.899  22.966 114.425  1.00  0.00     0.000 C 
BRANCH   2   3
ATOM      3  C   UNL     1       1.861  21.949 113.799  1.00  0.00     0.000 C 
BRANCH   3   4
ATOM      4  C   UNL     1       3.271  22.092 114.390  1.00  0.00     0.000 C 
BRANCH   4   5
ATOM      5  C   UNL     1       4.099  23.193 113.703  1.00  0.00     0.000 C 
BRANCH   5   6
ATOM      6  C   UNL     1       5.151  23.875 114.602  1.00  0.00     0.000 C 
BRANCH   6   7
ATOM      7  C   UNL     1       5.113  25.417 114.599  1.00  0.00     0.000 C 
BRANCH   7   8
ATOM      8  C   UNL     1       3.890  26.037 115.302  1.00  0.00     0.000 C 
BRANCH   8   9
ATOM      9  C   UNL     1       3.982  27.555 115.557  1.00  0.00     0.000 C 
BRANCH   9  10
ATOM     10  C   UNL     1       5.294  28.213 115.093  1.00  0.00     0.006 C 
BRANCH  10  11
ATOM     11  C   UNL     1       5.141  28.983 113.776  1.00  0.00     0.053 C 
BRANCH  11  12
ATOM     12  C   UNL     1       5.599  30.398 113.940  1.00  0.00     0.041 C 
ATOM     13  O   UNL     1       6.758  30.733 113.581  1.00  0.00    -0.550 OA
ATOM     14  O   UNL     1       4.763  31.337 114.533  1.00  0.00    -0.550 OA
ENDBRANCH  11  12
ENDBRANCH  10  11
ENDBRANCH   9  10
ENDBRANCH   8   9
ENDBRANCH   7   8
ENDBRANCH   6   7
ENDBRANCH   5   6
ENDBRANCH   4   5
ENDBRANCH   3   4
ENDBRANCH   2   3
ENDBRANCH   1   2
BRANCH   1  15
ATOM     15  C   UNL     1       0.383  25.430 114.184  1.00  0.00     0.000 C 
BRANCH  15  16
ATOM     16  C   UNL     1       0.952  26.628 113.405  1.00  0.00     0.000 C 
BRANCH  16  17
ATOM     17  C   UNL     1       1.909  26.192 112.280  1.00  0.00     0.000 C 
BRANCH  17  18
ATOM     18  C   UNL     1       2.618  27.385 111.614  1.00  0.00    -0.000 C 
BRANCH  18  19
ATOM     19  C   UNL     1       3.883  27.001 110.812  1.00  0.00    -0.000 C 
BRANCH  19  20
ATOM     20  C   UNL     1       4.276  25.516 110.943  1.00  0.00    -0.000 C 
BRANCH  20  21
ATOM     21  C   UNL     1       5.789  25.252 111.065  1.00  0.00    -0.000 C 
BRANCH  21  22
ATOM     22  C   UNL     1       6.646  26.498 111.357  1.00  0.00    -0.000 C 
BRANCH  22  23
ATOM     23  C   UNL     1       7.571  26.876 110.187  1.00  0.00    -0.000 C 
BRANCH  23  24
ATOM     24  C   UNL     1       8.199  25.647 109.512  1.00  0.00    -0.000 C 
BRANCH  24  25
ATOM     25  C   UNL     1       7.826  25.536 108.026  1.00  0.00    -0.003 C 
ATOM     26  C   UNL     1       6.718  26.520 107.662  1.00  0.00     0.004 C 
ENDBRANCH  24  25
ENDBRANCH  23  24
ENDBRANCH  22  23
ENDBRANCH  21  22
ENDBRANCH  20  21
ENDBRANCH  19  20
ENDBRANCH  18  19
ENDBRANCH  17  18
ENDBRANCH  16  17
ENDBRANCH  15  16
ENDBRANCH   1  15
TORSDOF 22
ENDMDL
MODEL 3
REMARK VINA RESULT:    -4.060      1.960      4.548
REMARK INTER + INTRA:         -12.590
REMARK INTER:                  -8.032
REMARK INTRA:                  -4.558
REMARK UNBOUND:                -3.309
REMARK SMILES CCCCCCCCCCCCCCCCCCCCCCCC(=O)[O-]
REMARK SMILES IDX 13 1 14 2 15 3 16 4 17 5 18 6 19 7 20 8 21 9 22 10 23 11
REMARK SMILES IDX 24 12 25 13 26 14 12 15 11 16 10 17 9 18 8 19 7 20 6 21 5 22
REMARK SMILES IDX 4 23 3 24 2 25 1 26
REMARK H PARENT
REMARK Flexibility Score: inf
ROOT
ATOM      1  C   UNL     1       4.361  24.912 111.547  1.00  0.00     0.000 C 
ENDROOT
BRANCH   1   2
ATOM      2  C   UNL     1       5.389  26.048 111.483  1.00  0.00     0.000 C 
BRANCH   2   3
ATOM      3  C   UNL     1       4.716  27.382 111.140  1.00  0.00     0.000 C 
BRANCH   3   4
ATOM      4  C   UNL     1       3.309  27.157 110.566  1.00  0.00     0.000 C 
BRANCH   4   5
ATOM      5  C   UNL     1       2.616  28.467 110.149  1.00  0.00     0.000 C 
BRANCH   5   6
ATOM      6  C   UNL     1       1.402  28.866 111.014  1.00  0.00     0.000 C 
BRANCH   6   7
ATOM      7  C   UNL     1       1.519  30.235 111.714  1.00  0.00     0.000 C 
BRANCH   7   8
ATOM      8  C   UNL     1       2.437  30.255 112.952  1.00  0.00     0.000 C 
BRANCH   8   9
ATOM      9  C   UNL     1       3.750  31.044 112.780  1.00  0.00     0.000 C 
BRANCH   9  10
ATOM     10  C   UNL     1       5.005  30.351 113.341  1.00  0.00     0.006 C 
BRANCH  10  11
ATOM     11  C   UNL     1       5.475  30.955 114.670  1.00  0.00     0.053 C 
BRANCH  11  12
ATOM     12  C   UNL     1       6.852  31.522 114.529  1.00  0.00     0.041 C 
ATOM     13  O   UNL     1       7.457  31.446 113.428  1.00  0.00    -0.550 OA
ATOM     14  O   UNL     1       7.485  32.094 115.626  1.00  0.00    -0.550 OA
ENDBRANCH  11  12
ENDBRANCH  10  11
ENDBRANCH   9  10
ENDBRANCH   8   9
ENDBRANCH   7   8
ENDBRANCH   6   7
ENDBRANCH   5   6
ENDBRANCH   4   5
ENDBRANCH   3   4
ENDBRANCH   2   3
ENDBRANCH   1   2
BRANCH   1  15
ATOM     15  C   UNL     1       4.951  23.676 112.244  1.00  0.00     0.000 C 
BRANCH  15  16
ATOM     16  C   UNL     1       4.571  23.600 113.732  1.00  0.00     0.000 C 
BRANCH  16  17
ATOM     17  C   UNL     1       3.606  22.438 114.031  1.00  0.00     0.000 C 
BRANCH  17  18
ATOM     18  C   UNL     1       2.300  22.912 114.692  1.00  0.00    -0.000 C 
BRANCH  18  19
ATOM     19  C   UNL     1       1.106  23.034 113.717  1.00  0.00    -0.000 C 
BRANCH  19  20
ATOM     20  C   UNL     1       0.404  24.406 113.759  1.00  0.00    -0.000 C 
BRANCH  20  21
ATOM     21  C   UNL     1       1.177  25.553 113.081  1.00  0.00    -0.000 C 
BRANCH  21  22
ATOM     22  C   UNL     1       1.507  26.746 113.999  1.00  0.00    -0.000 C 
BRANCH  22  23
ATOM     23  C   UNL     1       3.008  26.862 114.315  1.00  0.00    -0.000 C 
BRANCH  23  24
ATOM     24  C   UNL     1       3.344  26.426 115.749  1.00  0.00    -0.000 C 
BRANCH  24  25
ATOM     25  C   UNL     1       4.748  26.869 116.187  1.00  0.00    -0.003 C 
ATOM     26  C   UNL     1       5.668  27.047 114.983  1.00  0.00     0.004 C 
ENDBRANCH  24  25
ENDBRANCH  23  24
ENDBRANCH  22  23
ENDBRANCH  21  22
ENDBRANCH  20  21
ENDBRANCH  19  20
ENDBRANCH  18  19
ENDBRANCH  17  18
ENDBRANCH  16  17
ENDBRANCH  15  16
ENDBRANCH   1  15
TORSDOF 22
ENDMDL
MODEL 4
REMARK VINA RESULT:    -4.055      2.508      7.061
REMARK INTER + INTRA:         -12.580
REMARK INTER:                  -7.773
REMARK INTRA:                  -4.807
REMARK UNBOUND:                -3.309
REMARK SMILES CCCCCCCCCCCCCCCCCCCCCCCC(=O)[O-]
REMARK SMILES IDX 13 1 14 2 15 3 16 4 17 5 18 6 19 7 20 8 21 9 22 10 23 11
REMARK SMILES IDX 24 12 25 13 26 14 12 15 11 16 10 17 9 18 8 19 7 20 6 21 5 22
REMARK SMILES IDX 4 23 3 24 2 25 1 26
REMARK H PARENT
REMARK Flexibility Score: inf
ROOT
ATOM      1  C   UNL     1       5.261  29.011 114.004  1.00  0.00     0.000 C 
ENDROOT
BRANCH   1   2
ATOM      2  C   UNL     1       5.633  27.532 114.160  1.00  0.00     0.000 C 
BRANCH   2   3
ATOM      3  C   UNL     1       5.116  26.969 115.489  1.00  0.00     0.000 C 
BRANCH   3   4
ATOM      4  C   UNL     1       4.332  25.667 115.266  1.00  0.00     0.000 C 
BRANCH   4   5
ATOM      5  C   UNL     1       2.959  25.900 114.610  1.00  0.00     0.000 C 
BRANCH   5   6
ATOM      6  C   UNL     1       2.699  25.077 113.331  1.00  0.00     0.000 C 
BRANCH   6   7
ATOM      7  C   UNL     1       2.871  25.851 112.008  1.00  0.00     0.000 C 
BRANCH   7   8
ATOM      8  C   UNL     1       4.157  25.520 111.225  1.00  0.00     0.000 C 
BRANCH   8   9
ATOM      9  C   UNL     1       4.986  24.352 111.795  1.00  0.00     0.000 C 
BRANCH   9  10
ATOM     10  C   UNL     1       6.435  24.270 111.280  1.00  0.00     0.006 C 
BRANCH  10  11
ATOM     11  C   UNL     1       7.378  25.245 111.996  1.00  0.00     0.053 C 
BRANCH  11  12
ATOM     12  C   UNL     1       7.852  26.303 111.052  1.00  0.00     0.041 C 
ATOM     13  O   UNL     1       7.373  27.466 111.113  1.00  0.00    -0.550 OA
ATOM     14  O   UNL     1       8.790  25.995 110.073  1.00  0.00    -0.550 OA
ENDBRANCH  11  12
ENDBRANCH  10  11
ENDBRANCH   9  10
ENDBRANCH   8   9
ENDBRANCH   7   8
ENDBRANCH   6   7
ENDBRANCH   5   6
ENDBRANCH   4   5
ENDBRANCH   3   4
ENDBRANCH   2   3
ENDBRANCH   1   2
BRANCH   1  15
ATOM     15  C   UNL     1       4.006  29.174 113.134  1.00  0.00     0.000 C 
BRANCH  15  16
ATOM     16  C   UNL     1       3.825  30.613 112.622  1.00  0.00     0.000 C 
BRANCH  16  17
ATOM     17  C   UNL     1       2.912  30.682 111.384  1.00  0.00     0.000 C 
BRANCH  17  18
ATOM     18  C   UNL     1       2.689  29.303 110.738  1.00  0.00    -0.000 C 
BRANCH  18  19
ATOM     19  C   UNL     1       1.204  28.880 110.649  1.00  0.00    -0.000 C 
BRANCH  19  20
ATOM     20  C   UNL     1       0.225  29.918 111.232  1.00  0.00    -0.000 C 
BRANCH  20  21
ATOM     21  C   UNL     1      -0.404  29.533 112.584  1.00  0.00    -0.000 C 
BRANCH  21  22
ATOM     22  C   UNL     1       0.321  28.402 113.340  1.00  0.00    -0.000 C 
BRANCH  22  23
ATOM     23  C   UNL     1       0.685  28.786 114.784  1.00  0.00    -0.000 C 
BRANCH  23  24
ATOM     24  C   UNL     1       0.954  30.290 114.945  1.00  0.00    -0.000 C 
BRANCH  24  25
ATOM     25  C   UNL     1       1.895  30.599 116.119  1.00  0.00    -0.003 C 
ATOM     26  C   UNL     1       2.588  29.334 116.615  1.00  0.00     0.004 C 
ENDBRANCH  24  25
ENDBRANCH  23  24
ENDBRANCH  22  23
ENDBRANCH  21  22
ENDBRANCH  20  21
ENDBRANCH  19  20
ENDBRANCH  18  19
ENDBRANCH  17  18
ENDBRANCH  16  17
ENDBRANCH  15  16
ENDBRANCH   1  15
TORSDOF 22
ENDMDL
MODEL 5
REMARK VINA RESULT:    -4.032      1.409      2.454
REMARK INTER + INTRA:         -12.527
REMARK INTER:                  -9.644
REMARK INTRA:                  -2.883
REMARK UNBOUND:                -3.309
REMARK SMILES CCCCCCCCCCCCCCCCCCCCCCCC(=O)[O-]
REMARK SMILES IDX 13 1 14 2 15 3 16 4 17 5 18 6 19 7 20 8 21 9 22 10 23 11
REMARK SMILES IDX 24 12 25 13 26 14 12 15 11 16 10 17 9 18 8 19 7 20 6 21 5 22
REMARK SMILES IDX 4 23 3 24 2 25 1 26
REMARK H PARENT
REMARK Flexibility Score: inf
ROOT
ATOM      1  C   UNL     1       1.247  25.442 114.006  1.00  0.00     0.000 C 
ENDROOT
BRANCH   1   2
ATOM      2  C   UNL     1       2.257  26.432 113.413  1.00  0.00     0.000 C 
BRANCH   2   3
ATOM      3  C   UNL     1       2.065  26.577 111.899  1.00  0.00     0.000 C 
BRANCH   3   4
ATOM      4  C   UNL     1       3.419  26.680 111.181  1.00  0.00     0.000 C 
BRANCH   4   5
ATOM      5  C   UNL     1       3.415  27.716 110.042  1.00  0.00     0.000 C 
BRANCH   5   6
ATOM      6  C   UNL     1       2.194  28.660 110.023  1.00  0.00     0.000 C 
BRANCH   6   7
ATOM      7  C   UNL     1       2.410  30.022 110.713  1.00  0.00     0.000 C 
BRANCH   7   8
ATOM      8  C   UNL     1       1.471  30.301 111.904  1.00  0.00     0.000 C 
BRANCH   8   9
ATOM      9  C   UNL     1       2.127  31.024 113.097  1.00  0.00     0.000 C 
BRANCH   9  10
ATOM     10  C   UNL     1       3.408  30.362 113.636  1.00  0.00     0.006 C 
BRANCH  10  11
ATOM     11  C   UNL     1       4.642  31.264 113.512  1.00  0.00     0.053 C 
BRANCH  11  12
ATOM     12  C   UNL     1       5.892  30.475 113.747  1.00  0.00     0.041 C 
ATOM     13  O   UNL     1       6.842  30.977 114.404  1.00  0.00    -0.550 OA
ATOM     14  O   UNL     1       6.027  29.204 113.202  1.00  0.00    -0.550 OA
ENDBRANCH  11  12
ENDBRANCH  10  11
ENDBRANCH   9  10
ENDBRANCH   8   9
ENDBRANCH   7   8
ENDBRANCH   6   7
ENDBRANCH   5   6
ENDBRANCH   4   5
ENDBRANCH   3   4
ENDBRANCH   2   3
ENDBRANCH   1   2
BRANCH   1  15
ATOM     15  C   UNL     1       1.711  23.993 113.799  1.00  0.00     0.000 C 
BRANCH  15  16
ATOM     16  C   UNL     1       3.148  23.757 114.295  1.00  0.00     0.000 C 
BRANCH  16  17
ATOM     17  C   UNL     1       3.959  22.866 113.335  1.00  0.00     0.000 C 
BRANCH  17  18
ATOM     18  C   UNL     1       5.021  23.658 112.552  1.00  0.00    -0.000 C 
BRANCH  18  19
ATOM     19  C   UNL     1       5.784  24.702 113.401  1.00  0.00    -0.000 C 
BRANCH  19  20
ATOM     20  C   UNL     1       6.562  25.736 112.564  1.00  0.00    -0.000 C 
BRANCH  20  21
ATOM     21  C   UNL     1       7.743  25.165 111.758  1.00  0.00    -0.000 C 
BRANCH  21  22
ATOM     22  C   UNL     1       7.439  24.875 110.275  1.00  0.00    -0.000 C 
BRANCH  22  23
ATOM     23  C   UNL     1       7.858  26.023 109.342  1.00  0.00    -0.000 C 
BRANCH  23  24
ATOM     24  C   UNL     1       8.336  25.523 107.970  1.00  0.00    -0.000 C 
BRANCH  24  25
ATOM     25  C   UNL     1       7.368  25.893 106.837  1.00  0.00    -0.003 C 
ATOM     26  C   UNL     1       6.209  26.737 107.358  1.00  0.00     0.004 C 
ENDBRANCH  24  25
ENDBRANCH  23  24
ENDBRANCH  22  23
ENDBRANCH  21  22
ENDBRANCH  20  21
ENDBRANCH  19  20
ENDBRANCH  18  19
ENDBRANCH  17  18
ENDBRANCH  16  17
ENDBRANCH  15  16
ENDBRANCH   1  15
TORSDOF 22
ENDMDL
MODEL 6
REMARK VINA RESULT:    -4.017      2.154      4.764
REMARK INTER + INTRA:         -12.491
REMARK INTER:                  -8.230
REMARK INTRA:                  -4.262
REMARK UNBOUND:                -3.309
REMARK SMILES CCCCCCCCCCCCCCCCCCCCCCCC(=O)[O-]
REMARK SMILES IDX 13 1 14 2 15 3 16 4 17 5 18 6 19 7 20 8 21 9 22 10 23 11
REMARK SMILES IDX 24 12 25 13 26 14 12 15 11 16 10 17 9 18 8 19 7 20 6 21 5 22
REMARK SMILES IDX 4 23 3 24 2 25 1 26
REMARK H PARENT
REMARK Flexibility Score: inf
ROOT
ATOM      1  C   UNL     1       2.633  26.659 110.954  1.00  0.00     0.000 C 
ENDROOT
BRANCH   1   2
ATOM      2  C   UNL     1       3.255  27.973 110.465  1.00  0.00     0.000 C 
BRANCH   2   3
ATOM      3  C   UNL     1       2.179  28.932 109.941  1.00  0.00     0.000 C 
BRANCH   3   4
ATOM      4  C   UNL     1       2.502  30.382 110.327  1.00  0.00     0.000 C 
BRANCH   4   5
ATOM      5  C   UNL     1       3.049  30.513 111.760  1.00  0.00     0.000 C 
BRANCH   5   6
ATOM      6  C   UNL     1       1.974  30.564 112.866  1.00  0.00     0.000 C 
BRANCH   6   7
ATOM      7  C   UNL     1       1.747  29.237 113.619  1.00  0.00     0.000 C 
BRANCH   7   8
ATOM      8  C   UNL     1       2.828  28.891 114.663  1.00  0.00     0.000 C 
BRANCH   8   9
ATOM      9  C   UNL     1       3.908  27.902 114.182  1.00  0.00     0.000 C 
BRANCH   9  10
ATOM     10  C   UNL     1       5.288  28.528 113.909  1.00  0.00     0.006 C 
BRANCH  10  11
ATOM     11  C   UNL     1       5.640  29.647 114.897  1.00  0.00     0.053 C 
BRANCH  11  12
ATOM     12  C   UNL     1       5.971  30.909 114.163  1.00  0.00     0.041 C 
ATOM     13  O   UNL     1       5.174  31.883 114.190  1.00  0.00    -0.550 OA
ATOM     14  O   UNL     1       7.136  30.992 113.410  1.00  0.00    -0.550 OA
ENDBRANCH  11  12
ENDBRANCH  10  11
ENDBRANCH   9  10
ENDBRANCH   8   9
ENDBRANCH   7   8
ENDBRANCH   6   7
ENDBRANCH   5   6
ENDBRANCH   4   5
ENDBRANCH   3   4
ENDBRANCH   2   3
ENDBRANCH   1   2
BRANCH   1  15
ATOM     15  C   UNL     1       3.605  25.486 110.760  1.00  0.00     0.000 C 
BRANCH  15  16
ATOM     16  C   UNL     1       5.038  25.826 111.206  1.00  0.00     0.000 C 
BRANCH  16  17
ATOM     17  C   UNL     1       5.633  24.748 112.130  1.00  0.00     0.000 C 
BRANCH  17  18
ATOM     18  C   UNL     1       4.577  23.742 112.619  1.00  0.00    -0.000 C 
BRANCH  18  19
ATOM     19  C   UNL     1       4.337  23.770 114.147  1.00  0.00    -0.000 C 
BRANCH  19  20
ATOM     20  C   UNL     1       4.032  22.386 114.755  1.00  0.00    -0.000 C 
BRANCH  20  21
ATOM     21  C   UNL     1       2.606  22.220 115.312  1.00  0.00    -0.000 C 
BRANCH  21  22
ATOM     22  C   UNL     1       1.510  22.017 114.247  1.00  0.00    -0.000 C 
BRANCH  22  23
ATOM     23  C   UNL     1       0.458  23.139 114.249  1.00  0.00    -0.000 C 
BRANCH  23  24
ATOM     24  C   UNL     1       0.782  24.251 113.240  1.00  0.00    -0.000 C 
BRANCH  24  25
ATOM     25  C   UNL     1       0.905  25.631 113.903  1.00  0.00    -0.003 C 
ATOM     26  C   UNL     1       0.746  25.529 115.417  1.00  0.00     0.004 C 
ENDBRANCH  24  25
ENDBRANCH  23  24
ENDBRANCH  22  23
ENDBRANCH  21  22
ENDBRANCH  20  21
ENDBRANCH  19  20
ENDBRANCH  18  19
ENDBRANCH  17  18
ENDBRANCH  16  17
ENDBRANCH  15  16
ENDBRANCH   1  15
TORSDOF 22
ENDMDL
MODEL 7
REMARK VINA RESULT:    -4.007      1.457      3.253
REMARK INTER + INTRA:         -12.470
REMARK INTER:                  -9.041
REMARK INTRA:                  -3.429
REMARK UNBOUND:                -3.309
REMARK SMILES CCCCCCCCCCCCCCCCCCCCCCCC(=O)[O-]
REMARK SMILES IDX 13 1 14 2 15 3 16 4 17 5 18 6 19 7 20 8 21 9 22 10 23 11
REMARK SMILES IDX 24 12 25 13 26 14 12 15 11 16 10 17 9 18 8 19 7 20 6 21 5 22
REMARK SMILES IDX 4 23 3 24 2 25 1 26
REMARK H PARENT
REMARK Flexibility Score: inf
ROOT
ATOM      1  C   UNL     1       0.056  29.770 112.046  1.00  0.00     0.000 C 
ENDROOT
BRANCH   1   2
ATOM      2  C   UNL     1       0.811  30.121 113.334  1.00  0.00     0.000 C 
BRANCH   2   3
ATOM      3  C   UNL     1       0.312  29.278 114.514  1.00  0.00     0.000 C 
BRANCH   3   4
ATOM      4  C   UNL     1       0.306  27.784 114.158  1.00  0.00     0.000 C 
BRANCH   4   5
ATOM      5  C   UNL     1       1.723  27.192 114.039  1.00  0.00     0.000 C 
BRANCH   5   6
ATOM      6  C   UNL     1       2.744  27.735 115.059  1.00  0.00     0.000 C 
BRANCH   6   7
ATOM      7  C   UNL     1       4.169  27.948 114.509  1.00  0.00     0.000 C 
BRANCH   7   8
ATOM      8  C   UNL     1       4.831  29.279 114.919  1.00  0.00     0.000 C 
BRANCH   8   9
ATOM      9  C   UNL     1       5.502  30.057 113.770  1.00  0.00     0.000 C 
BRANCH   9  10
ATOM     10  C   UNL     1       5.138  31.551 113.696  1.00  0.00     0.006 C 
BRANCH  10  11
ATOM     11  C   UNL     1       4.719  32.130 115.053  1.00  0.00     0.053 C 
BRANCH  11  12
ATOM     12  C   UNL     1       5.832  32.938 115.643  1.00  0.00     0.041 C 
ATOM     13  O   UNL     1       5.717  34.186 115.755  1.00  0.00    -0.550 OA
ATOM     14  O   UNL     1       7.016  32.318 116.026  1.00  0.00    -0.550 OA
ENDBRANCH  11  12
ENDBRANCH  10  11
ENDBRANCH   9  10
ENDBRANCH   8   9
ENDBRANCH   7   8
ENDBRANCH   6   7
ENDBRANCH   5   6
ENDBRANCH   4   5
ENDBRANCH   3   4
ENDBRANCH   2   3
ENDBRANCH   1   2
BRANCH   1  15
ATOM     15  C   UNL     1       1.033  29.497 110.893  1.00  0.00     0.000 C 
BRANCH  15  16
ATOM     16  C   UNL     1       2.498  29.748 111.289  1.00  0.00     0.000 C 
BRANCH  16  17
ATOM     17  C   UNL     1       3.397  28.530 111.007  1.00  0.00     0.000 C 
BRANCH  17  18
ATOM     18  C   UNL     1       2.605  27.326 110.466  1.00  0.00    -0.000 C 
BRANCH  18  19
ATOM     19  C   UNL     1       3.259  25.956 110.760  1.00  0.00    -0.000 C 
BRANCH  19  20
ATOM     20  C   UNL     1       4.608  26.056 111.499  1.00  0.00    -0.000 C 
BRANCH  20  21
ATOM     21  C   UNL     1       5.552  24.856 111.299  1.00  0.00    -0.000 C 
BRANCH  21  22
ATOM     22  C   UNL     1       7.047  25.214 111.187  1.00  0.00    -0.000 C 
BRANCH  22  23
ATOM     23  C   UNL     1       7.331  26.268 110.104  1.00  0.00    -0.000 C 
BRANCH  23  24
ATOM     24  C   UNL     1       8.381  25.798 109.086  1.00  0.00    -0.000 C 
BRANCH  24  25
ATOM     25  C   UNL     1       7.791  25.591 107.682  1.00  0.00    -0.003 C 
ATOM     26  C   UNL     1       6.585  26.497 107.455  1.00  0.00     0.004 C 
ENDBRANCH  24  25
ENDBRANCH  23  24
ENDBRANCH  22  23
ENDBRANCH  21  22
ENDBRANCH  20  21
ENDBRANCH  19  20
ENDBRANCH  18  19
ENDBRANCH  17  18
ENDBRANCH  16  17
ENDBRANCH  15  16
ENDBRANCH   1  15
TORSDOF 22
ENDMDL
MODEL 8
REMARK VINA RESULT:    -3.964      3.202      6.769
REMARK INTER + INTRA:         -12.371
REMARK INTER:                  -8.446
REMARK INTRA:                  -3.925
REMARK UNBOUND:                -3.309
REMARK SMILES CCCCCCCCCCCCCCCCCCCCCCCC(=O)[O-]
REMARK SMILES IDX 13 1 14 2 15 3 16 4 17 5 18 6 19 7 20 8 21 9 22 10 23 11
REMARK SMILES IDX 24 12 25 13 26 14 12 15 11 16 10 17 9 18 8 19 7 20 6 21 5 22
REMARK SMILES IDX 4 23 3 24 2 25 1 26
REMARK H PARENT
REMARK Flexibility Score: inf
ROOT
ATOM      1  C   UNL     1       2.692  29.261 111.890  1.00  0.00     0.000 C 
ENDROOT
BRANCH   1   2
ATOM      2  C   UNL     1       3.710  28.226 111.396  1.00  0.00     0.000 C 
BRANCH   2   3
ATOM      3  C   UNL     1       3.100  27.321 110.319  1.00  0.00     0.000 C 
BRANCH   3   4
ATOM      4  C   UNL     1       3.375  25.841 110.625  1.00  0.00     0.000 C 
BRANCH   4   5
ATOM      5  C   UNL     1       3.380  25.533 112.134  1.00  0.00     0.000 C 
BRANCH   5   6
ATOM      6  C   UNL     1       4.360  24.424 112.569  1.00  0.00     0.000 C 
BRANCH   6   7
ATOM      7  C   UNL     1       5.576  24.908 113.384  1.00  0.00     0.000 C 
BRANCH   7   8
ATOM      8  C   UNL     1       6.442  25.975 112.685  1.00  0.00     0.000 C 
BRANCH   8   9
ATOM      9  C   UNL     1       7.674  25.428 111.936  1.00  0.00     0.000 C 
BRANCH   9  10
ATOM     10  C   UNL     1       7.411  24.992 110.483  1.00  0.00     0.006 C 
BRANCH  10  11
ATOM     11  C   UNL     1       8.047  25.934 109.453  1.00  0.00     0.053 C 
BRANCH  11  12
ATOM     12  C   UNL     1       7.104  26.181 108.318  1.00  0.00     0.041 C 
ATOM     13  O   UNL     1       6.033  26.814 108.512  1.00  0.00    -0.550 OA
ATOM     14  O   UNL     1       7.384  25.671 107.056  1.00  0.00    -0.550 OA
ENDBRANCH  11  12
ENDBRANCH  10  11
ENDBRANCH   9  10
ENDBRANCH   8   9
ENDBRANCH   7   8
ENDBRANCH   6   7
ENDBRANCH   5   6
ENDBRANCH   4   5
ENDBRANCH   3   4
ENDBRANCH   2   3
ENDBRANCH   1   2
BRANCH   1  15
ATOM     15  C   UNL     1       2.503  29.164 113.411  1.00  0.00     0.000 C 
BRANCH  15  16
ATOM     16  C   UNL     1       3.835  29.218 114.176  1.00  0.00     0.000 C 
BRANCH  16  17
ATOM     17  C   UNL     1       4.071  27.957 115.029  1.00  0.00     0.000 C 
BRANCH  17  18
ATOM     18  C   UNL     1       2.831  27.560 115.849  1.00  0.00    -0.000 C 
BRANCH  18  19
ATOM     19  C   UNL     1       2.308  26.135 115.556  1.00  0.00    -0.000 C 
BRANCH  19  20
ATOM     20  C   UNL     1       0.960  26.108 114.809  1.00  0.00    -0.000 C 
BRANCH  20  21
ATOM     21  C   UNL     1      -0.125  25.225 115.454  1.00  0.00    -0.000 C 
BRANCH  21  22
ATOM     22  C   UNL     1      -0.450  23.928 114.688  1.00  0.00    -0.000 C 
BRANCH  22  23
ATOM     23  C   UNL     1       0.522  23.659 113.527  1.00  0.00    -0.000 C 
BRANCH  23  24
ATOM     24  C   UNL     1       1.383  22.407 113.756  1.00  0.00    -0.000 C 
BRANCH  24  25
ATOM     25  C   UNL     1       2.233  22.502 115.032  1.00  0.00    -0.003 C 
ATOM     26  C   UNL     1       3.485  21.637 114.922  1.00  0.00     0.004 C 
ENDBRANCH  24  25
ENDBRANCH  23  24
ENDBRANCH  22  23
ENDBRANCH  21  22
ENDBRANCH  20  21
ENDBRANCH  19  20
ENDBRANCH  18  19
ENDBRANCH  17  18
ENDBRANCH  16  17
ENDBRANCH  15  16
ENDBRANCH   1  15
TORSDOF 22
ENDMDL
MODEL 9
REMARK VINA RESULT:    -3.935      3.241      6.041
REMARK INTER + INTRA:         -12.305
REMARK INTER:                  -8.755
REMARK INTRA:                  -3.550
REMARK UNBOUND:                -3.309
REMARK SMILES CCCCCCCCCCCCCCCCCCCCCCCC(=O)[O-]
REMARK SMILES IDX 13 1 14 2 15 3 16 4 17 5 18 6 19 7 20 8 21 9 22 10 23 11
REMARK SMILES IDX 24 12 25 13 26 14 12 15 11 16 10 17 9 18 8 19 7 20 6 21 5 22
REMARK SMILES IDX 4 23 3 24 2 25 1 26
REMARK H PARENT
REMARK Flexibility Score: inf
ROOT
ATOM      1  C   UNL     1       3.934  30.599 112.695  1.00  0.00     0.000 C 
ENDROOT
BRANCH   1   2
ATOM      2  C   UNL     1       4.434  29.260 113.251  1.00  0.00     0.000 C 
BRANCH   2   3
ATOM      3  C   UNL     1       3.344  28.561 114.072  1.00  0.00     0.000 C 
BRANCH   3   4
ATOM      4  C   UNL     1       3.754  27.122 114.417  1.00  0.00     0.000 C 
BRANCH   4   5
ATOM      5  C   UNL     1       5.086  27.049 115.188  1.00  0.00     0.000 C 
BRANCH   5   6
ATOM      6  C   UNL     1       5.611  25.621 115.446  1.00  0.00     0.000 C 
BRANCH   6   7
ATOM      7  C   UNL     1       5.266  24.589 114.353  1.00  0.00     0.000 C 
BRANCH   7   8
ATOM      8  C   UNL     1       4.231  23.525 114.770  1.00  0.00     0.000 C 
BRANCH   8   9
ATOM      9  C   UNL     1       3.219  23.134 113.675  1.00  0.00     0.000 C 
BRANCH   9  10
ATOM     10  C   UNL     1       1.769  22.961 114.162  1.00  0.00     0.006 C 
BRANCH  10  11
ATOM     11  C   UNL     1       0.758  23.742 113.313  1.00  0.00     0.053 C 
BRANCH  11  12
ATOM     12  C   UNL     1      -0.064  24.645 114.178  1.00  0.00     0.041 C 
ATOM     13  O   UNL     1      -1.206  24.283 114.566  1.00  0.00    -0.550 OA
ATOM     14  O   UNL     1       0.411  25.907 114.516  1.00  0.00    -0.550 OA
ENDBRANCH  11  12
ENDBRANCH  10  11
ENDBRANCH   9  10
ENDBRANCH   8   9
ENDBRANCH   7   8
ENDBRANCH   6   7
ENDBRANCH   5   6
ENDBRANCH   4   5
ENDBRANCH   3   4
ENDBRANCH   2   3
ENDBRANCH   1   2
BRANCH   1  15
ATOM     15  C   UNL     1       2.522  30.457 112.108  1.00  0.00     0.000 C 
BRANCH  15  16
ATOM     16  C   UNL     1       2.529  30.336 110.575  1.00  0.00     0.000 C 
BRANCH  16  17
ATOM     17  C   UNL     1       1.906  29.014 110.090  1.00  0.00     0.000 C 
BRANCH  17  18
ATOM     18  C   UNL     1       2.935  27.872 110.008  1.00  0.00    -0.000 C 
BRANCH  18  19
ATOM     19  C   UNL     1       2.616  26.667 110.923  1.00  0.00    -0.000 C 
BRANCH  19  20
ATOM     20  C   UNL     1       3.829  25.757 111.198  1.00  0.00    -0.000 C 
BRANCH  20  21
ATOM     21  C   UNL     1       5.123  26.156 110.463  1.00  0.00    -0.000 C 
BRANCH  21  22
ATOM     22  C   UNL     1       6.252  26.679 111.372  1.00  0.00    -0.000 C 
BRANCH  22  23
ATOM     23  C   UNL     1       7.650  26.499 110.755  1.00  0.00    -0.000 C 
BRANCH  23  24
ATOM     24  C   UNL     1       7.693  25.370 109.714  1.00  0.00    -0.000 C 
BRANCH  24  25
ATOM     25  C   UNL     1       8.375  25.800 108.406  1.00  0.00    -0.003 C 
ATOM     26  C   UNL     1       7.373  25.854 107.257  1.00  0.00     0.004 C 
ENDBRANCH  24  25
ENDBRANCH  23  24
ENDBRANCH  22  23
ENDBRANCH  21  22
ENDBRANCH  20  21
ENDBRANCH  19  20
ENDBRANCH  18  19
ENDBRANCH  17  18
ENDBRANCH  16  17
ENDBRANCH  15  16
ENDBRANCH   1  15
TORSDOF 22
ENDMDL
