MODEL 1
REMARK VINA RESULT:    -4.838      0.000      0.000
REMARK INTER + INTRA:          -6.116
REMARK INTER:                  -5.828
REMARK INTRA:                  -0.288
REMARK UNBOUND:                -0.288
REMARK SMILES O=c1c(O)c(-c2ccc(O)c(O)c2)oc2cc(O)cc(O)c12
REMARK SMILES IDX 5 1 3 2 2 3 1 4 22 5 20 6 19 7 17 8 16 9 15 10 14 11 6 12
REMARK SMILES IDX 7 13 8 14 9 15 13 16 11 17 10 18 12 20 4 22 21 24 18 26
REMARK H PARENT 10 19 12 21 4 23 21 25 18 27
REMARK Flexibility Score: inf
ROOT
ATOM      1  C   UNL     1      19.570  22.580 -15.517  1.00  0.00     0.180 A 
ATOM      2  C   UNL     1      20.221  21.489 -16.120  1.00  0.00     0.208 A 
ATOM      3  C   UNL     1      19.754  21.017 -17.357  1.00  0.00     0.238 A 
ATOM      4  O   UNL     1      20.305  20.006 -17.864  1.00  0.00    -0.285 OA
ATOM      5  C   UNL     1      18.653  21.650 -17.983  1.00  0.00     0.111 A 
ATOM      6  C   UNL     1      18.122  21.281 -19.255  1.00  0.00     0.134 A 
ATOM      7  C   UNL     1      16.950  21.892 -19.718  1.00  0.00     0.093 A 
ATOM      8  C   UNL     1      16.329  22.906 -18.985  1.00  0.00     0.123 A 
ATOM      9  C   UNL     1      16.874  23.315 -17.770  1.00  0.00     0.094 A 
ATOM     10  C   UNL     1      18.021  22.698 -17.265  1.00  0.00     0.146 A 
ATOM     11  O   UNL     1      18.501  23.111 -16.097  1.00  0.00    -0.452 OA
ENDROOT
BRANCH   1  12
ATOM     12  C   UNL     1      20.020  23.150 -14.227  1.00  0.00     0.025 A 
ATOM     13  C   UNL     1      19.383  22.820 -13.019  1.00  0.00     0.016 A 
ATOM     14  C   UNL     1      19.840  23.353 -11.810  1.00  0.00     0.051 A 
ATOM     15  C   UNL     1      20.948  24.209 -11.789  1.00  0.00     0.157 A 
ATOM     16  C   UNL     1      21.143  23.994 -14.197  1.00  0.00     0.062 A 
ATOM     17  C   UNL     1      21.604  24.529 -12.989  1.00  0.00     0.158 A 
BRANCH  15  18
ATOM     18  O   UNL     1      21.400  24.741 -10.582  1.00  0.00    -0.504 OA
ATOM     19  H   UNL     1      20.852  25.414 -10.060  1.00  0.00     0.293 HD
ENDBRANCH  15  18
BRANCH  17  20
ATOM     20  O   UNL     1      22.714  25.374 -13.002  1.00  0.00    -0.504 OA
ATOM     21  H   UNL     1      22.895  26.011 -13.768  1.00  0.00     0.293 HD
ENDBRANCH  17  20
ENDBRANCH   1  12
BRANCH   2  22
ATOM     22  O   UNL     1      21.291  20.864 -15.473  1.00  0.00    -0.502 OA
ATOM     23  H   UNL     1      22.166  20.661 -15.942  1.00  0.00     0.293 HD
ENDBRANCH   2  22
BRANCH   6  24
ATOM     24  O   UNL     1      18.718  20.346 -20.107  1.00  0.00    -0.507 OA
ATOM     25  H   UNL     1      19.438  19.695 -19.834  1.00  0.00     0.293 HD
ENDBRANCH   6  24
BRANCH   8  26
ATOM     26  O   UNL     1      15.172  23.520 -19.461  1.00  0.00    -0.508 OA
ATOM     27  H   UNL     1      14.452  22.993 -19.941  1.00  0.00     0.293 HD
ENDBRANCH   8  26
TORSDOF 6
ENDMDL
MODEL 2
REMARK VINA RESULT:    -4.824      4.069      6.634
REMARK INTER + INTRA:          -6.099
REMARK INTER:                  -5.768
REMARK INTRA:                  -0.331
REMARK UNBOUND:                -0.288
REMARK SMILES O=c1c(O)c(-c2ccc(O)c(O)c2)oc2cc(O)cc(O)c12
REMARK SMILES IDX 5 1 3 2 2 3 1 4 22 5 20 6 19 7 17 8 16 9 15 10 14 11 6 12
REMARK SMILES IDX 7 13 8 14 9 15 13 16 11 17 10 18 12 20 4 22 21 24 18 26
REMARK H PARENT 10 19 12 21 4 23 21 25 18 27
REMARK Flexibility Score: inf
ROOT
ATOM      1  C   UNL     1      18.774  21.269 -12.719  1.00  0.00     0.180 A 
ATOM      2  C   UNL     1      17.593  21.902 -13.145  1.00  0.00     0.208 A 
ATOM      3  C   UNL     1      17.641  23.257 -13.509  1.00  0.00     0.238 A 
ATOM      4  O   UNL     1      16.571  23.833 -13.836  1.00  0.00    -0.285 OA
ATOM      5  C   UNL     1      18.870  23.958 -13.458  1.00  0.00     0.111 A 
ATOM      6  C   UNL     1      19.042  25.322 -13.843  1.00  0.00     0.134 A 
ATOM      7  C   UNL     1      20.276  25.949 -13.628  1.00  0.00     0.093 A 
ATOM      8  C   UNL     1      21.362  25.242 -13.105  1.00  0.00     0.123 A 
ATOM      9  C   UNL     1      21.220  23.895 -12.783  1.00  0.00     0.094 A 
ATOM     10  C   UNL     1      19.991  23.252 -12.951  1.00  0.00     0.146 A 
ATOM     11  O   UNL     1      19.897  21.969 -12.620  1.00  0.00    -0.452 OA
ENDROOT
BRANCH   1  12
ATOM     12  C   UNL     1      18.808  19.836 -12.344  1.00  0.00     0.025 A 
ATOM     13  C   UNL     1      19.072  18.837 -13.295  1.00  0.00     0.016 A 
ATOM     14  C   UNL     1      19.123  17.493 -12.913  1.00  0.00     0.051 A 
ATOM     15  C   UNL     1      18.925  17.131 -11.575  1.00  0.00     0.157 A 
ATOM     16  C   UNL     1      18.631  19.469 -11.000  1.00  0.00     0.062 A 
ATOM     17  C   UNL     1      18.681  18.125 -10.613  1.00  0.00     0.158 A 
BRANCH  15  18
ATOM     18  O   UNL     1      18.974  15.790 -11.197  1.00  0.00    -0.504 OA
ATOM     19  H   UNL     1      18.541  15.464 -10.341  1.00  0.00     0.293 HD
ENDBRANCH  15  18
BRANCH  17  20
ATOM     20  O   UNL     1      18.486  17.799  -9.271  1.00  0.00    -0.504 OA
ATOM     21  H   UNL     1      18.983  18.273  -8.526  1.00  0.00     0.293 HD
ENDBRANCH  17  20
ENDBRANCH   1  12
BRANCH   2  22
ATOM     22  O   UNL     1      16.386  21.198 -13.165  1.00  0.00    -0.502 OA
ATOM     23  H   UNL     1      15.870  21.028 -14.020  1.00  0.00     0.293 HD
ENDBRANCH   2  22
BRANCH   6  24
ATOM     24  O   UNL     1      18.050  26.089 -14.459  1.00  0.00    -0.507 OA
ATOM     25  H   UNL     1      17.341  26.613 -13.969  1.00  0.00     0.293 HD
ENDBRANCH   6  24
BRANCH   8  26
ATOM     26  O   UNL     1      22.590  25.871 -12.909  1.00  0.00    -0.508 OA
ATOM     27  H   UNL     1      22.655  26.784 -12.476  1.00  0.00     0.293 HD
ENDBRANCH   8  26
TORSDOF 6
ENDMDL
MODEL 3
REMARK VINA RESULT:    -4.720      2.428      7.152
REMARK INTER + INTRA:          -5.974
REMARK INTER:                  -5.717
REMARK INTRA:                  -0.257
REMARK UNBOUND:                -0.288
REMARK SMILES O=c1c(O)c(-c2ccc(O)c(O)c2)oc2cc(O)cc(O)c12
REMARK SMILES IDX 5 1 3 2 2 3 1 4 22 5 20 6 19 7 17 8 16 9 15 10 14 11 6 12
REMARK SMILES IDX 7 13 8 14 9 15 13 16 11 17 10 18 12 20 4 22 21 24 18 26
REMARK H PARENT 10 19 12 21 4 23 21 25 18 27
REMARK Flexibility Score: inf
ROOT
ATOM      1  C   UNL     1      19.136  22.102 -14.582  1.00  0.00     0.180 A 
ATOM      2  C   UNL     1      19.814  23.184 -13.996  1.00  0.00     0.208 A 
ATOM      3  C   UNL     1      20.135  23.128 -12.630  1.00  0.00     0.238 A 
ATOM      4  O   UNL     1      20.692  24.123 -12.099  1.00  0.00    -0.285 OA
ATOM      5  C   UNL     1      19.787  21.985 -11.871  1.00  0.00     0.111 A 
ATOM      6  C   UNL     1      20.099  21.803 -10.490  1.00  0.00     0.134 A 
ATOM      7  C   UNL     1      19.592  20.689  -9.809  1.00  0.00     0.093 A 
ATOM      8  C   UNL     1      18.842  19.717 -10.475  1.00  0.00     0.123 A 
ATOM      9  C   UNL     1      18.584  19.855 -11.837  1.00  0.00     0.094 A 
ATOM     10  C   UNL     1      19.044  20.974 -12.535  1.00  0.00     0.146 A 
ATOM     11  O   UNL     1      18.766  21.072 -13.830  1.00  0.00    -0.452 OA
ENDROOT
BRANCH   1  12
ATOM     12  C   UNL     1      18.787  22.077 -16.021  1.00  0.00     0.025 A 
ATOM     13  C   UNL     1      19.481  21.259 -16.928  1.00  0.00     0.016 A 
ATOM     14  C   UNL     1      19.117  21.234 -18.278  1.00  0.00     0.051 A 
ATOM     15  C   UNL     1      18.048  22.014 -18.737  1.00  0.00     0.157 A 
ATOM     16  C   UNL     1      17.702  22.841 -16.483  1.00  0.00     0.062 A 
ATOM     17  C   UNL     1      17.336  22.819 -17.833  1.00  0.00     0.158 A 
BRANCH  15  18
ATOM     18  O   UNL     1      17.690  21.989 -20.084  1.00  0.00    -0.504 OA
ATOM     19  H   UNL     1      17.438  21.125 -20.550  1.00  0.00     0.293 HD
ENDBRANCH  15  18
BRANCH  17  20
ATOM     20  O   UNL     1      16.262  23.603 -18.257  1.00  0.00    -0.504 OA
ATOM     21  H   UNL     1      16.391  24.538 -18.623  1.00  0.00     0.293 HD
ENDBRANCH  17  20
ENDBRANCH   1  12
BRANCH   2  22
ATOM     22  O   UNL     1      20.127  24.314 -14.758  1.00  0.00    -0.502 OA
ATOM     23  H   UNL     1      21.079  24.559 -15.000  1.00  0.00     0.293 HD
ENDBRANCH   2  22
BRANCH   6  24
ATOM     24  O   UNL     1      20.916  22.666  -9.755  1.00  0.00    -0.507 OA
ATOM     25  H   UNL     1      20.725  23.644  -9.597  1.00  0.00     0.293 HD
ENDBRANCH   6  24
BRANCH   8  26
ATOM     26  O   UNL     1      18.355  18.604  -9.793  1.00  0.00    -0.508 OA
ATOM     27  H   UNL     1      18.344  18.566  -8.780  1.00  0.00     0.293 HD
ENDBRANCH   8  26
TORSDOF 6
ENDMDL
MODEL 4
REMARK VINA RESULT:    -4.694      3.530      5.339
REMARK INTER + INTRA:          -5.943
REMARK INTER:                  -5.670
REMARK INTRA:                  -0.273
REMARK UNBOUND:                -0.288
REMARK SMILES O=c1c(O)c(-c2ccc(O)c(O)c2)oc2cc(O)cc(O)c12
REMARK SMILES IDX 5 1 3 2 2 3 1 4 22 5 20 6 19 7 17 8 16 9 15 10 14 11 6 12
REMARK SMILES IDX 7 13 8 14 9 15 13 16 11 17 10 18 12 20 4 22 21 24 18 26
REMARK H PARENT 10 19 12 21 4 23 21 25 18 27
REMARK Flexibility Score: inf
ROOT
ATOM      1  C   UNL     1      22.411  21.655 -15.799  1.00  0.00     0.180 A 
ATOM      2  C   UNL     1      22.157  22.462 -14.677  1.00  0.00     0.208 A 
ATOM      3  C   UNL     1      20.879  23.022 -14.517  1.00  0.00     0.238 A 
ATOM      4  O   UNL     1      20.673  23.788 -13.541  1.00  0.00    -0.285 OA
ATOM      5  C   UNL     1      19.868  22.754 -15.471  1.00  0.00     0.111 A 
ATOM      6  C   UNL     1      18.526  23.236 -15.387  1.00  0.00     0.134 A 
ATOM      7  C   UNL     1      17.647  23.016 -16.454  1.00  0.00     0.093 A 
ATOM      8  C   UNL     1      18.040  22.276 -17.572  1.00  0.00     0.123 A 
ATOM      9  C   UNL     1      19.328  21.751 -17.636  1.00  0.00     0.094 A 
ATOM     10  C   UNL     1      20.241  21.985 -16.604  1.00  0.00     0.146 A 
ATOM     11  O   UNL     1      21.462  21.476 -16.710  1.00  0.00    -0.452 OA
ENDROOT
BRANCH   1  12
ATOM     12  C   UNL     1      23.725  21.010 -16.024  1.00  0.00     0.025 A 
ATOM     13  C   UNL     1      24.135  19.900 -15.265  1.00  0.00     0.016 A 
ATOM     14  C   UNL     1      25.369  19.292 -15.511  1.00  0.00     0.051 A 
ATOM     15  C   UNL     1      26.205  19.776 -16.526  1.00  0.00     0.157 A 
ATOM     16  C   UNL     1      24.559  21.477 -17.053  1.00  0.00     0.062 A 
ATOM     17  C   UNL     1      25.796  20.872 -17.302  1.00  0.00     0.158 A 
BRANCH  15  18
ATOM     18  O   UNL     1      27.437  19.169 -16.767  1.00  0.00    -0.504 OA
ATOM     19  H   UNL     1      27.788  18.427 -16.173  1.00  0.00     0.293 HD
ENDBRANCH  15  18
BRANCH  17  20
ATOM     20  O   UNL     1      26.602  21.373 -18.324  1.00  0.00    -0.504 OA
ATOM     21  H   UNL     1      26.313  21.352 -19.295  1.00  0.00     0.293 HD
ENDBRANCH  17  20
ENDBRANCH   1  12
BRANCH   2  22
ATOM     22  O   UNL     1      23.176  22.732 -13.759  1.00  0.00    -0.502 OA
ATOM     23  H   UNL     1      24.075  22.268 -13.793  1.00  0.00     0.293 HD
ENDBRANCH   2  22
BRANCH   6  24
ATOM     24  O   UNL     1      18.006  23.905 -14.276  1.00  0.00    -0.507 OA
ATOM     25  H   UNL     1      17.036  24.153 -14.156  1.00  0.00     0.293 HD
ENDBRANCH   6  24
BRANCH   8  26
ATOM     26  O   UNL     1      17.153  22.050 -18.622  1.00  0.00    -0.508 OA
ATOM     27  H   UNL     1      16.164  21.898 -18.458  1.00  0.00     0.293 HD
ENDBRANCH   8  26
TORSDOF 6
ENDMDL
MODEL 5
REMARK VINA RESULT:    -4.694      3.736      4.739
REMARK INTER + INTRA:          -5.942
REMARK INTER:                  -5.618
REMARK INTRA:                  -0.324
REMARK UNBOUND:                -0.288
REMARK SMILES O=c1c(O)c(-c2ccc(O)c(O)c2)oc2cc(O)cc(O)c12
REMARK SMILES IDX 5 1 3 2 2 3 1 4 22 5 20 6 19 7 17 8 16 9 15 10 14 11 6 12
REMARK SMILES IDX 7 13 8 14 9 15 13 16 11 17 10 18 12 20 4 22 21 24 18 26
REMARK H PARENT 10 19 12 21 4 23 21 25 18 27
REMARK Flexibility Score: inf
ROOT
ATOM      1  C   UNL     1      20.855  23.386 -13.595  1.00  0.00     0.180 A 
ATOM      2  C   UNL     1      21.352  22.806 -14.774  1.00  0.00     0.208 A 
ATOM      3  C   UNL     1      21.063  21.458 -15.044  1.00  0.00     0.238 A 
ATOM      4  O   UNL     1      21.556  20.929 -16.074  1.00  0.00    -0.285 OA
ATOM      5  C   UNL     1      20.269  20.713 -14.140  1.00  0.00     0.111 A 
ATOM      6  C   UNL     1      19.881  19.353 -14.333  1.00  0.00     0.134 A 
ATOM      7  C   UNL     1      19.203  18.677 -13.310  1.00  0.00     0.093 A 
ATOM      8  C   UNL     1      18.842  19.331 -12.130  1.00  0.00     0.123 A 
ATOM      9  C   UNL     1      19.163  20.675 -11.958  1.00  0.00     0.094 A 
ATOM     10  C   UNL     1      19.872  21.366 -12.944  1.00  0.00     0.146 A 
ATOM     11  O   UNL     1      20.168  22.644 -12.734  1.00  0.00    -0.452 OA
ENDROOT
BRANCH   1  12
ATOM     12  C   UNL     1      21.095  24.807 -13.254  1.00  0.00     0.025 A 
ATOM     13  C   UNL     1      20.169  25.808 -13.592  1.00  0.00     0.016 A 
ATOM     14  C   UNL     1      20.406  27.139 -13.239  1.00  0.00     0.051 A 
ATOM     15  C   UNL     1      21.564  27.488 -12.532  1.00  0.00     0.157 A 
ATOM     16  C   UNL     1      22.245  25.159 -12.527  1.00  0.00     0.062 A 
ATOM     17  C   UNL     1      22.486  26.491 -12.172  1.00  0.00     0.158 A 
BRANCH  15  18
ATOM     18  O   UNL     1      21.799  28.817 -12.184  1.00  0.00    -0.504 OA
ATOM     19  H   UNL     1      22.739  29.182 -12.088  1.00  0.00     0.293 HD
ENDBRANCH  15  18
BRANCH  17  20
ATOM     20  O   UNL     1      23.646  26.804 -11.463  1.00  0.00    -0.504 OA
ATOM     21  H   UNL     1      24.388  27.362 -11.866  1.00  0.00     0.293 HD
ENDBRANCH  17  20
ENDBRANCH   1  12
BRANCH   2  22
ATOM     22  O   UNL     1      22.153  23.553 -15.642  1.00  0.00    -0.502 OA
ATOM     23  H   UNL     1      23.078  23.875 -15.386  1.00  0.00     0.293 HD
ENDBRANCH   2  22
BRANCH   6  24
ATOM     24  O   UNL     1      20.111  18.636 -15.510  1.00  0.00    -0.507 OA
ATOM     25  H   UNL     1      19.680  18.837 -16.400  1.00  0.00     0.293 HD
ENDBRANCH   6  24
BRANCH   8  26
ATOM     26  O   UNL     1      18.154  18.655 -11.125  1.00  0.00    -0.508 OA
ATOM     27  H   UNL     1      17.640  17.802 -11.315  1.00  0.00     0.293 HD
ENDBRANCH   8  26
TORSDOF 6
ENDMDL
MODEL 6
REMARK VINA RESULT:    -4.658      3.299      5.214
REMARK INTER + INTRA:          -5.899
REMARK INTER:                  -5.594
REMARK INTRA:                  -0.304
REMARK UNBOUND:                -0.288
REMARK SMILES O=c1c(O)c(-c2ccc(O)c(O)c2)oc2cc(O)cc(O)c12
REMARK SMILES IDX 5 1 3 2 2 3 1 4 22 5 20 6 19 7 17 8 16 9 15 10 14 11 6 12
REMARK SMILES IDX 7 13 8 14 9 15 13 16 11 17 10 18 12 20 4 22 21 24 18 26
REMARK H PARENT 10 19 12 21 4 23 21 25 18 27
REMARK Flexibility Score: inf
ROOT
ATOM      1  C   UNL     1      18.489  23.165 -14.679  1.00  0.00     0.180 A 
ATOM      2  C   UNL     1      18.009  22.833 -13.400  1.00  0.00     0.208 A 
ATOM      3  C   UNL     1      16.829  23.438 -12.937  1.00  0.00     0.238 A 
ATOM      4  O   UNL     1      16.435  23.179 -11.771  1.00  0.00    -0.285 OA
ATOM      5  C   UNL     1      16.136  24.354 -13.764  1.00  0.00     0.111 A 
ATOM      6  C   UNL     1      14.910  24.995 -13.414  1.00  0.00     0.134 A 
ATOM      7  C   UNL     1      14.381  25.982 -14.255  1.00  0.00     0.093 A 
ATOM      8  C   UNL     1      14.999  26.302 -15.467  1.00  0.00     0.123 A 
ATOM      9  C   UNL     1      16.164  25.639 -15.846  1.00  0.00     0.094 A 
ATOM     10  C   UNL     1      16.735  24.676 -15.009  1.00  0.00     0.146 A 
ATOM     11  O   UNL     1      17.852  24.076 -15.405  1.00  0.00    -0.452 OA
ENDROOT
BRANCH   1  12
ATOM     12  C   UNL     1      19.711  22.550 -15.245  1.00  0.00     0.025 A 
ATOM     13  C   UNL     1      19.692  21.256 -15.794  1.00  0.00     0.016 A 
ATOM     14  C   UNL     1      20.853  20.706 -16.345  1.00  0.00     0.051 A 
ATOM     15  C   UNL     1      22.044  21.444 -16.368  1.00  0.00     0.157 A 
ATOM     16  C   UNL     1      20.902  23.293 -15.290  1.00  0.00     0.062 A 
ATOM     17  C   UNL     1      22.067  22.745 -15.840  1.00  0.00     0.158 A 
BRANCH  15  18
ATOM     18  O   UNL     1      23.200  20.891 -16.916  1.00  0.00    -0.504 OA
ATOM     19  H   UNL     1      23.509  21.126 -17.852  1.00  0.00     0.293 HD
ENDBRANCH  15  18
BRANCH  17  20
ATOM     20  O   UNL     1      23.234  23.509 -15.854  1.00  0.00    -0.504 OA
ATOM     21  H   UNL     1      24.084  23.182 -16.297  1.00  0.00     0.293 HD
ENDBRANCH  17  20
ENDBRANCH   1  12
BRANCH   2  22
ATOM     22  O   UNL     1      18.721  21.943 -12.591  1.00  0.00    -0.502 OA
ATOM     23  H   UNL     1      18.271  21.197 -12.075  1.00  0.00     0.293 HD
ENDBRANCH   2  22
BRANCH   6  24
ATOM     24  O   UNL     1      14.165  24.683 -12.273  1.00  0.00    -0.507 OA
ATOM     25  H   UNL     1      14.555  24.350 -11.404  1.00  0.00     0.293 HD
ENDBRANCH   6  24
BRANCH   8  26
ATOM     26  O   UNL     1      14.458  27.274 -16.305  1.00  0.00    -0.508 OA
ATOM     27  H   UNL     1      13.714  27.056 -16.958  1.00  0.00     0.293 HD
ENDBRANCH   8  26
TORSDOF 6
ENDMDL
MODEL 7
REMARK VINA RESULT:    -4.633      1.720      7.128
REMARK INTER + INTRA:          -5.869
REMARK INTER:                  -5.534
REMARK INTRA:                  -0.335
REMARK UNBOUND:                -0.288
REMARK SMILES O=c1c(O)c(-c2ccc(O)c(O)c2)oc2cc(O)cc(O)c12
REMARK SMILES IDX 5 1 3 2 2 3 1 4 22 5 20 6 19 7 17 8 16 9 15 10 14 11 6 12
REMARK SMILES IDX 7 13 8 14 9 15 13 16 11 17 10 18 12 20 4 22 21 24 18 26
REMARK H PARENT 10 19 12 21 4 23 21 25 18 27
REMARK Flexibility Score: inf
ROOT
ATOM      1  C   UNL     1      18.942  22.632 -14.697  1.00  0.00     0.180 A 
ATOM      2  C   UNL     1      18.412  21.917 -13.609  1.00  0.00     0.208 A 
ATOM      3  C   UNL     1      18.930  22.147 -12.325  1.00  0.00     0.238 A 
ATOM      4  O   UNL     1      18.490  21.464 -11.364  1.00  0.00    -0.285 OA
ATOM      5  C   UNL     1      19.960  23.101 -12.141  1.00  0.00     0.111 A 
ATOM      6  C   UNL     1      20.531  23.444 -10.879  1.00  0.00     0.134 A 
ATOM      7  C   UNL     1      21.634  24.306 -10.831  1.00  0.00     0.093 A 
ATOM      8  C   UNL     1      22.143  24.889 -11.995  1.00  0.00     0.123 A 
ATOM      9  C   UNL     1      21.555  24.607 -13.225  1.00  0.00     0.094 A 
ATOM     10  C   UNL     1      20.477  23.721 -13.308  1.00  0.00     0.146 A 
ATOM     11  O   UNL     1      19.952  23.472 -14.502  1.00  0.00    -0.452 OA
ENDROOT
BRANCH   1  12
ATOM     12  C   UNL     1      18.431  22.463 -16.076  1.00  0.00     0.025 A 
ATOM     13  C   UNL     1      17.365  23.239 -16.562  1.00  0.00     0.016 A 
ATOM     14  C   UNL     1      16.915  23.078 -17.876  1.00  0.00     0.051 A 
ATOM     15  C   UNL     1      17.531  22.150 -18.725  1.00  0.00     0.157 A 
ATOM     16  C   UNL     1      19.058  21.548 -16.939  1.00  0.00     0.062 A 
ATOM     17  C   UNL     1      18.610  21.384 -18.254  1.00  0.00     0.158 A 
BRANCH  15  18
ATOM     18  O   UNL     1      17.078  21.990 -20.034  1.00  0.00    -0.504 OA
ATOM     19  H   UNL     1      17.715  21.780 -20.794  1.00  0.00     0.293 HD
ENDBRANCH  15  18
BRANCH  17  20
ATOM     20  O   UNL     1      19.249  20.456 -19.077  1.00  0.00    -0.504 OA
ATOM     21  H   UNL     1      18.923  20.255 -20.014  1.00  0.00     0.293 HD
ENDBRANCH  17  20
ENDBRANCH   1  12
BRANCH   2  22
ATOM     22  O   UNL     1      17.411  20.963 -13.816  1.00  0.00    -0.502 OA
ATOM     23  H   UNL     1      16.436  21.145 -13.610  1.00  0.00     0.293 HD
ENDBRANCH   2  22
BRANCH   6  24
ATOM     24  O   UNL     1      20.040  22.990  -9.651  1.00  0.00    -0.507 OA
ATOM     25  H   UNL     1      20.613  22.726  -8.864  1.00  0.00     0.293 HD
ENDBRANCH   6  24
BRANCH   8  26
ATOM     26  O   UNL     1      23.231  25.757 -11.936  1.00  0.00    -0.508 OA
ATOM     27  H   UNL     1      24.166  25.424 -11.729  1.00  0.00     0.293 HD
ENDBRANCH   8  26
TORSDOF 6
ENDMDL
MODEL 8
REMARK VINA RESULT:    -4.547      3.451      5.716
REMARK INTER + INTRA:          -5.766
REMARK INTER:                  -5.442
REMARK INTRA:                  -0.323
REMARK UNBOUND:                -0.288
REMARK SMILES O=c1c(O)c(-c2ccc(O)c(O)c2)oc2cc(O)cc(O)c12
REMARK SMILES IDX 5 1 3 2 2 3 1 4 22 5 20 6 19 7 17 8 16 9 15 10 14 11 6 12
REMARK SMILES IDX 7 13 8 14 9 15 13 16 11 17 10 18 12 20 4 22 21 24 18 26
REMARK H PARENT 10 19 12 21 4 23 21 25 18 27
REMARK Flexibility Score: inf
ROOT
ATOM      1  C   UNL     1      17.814  24.041 -14.033  1.00  0.00     0.180 A 
ATOM      2  C   UNL     1      18.916  24.727 -13.495  1.00  0.00     0.208 A 
ATOM      3  C   UNL     1      20.208  24.385 -13.927  1.00  0.00     0.238 A 
ATOM      4  O   UNL     1      21.194  24.964 -13.401  1.00  0.00    -0.285 OA
ATOM      5  C   UNL     1      20.380  23.374 -14.902  1.00  0.00     0.111 A 
ATOM      6  C   UNL     1      21.640  22.975 -15.443  1.00  0.00     0.134 A 
ATOM      7  C   UNL     1      21.703  21.875 -16.307  1.00  0.00     0.093 A 
ATOM      8  C   UNL     1      20.544  21.202 -16.702  1.00  0.00     0.123 A 
ATOM      9  C   UNL     1      19.304  21.622 -16.228  1.00  0.00     0.094 A 
ATOM     10  C   UNL     1      19.213  22.693 -15.335  1.00  0.00     0.146 A 
ATOM     11  O   UNL     1      18.011  23.053 -14.898  1.00  0.00    -0.452 OA
ENDROOT
BRANCH   1  12
ATOM     12  C   UNL     1      16.421  24.362 -13.647  1.00  0.00     0.025 A 
ATOM     13  C   UNL     1      15.792  23.714 -12.570  1.00  0.00     0.016 A 
ATOM     14  C   UNL     1      14.485  24.051 -12.208  1.00  0.00     0.051 A 
ATOM     15  C   UNL     1      13.793  25.048 -12.907  1.00  0.00     0.157 A 
ATOM     16  C   UNL     1      15.729  25.376 -14.331  1.00  0.00     0.062 A 
ATOM     17  C   UNL     1      14.420  25.715 -13.972  1.00  0.00     0.158 A 
BRANCH  15  18
ATOM     18  O   UNL     1      12.488  25.380 -12.545  1.00  0.00    -0.504 OA
ATOM     19  H   UNL     1      11.916  25.989 -13.120  1.00  0.00     0.293 HD
ENDBRANCH  15  18
BRANCH  17  20
ATOM     20  O   UNL     1      13.761  26.718 -14.683  1.00  0.00    -0.504 OA
ATOM     21  H   UNL     1      14.252  27.519 -15.063  1.00  0.00     0.293 HD
ENDBRANCH  17  20
ENDBRANCH   1  12
BRANCH   2  22
ATOM     22  O   UNL     1      18.725  25.706 -12.516  1.00  0.00    -0.502 OA
ATOM     23  H   UNL     1      17.948  26.355 -12.540  1.00  0.00     0.293 HD
ENDBRANCH   2  22
BRANCH   6  24
ATOM     24  O   UNL     1      22.844  23.637 -15.185  1.00  0.00    -0.507 OA
ATOM     25  H   UNL     1      23.042  24.592 -15.443  1.00  0.00     0.293 HD
ENDBRANCH   6  24
BRANCH   8  26
ATOM     26  O   UNL     1      20.615  20.118 -17.575  1.00  0.00    -0.508 OA
ATOM     27  H   UNL     1      20.672  19.165 -17.234  1.00  0.00     0.293 HD
ENDBRANCH   8  26
TORSDOF 6
ENDMDL
MODEL 9
REMARK VINA RESULT:    -4.502      3.163      4.760
REMARK INTER + INTRA:          -5.711
REMARK INTER:                  -5.386
REMARK INTRA:                  -0.325
REMARK UNBOUND:                -0.288
REMARK SMILES O=c1c(O)c(-c2ccc(O)c(O)c2)oc2cc(O)cc(O)c12
REMARK SMILES IDX 5 1 3 2 2 3 1 4 22 5 20 6 19 7 17 8 16 9 15 10 14 11 6 12
REMARK SMILES IDX 7 13 8 14 9 15 13 16 11 17 10 18 12 20 4 22 21 24 18 26
REMARK H PARENT 10 19 12 21 4 23 21 25 18 27
REMARK Flexibility Score: inf
ROOT
ATOM      1  C   UNL     1      19.792  21.411 -15.671  1.00  0.00     0.180 A 
ATOM      2  C   UNL     1      21.133  21.617 -15.306  1.00  0.00     0.208 A 
ATOM      3  C   UNL     1      22.144  20.968 -16.033  1.00  0.00     0.238 A 
ATOM      4  O   UNL     1      23.340  21.112 -15.666  1.00  0.00    -0.285 OA
ATOM      5  C   UNL     1      21.803  20.135 -17.125  1.00  0.00     0.111 A 
ATOM      6  C   UNL     1      22.747  19.460 -17.956  1.00  0.00     0.134 A 
ATOM      7  C   UNL     1      22.293  18.559 -18.927  1.00  0.00     0.093 A 
ATOM      8  C   UNL     1      20.926  18.358 -19.140  1.00  0.00     0.123 A 
ATOM      9  C   UNL     1      19.997  19.057 -18.374  1.00  0.00     0.094 A 
ATOM     10  C   UNL     1      20.420  19.935 -17.373  1.00  0.00     0.146 A 
ATOM     11  O   UNL     1      19.500  20.572 -16.658  1.00  0.00    -0.452 OA
ENDROOT
BRANCH   1  12
ATOM     12  C   UNL     1      18.673  22.080 -14.969  1.00  0.00     0.025 A 
ATOM     13  C   UNL     1      18.278  23.387 -15.300  1.00  0.00     0.016 A 
ATOM     14  C   UNL     1      17.203  23.989 -14.640  1.00  0.00     0.051 A 
ATOM     15  C   UNL     1      16.499  23.290 -13.651  1.00  0.00     0.157 A 
ATOM     16  C   UNL     1      17.951  21.376 -13.991  1.00  0.00     0.062 A 
ATOM     17  C   UNL     1      16.874  21.976 -13.327  1.00  0.00     0.158 A 
BRANCH  15  18
ATOM     18  O   UNL     1      15.429  23.895 -12.993  1.00  0.00    -0.504 OA
ATOM     19  H   UNL     1      15.562  24.420 -12.136  1.00  0.00     0.293 HD
ENDBRANCH  15  18
BRANCH  17  20
ATOM     20  O   UNL     1      16.190  21.250 -12.352  1.00  0.00    -0.504 OA
ATOM     21  H   UNL     1      15.195  21.360 -12.199  1.00  0.00     0.293 HD
ENDBRANCH  17  20
ENDBRANCH   1  12
BRANCH   2  22
ATOM     22  O   UNL     1      21.447  22.426 -14.209  1.00  0.00    -0.502 OA
ATOM     23  H   UNL     1      21.699  22.043 -13.306  1.00  0.00     0.293 HD
ENDBRANCH   2  22
BRANCH   6  24
ATOM     24  O   UNL     1      24.129  19.660 -17.888  1.00  0.00    -0.507 OA
ATOM     25  H   UNL     1      24.637  19.879 -17.044  1.00  0.00     0.293 HD
ENDBRANCH   6  24
BRANCH   8  26
ATOM     26  O   UNL     1      20.483  17.471 -20.118  1.00  0.00    -0.508 OA
ATOM     27  H   UNL     1      19.681  17.681 -20.701  1.00  0.00     0.293 HD
ENDBRANCH   8  26
TORSDOF 6
ENDMDL
