MODEL 1
REMARK VINA RESULT:    -8.148      0.000      0.000
REMARK INTER + INTRA:         -14.418
REMARK INTER:                 -12.197
REMARK INTRA:                  -2.220
REMARK UNBOUND:                -2.220
REMARK SMILES C=C(CC[C@@H](C(=O)[O-])[C@@H]1[C@@H](O)C[C@@]2(C)C3=C(CC[C@@]12C)[C@@]1(C)CC[C@@H](OC(C)=O)C(C)(C)[C@@H]1CC3)C(C)C
REMARK SMILES IDX 4 1 5 2 6 3 7 4 8 5 9 6 10 7 19 8 12 9 13 10 18 11 20 12
REMARK SMILES IDX 14 13 15 14 17 15 16 16 35 17 21 18 34 19 33 20 23 21 22 22
REMARK SMILES IDX 30 23 24 24 25 25 31 26 32 27 11 28 26 30 27 31 29 32 28 33
REMARK SMILES IDX 3 34 2 35 1 36 36 37 37 38 38 39
REMARK H PARENT 11 29
REMARK Flexibility Score: inf
ROOT
ATOM      1  C   UNL     1      15.210 -33.142  20.639  1.00  0.00     0.014 C 
ENDROOT
BRANCH   1   2
ATOM      2  C   UNL     1      16.374 -33.145  21.666  1.00  0.00     0.042 C 
BRANCH   2   3
ATOM      3  C   UNL     1      16.717 -34.584  21.988  1.00  0.00     0.045 C 
ATOM      4  O   UNL     1      16.816 -34.950  23.189  1.00  0.00    -0.550 OA
ATOM      5  O   UNL     1      16.810 -35.542  20.988  1.00  0.00    -0.550 OA
ENDBRANCH   2   3
BRANCH   2   6
ATOM      6  C   UNL     1      17.592 -32.250  21.224  1.00  0.00     0.033 C 
ATOM      7  C   UNL     1      18.840 -33.015  20.727  1.00  0.00     0.119 C 
ATOM      8  C   UNL     1      18.109 -31.132  22.223  1.00  0.00    -0.017 C 
ATOM      9  C   UNL     1      20.009 -32.055  20.897  1.00  0.00     0.043 C 
ATOM     10  C   UNL     1      19.706 -31.233  22.169  1.00  0.00    -0.003 C 
ATOM     11  C   UNL     1      17.595 -29.739  21.727  1.00  0.00     0.012 C 
ATOM     12  C   UNL     1      17.551 -31.267  23.671  1.00  0.00     0.013 C 
ATOM     13  C   UNL     1      20.280 -32.055  23.367  1.00  0.00     0.017 C 
ATOM     14  C   UNL     1      20.411 -29.851  22.036  1.00  0.00    -0.064 C 
ATOM     15  C   UNL     1      18.487 -29.149  20.643  1.00  0.00     0.032 C 
ATOM     16  C   UNL     1      19.860 -28.877  21.241  1.00  0.00    -0.064 C 
ATOM     17  C   UNL     1      21.726 -29.617  22.789  1.00  0.00     0.032 C 
ATOM     18  C   UNL     1      20.649 -27.588  20.907  1.00  0.00    -0.008 C 
ATOM     19  C   UNL     1      22.402 -28.245  22.632  1.00  0.00     0.009 C 
ATOM     20  C   UNL     1      21.402 -27.152  22.220  1.00  0.00     0.009 C 
ATOM     21  C   UNL     1      19.709 -26.433  20.448  1.00  0.00     0.015 C 
ATOM     22  C   UNL     1      21.572 -27.977  19.717  1.00  0.00     0.016 C 
ATOM     23  C   UNL     1      21.995 -25.681  22.289  1.00  0.00     0.005 C 
ATOM     24  C   UNL     1      20.408 -25.072  20.375  1.00  0.00     0.047 C 
ATOM     25  C   UNL     1      20.946 -24.660  21.752  1.00  0.00     0.182 C 
ATOM     26  C   UNL     1      23.337 -25.515  21.527  1.00  0.00     0.015 C 
ATOM     27  C   UNL     1      22.292 -25.302  23.768  1.00  0.00     0.015 C 
BRANCH   7  28
ATOM     28  O   UNL     1      18.726 -33.453  19.392  1.00  0.00    -0.393 OA
ATOM     29  H   UNL     1      18.804 -34.443  19.378  1.00  0.00     0.210 HD
ENDBRANCH   7  28
BRANCH  25  30
ATOM     30  O   UNL     1      19.856 -24.548  22.677  1.00  0.00    -0.462 OA
BRANCH  30  31
ATOM     31  C   UNL     1      19.481 -23.351  23.295  1.00  0.00     0.302 C 
ATOM     32  O   UNL     1      19.818 -23.104  24.486  1.00  0.00    -0.253 OA
ATOM     33  C   UNL     1      18.674 -22.359  22.536  1.00  0.00     0.139 C 
ENDBRANCH  30  31
ENDBRANCH  25  30
ENDBRANCH   2   6
ENDBRANCH   1   2
BRANCH   1  34
ATOM     34  C   UNL     1      13.881 -32.626  21.219  1.00  0.00     0.031 C 
BRANCH  34  35
ATOM     35  C   UNL     1      14.040 -31.213  21.740  1.00  0.00    -0.075 C 
ATOM     36  C   UNL     1      14.231 -30.208  20.863  1.00  0.00     0.008 C 
BRANCH  35  37
ATOM     37  C   UNL     1      14.022 -30.954  23.241  1.00  0.00     0.008 C 
ATOM     38  C   UNL     1      13.077 -29.800  23.583  1.00  0.00     0.012 C 
ATOM     39  C   UNL     1      13.652 -32.222  24.024  1.00  0.00     0.012 C 
ENDBRANCH  35  37
ENDBRANCH  34  35
ENDBRANCH   1  34
TORSDOF 9
ENDMDL
MODEL 2
REMARK VINA RESULT:    -7.973      1.176      1.676
REMARK INTER + INTRA:         -14.155
REMARK INTER:                 -12.805
REMARK INTRA:                  -1.350
REMARK UNBOUND:                -2.220
REMARK SMILES C=C(CC[C@@H](C(=O)[O-])[C@@H]1[C@@H](O)C[C@@]2(C)C3=C(CC[C@@]12C)[C@@]1(C)CC[C@@H](OC(C)=O)C(C)(C)[C@@H]1CC3)C(C)C
REMARK SMILES IDX 4 1 5 2 6 3 7 4 8 5 9 6 10 7 19 8 12 9 13 10 18 11 20 12
REMARK SMILES IDX 14 13 15 14 17 15 16 16 35 17 21 18 34 19 33 20 23 21 22 22
REMARK SMILES IDX 30 23 24 24 25 25 31 26 32 27 11 28 26 30 27 31 29 32 28 33
REMARK SMILES IDX 3 34 2 35 1 36 36 37 37 38 38 39
REMARK H PARENT 11 29
REMARK Flexibility Score: inf
ROOT
ATOM      1  C   UNL     1      14.124 -31.580  21.319  1.00  0.00     0.014 C 
ENDROOT
BRANCH   1   2
ATOM      2  C   UNL     1      15.325 -32.562  21.366  1.00  0.00     0.042 C 
BRANCH   2   3
ATOM      3  C   UNL     1      14.973 -33.780  20.537  1.00  0.00     0.045 C 
ATOM      4  O   UNL     1      14.233 -33.655  19.526  1.00  0.00    -0.550 OA
ATOM      5  O   UNL     1      15.547 -35.017  20.798  1.00  0.00    -0.550 OA
ENDBRANCH   2   3
BRANCH   2   6
ATOM      6  C   UNL     1      16.698 -31.880  21.003  1.00  0.00     0.033 C 
ATOM      7  C   UNL     1      17.806 -32.832  20.498  1.00  0.00     0.119 C 
ATOM      8  C   UNL     1      17.370 -30.922  22.073  1.00  0.00    -0.017 C 
ATOM      9  C   UNL     1      19.120 -32.107  20.748  1.00  0.00     0.043 C 
ATOM     10  C   UNL     1      18.925 -31.305  22.054  1.00  0.00    -0.003 C 
ATOM     11  C   UNL     1      17.130 -29.437  21.637  1.00  0.00     0.012 C 
ATOM     12  C   UNL     1      16.748 -31.022  23.497  1.00  0.00     0.013 C 
ATOM     13  C   UNL     1      19.302 -32.272  23.221  1.00  0.00     0.017 C 
ATOM     14  C   UNL     1      19.868 -30.066  22.011  1.00  0.00    -0.064 C 
ATOM     15  C   UNL     1      18.149 -28.966  20.609  1.00  0.00     0.032 C 
ATOM     16  C   UNL     1      19.528 -28.973  21.255  1.00  0.00    -0.064 C 
ATOM     17  C   UNL     1      21.178 -30.109  22.809  1.00  0.00     0.032 C 
ATOM     18  C   UNL     1      20.544 -27.833  21.009  1.00  0.00    -0.008 C 
ATOM     19  C   UNL     1      22.093 -28.874  22.742  1.00  0.00     0.009 C 
ATOM     20  C   UNL     1      21.317 -27.601  22.362  1.00  0.00     0.009 C 
ATOM     21  C   UNL     1      19.840 -26.507  20.589  1.00  0.00     0.015 C 
ATOM     22  C   UNL     1      21.423 -28.324  19.824  1.00  0.00     0.016 C 
ATOM     23  C   UNL     1      22.160 -26.266  22.524  1.00  0.00     0.005 C 
ATOM     24  C   UNL     1      20.773 -25.291  20.605  1.00  0.00     0.047 C 
ATOM     25  C   UNL     1      21.328 -25.048  22.015  1.00  0.00     0.182 C 
ATOM     26  C   UNL     1      23.535 -26.307  21.806  1.00  0.00     0.015 C 
ATOM     27  C   UNL     1      22.468 -26.016  24.027  1.00  0.00     0.015 C 
BRANCH   7  28
ATOM     28  O   UNL     1      17.662 -33.179  19.140  1.00  0.00    -0.393 OA
ATOM     29  H   UNL     1      17.468 -32.352  18.623  1.00  0.00     0.210 HD
ENDBRANCH   7  28
BRANCH  25  30
ATOM     30  O   UNL     1      20.244 -24.787  22.916  1.00  0.00    -0.462 OA
BRANCH  30  31
ATOM     31  C   UNL     1      19.841 -23.502  23.295  1.00  0.00     0.302 C 
ATOM     32  O   UNL     1      19.087 -22.814  22.553  1.00  0.00    -0.253 OA
ATOM     33  C   UNL     1      20.313 -22.942  24.590  1.00  0.00     0.139 C 
ENDBRANCH  30  31
ENDBRANCH  25  30
ENDBRANCH   2   6
ENDBRANCH   1   2
BRANCH   1  34
ATOM     34  C   UNL     1      13.413 -31.415  22.674  1.00  0.00     0.031 C 
BRANCH  34  35
ATOM     35  C   UNL     1      12.445 -30.251  22.629  1.00  0.00    -0.075 C 
ATOM     36  C   UNL     1      11.413 -30.289  21.763  1.00  0.00     0.008 C 
BRANCH  35  37
ATOM     37  C   UNL     1      12.673 -29.044  23.530  1.00  0.00     0.008 C 
ATOM     38  C   UNL     1      13.947 -28.298  23.130  1.00  0.00     0.012 C 
ATOM     39  C   UNL     1      11.457 -28.105  23.526  1.00  0.00     0.012 C 
ENDBRANCH  35  37
ENDBRANCH  34  35
ENDBRANCH   1  34
TORSDOF 9
ENDMDL
MODEL 3
REMARK VINA RESULT:    -7.143      3.986      9.242
REMARK INTER + INTRA:         -12.913
REMARK INTER:                 -10.443
REMARK INTRA:                  -2.470
REMARK UNBOUND:                -2.220
REMARK SMILES C=C(CC[C@@H](C(=O)[O-])[C@@H]1[C@@H](O)C[C@@]2(C)C3=C(CC[C@@]12C)[C@@]1(C)CC[C@@H](OC(C)=O)C(C)(C)[C@@H]1CC3)C(C)C
REMARK SMILES IDX 4 1 5 2 6 3 7 4 8 5 9 6 10 7 19 8 12 9 13 10 18 11 20 12
REMARK SMILES IDX 14 13 15 14 17 15 16 16 35 17 21 18 34 19 33 20 23 21 22 22
REMARK SMILES IDX 30 23 24 24 25 25 31 26 32 27 11 28 26 30 27 31 29 32 28 33
REMARK SMILES IDX 3 34 2 35 1 36 36 37 37 38 38 39
REMARK H PARENT 11 29
REMARK Flexibility Score: inf
ROOT
ATOM      1  C   UNL     1      26.170 -32.088  23.257  1.00  0.00     0.014 C 
ENDROOT
BRANCH   1   2
ATOM      2  C   UNL     1      25.010 -32.104  24.288  1.00  0.00     0.042 C 
BRANCH   2   3
ATOM      3  C   UNL     1      25.476 -31.385  25.537  1.00  0.00     0.045 C 
ATOM      4  O   UNL     1      26.430 -30.566  25.467  1.00  0.00    -0.550 OA
ATOM      5  O   UNL     1      24.797 -31.520  26.740  1.00  0.00    -0.550 OA
ENDBRANCH   2   3
BRANCH   2   6
ATOM      6  C   UNL     1      23.644 -31.591  23.693  1.00  0.00     0.033 C 
ATOM      7  C   UNL     1      23.290 -30.119  24.001  1.00  0.00     0.119 C 
ATOM      8  C   UNL     1      22.335 -32.444  23.967  1.00  0.00    -0.017 C 
ATOM      9  C   UNL     1      21.780 -30.015  23.845  1.00  0.00     0.043 C 
ATOM     10  C   UNL     1      21.206 -31.367  24.326  1.00  0.00    -0.003 C 
ATOM     11  C   UNL     1      21.982 -33.250  22.672  1.00  0.00     0.012 C 
ATOM     12  C   UNL     1      22.501 -33.527  25.075  1.00  0.00     0.013 C 
ATOM     13  C   UNL     1      21.000 -31.229  25.868  1.00  0.00     0.017 C 
ATOM     14  C   UNL     1      19.856 -31.613  23.589  1.00  0.00    -0.064 C 
ATOM     15  C   UNL     1      21.199 -32.414  21.669  1.00  0.00     0.032 C 
ATOM     16  C   UNL     1      19.857 -32.046  22.287  1.00  0.00    -0.064 C 
ATOM     17  C   UNL     1      18.546 -31.346  24.341  1.00  0.00     0.032 C 
ATOM     18  C   UNL     1      18.549 -32.076  21.462  1.00  0.00    -0.008 C 
ATOM     19  C   UNL     1      17.229 -31.592  23.585  1.00  0.00     0.009 C 
ATOM     20  C   UNL     1      17.407 -32.583  22.423  1.00  0.00     0.009 C 
ATOM     21  C   UNL     1      18.654 -33.038  20.240  1.00  0.00     0.015 C 
ATOM     22  C   UNL     1      18.370 -30.624  20.935  1.00  0.00     0.016 C 
ATOM     23  C   UNL     1      16.040 -33.061  21.773  1.00  0.00     0.005 C 
ATOM     24  C   UNL     1      17.307 -33.310  19.562  1.00  0.00     0.047 C 
ATOM     25  C   UNL     1      16.328 -33.973  20.541  1.00  0.00     0.182 C 
ATOM     26  C   UNL     1      15.105 -31.893  21.362  1.00  0.00     0.015 C 
ATOM     27  C   UNL     1      15.239 -33.912  22.799  1.00  0.00     0.015 C 
BRANCH   7  28
ATOM     28  O   UNL     1      23.956 -29.203  23.161  1.00  0.00    -0.393 OA
ATOM     29  H   UNL     1      23.784 -28.284  23.500  1.00  0.00     0.210 HD
ENDBRANCH   7  28
BRANCH  25  30
ATOM     30  O   UNL     1      16.866 -35.228  20.978  1.00  0.00    -0.462 OA
BRANCH  30  31
ATOM     31  C   UNL     1      16.974 -36.355  20.156  1.00  0.00     0.302 C 
ATOM     32  O   UNL     1      16.315 -36.441  19.083  1.00  0.00    -0.253 OA
ATOM     33  C   UNL     1      17.879 -37.466  20.557  1.00  0.00     0.139 C 
ENDBRANCH  30  31
ENDBRANCH  25  30
ENDBRANCH   2   6
ENDBRANCH   1   2
BRANCH   1  34
ATOM     34  C   UNL     1      26.869 -33.450  23.098  1.00  0.00     0.031 C 
BRANCH  34  35
ATOM     35  C   UNL     1      25.906 -34.481  22.549  1.00  0.00    -0.075 C 
ATOM     36  C   UNL     1      25.295 -34.247  21.371  1.00  0.00     0.008 C 
BRANCH  35  37
ATOM     37  C   UNL     1      25.615 -35.745  23.349  1.00  0.00     0.008 C 
ATOM     38  C   UNL     1      25.913 -35.530  24.834  1.00  0.00     0.012 C 
ATOM     39  C   UNL     1      24.170 -36.221  23.138  1.00  0.00     0.012 C 
ENDBRANCH  35  37
ENDBRANCH  34  35
ENDBRANCH   1  34
TORSDOF 9
ENDMDL
MODEL 4
REMARK VINA RESULT:    -7.080      1.777      3.040
REMARK INTER + INTRA:         -12.819
REMARK INTER:                 -11.642
REMARK INTRA:                  -1.177
REMARK UNBOUND:                -2.220
REMARK SMILES C=C(CC[C@@H](C(=O)[O-])[C@@H]1[C@@H](O)C[C@@]2(C)C3=C(CC[C@@]12C)[C@@]1(C)CC[C@@H](OC(C)=O)C(C)(C)[C@@H]1CC3)C(C)C
REMARK SMILES IDX 4 1 5 2 6 3 7 4 8 5 9 6 10 7 19 8 12 9 13 10 18 11 20 12
REMARK SMILES IDX 14 13 15 14 17 15 16 16 35 17 21 18 34 19 33 20 23 21 22 22
REMARK SMILES IDX 30 23 24 24 25 25 31 26 32 27 11 28 26 30 27 31 29 32 28 33
REMARK SMILES IDX 3 34 2 35 1 36 36 37 37 38 38 39
REMARK H PARENT 11 29
REMARK Flexibility Score: inf
ROOT
ATOM      1  C   UNL     1      15.330 -33.516  22.672  1.00  0.00     0.014 C 
ENDROOT
BRANCH   1   2
ATOM      2  C   UNL     1      15.241 -32.602  21.420  1.00  0.00     0.042 C 
BRANCH   2   3
ATOM      3  C   UNL     1      14.088 -31.640  21.616  1.00  0.00     0.045 C 
ATOM      4  O   UNL     1      13.376 -31.721  22.651  1.00  0.00    -0.550 OA
ATOM      5  O   UNL     1      13.871 -30.589  20.736  1.00  0.00    -0.550 OA
ENDBRANCH   2   3
BRANCH   2   6
ATOM      6  C   UNL     1      16.616 -31.931  21.045  1.00  0.00     0.033 C 
ATOM      7  C   UNL     1      17.714 -32.891  20.536  1.00  0.00     0.119 C 
ATOM      8  C   UNL     1      17.302 -30.974  22.108  1.00  0.00    -0.017 C 
ATOM      9  C   UNL     1      19.035 -32.174  20.774  1.00  0.00     0.043 C 
ATOM     10  C   UNL     1      18.854 -31.367  22.079  1.00  0.00    -0.003 C 
ATOM     11  C   UNL     1      17.068 -29.489  21.670  1.00  0.00     0.012 C 
ATOM     12  C   UNL     1      16.689 -31.066  23.537  1.00  0.00     0.013 C 
ATOM     13  C   UNL     1      19.233 -32.334  23.246  1.00  0.00     0.017 C 
ATOM     14  C   UNL     1      19.805 -30.135  22.026  1.00  0.00    -0.064 C 
ATOM     15  C   UNL     1      18.084 -29.027  20.633  1.00  0.00     0.032 C 
ATOM     16  C   UNL     1      19.466 -29.041  21.270  1.00  0.00    -0.064 C 
ATOM     17  C   UNL     1      21.120 -30.183  22.814  1.00  0.00     0.032 C 
ATOM     18  C   UNL     1      20.488 -27.908  21.013  1.00  0.00    -0.008 C 
ATOM     19  C   UNL     1      22.042 -28.955  22.738  1.00  0.00     0.009 C 
ATOM     20  C   UNL     1      21.273 -27.679  22.360  1.00  0.00     0.009 C 
ATOM     21  C   UNL     1      19.790 -26.579  20.594  1.00  0.00     0.015 C 
ATOM     22  C   UNL     1      21.356 -28.409  19.824  1.00  0.00     0.016 C 
ATOM     23  C   UNL     1      22.125 -26.348  22.512  1.00  0.00     0.005 C 
ATOM     24  C   UNL     1      20.731 -25.370  20.600  1.00  0.00     0.047 C 
ATOM     25  C   UNL     1      21.297 -25.126  22.006  1.00  0.00     0.182 C 
ATOM     26  C   UNL     1      23.495 -26.400  21.784  1.00  0.00     0.015 C 
ATOM     27  C   UNL     1      22.446 -26.096  24.013  1.00  0.00     0.015 C 
BRANCH   7  28
ATOM     28  O   UNL     1      17.558 -33.240  19.179  1.00  0.00    -0.393 OA
ATOM     29  H   UNL     1      16.818 -33.901  19.107  1.00  0.00     0.210 HD
ENDBRANCH   7  28
BRANCH  25  30
ATOM     30  O   UNL     1      20.221 -24.856  22.914  1.00  0.00    -0.462 OA
BRANCH  30  31
ATOM     31  C   UNL     1      19.867 -23.570  23.337  1.00  0.00     0.302 C 
ATOM     32  O   UNL     1      19.071 -22.862  22.662  1.00  0.00    -0.253 OA
ATOM     33  C   UNL     1      20.442 -23.034  24.600  1.00  0.00     0.139 C 
ENDBRANCH  30  31
ENDBRANCH  25  30
ENDBRANCH   2   6
ENDBRANCH   1   2
BRANCH   1  34
ATOM     34  C   UNL     1      16.223 -34.753  22.467  1.00  0.00     0.031 C 
BRANCH  34  35
ATOM     35  C   UNL     1      17.036 -35.034  23.713  1.00  0.00    -0.075 C 
ATOM     36  C   UNL     1      16.608 -34.555  24.897  1.00  0.00     0.008 C 
BRANCH  35  37
ATOM     37  C   UNL     1      18.339 -35.817  23.604  1.00  0.00     0.008 C 
ATOM     38  C   UNL     1      18.362 -36.976  24.602  1.00  0.00     0.012 C 
ATOM     39  C   UNL     1      18.576 -36.314  22.171  1.00  0.00     0.012 C 
ENDBRANCH  35  37
ENDBRANCH  34  35
ENDBRANCH   1  34
TORSDOF 9
ENDMDL
MODEL 5
REMARK VINA RESULT:    -6.875      3.779      5.216
REMARK INTER + INTRA:         -12.511
REMARK INTER:                 -11.510
REMARK INTRA:                  -1.001
REMARK UNBOUND:                -2.220
REMARK SMILES C=C(CC[C@@H](C(=O)[O-])[C@@H]1[C@@H](O)C[C@@]2(C)C3=C(CC[C@@]12C)[C@@]1(C)CC[C@@H](OC(C)=O)C(C)(C)[C@@H]1CC3)C(C)C
REMARK SMILES IDX 4 1 5 2 6 3 7 4 8 5 9 6 10 7 19 8 12 9 13 10 18 11 20 12
REMARK SMILES IDX 14 13 15 14 17 15 16 16 35 17 21 18 34 19 33 20 23 21 22 22
REMARK SMILES IDX 30 23 24 24 25 25 31 26 32 27 11 28 26 30 27 31 29 32 28 33
REMARK SMILES IDX 3 34 2 35 1 36 36 37 37 38 38 39
REMARK H PARENT 11 29
REMARK Flexibility Score: inf
ROOT
ATOM      1  C   UNL     1      14.704 -30.942  21.396  1.00  0.00     0.014 C 
ENDROOT
BRANCH   1   2
ATOM      2  C   UNL     1      15.107 -32.438  21.480  1.00  0.00     0.042 C 
BRANCH   2   3
ATOM      3  C   UNL     1      14.325 -33.200  20.431  1.00  0.00     0.045 C 
ATOM      4  O   UNL     1      13.501 -32.590  19.700  1.00  0.00    -0.550 OA
ATOM      5  O   UNL     1      14.583 -34.539  20.174  1.00  0.00    -0.550 OA
ENDBRANCH   2   3
BRANCH   2   6
ATOM      6  C   UNL     1      16.666 -32.662  21.445  1.00  0.00     0.033 C 
ATOM      7  C   UNL     1      17.164 -33.753  20.471  1.00  0.00     0.119 C 
ATOM      8  C   UNL     1      17.426 -32.892  22.818  1.00  0.00    -0.017 C 
ATOM      9  C   UNL     1      18.532 -34.177  20.989  1.00  0.00     0.043 C 
ATOM     10  C   UNL     1      18.454 -34.085  22.528  1.00  0.00    -0.003 C 
ATOM     11  C   UNL     1      18.164 -31.568  23.211  1.00  0.00     0.012 C 
ATOM     12  C   UNL     1      16.486 -33.194  24.023  1.00  0.00     0.013 C 
ATOM     13  C   UNL     1      17.905 -35.462  23.020  1.00  0.00     0.017 C 
ATOM     14  C   UNL     1      19.888 -33.815  23.074  1.00  0.00    -0.064 C 
ATOM     15  C   UNL     1      19.512 -31.432  22.516  1.00  0.00     0.032 C 
ATOM     16  C   UNL     1      20.421 -32.553  22.998  1.00  0.00    -0.064 C 
ATOM     17  C   UNL     1      20.682 -34.983  23.671  1.00  0.00     0.032 C 
ATOM     18  C   UNL     1      21.915 -32.305  23.315  1.00  0.00    -0.008 C 
ATOM     19  C   UNL     1      22.098 -34.687  24.196  1.00  0.00     0.009 C 
ATOM     20  C   UNL     1      22.281 -33.204  24.556  1.00  0.00     0.009 C 
ATOM     21  C   UNL     1      22.196 -30.812  23.663  1.00  0.00     0.015 C 
ATOM     22  C   UNL     1      22.671 -32.657  22.002  1.00  0.00     0.016 C 
ATOM     23  C   UNL     1      23.632 -32.895  25.331  1.00  0.00     0.005 C 
ATOM     24  C   UNL     1      23.592 -30.575  24.248  1.00  0.00     0.047 C 
ATOM     25  C   UNL     1      23.775 -31.358  25.556  1.00  0.00     0.182 C 
ATOM     26  C   UNL     1      24.896 -33.450  24.624  1.00  0.00     0.015 C 
ATOM     27  C   UNL     1      23.597 -33.564  26.735  1.00  0.00     0.015 C 
BRANCH   7  28
ATOM     28  O   UNL     1      17.236 -33.312  19.135  1.00  0.00    -0.393 OA
ATOM     29  H   UNL     1      18.027 -32.716  19.043  1.00  0.00     0.210 HD
ENDBRANCH   7  28
BRANCH  25  30
ATOM     30  O   UNL     1      22.811 -30.912  26.518  1.00  0.00    -0.462 OA
BRANCH  30  31
ATOM     31  C   UNL     1      22.806 -29.630  27.077  1.00  0.00     0.302 C 
ATOM     32  O   UNL     1      21.767 -28.915  27.051  1.00  0.00    -0.253 OA
ATOM     33  C   UNL     1      24.047 -29.105  27.708  1.00  0.00     0.139 C 
ENDBRANCH  30  31
ENDBRANCH  25  30
ENDBRANCH   2   6
ENDBRANCH   1   2
BRANCH   1  34
ATOM     34  C   UNL     1      14.361 -30.320  22.761  1.00  0.00     0.031 C 
BRANCH  34  35
ATOM     35  C   UNL     1      12.924 -29.843  22.783  1.00  0.00    -0.075 C 
ATOM     36  C   UNL     1      12.006 -30.490  22.039  1.00  0.00     0.008 C 
BRANCH  35  37
ATOM     37  C   UNL     1      12.546 -28.620  23.610  1.00  0.00     0.008 C 
ATOM     38  C   UNL     1      13.628 -27.542  23.515  1.00  0.00     0.012 C 
ATOM     39  C   UNL     1      11.175 -28.066  23.197  1.00  0.00     0.012 C 
ENDBRANCH  35  37
ENDBRANCH  34  35
ENDBRANCH   1  34
TORSDOF 9
ENDMDL
MODEL 6
REMARK VINA RESULT:    -6.864      2.967      9.126
REMARK INTER + INTRA:         -12.495
REMARK INTER:                 -10.569
REMARK INTRA:                  -1.925
REMARK UNBOUND:                -2.220
REMARK SMILES C=C(CC[C@@H](C(=O)[O-])[C@@H]1[C@@H](O)C[C@@]2(C)C3=C(CC[C@@]12C)[C@@]1(C)CC[C@@H](OC(C)=O)C(C)(C)[C@@H]1CC3)C(C)C
REMARK SMILES IDX 4 1 5 2 6 3 7 4 8 5 9 6 10 7 19 8 12 9 13 10 18 11 20 12
REMARK SMILES IDX 14 13 15 14 17 15 16 16 35 17 21 18 34 19 33 20 23 21 22 22
REMARK SMILES IDX 30 23 24 24 25 25 31 26 32 27 11 28 26 30 27 31 29 32 28 33
REMARK SMILES IDX 3 34 2 35 1 36 36 37 37 38 38 39
REMARK H PARENT 11 29
REMARK Flexibility Score: inf
ROOT
ATOM      1  C   UNL     1      22.492 -27.214  23.518  1.00  0.00     0.014 C 
ENDROOT
BRANCH   1   2
ATOM      2  C   UNL     1      23.107 -28.117  24.620  1.00  0.00     0.042 C 
BRANCH   2   3
ATOM      3  C   UNL     1      23.573 -27.229  25.755  1.00  0.00     0.045 C 
ATOM      4  O   UNL     1      22.811 -26.329  26.198  1.00  0.00    -0.550 OA
ATOM      5  O   UNL     1      24.779 -27.462  26.401  1.00  0.00    -0.550 OA
ENDBRANCH   2   3
BRANCH   2   6
ATOM      6  C   UNL     1      22.163 -29.305  25.045  1.00  0.00     0.033 C 
ATOM      7  C   UNL     1      22.180 -29.669  26.547  1.00  0.00     0.119 C 
ATOM      8  C   UNL     1      22.261 -30.669  24.243  1.00  0.00    -0.017 C 
ATOM      9  C   UNL     1      21.686 -31.106  26.630  1.00  0.00     0.043 C 
ATOM     10  C   UNL     1      22.212 -31.813  25.362  1.00  0.00    -0.003 C 
ATOM     11  C   UNL     1      21.044 -30.761  23.261  1.00  0.00     0.012 C 
ATOM     12  C   UNL     1      23.517 -30.781  23.328  1.00  0.00     0.013 C 
ATOM     13  C   UNL     1      23.638 -32.343  25.718  1.00  0.00     0.017 C 
ATOM     14  C   UNL     1      21.241 -32.980  25.015  1.00  0.00    -0.064 C 
ATOM     15  C   UNL     1      19.788 -31.282  23.947  1.00  0.00     0.032 C 
ATOM     16  C   UNL     1      20.043 -32.712  24.402  1.00  0.00    -0.064 C 
ATOM     17  C   UNL     1      21.644 -34.412  25.389  1.00  0.00     0.032 C 
ATOM     18  C   UNL     1      18.964 -33.812  24.257  1.00  0.00    -0.008 C 
ATOM     19  C   UNL     1      20.661 -35.542  25.040  1.00  0.00     0.009 C 
ATOM     20  C   UNL     1      19.714 -35.150  23.894  1.00  0.00     0.009 C 
ATOM     21  C   UNL     1      17.940 -33.478  23.131  1.00  0.00     0.015 C 
ATOM     22  C   UNL     1      18.215 -33.827  25.619  1.00  0.00     0.016 C 
ATOM     23  C   UNL     1      18.854 -36.360  23.331  1.00  0.00     0.005 C 
ATOM     24  C   UNL     1      17.029 -34.655  22.767  1.00  0.00     0.047 C 
ATOM     25  C   UNL     1      17.853 -35.843  22.252  1.00  0.00     0.182 C 
ATOM     26  C   UNL     1      18.092 -37.147  24.430  1.00  0.00     0.015 C 
ATOM     27  C   UNL     1      19.788 -37.391  22.635  1.00  0.00     0.015 C 
BRANCH   7  28
ATOM     28  O   UNL     1      21.387 -28.808  27.334  1.00  0.00    -0.393 OA
ATOM     29  H   UNL     1      21.053 -28.072  26.755  1.00  0.00     0.210 HD
ENDBRANCH   7  28
BRANCH  25  30
ATOM     30  O   UNL     1      18.566 -35.453  21.071  1.00  0.00    -0.462 OA
BRANCH  30  31
ATOM     31  C   UNL     1      17.972 -35.334  19.809  1.00  0.00     0.302 C 
ATOM     32  O   UNL     1      18.310 -34.410  19.019  1.00  0.00    -0.253 OA
ATOM     33  C   UNL     1      16.928 -36.310  19.399  1.00  0.00     0.139 C 
ENDBRANCH  30  31
ENDBRANCH  25  30
ENDBRANCH   2   6
ENDBRANCH   1   2
BRANCH   1  34
ATOM     34  C   UNL     1      23.275 -27.243  22.193  1.00  0.00     0.031 C 
BRANCH  34  35
ATOM     35  C   UNL     1      22.342 -27.034  21.019  1.00  0.00    -0.075 C 
ATOM     36  C   UNL     1      22.863 -26.873  19.787  1.00  0.00     0.008 C 
BRANCH  35  37
ATOM     37  C   UNL     1      20.837 -26.969  21.252  1.00  0.00     0.008 C 
ATOM     38  C   UNL     1      20.230 -25.749  20.558  1.00  0.00     0.012 C 
ATOM     39  C   UNL     1      20.145 -28.264  20.801  1.00  0.00     0.012 C 
ENDBRANCH  35  37
ENDBRANCH  34  35
ENDBRANCH   1  34
TORSDOF 9
ENDMDL
MODEL 7
REMARK VINA RESULT:    -6.735      4.352      7.681
REMARK INTER + INTRA:         -12.301
REMARK INTER:                 -10.209
REMARK INTRA:                  -2.092
REMARK UNBOUND:                -2.220
REMARK SMILES C=C(CC[C@@H](C(=O)[O-])[C@@H]1[C@@H](O)C[C@@]2(C)C3=C(CC[C@@]12C)[C@@]1(C)CC[C@@H](OC(C)=O)C(C)(C)[C@@H]1CC3)C(C)C
REMARK SMILES IDX 4 1 5 2 6 3 7 4 8 5 9 6 10 7 19 8 12 9 13 10 18 11 20 12
REMARK SMILES IDX 14 13 15 14 17 15 16 16 35 17 21 18 34 19 33 20 23 21 22 22
REMARK SMILES IDX 30 23 24 24 25 25 31 26 32 27 11 28 26 30 27 31 29 32 28 33
REMARK SMILES IDX 3 34 2 35 1 36 36 37 37 38 38 39
REMARK H PARENT 11 29
REMARK Flexibility Score: inf
ROOT
ATOM      1  C   UNL     1      16.739 -32.165  20.812  1.00  0.00     0.014 C 
ENDROOT
BRANCH   1   2
ATOM      2  C   UNL     1      16.632 -32.933  22.156  1.00  0.00     0.042 C 
BRANCH   2   3
ATOM      3  C   UNL     1      15.220 -33.466  22.285  1.00  0.00     0.045 C 
ATOM      4  O   UNL     1      14.624 -33.912  21.270  1.00  0.00    -0.550 OA
ATOM      5  O   UNL     1      14.608 -33.583  23.525  1.00  0.00    -0.550 OA
ENDBRANCH   2   3
BRANCH   2   6
ATOM      6  C   UNL     1      17.770 -34.005  22.349  1.00  0.00     0.033 C 
ATOM      7  C   UNL     1      17.298 -35.473  22.448  1.00  0.00     0.119 C 
ATOM      8  C   UNL     1      18.824 -33.783  23.514  1.00  0.00    -0.017 C 
ATOM      9  C   UNL     1      18.414 -36.219  23.166  1.00  0.00     0.043 C 
ATOM     10  C   UNL     1      19.005 -35.224  24.189  1.00  0.00    -0.003 C 
ATOM     11  C   UNL     1      20.161 -33.260  22.887  1.00  0.00     0.012 C 
ATOM     12  C   UNL     1      18.414 -32.688  24.543  1.00  0.00     0.013 C 
ATOM     13  C   UNL     1      18.148 -35.372  25.487  1.00  0.00     0.017 C 
ATOM     14  C   UNL     1      20.493 -35.609  24.440  1.00  0.00    -0.064 C 
ATOM     15  C   UNL     1      21.027 -34.392  22.351  1.00  0.00     0.032 C 
ATOM     16  C   UNL     1      21.451 -35.273  23.518  1.00  0.00    -0.064 C 
ATOM     17  C   UNL     1      20.850 -36.379  25.718  1.00  0.00     0.032 C 
ATOM     18  C   UNL     1      22.887 -35.839  23.625  1.00  0.00    -0.008 C 
ATOM     19  C   UNL     1      22.327 -36.751  25.935  1.00  0.00     0.009 C 
ATOM     20  C   UNL     1      23.276 -35.829  25.152  1.00  0.00     0.009 C 
ATOM     21  C   UNL     1      23.914 -34.976  22.831  1.00  0.00     0.015 C 
ATOM     22  C   UNL     1      22.815 -37.249  22.973  1.00  0.00     0.016 C 
ATOM     23  C   UNL     1      24.806 -36.010  25.536  1.00  0.00     0.005 C 
ATOM     24  C   UNL     1      25.373 -35.335  23.133  1.00  0.00     0.047 C 
ATOM     25  C   UNL     1      25.693 -35.114  24.617  1.00  0.00     0.182 C 
ATOM     26  C   UNL     1      25.293 -37.481  25.475  1.00  0.00     0.015 C 
ATOM     27  C   UNL     1      25.040 -35.540  27.001  1.00  0.00     0.015 C 
BRANCH   7  28
ATOM     28  O   UNL     1      17.020 -36.051  21.193  1.00  0.00    -0.393 OA
ATOM     29  H   UNL     1      16.757 -36.999  21.335  1.00  0.00     0.210 HD
ENDBRANCH   7  28
BRANCH  25  30
ATOM     30  O   UNL     1      25.498 -33.732  24.947  1.00  0.00    -0.462 OA
BRANCH  30  31
ATOM     31  C   UNL     1      26.297 -32.696  24.452  1.00  0.00     0.302 C 
ATOM     32  O   UNL     1      25.782 -31.702  23.870  1.00  0.00    -0.253 OA
ATOM     33  C   UNL     1      27.774 -32.772  24.615  1.00  0.00     0.139 C 
ENDBRANCH  30  31
ENDBRANCH  25  30
ENDBRANCH   2   6
ENDBRANCH   1   2
BRANCH   1  34
ATOM     34  C   UNL     1      18.109 -31.497  20.594  1.00  0.00     0.031 C 
BRANCH  34  35
ATOM     35  C   UNL     1      18.126 -30.108  21.197  1.00  0.00    -0.075 C 
ATOM     36  C   UNL     1      16.957 -29.507  21.493  1.00  0.00     0.008 C 
BRANCH  35  37
ATOM     37  C   UNL     1      19.455 -29.399  21.424  1.00  0.00     0.008 C 
ATOM     38  C   UNL     1      20.617 -30.229  20.873  1.00  0.00     0.012 C 
ATOM     39  C   UNL     1      19.448 -27.988  20.818  1.00  0.00     0.012 C 
ENDBRANCH  35  37
ENDBRANCH  34  35
ENDBRANCH   1  34
TORSDOF 9
ENDMDL
MODEL 8
REMARK VINA RESULT:    -6.703      2.651      3.775
REMARK INTER + INTRA:         -12.254
REMARK INTER:                 -10.797
REMARK INTRA:                  -1.457
REMARK UNBOUND:                -2.220
REMARK SMILES C=C(CC[C@@H](C(=O)[O-])[C@@H]1[C@@H](O)C[C@@]2(C)C3=C(CC[C@@]12C)[C@@]1(C)CC[C@@H](OC(C)=O)C(C)(C)[C@@H]1CC3)C(C)C
REMARK SMILES IDX 4 1 5 2 6 3 7 4 8 5 9 6 10 7 19 8 12 9 13 10 18 11 20 12
REMARK SMILES IDX 14 13 15 14 17 15 16 16 35 17 21 18 34 19 33 20 23 21 22 22
REMARK SMILES IDX 30 23 24 24 25 25 31 26 32 27 11 28 26 30 27 31 29 32 28 33
REMARK SMILES IDX 3 34 2 35 1 36 36 37 37 38 38 39
REMARK H PARENT 11 29
REMARK Flexibility Score: inf
ROOT
ATOM      1  C   UNL     1      15.531 -31.803  20.874  1.00  0.00     0.014 C 
ENDROOT
BRANCH   1   2
ATOM      2  C   UNL     1      16.157 -33.189  21.184  1.00  0.00     0.042 C 
BRANCH   2   3
ATOM      3  C   UNL     1      15.814 -34.128  20.046  1.00  0.00     0.045 C 
ATOM      4  O   UNL     1      14.913 -34.993  20.200  1.00  0.00    -0.550 OA
ATOM      5  O   UNL     1      16.391 -33.979  18.792  1.00  0.00    -0.550 OA
ENDBRANCH   2   3
BRANCH   2   6
ATOM      6  C   UNL     1      17.688 -33.110  21.547  1.00  0.00     0.033 C 
ATOM      7  C   UNL     1      18.455 -34.451  21.510  1.00  0.00     0.119 C 
ATOM      8  C   UNL     1      18.107 -32.380  22.891  1.00  0.00    -0.017 C 
ATOM      9  C   UNL     1      19.677 -34.254  22.395  1.00  0.00     0.043 C 
ATOM     10  C   UNL     1      19.230 -33.320  23.541  1.00  0.00    -0.003 C 
ATOM     11  C   UNL     1      18.667 -30.961  22.538  1.00  0.00     0.012 C 
ATOM     12  C   UNL     1      16.921 -32.107  23.864  1.00  0.00     0.013 C 
ATOM     13  C   UNL     1      18.644 -34.246  24.654  1.00  0.00     0.017 C 
ATOM     14  C   UNL     1      20.477 -32.537  24.047  1.00  0.00    -0.064 C 
ATOM     15  C   UNL     1      20.134 -31.005  22.132  1.00  0.00     0.032 C 
ATOM     16  C   UNL     1      20.954 -31.471  23.328  1.00  0.00    -0.064 C 
ATOM     17  C   UNL     1      21.159 -32.995  25.343  1.00  0.00     0.032 C 
ATOM     18  C   UNL     1      22.315 -30.824  23.677  1.00  0.00    -0.008 C 
ATOM     19  C   UNL     1      22.393 -32.206  25.814  1.00  0.00     0.009 C 
ATOM     20  C   UNL     1      22.415 -30.777  25.249  1.00  0.00     0.009 C 
ATOM     21  C   UNL     1      22.434 -29.377  23.113  1.00  0.00     0.015 C 
ATOM     22  C   UNL     1      23.378 -31.718  22.977  1.00  0.00     0.016 C 
ATOM     23  C   UNL     1      23.525 -29.847  25.900  1.00  0.00     0.005 C 
ATOM     24  C   UNL     1      23.638 -28.605  23.665  1.00  0.00     0.047 C 
ATOM     25  C   UNL     1      23.539 -28.459  25.189  1.00  0.00     0.182 C 
ATOM     26  C   UNL     1      24.947 -30.469  25.881  1.00  0.00     0.015 C 
ATOM     27  C   UNL     1      23.188 -29.594  27.397  1.00  0.00     0.015 C 
BRANCH   7  28
ATOM     28  O   UNL     1      18.823 -34.842  20.206  1.00  0.00    -0.393 OA
ATOM     29  H   UNL     1      17.995 -34.995  19.678  1.00  0.00     0.210 HD
ENDBRANCH   7  28
BRANCH  25  30
ATOM     30  O   UNL     1      22.353 -27.727  25.523  1.00  0.00    -0.462 OA
BRANCH  30  31
ATOM     31  C   UNL     1      22.254 -26.333  25.454  1.00  0.00     0.302 C 
ATOM     32  O   UNL     1      21.749 -25.769  24.444  1.00  0.00    -0.253 OA
ATOM     33  C   UNL     1      22.756 -25.509  26.586  1.00  0.00     0.139 C 
ENDBRANCH  30  31
ENDBRANCH  25  30
ENDBRANCH   2   6
ENDBRANCH   1   2
BRANCH   1  34
ATOM     34  C   UNL     1      14.008 -31.755  21.090  1.00  0.00     0.031 C 
BRANCH  34  35
ATOM     35  C   UNL     1      13.677 -31.067  22.398  1.00  0.00    -0.075 C 
ATOM     36  C   UNL     1      13.491 -31.815  23.503  1.00  0.00     0.008 C 
BRANCH  35  37
ATOM     37  C   UNL     1      13.523 -29.552  22.437  1.00  0.00     0.008 C 
ATOM     38  C   UNL     1      12.601 -29.128  23.582  1.00  0.00     0.012 C 
ATOM     39  C   UNL     1      14.886 -28.852  22.536  1.00  0.00     0.012 C 
ENDBRANCH  35  37
ENDBRANCH  34  35
ENDBRANCH   1  34
TORSDOF 9
ENDMDL
MODEL 9
REMARK VINA RESULT:    -6.634      4.400      8.019
REMARK INTER + INTRA:         -12.151
REMARK INTER:                  -9.793
REMARK INTRA:                  -2.358
REMARK UNBOUND:                -2.220
REMARK SMILES C=C(CC[C@@H](C(=O)[O-])[C@@H]1[C@@H](O)C[C@@]2(C)C3=C(CC[C@@]12C)[C@@]1(C)CC[C@@H](OC(C)=O)C(C)(C)[C@@H]1CC3)C(C)C
REMARK SMILES IDX 4 1 5 2 6 3 7 4 8 5 9 6 10 7 19 8 12 9 13 10 18 11 20 12
REMARK SMILES IDX 14 13 15 14 17 15 16 16 35 17 21 18 34 19 33 20 23 21 22 22
REMARK SMILES IDX 30 23 24 24 25 25 31 26 32 27 11 28 26 30 27 31 29 32 28 33
REMARK SMILES IDX 3 34 2 35 1 36 36 37 37 38 38 39
REMARK H PARENT 11 29
REMARK Flexibility Score: inf
ROOT
ATOM      1  C   UNL     1      16.374 -32.990  21.244  1.00  0.00     0.014 C 
ENDROOT
BRANCH   1   2
ATOM      2  C   UNL     1      17.419 -31.871  21.500  1.00  0.00     0.042 C 
BRANCH   2   3
ATOM      3  C   UNL     1      16.678 -30.612  21.899  1.00  0.00     0.045 C 
ATOM      4  O   UNL     1      15.682 -30.690  22.666  1.00  0.00    -0.550 OA
ATOM      5  O   UNL     1      17.144 -29.357  21.533  1.00  0.00    -0.550 OA
ENDBRANCH   2   3
BRANCH   2   6
ATOM      6  C   UNL     1      18.569 -32.310  22.484  1.00  0.00     0.033 C 
ATOM      7  C   UNL     1      18.549 -31.641  23.876  1.00  0.00     0.119 C 
ATOM      8  C   UNL     1      20.067 -32.249  21.968  1.00  0.00    -0.017 C 
ATOM      9  C   UNL     1      19.970 -31.756  24.411  1.00  0.00     0.043 C 
ATOM     10  C   UNL     1      20.900 -31.624  23.184  1.00  0.00    -0.003 C 
ATOM     11  C   UNL     1      20.538 -33.702  21.623  1.00  0.00     0.012 C 
ATOM     12  C   UNL     1      20.252 -31.448  20.644  1.00  0.00     0.013 C 
ATOM     13  C   UNL     1      21.156 -30.095  22.993  1.00  0.00     0.017 C 
ATOM     14  C   UNL     1      22.221 -32.390  23.490  1.00  0.00    -0.064 C 
ATOM     15  C   UNL     1      21.018 -34.459  22.854  1.00  0.00     0.032 C 
ATOM     16  C   UNL     1      22.254 -33.759  23.402  1.00  0.00    -0.064 C 
ATOM     17  C   UNL     1      23.461 -31.587  23.903  1.00  0.00     0.032 C 
ATOM     18  C   UNL     1      23.474 -34.557  23.920  1.00  0.00    -0.008 C 
ATOM     19  C   UNL     1      24.749 -32.371  24.205  1.00  0.00     0.009 C 
ATOM     20  C   UNL     1      24.763 -33.745  23.516  1.00  0.00     0.009 C 
ATOM     21  C   UNL     1      23.548 -35.981  23.291  1.00  0.00     0.015 C 
ATOM     22  C   UNL     1      23.242 -34.703  25.451  1.00  0.00     0.016 C 
ATOM     23  C   UNL     1      26.166 -34.485  23.589  1.00  0.00     0.005 C 
ATOM     24  C   UNL     1      24.876 -36.696  23.558  1.00  0.00     0.047 C 
ATOM     25  C   UNL     1      26.050 -35.908  22.961  1.00  0.00     0.182 C 
ATOM     26  C   UNL     1      26.743 -34.584  25.026  1.00  0.00     0.015 C 
ATOM     27  C   UNL     1      27.219 -33.699  22.757  1.00  0.00     0.015 C 
BRANCH   7  28
ATOM     28  O   UNL     1      17.621 -32.229  24.760  1.00  0.00    -0.393 OA
ATOM     29  H   UNL     1      18.101 -32.495  25.588  1.00  0.00     0.210 HD
ENDBRANCH   7  28
BRANCH  25  30
ATOM     30  O   UNL     1      25.880 -35.802  21.541  1.00  0.00    -0.462 OA
BRANCH  30  31
ATOM     31  C   UNL     1      26.611 -36.553  20.614  1.00  0.00     0.302 C 
ATOM     32  O   UNL     1      26.432 -37.797  20.503  1.00  0.00    -0.253 OA
ATOM     33  C   UNL     1      27.613 -35.872  19.751  1.00  0.00     0.139 C 
ENDBRANCH  30  31
ENDBRANCH  25  30
ENDBRANCH   2   6
ENDBRANCH   1   2
BRANCH   1  34
ATOM     34  C   UNL     1      16.651 -34.281  22.036  1.00  0.00     0.031 C 
BRANCH  34  35
ATOM     35  C   UNL     1      17.272 -35.331  21.140  1.00  0.00    -0.075 C 
ATOM     36  C   UNL     1      18.000 -36.320  21.694  1.00  0.00     0.008 C 
BRANCH  35  37
ATOM     37  C   UNL     1      17.098 -35.235  19.629  1.00  0.00     0.008 C 
ATOM     38  C   UNL     1      18.291 -34.524  18.987  1.00  0.00     0.012 C 
ATOM     39  C   UNL     1      16.875 -36.619  19.001  1.00  0.00     0.012 C 
ENDBRANCH  35  37
ENDBRANCH  34  35
ENDBRANCH   1  34
TORSDOF 9
ENDMDL
