MODEL 1
REMARK VINA RESULT:    -3.555      0.000      0.000
REMARK INTER + INTRA:          -4.710
REMARK INTER:                  -5.009
REMARK INTRA:                   0.300
REMARK UNBOUND:                 0.300
REMARK SMILES CC1=CCC(=C(C)C)C(=O)CC(C)=CCC1
REMARK SMILES IDX 12 1 14 2 13 3 15 4 16 5 2 6 1 7 3 8 11 10 9 11 10 12 5 13
REMARK SMILES IDX 6 14 7 15 8 16 4 17
REMARK H PARENT
REMARK Flexibility Score: 60.00
ROOT
ATOM      1  C   UNL     1      68.251  67.079  28.878  1.00  0.00    -0.070 C 
ATOM      2  C   UNL     1      67.312  66.837  29.828  1.00  0.00    -0.027 C 
ATOM      3  C   UNL     1      67.768  67.615  27.552  1.00  0.00     0.039 C 
ENDROOT
BRANCH   2   4
ATOM      4  C   UNL     1      67.554  66.210  31.181  1.00  0.00     0.032 C 
BRANCH   4   5
ATOM      5  C   UNL     1      67.295  67.170  32.350  1.00  0.00     0.034 C 
BRANCH   5   6
ATOM      6  C   UNL     1      68.608  67.615  32.964  1.00  0.00    -0.077 C 
ATOM      7  C   UNL     1      69.178  66.803  34.099  1.00  0.00     0.039 C 
ATOM      8  C   UNL     1      69.334  68.657  32.495  1.00  0.00    -0.023 CG0
ATOM      9  G   UNL     1      68.921  69.591  31.382  1.00  0.00     0.000 G0
ENDBRANCH   5   6
ENDBRANCH   4   5
ENDBRANCH   2   4
BRANCH   1  10
ATOM     10  C   UNL     1      69.754  66.922  29.088  1.00  0.00     0.111 C 
BRANCH  10  11
ATOM     11  C   UNL     1      70.382  68.045  29.874  1.00  0.00     0.163 C 
ATOM     12  O   UNL     1      71.547  67.864  30.324  1.00  0.00    -0.294 OA
BRANCH  11  13
ATOM     13  C   UNL     1      69.705  69.369  30.082  1.00  0.00    -0.002 C 
ATOM     14  C   UNL     1      69.818  70.366  29.149  1.00  0.00    -0.069 C 
ATOM     15  C   UNL     1      69.227  71.740  29.379  1.00  0.00     0.039 C 
ATOM     16  C   UNL     1      70.494  70.137  27.815  1.00  0.00     0.039 C 
BRANCH  13  17
ATOM     17  C   UNL     1      68.934  69.603  31.379  1.00  0.00     0.066 CG0
ATOM     18  G   UNL     1      69.340  68.635  32.466  1.00  0.00     0.000 G0
ENDBRANCH  13  17
ENDBRANCH  11  13
ENDBRANCH  10  11
ENDBRANCH   1  10
TORSDOF 0
ENDMDL
MODEL 2
REMARK VINA RESULT:    -3.504      8.023     10.691
REMARK INTER + INTRA:          -4.638
REMARK INTER:                  -4.787
REMARK INTRA:                   0.149
REMARK UNBOUND:                 0.300
REMARK SMILES CC1=CCC(=C(C)C)C(=O)CC(C)=CCC1
REMARK SMILES IDX 12 1 14 2 13 3 15 4 16 5 2 6 1 7 3 8 11 10 9 11 10 12 5 13
REMARK SMILES IDX 6 14 7 15 8 16 4 17
REMARK H PARENT
REMARK Flexibility Score: 60.00
ROOT
ATOM      1  C   UNL     1      66.001  67.298  40.479  1.00  0.00    -0.070 C 
ATOM      2  C   UNL     1      66.183  67.706  41.761  1.00  0.00    -0.027 C 
ATOM      3  C   UNL     1      64.578  67.151  39.997  1.00  0.00     0.039 C 
ENDROOT
BRANCH   2   4
ATOM      4  C   UNL     1      67.507  67.823  42.479  1.00  0.00     0.032 C 
BRANCH   4   5
ATOM      5  C   UNL     1      68.143  66.465  42.807  1.00  0.00     0.034 C 
BRANCH   5   6
ATOM      6  C   UNL     1      69.598  66.452  42.380  1.00  0.00    -0.077 C 
ATOM      7  C   UNL     1      70.546  67.417  43.044  1.00  0.00     0.039 C 
ATOM      8  C   UNL     1      70.105  65.568  41.489  1.00  0.00    -0.023 CG0
ATOM      9  G   UNL     1      69.311  64.542  40.714  1.00  0.00     0.000 G0
ENDBRANCH   5   6
ENDBRANCH   4   5
ENDBRANCH   2   4
BRANCH   1  10
ATOM     10  C   UNL     1      67.129  67.062  39.479  1.00  0.00     0.111 C 
BRANCH  10  11
ATOM     11  C   UNL     1      67.455  65.606  39.257  1.00  0.00     0.163 C 
ATOM     12  O   UNL     1      66.510  64.841  38.920  1.00  0.00    -0.294 OA
BRANCH  11  13
ATOM     13  C   UNL     1      68.849  65.061  39.361  1.00  0.00    -0.002 C 
ATOM     14  C   UNL     1      69.662  65.003  38.259  1.00  0.00    -0.069 C 
ATOM     15  C   UNL     1      71.035  64.370  38.316  1.00  0.00     0.039 C 
ATOM     16  C   UNL     1      69.255  65.614  36.936  1.00  0.00     0.039 C 
BRANCH  13  17
ATOM     17  C   UNL     1      69.327  64.520  40.707  1.00  0.00     0.066 CG0
ATOM     18  G   UNL     1      70.094  65.554  41.497  1.00  0.00     0.000 G0
ENDBRANCH  13  17
ENDBRANCH  11  13
ENDBRANCH  10  11
ENDBRANCH   1  10
TORSDOF 0
ENDMDL
MODEL 3
REMARK VINA RESULT:    -3.500     10.040     11.720
REMARK INTER + INTRA:          -4.633
REMARK INTER:                  -4.735
REMARK INTRA:                   0.103
REMARK UNBOUND:                 0.300
REMARK SMILES CC1=CCC(=C(C)C)C(=O)CC(C)=CCC1
REMARK SMILES IDX 12 1 14 2 13 3 15 4 16 5 2 6 1 7 3 8 11 10 9 11 10 12 5 13
REMARK SMILES IDX 6 14 7 15 8 16 4 17
REMARK H PARENT
REMARK Flexibility Score: 60.00
ROOT
ATOM      1  C   UNL     1      66.302  67.073  40.132  1.00  0.00    -0.070 C 
ATOM      2  C   UNL     1      66.745  65.943  39.524  1.00  0.00    -0.027 C 
ATOM      3  C   UNL     1      64.811  67.301  40.164  1.00  0.00     0.039 C 
ENDROOT
BRANCH   2   4
ATOM      4  C   UNL     1      68.188  65.564  39.289  1.00  0.00     0.032 C 
BRANCH   4   5
ATOM      5  C   UNL     1      68.840  64.878  40.498  1.00  0.00     0.034 C 
BRANCH   5   6
ATOM      6  C   UNL     1      70.187  65.509  40.793  1.00  0.00    -0.077 C 
ATOM      7  C   UNL     1      71.275  65.391  39.756  1.00  0.00     0.039 C 
ATOM      8  C   UNL     1      70.441  66.238  41.905  1.00  0.00    -0.023 CG0
ATOM      9  G   UNL     1      69.485  66.453  43.056  1.00  0.00     0.000 G0
ENDBRANCH   5   6
ENDBRANCH   4   5
ENDBRANCH   2   4
BRANCH   1  10
ATOM     10  C   UNL     1      67.201  68.077  40.849  1.00  0.00     0.111 C 
BRANCH  10  11
ATOM     11  C   UNL     1      67.385  67.793  42.318  1.00  0.00     0.163 C 
ATOM     12  O   UNL     1      66.358  67.506  42.991  1.00  0.00    -0.294 OA
BRANCH  11  13
ATOM     13  C   UNL     1      68.732  67.781  42.980  1.00  0.00    -0.002 C 
ATOM     14  C   UNL     1      69.296  68.941  43.441  1.00  0.00    -0.069 C 
ATOM     15  C   UNL     1      70.692  68.971  44.023  1.00  0.00     0.039 C 
ATOM     16  C   UNL     1      68.537  70.250  43.442  1.00  0.00     0.039 C 
BRANCH  13  17
ATOM     17  C   UNL     1      69.489  66.458  43.080  1.00  0.00     0.066 CG0
ATOM     18  G   UNL     1      70.427  66.249  41.914  1.00  0.00     0.000 G0
ENDBRANCH  13  17
ENDBRANCH  11  13
ENDBRANCH  10  11
ENDBRANCH   1  10
TORSDOF 0
ENDMDL
MODEL 4
REMARK VINA RESULT:    -3.468     17.625     18.880
REMARK INTER + INTRA:          -4.588
REMARK INTER:                  -4.789
REMARK INTRA:                   0.202
REMARK UNBOUND:                 0.300
REMARK SMILES CC1=CCC(=C(C)C)C(=O)CC(C)=CCC1
REMARK SMILES IDX 12 1 14 2 13 3 15 4 16 5 2 6 1 7 3 8 11 10 9 11 10 12 5 13
REMARK SMILES IDX 6 14 7 15 8 16 4 17
REMARK H PARENT
REMARK Flexibility Score: 60.00
ROOT
ATOM      1  C   UNL     1      53.769  75.787  33.785  1.00  0.00    -0.070 C 
ATOM      2  C   UNL     1      54.244  76.250  32.601  1.00  0.00    -0.027 C 
ATOM      3  C   UNL     1      52.766  74.660  33.733  1.00  0.00     0.039 C 
ENDROOT
BRANCH   2   4
ATOM      4  C   UNL     1      55.170  77.428  32.412  1.00  0.00     0.032 C 
BRANCH   4   5
ATOM      5  C   UNL     1      54.429  78.761  32.237  1.00  0.00     0.034 C 
BRANCH   5   6
ATOM      6  C   UNL     1      55.064  79.830  33.105  1.00  0.00    -0.077 C 
ATOM      7  C   UNL     1      56.306  80.518  32.600  1.00  0.00     0.039 C 
ATOM      8  C   UNL     1      54.530  80.253  34.276  1.00  0.00    -0.023 CG0
ATOM      9  G   UNL     1      53.305  79.676  34.946  1.00  0.00     0.000 G0
ENDBRANCH   5   6
ENDBRANCH   4   5
ENDBRANCH   2   4
BRANCH   1  10
ATOM     10  C   UNL     1      54.239  76.271  35.153  1.00  0.00     0.111 C 
BRANCH  10  11
ATOM     11  C   UNL     1      53.285  77.225  35.826  1.00  0.00     0.163 C 
ATOM     12  O   UNL     1      52.192  76.758  36.249  1.00  0.00    -0.294 OA
BRANCH  11  13
ATOM     13  C   UNL     1      53.612  78.671  36.058  1.00  0.00    -0.002 C 
ATOM     14  C   UNL     1      54.154  79.084  37.247  1.00  0.00    -0.069 C 
ATOM     15  C   UNL     1      54.403  80.547  37.543  1.00  0.00     0.039 C 
ATOM     16  C   UNL     1      54.582  78.098  38.312  1.00  0.00     0.039 C 
BRANCH  13  17
ATOM     17  C   UNL     1      53.278  79.685  34.965  1.00  0.00     0.066 CG0
ATOM     18  G   UNL     1      54.518  80.238  34.303  1.00  0.00     0.000 G0
ENDBRANCH  13  17
ENDBRANCH  11  13
ENDBRANCH  10  11
ENDBRANCH   1  10
TORSDOF 0
ENDMDL
MODEL 5
REMARK VINA RESULT:    -3.168      7.793     10.990
REMARK INTER + INTRA:          -4.164
REMARK INTER:                  -4.783
REMARK INTRA:                   0.619
REMARK UNBOUND:                 0.300
REMARK SMILES CC1=CCC(=C(C)C)C(=O)CC(C)=CCC1
REMARK SMILES IDX 12 1 14 2 13 3 15 4 16 5 2 6 1 7 3 8 11 10 9 11 10 12 5 13
REMARK SMILES IDX 6 14 7 15 8 16 4 17
REMARK H PARENT
REMARK Flexibility Score: 60.00
ROOT
ATOM      1  C   UNL     1      66.156  66.619  40.498  1.00  0.00    -0.070 C 
ATOM      2  C   UNL     1      66.408  65.519  39.743  1.00  0.00    -0.027 C 
ATOM      3  C   UNL     1      65.040  67.527  40.043  1.00  0.00     0.039 C 
ENDROOT
BRANCH   2   4
ATOM      4  C   UNL     1      67.533  64.533  39.952  1.00  0.00     0.032 C 
BRANCH   4   5
ATOM      5  C   UNL     1      68.515  64.474  38.774  1.00  0.00     0.034 C 
BRANCH   5   6
ATOM      6  C   UNL     1      69.071  65.855  38.486  1.00  0.00    -0.077 C 
ATOM      7  C   UNL     1      68.805  66.464  37.133  1.00  0.00     0.039 C 
ATOM      8  C   UNL     1      69.727  66.600  39.405  1.00  0.00    -0.023 CG0
ATOM      9  G   UNL     1      70.098  66.155  40.801  1.00  0.00     0.000 G0
ENDBRANCH   5   6
ENDBRANCH   4   5
ENDBRANCH   2   4
BRANCH   1  10
ATOM     10  C   UNL     1      66.865  66.948  41.808  1.00  0.00     0.111 C 
BRANCH  10  11
ATOM     11  C   UNL     1      68.163  67.695  41.630  1.00  0.00     0.163 C 
ATOM     12  O   UNL     1      68.097  68.912  41.303  1.00  0.00    -0.294 OA
BRANCH  11  13
ATOM     13  C   UNL     1      69.503  67.067  41.883  1.00  0.00    -0.002 C 
ATOM     14  C   UNL     1      70.198  67.339  43.031  1.00  0.00    -0.069 C 
ATOM     15  C   UNL     1      71.590  66.796  43.266  1.00  0.00     0.039 C 
ATOM     16  C   UNL     1      69.594  68.156  44.153  1.00  0.00     0.039 C 
BRANCH  13  17
ATOM     17  C   UNL     1      70.103  66.160  40.809  1.00  0.00     0.066 CG0
ATOM     18  G   UNL     1      69.722  66.600  39.415  1.00  0.00     0.000 G0
ENDBRANCH  13  17
ENDBRANCH  11  13
ENDBRANCH  10  11
ENDBRANCH   1  10
TORSDOF 0
ENDMDL
MODEL 6
REMARK VINA RESULT:    -3.111      7.680     10.351
REMARK INTER + INTRA:          -4.084
REMARK INTER:                  -4.958
REMARK INTRA:                   0.874
REMARK UNBOUND:                 0.300
REMARK SMILES CC1=CCC(=C(C)C)C(=O)CC(C)=CCC1
REMARK SMILES IDX 12 1 14 2 13 3 15 4 16 5 2 6 1 7 3 8 11 10 9 11 10 12 5 13
REMARK SMILES IDX 6 14 7 15 8 16 4 17
REMARK H PARENT
REMARK Flexibility Score: 60.00
ROOT
ATOM      1  C   UNL     1      65.722  66.902  40.463  1.00  0.00    -0.070 C 
ATOM      2  C   UNL     1      66.134  67.539  41.589  1.00  0.00    -0.027 C 
ATOM      3  C   UNL     1      64.670  67.589  39.626  1.00  0.00     0.039 C 
ENDROOT
BRANCH   2   4
ATOM      4  C   UNL     1      67.095  66.996  42.619  1.00  0.00     0.032 C 
BRANCH   4   5
ATOM      5  C   UNL     1      68.179  68.003  43.029  1.00  0.00     0.034 C 
BRANCH   5   6
ATOM      6  C   UNL     1      69.543  67.514  42.582  1.00  0.00    -0.077 C 
ATOM      7  C   UNL     1      70.517  67.053  43.636  1.00  0.00     0.039 C 
ATOM      8  C   UNL     1      69.904  67.397  41.283  1.00  0.00    -0.023 CG0
ATOM      9  G   UNL     1      69.072  67.821  40.094  1.00  0.00     0.000 G0
ENDBRANCH   5   6
ENDBRANCH   4   5
ENDBRANCH   2   4
BRANCH   1  10
ATOM     10  C   UNL     1      66.306  65.588  39.951  1.00  0.00     0.111 C 
BRANCH  10  11
ATOM     11  C   UNL     1      67.813  65.569  39.895  1.00  0.00     0.163 C 
ATOM     12  O   UNL     1      68.402  64.561  40.374  1.00  0.00    -0.294 OA
BRANCH  11  13
ATOM     13  C   UNL     1      68.615  66.658  39.246  1.00  0.00    -0.002 C 
ATOM     14  C   UNL     1      68.969  66.574  37.925  1.00  0.00    -0.069 C 
ATOM     15  C   UNL     1      69.858  67.610  37.272  1.00  0.00     0.039 C 
ATOM     16  C   UNL     1      68.450  65.470  37.030  1.00  0.00     0.039 C 
BRANCH  13  17
ATOM     17  C   UNL     1      69.078  67.837  40.099  1.00  0.00     0.066 CG0
ATOM     18  G   UNL     1      69.898  67.392  41.288  1.00  0.00     0.000 G0
ENDBRANCH  13  17
ENDBRANCH  11  13
ENDBRANCH  10  11
ENDBRANCH   1  10
TORSDOF 0
ENDMDL
MODEL 7
REMARK VINA RESULT:    -3.100      9.261     10.367
REMARK INTER + INTRA:          -4.069
REMARK INTER:                  -4.870
REMARK INTRA:                   0.801
REMARK UNBOUND:                 0.300
REMARK SMILES CC1=CCC(=C(C)C)C(=O)CC(C)=CCC1
REMARK SMILES IDX 12 1 14 2 13 3 15 4 16 5 2 6 1 7 3 8 11 10 9 11 10 12 5 13
REMARK SMILES IDX 6 14 7 15 8 16 4 17
REMARK H PARENT
REMARK Flexibility Score: 60.00
ROOT
ATOM      1  C   UNL     1      65.761  66.825  40.414  1.00  0.00    -0.070 C 
ATOM      2  C   UNL     1      66.099  65.725  39.694  1.00  0.00    -0.027 C 
ATOM      3  C   UNL     1      64.599  67.648  39.913  1.00  0.00     0.039 C 
ENDROOT
BRANCH   2   4
ATOM      4  C   UNL     1      67.280  64.820  39.951  1.00  0.00     0.032 C 
BRANCH   4   5
ATOM      5  C   UNL     1      68.226  64.699  38.747  1.00  0.00     0.034 C 
BRANCH   5   6
ATOM      6  C   UNL     1      69.629  65.121  39.140  1.00  0.00    -0.077 C 
ATOM      7  C   UNL     1      70.701  64.064  39.203  1.00  0.00     0.039 C 
ATOM      8  C   UNL     1      69.985  66.408  39.362  1.00  0.00    -0.023 CG0
ATOM      9  G   UNL     1      69.051  67.595  39.358  1.00  0.00     0.000 G0
ENDBRANCH   5   6
ENDBRANCH   4   5
ENDBRANCH   2   4
BRANCH   1  10
ATOM     10  C   UNL     1      66.421  67.234  41.727  1.00  0.00     0.111 C 
BRANCH  10  11
ATOM     11  C   UNL     1      67.929  67.204  41.690  1.00  0.00     0.163 C 
ATOM     12  O   UNL     1      68.514  66.353  42.415  1.00  0.00    -0.294 OA
BRANCH  11  13
ATOM     13  C   UNL     1      68.736  68.094  40.791  1.00  0.00    -0.002 C 
ATOM     14  C   UNL     1      69.133  69.337  41.209  1.00  0.00    -0.069 C 
ATOM     15  C   UNL     1      69.864  70.290  40.288  1.00  0.00     0.039 C 
ATOM     16  C   UNL     1      68.909  69.808  42.629  1.00  0.00     0.039 C 
BRANCH  13  17
ATOM     17  C   UNL     1      69.061  67.610  39.379  1.00  0.00     0.066 CG0
ATOM     18  G   UNL     1      69.985  66.414  39.385  1.00  0.00     0.000 G0
ENDBRANCH  13  17
ENDBRANCH  11  13
ENDBRANCH  10  11
ENDBRANCH   1  10
TORSDOF 0
ENDMDL
MODEL 8
REMARK VINA RESULT:    -3.057      2.006      3.614
REMARK INTER + INTRA:          -4.008
REMARK INTER:                  -4.380
REMARK INTRA:                   0.372
REMARK UNBOUND:                 0.300
REMARK SMILES CC1=CCC(=C(C)C)C(=O)CC(C)=CCC1
REMARK SMILES IDX 12 1 14 2 13 3 15 4 16 5 2 6 1 7 3 8 11 10 9 11 10 12 5 13
REMARK SMILES IDX 6 14 7 15 8 16 4 17
REMARK H PARENT
REMARK Flexibility Score: 60.00
ROOT
ATOM      1  C   UNL     1      68.563  68.005  31.100  1.00  0.00    -0.070 C 
ATOM      2  C   UNL     1      67.697  67.141  30.510  1.00  0.00    -0.027 C 
ATOM      3  C   UNL     1      67.971  69.182  31.835  1.00  0.00     0.039 C 
ENDROOT
BRANCH   2   4
ATOM      4  C   UNL     1      68.068  65.960  29.645  1.00  0.00     0.032 C 
BRANCH   4   5
ATOM      5  C   UNL     1      68.005  66.265  28.142  1.00  0.00     0.034 C 
BRANCH   5   6
ATOM      6  C   UNL     1      69.405  66.351  27.566  1.00  0.00    -0.077 C 
ATOM      7  C   UNL     1      70.085  65.073  27.146  1.00  0.00     0.039 C 
ATOM      8  C   UNL     1      70.047  67.521  27.339  1.00  0.00    -0.023 CG0
ATOM      9  G   UNL     1      69.534  68.894  27.706  1.00  0.00     0.000 G0
ENDBRANCH   5   6
ENDBRANCH   4   5
ENDBRANCH   2   4
BRANCH   1  10
ATOM     10  C   UNL     1      70.077  67.820  31.137  1.00  0.00     0.111 C 
BRANCH  10  11
ATOM     11  C   UNL     1      70.795  68.410  29.949  1.00  0.00     0.163 C 
ATOM     12  O   UNL     1      71.965  68.002  29.712  1.00  0.00    -0.294 OA
BRANCH  11  13
ATOM     13  C   UNL     1      70.153  69.401  29.023  1.00  0.00    -0.002 C 
ATOM     14  C   UNL     1      70.071  70.725  29.364  1.00  0.00    -0.069 C 
ATOM     15  C   UNL     1      69.344  71.727  28.494  1.00  0.00     0.039 C 
ATOM     16  C   UNL     1      70.745  71.272  30.603  1.00  0.00     0.039 C 
BRANCH  13  17
ATOM     17  C   UNL     1      69.543  68.897  27.717  1.00  0.00     0.066 CG0
ATOM     18  G   UNL     1      70.047  67.521  27.346  1.00  0.00     0.000 G0
ENDBRANCH  13  17
ENDBRANCH  11  13
ENDBRANCH  10  11
ENDBRANCH   1  10
TORSDOF 0
ENDMDL
MODEL 9
REMARK VINA RESULT:    -2.938      1.862      4.502
REMARK INTER + INTRA:          -3.840
REMARK INTER:                  -4.211
REMARK INTRA:                   0.371
REMARK UNBOUND:                 0.300
REMARK SMILES CC1=CCC(=C(C)C)C(=O)CC(C)=CCC1
REMARK SMILES IDX 12 1 14 2 13 3 15 4 16 5 2 6 1 7 3 8 11 10 9 11 10 12 5 13
REMARK SMILES IDX 6 14 7 15 8 16 4 17
REMARK H PARENT
REMARK Flexibility Score: 60.00
ROOT
ATOM      1  C   UNL     1      67.398  66.870  32.106  1.00  0.00    -0.070 C 
ATOM      2  C   UNL     1      67.134  66.180  30.967  1.00  0.00    -0.027 C 
ATOM      3  C   UNL     1      67.219  66.137  33.414  1.00  0.00     0.039 C 
ENDROOT
BRANCH   2   4
ATOM      4  C   UNL     1      67.149  66.738  29.564  1.00  0.00     0.032 C 
BRANCH   4   5
ATOM      5  C   UNL     1      68.434  66.408  28.792  1.00  0.00     0.034 C 
BRANCH   5   6
ATOM      6  C   UNL     1      69.382  67.591  28.823  1.00  0.00    -0.077 C 
ATOM      7  C   UNL     1      69.183  68.693  27.815  1.00  0.00     0.039 C 
ATOM      8  C   UNL     1      70.349  67.746  29.758  1.00  0.00    -0.023 CG0
ATOM      9  G   UNL     1      70.706  66.746  30.833  1.00  0.00     0.000 G0
ENDBRANCH   5   6
ENDBRANCH   4   5
ENDBRANCH   2   4
BRANCH   1  10
ATOM     10  C   UNL     1      67.934  68.297  32.147  1.00  0.00     0.111 C 
BRANCH  10  11
ATOM     11  C   UNL     1      69.422  68.385  32.375  1.00  0.00     0.163 C 
ATOM     12  O   UNL     1      69.891  69.494  32.752  1.00  0.00    -0.294 OA
BRANCH  11  13
ATOM     13  C   UNL     1      70.337  67.205  32.229  1.00  0.00    -0.002 C 
ATOM     14  C   UNL     1      70.858  66.582  33.333  1.00  0.00    -0.069 C 
ATOM     15  C   UNL     1      71.858  65.453  33.212  1.00  0.00     0.039 C 
ATOM     16  C   UNL     1      70.426  66.953  34.735  1.00  0.00     0.039 C 
BRANCH  13  17
ATOM     17  C   UNL     1      70.722  66.744  30.825  1.00  0.00     0.066 CG0
ATOM     18  G   UNL     1      70.343  67.756  29.769  1.00  0.00     0.000 G0
ENDBRANCH  13  17
ENDBRANCH  11  13
ENDBRANCH  10  11
ENDBRANCH   1  10
TORSDOF 0
ENDMDL
