MODEL 1
REMARK VINA RESULT:    -3.354      0.000      0.000
REMARK INTER + INTRA:          -7.813
REMARK INTER:                  -5.806
REMARK INTRA:                  -2.007
REMARK UNBOUND:                -2.007
REMARK SMILES CCCCCCCCCCCCCCO
REMARK SMILES IDX 8 1 7 2 6 3 5 4 4 5 3 6 2 7 1 8 9 9 10 10 11 11 12 12 13 13
REMARK SMILES IDX 14 14 15 15
REMARK H PARENT 15 16
REMARK Flexibility Score: inf
ROOT
ATOM      1  C   UNL     1     -28.130  26.575 -20.055  1.00  0.00     0.000 C 
ENDROOT
BRANCH   1   2
ATOM      2  C   UNL     1     -27.795  25.074 -20.049  1.00  0.00    -0.000 C 
BRANCH   2   3
ATOM      3  C   UNL     1     -29.039  24.188 -20.208  1.00  0.00    -0.000 C 
BRANCH   3   4
ATOM      4  C   UNL     1     -29.320  23.896 -21.687  1.00  0.00    -0.000 C 
BRANCH   4   5
ATOM      5  C   UNL     1     -30.681  24.460 -22.113  1.00  0.00    -0.000 C 
BRANCH   5   6
ATOM      6  C   UNL     1     -30.510  25.606 -23.120  1.00  0.00    -0.000 C 
BRANCH   6   7
ATOM      7  C   UNL     1     -30.703  26.990 -22.478  1.00  0.00    -0.003 C 
ATOM      8  C   UNL     1     -30.671  28.125 -23.500  1.00  0.00     0.004 C 
ENDBRANCH   6   7
ENDBRANCH   5   6
ENDBRANCH   4   5
ENDBRANCH   3   4
ENDBRANCH   2   3
ENDBRANCH   1   2
BRANCH   1   9
ATOM      9  C   UNL     1     -27.228  27.377 -21.009  1.00  0.00     0.000 C 
BRANCH   9  10
ATOM     10  C   UNL     1     -26.845  26.583 -22.267  1.00  0.00     0.000 C 
BRANCH  10  11
ATOM     11  C   UNL     1     -27.156  27.342 -23.569  1.00  0.00     0.000 C 
BRANCH  11  12
ATOM     12  C   UNL     1     -27.269  26.394 -24.783  1.00  0.00     0.002 C 
BRANCH  12  13
ATOM     13  C   UNL     1     -26.813  24.955 -24.485  1.00  0.00     0.028 C 
BRANCH  13  14
ATOM     14  C   UNL     1     -26.197  24.238 -25.694  1.00  0.00     0.156 C 
BRANCH  14  15
ATOM     15  O   UNL     1     -24.942  24.775 -26.014  1.00  0.00    -0.396 OA
ATOM     16  H   UNL     1     -24.269  24.243 -25.514  1.00  0.00     0.210 HD
ENDBRANCH  14  15
ENDBRANCH  13  14
ENDBRANCH  12  13
ENDBRANCH  11  12
ENDBRANCH  10  11
ENDBRANCH   9  10
ENDBRANCH   1   9
TORSDOF 13
ENDMDL
MODEL 2
REMARK VINA RESULT:    -3.238      1.336      2.907
REMARK INTER + INTRA:          -7.612
REMARK INTER:                  -5.582
REMARK INTRA:                  -2.030
REMARK UNBOUND:                -2.007
REMARK SMILES CCCCCCCCCCCCCCO
REMARK SMILES IDX 8 1 7 2 6 3 5 4 4 5 3 6 2 7 1 8 9 9 10 10 11 11 12 12 13 13
REMARK SMILES IDX 14 14 15 15
REMARK H PARENT 15 16
REMARK Flexibility Score: inf
ROOT
ATOM      1  C   UNL     1     -30.529  24.346 -21.882  1.00  0.00     0.000 C 
ENDROOT
BRANCH   1   2
ATOM      2  C   UNL     1     -29.519  24.093 -20.750  1.00  0.00    -0.000 C 
BRANCH   2   3
ATOM      3  C   UNL     1     -28.745  25.358 -20.351  1.00  0.00    -0.000 C 
BRANCH   3   4
ATOM      4  C   UNL     1     -29.208  26.567 -21.173  1.00  0.00    -0.000 C 
BRANCH   4   5
ATOM      5  C   UNL     1     -28.037  27.194 -21.940  1.00  0.00    -0.000 C 
BRANCH   5   6
ATOM      6  C   UNL     1     -28.394  27.395 -23.420  1.00  0.00    -0.000 C 
BRANCH   6   7
ATOM      7  C   UNL     1     -29.901  27.605 -23.641  1.00  0.00    -0.003 C 
ATOM      8  C   UNL     1     -30.427  26.868 -24.871  1.00  0.00     0.004 C 
ENDBRANCH   6   7
ENDBRANCH   5   6
ENDBRANCH   4   5
ENDBRANCH   3   4
ENDBRANCH   2   3
ENDBRANCH   1   2
BRANCH   1   9
ATOM      9  C   UNL     1     -30.183  23.571 -23.166  1.00  0.00     0.000 C 
BRANCH   9  10
ATOM     10  C   UNL     1     -28.758  22.997 -23.143  1.00  0.00     0.000 C 
BRANCH  10  11
ATOM     11  C   UNL     1     -27.772  23.812 -23.999  1.00  0.00     0.000 C 
BRANCH  11  12
ATOM     12  C   UNL     1     -26.481  24.160 -23.227  1.00  0.00     0.002 C 
BRANCH  12  13
ATOM     13  C   UNL     1     -25.193  23.854 -24.012  1.00  0.00     0.028 C 
BRANCH  13  14
ATOM     14  C   UNL     1     -25.409  23.718 -25.525  1.00  0.00     0.156 C 
BRANCH  14  15
ATOM     15  O   UNL     1     -24.754  24.742 -26.223  1.00  0.00    -0.396 OA
ATOM     16  H   UNL     1     -23.890  24.365 -26.536  1.00  0.00     0.210 HD
ENDBRANCH  14  15
ENDBRANCH  13  14
ENDBRANCH  12  13
ENDBRANCH  11  12
ENDBRANCH  10  11
ENDBRANCH   9  10
ENDBRANCH   1   9
TORSDOF 13
ENDMDL
MODEL 3
REMARK VINA RESULT:    -3.228      1.198      3.482
REMARK INTER + INTRA:          -7.593
REMARK INTER:                  -5.437
REMARK INTRA:                  -2.156
REMARK UNBOUND:                -2.007
REMARK SMILES CCCCCCCCCCCCCCO
REMARK SMILES IDX 8 1 7 2 6 3 5 4 4 5 3 6 2 7 1 8 9 9 10 10 11 11 12 12 13 13
REMARK SMILES IDX 14 14 15 15
REMARK H PARENT 15 16
REMARK Flexibility Score: inf
ROOT
ATOM      1  C   UNL     1     -30.614  24.147 -22.052  1.00  0.00     0.000 C 
ENDROOT
BRANCH   1   2
ATOM      2  C   UNL     1     -30.564  24.934 -23.373  1.00  0.00    -0.000 C 
BRANCH   2   3
ATOM      3  C   UNL     1     -30.609  26.455 -23.160  1.00  0.00    -0.000 C 
BRANCH   3   4
ATOM      4  C   UNL     1     -29.427  27.141 -23.853  1.00  0.00    -0.000 C 
BRANCH   4   5
ATOM      5  C   UNL     1     -28.269  27.370 -22.874  1.00  0.00    -0.000 C 
BRANCH   5   6
ATOM      6  C   UNL     1     -28.782  27.467 -21.430  1.00  0.00    -0.000 C 
BRANCH   6   7
ATOM      7  C   UNL     1     -27.772  26.924 -20.407  1.00  0.00    -0.003 C 
ATOM      8  C   UNL     1     -28.444  26.229 -19.223  1.00  0.00     0.004 C 
ENDBRANCH   6   7
ENDBRANCH   5   6
ENDBRANCH   4   5
ENDBRANCH   3   4
ENDBRANCH   2   3
ENDBRANCH   1   2
BRANCH   1   9
ATOM      9  C   UNL     1     -29.236  23.602 -21.639  1.00  0.00     0.000 C 
BRANCH   9  10
ATOM     10  C   UNL     1     -28.221  23.625 -22.792  1.00  0.00     0.000 C 
BRANCH  10  11
ATOM     11  C   UNL     1     -26.776  23.847 -22.310  1.00  0.00     0.000 C 
BRANCH  11  12
ATOM     12  C   UNL     1     -25.942  24.656 -23.327  1.00  0.00     0.002 C 
BRANCH  12  13
ATOM     13  C   UNL     1     -26.480  24.578 -24.766  1.00  0.00     0.028 C 
BRANCH  13  14
ATOM     14  C   UNL     1     -25.486  23.976 -25.767  1.00  0.00     0.156 C 
BRANCH  14  15
ATOM     15  O   UNL     1     -24.805  24.980 -26.469  1.00  0.00    -0.396 OA
ATOM     16  H   UNL     1     -24.241  24.520 -27.146  1.00  0.00     0.210 HD
ENDBRANCH  14  15
ENDBRANCH  13  14
ENDBRANCH  12  13
ENDBRANCH  11  12
ENDBRANCH  10  11
ENDBRANCH   9  10
ENDBRANCH   1   9
TORSDOF 13
ENDMDL
MODEL 4
REMARK VINA RESULT:    -3.215      1.544      3.009
REMARK INTER + INTRA:          -7.571
REMARK INTER:                  -5.527
REMARK INTRA:                  -2.044
REMARK UNBOUND:                -2.007
REMARK SMILES CCCCCCCCCCCCCCO
REMARK SMILES IDX 8 1 7 2 6 3 5 4 4 5 3 6 2 7 1 8 9 9 10 10 11 11 12 12 13 13
REMARK SMILES IDX 14 14 15 15
REMARK H PARENT 15 16
REMARK Flexibility Score: inf
ROOT
ATOM      1  C   UNL     1     -29.030  26.172 -21.399  1.00  0.00     0.000 C 
ENDROOT
BRANCH   1   2
ATOM      2  C   UNL     1     -30.299  26.400 -22.237  1.00  0.00    -0.000 C 
BRANCH   2   3
ATOM      3  C   UNL     1     -30.895  25.092 -22.779  1.00  0.00    -0.000 C 
BRANCH   3   4
ATOM      4  C   UNL     1     -30.161  23.875 -22.203  1.00  0.00    -0.000 C 
BRANCH   4   5
ATOM      5  C   UNL     1     -29.628  22.971 -23.322  1.00  0.00    -0.000 C 
BRANCH   5   6
ATOM      6  C   UNL     1     -28.327  22.277 -22.895  1.00  0.00    -0.000 C 
BRANCH   6   7
ATOM      7  C   UNL     1     -27.133  23.243 -22.843  1.00  0.00    -0.003 C 
ATOM      8  C   UNL     1     -26.508  23.338 -21.452  1.00  0.00     0.004 C 
ENDBRANCH   6   7
ENDBRANCH   5   6
ENDBRANCH   4   5
ENDBRANCH   3   4
ENDBRANCH   2   3
ENDBRANCH   1   2
BRANCH   1   9
ATOM      9  C   UNL     1     -27.794  26.863 -22.002  1.00  0.00     0.000 C 
BRANCH   9  10
ATOM     10  C   UNL     1     -28.033  27.354 -23.438  1.00  0.00     0.000 C 
BRANCH  10  11
ATOM     11  C   UNL     1     -27.167  26.616 -24.474  1.00  0.00     0.000 C 
BRANCH  11  12
ATOM     12  C   UNL     1     -28.014  25.733 -25.417  1.00  0.00     0.002 C 
BRANCH  12  13
ATOM     13  C   UNL     1     -27.172  24.826 -26.331  1.00  0.00     0.028 C 
BRANCH  13  14
ATOM     14  C   UNL     1     -26.175  25.591 -27.212  1.00  0.00     0.156 C 
BRANCH  14  15
ATOM     15  O   UNL     1     -24.853  25.309 -26.840  1.00  0.00    -0.396 OA
ATOM     16  H   UNL     1     -24.893  24.550 -26.200  1.00  0.00     0.210 HD
ENDBRANCH  14  15
ENDBRANCH  13  14
ENDBRANCH  12  13
ENDBRANCH  11  12
ENDBRANCH  10  11
ENDBRANCH   9  10
ENDBRANCH   1   9
TORSDOF 13
ENDMDL
MODEL 5
REMARK VINA RESULT:    -3.208      2.631      4.610
REMARK INTER + INTRA:          -7.559
REMARK INTER:                  -5.844
REMARK INTRA:                  -1.715
REMARK UNBOUND:                -2.007
REMARK SMILES CCCCCCCCCCCCCCO
REMARK SMILES IDX 8 1 7 2 6 3 5 4 4 5 3 6 2 7 1 8 9 9 10 10 11 11 12 12 13 13
REMARK SMILES IDX 14 14 15 15
REMARK H PARENT 15 16
REMARK Flexibility Score: inf
ROOT
ATOM      1  C   UNL     1     -30.441  24.446 -22.015  1.00  0.00     0.000 C 
ENDROOT
BRANCH   1   2
ATOM      2  C   UNL     1     -30.800  25.686 -22.850  1.00  0.00    -0.000 C 
BRANCH   2   3
ATOM      3  C   UNL     1     -30.244  26.986 -22.251  1.00  0.00    -0.000 C 
BRANCH   3   4
ATOM      4  C   UNL     1     -29.625  27.871 -23.340  1.00  0.00    -0.000 C 
BRANCH   4   5
ATOM      5  C   UNL     1     -28.478  27.146 -24.055  1.00  0.00    -0.000 C 
BRANCH   5   6
ATOM      6  C   UNL     1     -27.218  27.114 -23.179  1.00  0.00    -0.000 C 
BRANCH   6   7
ATOM      7  C   UNL     1     -26.577  25.719 -23.117  1.00  0.00    -0.003 C 
ATOM      8  C   UNL     1     -27.264  24.711 -24.036  1.00  0.00     0.004 C 
ENDBRANCH   6   7
ENDBRANCH   5   6
ENDBRANCH   4   5
ENDBRANCH   3   4
ENDBRANCH   2   3
ENDBRANCH   1   2
BRANCH   1   9
ATOM      9  C   UNL     1     -29.368  24.741 -20.952  1.00  0.00     0.000 C 
BRANCH   9  10
ATOM     10  C   UNL     1     -29.144  23.559 -19.996  1.00  0.00     0.000 C 
BRANCH  10  11
ATOM     11  C   UNL     1     -27.699  23.029 -20.032  1.00  0.00     0.000 C 
BRANCH  11  12
ATOM     12  C   UNL     1     -27.474  22.031 -21.189  1.00  0.00     0.002 C 
BRANCH  12  13
ATOM     13  C   UNL     1     -26.032  22.027 -21.726  1.00  0.00     0.028 C 
BRANCH  13  14
ATOM     14  C   UNL     1     -25.528  20.636 -22.134  1.00  0.00     0.156 C 
BRANCH  14  15
ATOM     15  O   UNL     1     -26.441  19.639 -21.763  1.00  0.00    -0.396 OA
ATOM     16  H   UNL     1     -27.234  20.105 -21.389  1.00  0.00     0.210 HD
ENDBRANCH  14  15
ENDBRANCH  13  14
ENDBRANCH  12  13
ENDBRANCH  11  12
ENDBRANCH  10  11
ENDBRANCH   9  10
ENDBRANCH   1   9
TORSDOF 13
ENDMDL
MODEL 6
REMARK VINA RESULT:    -3.184      1.751      3.194
REMARK INTER + INTRA:          -7.519
REMARK INTER:                  -5.346
REMARK INTRA:                  -2.172
REMARK UNBOUND:                -2.007
REMARK SMILES CCCCCCCCCCCCCCO
REMARK SMILES IDX 8 1 7 2 6 3 5 4 4 5 3 6 2 7 1 8 9 9 10 10 11 11 12 12 13 13
REMARK SMILES IDX 14 14 15 15
REMARK H PARENT 15 16
REMARK Flexibility Score: inf
ROOT
ATOM      1  C   UNL     1     -28.305  22.235 -20.087  1.00  0.00     0.000 C 
ENDROOT
BRANCH   1   2
ATOM      2  C   UNL     1     -27.915  23.653 -19.637  1.00  0.00    -0.000 C 
BRANCH   2   3
ATOM      3  C   UNL     1     -29.044  24.673 -19.845  1.00  0.00    -0.000 C 
BRANCH   3   4
ATOM      4  C   UNL     1     -28.712  25.633 -20.993  1.00  0.00    -0.000 C 
BRANCH   4   5
ATOM      5  C   UNL     1     -29.862  25.703 -22.005  1.00  0.00    -0.000 C 
BRANCH   5   6
ATOM      6  C   UNL     1     -30.640  24.380 -22.045  1.00  0.00    -0.000 C 
BRANCH   6   7
ATOM      7  C   UNL     1     -30.519  23.664 -23.399  1.00  0.00    -0.003 C 
ATOM      8  C   UNL     1     -30.373  22.150 -23.257  1.00  0.00     0.004 C 
ENDBRANCH   6   7
ENDBRANCH   5   6
ENDBRANCH   4   5
ENDBRANCH   3   4
ENDBRANCH   2   3
ENDBRANCH   1   2
BRANCH   1   9
ATOM      9  C   UNL     1     -27.369  21.684 -21.176  1.00  0.00     0.000 C 
BRANCH   9  10
ATOM     10  C   UNL     1     -26.502  22.777 -21.819  1.00  0.00     0.000 C 
BRANCH  10  11
ATOM     11  C   UNL     1     -26.693  22.872 -23.343  1.00  0.00     0.000 C 
BRANCH  11  12
ATOM     12  C   UNL     1     -26.733  24.335 -23.835  1.00  0.00     0.002 C 
BRANCH  12  13
ATOM     13  C   UNL     1     -27.306  24.491 -25.254  1.00  0.00     0.028 C 
BRANCH  13  14
ATOM     14  C   UNL     1     -26.295  25.033 -26.273  1.00  0.00     0.156 C 
BRANCH  14  15
ATOM     15  O   UNL     1     -24.980  24.752 -25.879  1.00  0.00    -0.396 OA
ATOM     16  H   UNL     1     -24.398  24.970 -26.654  1.00  0.00     0.210 HD
ENDBRANCH  14  15
ENDBRANCH  13  14
ENDBRANCH  12  13
ENDBRANCH  11  12
ENDBRANCH  10  11
ENDBRANCH   9  10
ENDBRANCH   1   9
TORSDOF 13
ENDMDL
MODEL 7
REMARK VINA RESULT:    -3.177      2.758      5.282
REMARK INTER + INTRA:          -7.506
REMARK INTER:                  -5.496
REMARK INTRA:                  -2.011
REMARK UNBOUND:                -2.007
REMARK SMILES CCCCCCCCCCCCCCO
REMARK SMILES IDX 8 1 7 2 6 3 5 4 4 5 3 6 2 7 1 8 9 9 10 10 11 11 12 12 13 13
REMARK SMILES IDX 14 14 15 15
REMARK H PARENT 15 16
REMARK Flexibility Score: inf
ROOT
ATOM      1  C   UNL     1     -30.964  23.940 -23.679  1.00  0.00     0.000 C 
ENDROOT
BRANCH   1   2
ATOM      2  C   UNL     1     -31.279  25.003 -24.745  1.00  0.00    -0.000 C 
BRANCH   2   3
ATOM      3  C   UNL     1     -30.338  26.215 -24.670  1.00  0.00    -0.000 C 
BRANCH   3   4
ATOM      4  C   UNL     1     -30.676  27.098 -23.462  1.00  0.00    -0.000 C 
BRANCH   4   5
ATOM      5  C   UNL     1     -29.434  27.354 -22.601  1.00  0.00    -0.000 C 
BRANCH   5   6
ATOM      6  C   UNL     1     -28.156  27.312 -23.452  1.00  0.00    -0.000 C 
BRANCH   6   7
ATOM      7  C   UNL     1     -26.989  26.619 -22.732  1.00  0.00    -0.003 C 
ATOM      8  C   UNL     1     -26.904  26.989 -21.252  1.00  0.00     0.004 C 
ENDBRANCH   6   7
ENDBRANCH   5   6
ENDBRANCH   4   5
ENDBRANCH   3   4
ENDBRANCH   2   3
ENDBRANCH   1   2
BRANCH   1   9
ATOM      9  C   UNL     1     -29.471  23.573 -23.634  1.00  0.00     0.000 C 
BRANCH   9  10
ATOM     10  C   UNL     1     -28.939  23.438 -22.199  1.00  0.00     0.000 C 
BRANCH  10  11
ATOM     11  C   UNL     1     -29.907  24.009 -21.148  1.00  0.00     0.000 C 
BRANCH  11  12
ATOM     12  C   UNL     1     -29.190  24.355 -19.824  1.00  0.00     0.002 C 
BRANCH  12  13
ATOM     13  C   UNL     1     -28.007  23.425 -19.503  1.00  0.00     0.028 C 
BRANCH  13  14
ATOM     14  C   UNL     1     -28.346  22.319 -18.496  1.00  0.00     0.156 C 
BRANCH  14  15
ATOM     15  O   UNL     1     -28.883  21.196 -19.140  1.00  0.00    -0.396 OA
ATOM     16  H   UNL     1     -29.669  21.514 -19.658  1.00  0.00     0.210 HD
ENDBRANCH  14  15
ENDBRANCH  13  14
ENDBRANCH  12  13
ENDBRANCH  11  12
ENDBRANCH  10  11
ENDBRANCH   9  10
ENDBRANCH   1   9
TORSDOF 13
ENDMDL
MODEL 8
REMARK VINA RESULT:    -3.165      1.279      3.084
REMARK INTER + INTRA:          -7.485
REMARK INTER:                  -5.507
REMARK INTRA:                  -1.979
REMARK UNBOUND:                -2.007
REMARK SMILES CCCCCCCCCCCCCCO
REMARK SMILES IDX 8 1 7 2 6 3 5 4 4 5 3 6 2 7 1 8 9 9 10 10 11 11 12 12 13 13
REMARK SMILES IDX 14 14 15 15
REMARK H PARENT 15 16
REMARK Flexibility Score: inf
ROOT
ATOM      1  C   UNL     1     -30.618  27.060 -22.493  1.00  0.00     0.000 C 
ENDROOT
BRANCH   1   2
ATOM      2  C   UNL     1     -29.537  27.738 -21.633  1.00  0.00    -0.000 C 
BRANCH   2   3
ATOM      3  C   UNL     1     -28.641  26.728 -20.901  1.00  0.00    -0.000 C 
BRANCH   3   4
ATOM      4  C   UNL     1     -29.252  25.322 -20.942  1.00  0.00    -0.000 C 
BRANCH   4   5
ATOM      5  C   UNL     1     -28.195  24.272 -21.304  1.00  0.00    -0.000 C 
BRANCH   5   6
ATOM      6  C   UNL     1     -28.816  23.121 -22.108  1.00  0.00    -0.000 C 
BRANCH   6   7
ATOM      7  C   UNL     1     -30.297  23.364 -22.438  1.00  0.00    -0.003 C 
ATOM      8  C   UNL     1     -30.738  22.669 -23.725  1.00  0.00     0.004 C 
ENDBRANCH   6   7
ENDBRANCH   5   6
ENDBRANCH   4   5
ENDBRANCH   3   4
ENDBRANCH   2   3
ENDBRANCH   1   2
BRANCH   1   9
ATOM      9  C   UNL     1     -30.462  27.372 -23.991  1.00  0.00     0.000 C 
BRANCH   9  10
ATOM     10  C   UNL     1     -30.241  26.108 -24.837  1.00  0.00     0.000 C 
BRANCH  10  11
ATOM     11  C   UNL     1     -28.866  26.086 -25.529  1.00  0.00     0.000 C 
BRANCH  11  12
ATOM     12  C   UNL     1     -27.707  25.960 -24.516  1.00  0.00     0.002 C 
BRANCH  12  13
ATOM     13  C   UNL     1     -26.672  24.886 -24.896  1.00  0.00     0.028 C 
BRANCH  13  14
ATOM     14  C   UNL     1     -26.234  24.942 -26.366  1.00  0.00     0.156 C 
BRANCH  14  15
ATOM     15  O   UNL     1     -24.837  24.954 -26.476  1.00  0.00    -0.396 OA
ATOM     16  H   UNL     1     -24.582  24.116 -26.945  1.00  0.00     0.210 HD
ENDBRANCH  14  15
ENDBRANCH  13  14
ENDBRANCH  12  13
ENDBRANCH  11  12
ENDBRANCH  10  11
ENDBRANCH   9  10
ENDBRANCH   1   9
TORSDOF 13
ENDMDL
MODEL 9
REMARK VINA RESULT:    -3.157      2.686      4.560
REMARK INTER + INTRA:          -7.471
REMARK INTER:                  -5.674
REMARK INTRA:                  -1.797
REMARK UNBOUND:                -2.007
REMARK SMILES CCCCCCCCCCCCCCO
REMARK SMILES IDX 8 1 7 2 6 3 5 4 4 5 3 6 2 7 1 8 9 9 10 10 11 11 12 12 13 13
REMARK SMILES IDX 14 14 15 15
REMARK H PARENT 15 16
REMARK Flexibility Score: inf
ROOT
ATOM      1  C   UNL     1     -30.622  24.372 -21.915  1.00  0.00     0.000 C 
ENDROOT
BRANCH   1   2
ATOM      2  C   UNL     1     -30.302  25.519 -22.888  1.00  0.00    -0.000 C 
BRANCH   2   3
ATOM      3  C   UNL     1     -30.244  26.887 -22.193  1.00  0.00    -0.000 C 
BRANCH   3   4
ATOM      4  C   UNL     1     -28.844  27.157 -21.629  1.00  0.00    -0.000 C 
BRANCH   4   5
ATOM      5  C   UNL     1     -28.851  27.118 -20.095  1.00  0.00    -0.000 C 
BRANCH   5   6
ATOM      6  C   UNL     1     -27.954  25.987 -19.571  1.00  0.00    -0.000 C 
BRANCH   6   7
ATOM      7  C   UNL     1     -28.716  24.994 -18.679  1.00  0.00    -0.003 C 
ATOM      8  C   UNL     1     -28.035  23.630 -18.597  1.00  0.00     0.004 C 
ENDBRANCH   6   7
ENDBRANCH   5   6
ENDBRANCH   4   5
ENDBRANCH   3   4
ENDBRANCH   2   3
ENDBRANCH   1   2
BRANCH   1   9
ATOM      9  C   UNL     1     -29.538  23.280 -21.913  1.00  0.00     0.000 C 
BRANCH   9  10
ATOM     10  C   UNL     1     -28.423  23.553 -22.934  1.00  0.00     0.000 C 
BRANCH  10  11
ATOM     11  C   UNL     1     -27.060  23.823 -22.271  1.00  0.00     0.000 C 
BRANCH  11  12
ATOM     12  C   UNL     1     -26.389  22.526 -21.770  1.00  0.00     0.002 C 
BRANCH  12  13
ATOM     13  C   UNL     1     -26.478  21.361 -22.771  1.00  0.00     0.028 C 
BRANCH  13  14
ATOM     14  C   UNL     1     -25.129  20.689 -23.059  1.00  0.00     0.156 C 
BRANCH  14  15
ATOM     15  O   UNL     1     -24.965  19.532 -22.284  1.00  0.00    -0.396 OA
ATOM     16  H   UNL     1     -24.508  19.813 -21.448  1.00  0.00     0.210 HD
ENDBRANCH  14  15
ENDBRANCH  13  14
ENDBRANCH  12  13
ENDBRANCH  11  12
ENDBRANCH  10  11
ENDBRANCH   9  10
ENDBRANCH   1   9
TORSDOF 13
ENDMDL
