MODEL 1
REMARK VINA RESULT:    -3.396      0.000      0.000
REMARK INTER + INTRA:          -5.448
REMARK INTER:                  -5.183
REMARK INTRA:                  -0.265
REMARK UNBOUND:                -0.265
REMARK SMILES CC1=CCC[C@H](C)C(=O)C[C@@H](C(C)C)C(=O)C1
REMARK SMILES IDX 8 1 9 2 6 3 7 4 5 5 4 6 3 7 2 8 1 9 10 11 11 12 15 13 16 14
REMARK SMILES IDX 17 15 12 17 13 18 14 19
REMARK H PARENT
REMARK Flexibility Score: 70.00
ROOT
ATOM      1  C   UNL     1      15.853  28.740  30.042  1.00  0.00     0.136 C 
ATOM      2  O   UNL     1      14.732  28.976  29.613  1.00  0.00    -0.299 OA
ENDROOT
BRANCH   1   3
ATOM      3  C   UNL     1      16.502  27.400  29.762  1.00  0.00     0.053 C 
ATOM      4  C   UNL     1      15.590  26.279  30.270  1.00  0.00     0.016 C 
BRANCH   3   5
ATOM      5  C   UNL     1      16.798  27.210  28.256  1.00  0.00     0.015 C 
BRANCH   5   6
ATOM      6  C   UNL     1      18.020  28.005  27.772  1.00  0.00     0.028 C 
BRANCH   6   7
ATOM      7  C   UNL     1      19.244  27.684  28.597  1.00  0.00    -0.028 C 
ATOM      8  C   UNL     1      20.057  28.589  29.188  1.00  0.00    -0.070 CG0
ATOM      9  C   UNL     1      21.238  28.074  29.972  1.00  0.00     0.039 C 
ATOM     10  G   UNL     1      19.816  30.084  29.128  1.00  0.00     0.000 G0
ENDBRANCH   6   7
ENDBRANCH   5   6
ENDBRANCH   3   5
ENDBRANCH   1   3
BRANCH   1  11
ATOM     11  C   UNL     1      16.556  29.791  30.864  1.00  0.00     0.087 C 
BRANCH  11  12
ATOM     12  C   UNL     1      17.404  30.741  29.981  1.00  0.00     0.066 C 
BRANCH  12  13
ATOM     13  C   UNL     1      18.888  30.542  30.238  1.00  0.00     0.140 C 
ATOM     14  O   UNL     1      19.352  30.783  31.343  1.00  0.00    -0.299 OA
BRANCH  13  15
ATOM     15  C   UNL     1      19.822  30.104  29.140  1.00  0.00     0.106 CG0
ATOM     16  G   UNL     1      20.064  28.608  29.199  1.00  0.00     0.000 G0
ENDBRANCH  13  15
ENDBRANCH  12  13
BRANCH  12  17
ATOM     17  C   UNL     1      17.022  32.247  30.142  1.00  0.00    -0.006 C 
ATOM     18  C   UNL     1      17.371  33.059  28.884  1.00  0.00     0.008 C 
ATOM     19  C   UNL     1      15.550  32.479  30.528  1.00  0.00     0.008 C 
ENDBRANCH  12  17
ENDBRANCH  11  12
ENDBRANCH   1  11
TORSDOF 1
ENDMDL
MODEL 2
REMARK VINA RESULT:    -3.339      2.086      5.473
REMARK INTER + INTRA:          -5.361
REMARK INTER:                  -5.034
REMARK INTRA:                  -0.327
REMARK UNBOUND:                -0.265
REMARK SMILES CC1=CCC[C@H](C)C(=O)C[C@@H](C(C)C)C(=O)C1
REMARK SMILES IDX 8 1 9 2 6 3 7 4 5 5 4 6 3 7 2 8 1 9 10 11 11 12 15 13 16 14
REMARK SMILES IDX 17 15 12 17 13 18 14 19
REMARK H PARENT
REMARK Flexibility Score: 70.00
ROOT
ATOM      1  C   UNL     1      19.432  31.802  30.547  1.00  0.00     0.136 C 
ATOM      2  O   UNL     1      20.500  31.918  29.962  1.00  0.00    -0.299 OA
ENDROOT
BRANCH   1   3
ATOM      3  C   UNL     1      18.590  33.030  30.830  1.00  0.00     0.053 C 
ATOM      4  C   UNL     1      19.434  34.060  31.589  1.00  0.00     0.016 C 
BRANCH   3   5
ATOM      5  C   UNL     1      18.027  33.652  29.531  1.00  0.00     0.015 C 
BRANCH   5   6
ATOM      6  C   UNL     1      16.772  32.937  29.010  1.00  0.00     0.028 C 
BRANCH   6   7
ATOM      7  C   UNL     1      15.786  32.678  30.124  1.00  0.00    -0.028 C 
ATOM      8  C   UNL     1      15.243  31.479  30.434  1.00  0.00    -0.070 CG0
ATOM      9  C   UNL     1      14.270  31.419  31.586  1.00  0.00     0.039 C 
ATOM     10  G   UNL     1      15.592  30.196  29.707  1.00  0.00     0.000 G0
ENDBRANCH   6   7
ENDBRANCH   5   6
ENDBRANCH   3   5
ENDBRANCH   1   3
BRANCH   1  11
ATOM     11  C   UNL     1      18.987  30.433  30.993  1.00  0.00     0.087 C 
BRANCH  11  12
ATOM     12  C   UNL     1      18.167  29.707  29.896  1.00  0.00     0.066 C 
BRANCH  12  13
ATOM     13  C   UNL     1      16.739  29.467  30.355  1.00  0.00     0.140 C 
ATOM     14  O   UNL     1      16.512  28.650  31.237  1.00  0.00    -0.299 OA
BRANCH  13  15
ATOM     15  C   UNL     1      15.578  30.176  29.708  1.00  0.00     0.106 CG0
ATOM     16  G   UNL     1      15.268  31.476  30.426  1.00  0.00     0.000 G0
ENDBRANCH  13  15
ENDBRANCH  12  13
BRANCH  12  17
ATOM     17  C   UNL     1      18.815  28.369  29.417  1.00  0.00    -0.006 C 
ATOM     18  C   UNL     1      18.155  27.847  28.131  1.00  0.00     0.008 C 
ATOM     19  C   UNL     1      20.341  28.448  29.232  1.00  0.00     0.008 C 
ENDBRANCH  12  17
ENDBRANCH  11  12
ENDBRANCH   1  11
TORSDOF 1
ENDMDL
MODEL 3
REMARK VINA RESULT:    -3.281      3.402      6.375
REMARK INTER + INTRA:          -5.272
REMARK INTER:                  -5.340
REMARK INTRA:                   0.068
REMARK UNBOUND:                -0.265
REMARK SMILES CC1=CCC[C@H](C)C(=O)C[C@@H](C(C)C)C(=O)C1
REMARK SMILES IDX 8 1 9 2 6 3 7 4 5 5 4 6 3 7 2 8 1 9 10 11 11 12 15 13 16 14
REMARK SMILES IDX 17 15 12 17 13 18 14 19
REMARK H PARENT
REMARK Flexibility Score: 70.00
ROOT
ATOM      1  C   UNL     1      23.679  27.798  28.226  1.00  0.00     0.136 C 
ATOM      2  O   UNL     1      23.552  28.250  27.097  1.00  0.00    -0.299 OA
ENDROOT
BRANCH   1   3
ATOM      3  C   UNL     1      24.996  27.957  28.959  1.00  0.00     0.053 C 
ATOM      4  C   UNL     1      26.078  28.396  27.967  1.00  0.00     0.016 C 
BRANCH   3   5
ATOM      5  C   UNL     1      24.888  28.973  30.119  1.00  0.00     0.015 C 
BRANCH   5   6
ATOM      6  C   UNL     1      24.320  30.332  29.685  1.00  0.00     0.028 C 
BRANCH   6   7
ATOM      7  C   UNL     1      23.476  30.948  30.776  1.00  0.00    -0.028 C 
ATOM      8  C   UNL     1      22.124  30.977  30.806  1.00  0.00    -0.070 CG0
ATOM      9  C   UNL     1      21.457  31.642  31.983  1.00  0.00     0.039 C 
ATOM     10  G   UNL     1      21.256  30.344  29.736  1.00  0.00     0.000 G0
ENDBRANCH   6   7
ENDBRANCH   5   6
ENDBRANCH   3   5
ENDBRANCH   1   3
BRANCH   1  11
ATOM     11  C   UNL     1      22.519  27.070  28.857  1.00  0.00     0.087 C 
BRANCH  11  12
ATOM     12  C   UNL     1      21.208  27.890  28.771  1.00  0.00     0.066 C 
BRANCH  12  13
ATOM     13  C   UNL     1      21.096  28.859  29.937  1.00  0.00     0.140 C 
ATOM     14  O   UNL     1      20.835  28.438  31.055  1.00  0.00    -0.299 OA
BRANCH  13  15
ATOM     15  C   UNL     1      21.246  30.345  29.739  1.00  0.00     0.106 CG0
ATOM     16  G   UNL     1      22.131  30.948  30.812  1.00  0.00     0.000 G0
ENDBRANCH  13  15
ENDBRANCH  12  13
BRANCH  12  17
ATOM     17  C   UNL     1      19.924  27.006  28.676  1.00  0.00    -0.006 C 
ATOM     18  C   UNL     1      18.725  27.801  28.138  1.00  0.00     0.008 C 
ATOM     19  C   UNL     1      20.115  25.718  27.854  1.00  0.00     0.008 C 
ENDBRANCH  12  17
ENDBRANCH  11  12
ENDBRANCH   1  11
TORSDOF 1
ENDMDL
MODEL 4
REMARK VINA RESULT:    -3.236      2.252      4.485
REMARK INTER + INTRA:          -5.203
REMARK INTER:                  -4.918
REMARK INTRA:                  -0.285
REMARK UNBOUND:                -0.265
REMARK SMILES CC1=CCC[C@H](C)C(=O)C[C@@H](C(C)C)C(=O)C1
REMARK SMILES IDX 8 1 9 2 6 3 7 4 5 5 4 6 3 7 2 8 1 9 10 11 11 12 15 13 16 14
REMARK SMILES IDX 17 15 12 17 13 18 14 19
REMARK H PARENT
REMARK Flexibility Score: 70.00
ROOT
ATOM      1  C   UNL     1      19.787  28.634  29.180  1.00  0.00     0.136 C 
ATOM      2  O   UNL     1      20.173  27.621  29.746  1.00  0.00    -0.299 OA
ENDROOT
BRANCH   1   3
ATOM      3  C   UNL     1      18.373  28.705  28.640  1.00  0.00     0.053 C 
ATOM      4  C   UNL     1      18.207  27.676  27.518  1.00  0.00     0.016 C 
BRANCH   3   5
ATOM      5  C   UNL     1      17.322  28.463  29.749  1.00  0.00     0.015 C 
BRANCH   5   6
ATOM      6  C   UNL     1      17.017  29.718  30.581  1.00  0.00     0.028 C 
BRANCH   6   7
ATOM      7  C   UNL     1      16.888  30.940  29.703  1.00  0.00    -0.028 C 
ATOM      8  C   UNL     1      17.648  32.055  29.787  1.00  0.00    -0.070 CG0
ATOM      9  C   UNL     1      17.367  33.177  28.820  1.00  0.00     0.039 C 
ATOM     10  G   UNL     1      18.785  32.213  30.778  1.00  0.00     0.000 G0
ENDBRANCH   6   7
ENDBRANCH   5   6
ENDBRANCH   3   5
ENDBRANCH   1   3
BRANCH   1  11
ATOM     11  C   UNL     1      20.743  29.788  29.015  1.00  0.00     0.087 C 
BRANCH  11  12
ATOM     12  C   UNL     1      20.848  30.639  30.305  1.00  0.00     0.066 C 
BRANCH  12  13
ATOM     13  C   UNL     1      20.137  31.972  30.137  1.00  0.00     0.140 C 
ATOM     14  O   UNL     1      20.672  32.872  29.505  1.00  0.00    -0.299 OA
BRANCH  13  15
ATOM     15  C   UNL     1      18.800  32.234  30.781  1.00  0.00     0.106 CG0
ATOM     16  G   UNL     1      17.672  32.040  29.787  1.00  0.00     0.000 G0
ENDBRANCH  13  15
ENDBRANCH  12  13
BRANCH  12  17
ATOM     17  C   UNL     1      22.317  30.865  30.785  1.00  0.00    -0.006 C 
ATOM     18  C   UNL     1      22.377  31.242  32.274  1.00  0.00     0.008 C 
ATOM     19  C   UNL     1      23.254  29.677  30.503  1.00  0.00     0.008 C 
ENDBRANCH  12  17
ENDBRANCH  11  12
ENDBRANCH   1  11
TORSDOF 1
ENDMDL
MODEL 5
REMARK VINA RESULT:    -3.224      1.997      2.902
REMARK INTER + INTRA:          -5.186
REMARK INTER:                  -5.467
REMARK INTRA:                   0.281
REMARK UNBOUND:                -0.265
REMARK SMILES CC1=CCC[C@H](C)C(=O)C[C@@H](C(C)C)C(=O)C1
REMARK SMILES IDX 8 1 9 2 6 3 7 4 5 5 4 6 3 7 2 8 1 9 10 11 11 12 15 13 16 14
REMARK SMILES IDX 17 15 12 17 13 18 14 19
REMARK H PARENT
REMARK Flexibility Score: 70.00
ROOT
ATOM      1  C   UNL     1      18.118  27.205  28.424  1.00  0.00     0.136 C 
ATOM      2  O   UNL     1      17.794  27.768  27.387  1.00  0.00    -0.299 OA
ENDROOT
BRANCH   1   3
ATOM      3  C   UNL     1      18.284  25.699  28.445  1.00  0.00     0.053 C 
ATOM      4  C   UNL     1      17.185  25.056  27.593  1.00  0.00     0.016 C 
BRANCH   3   5
ATOM      5  C   UNL     1      19.679  25.268  27.935  1.00  0.00     0.015 C 
BRANCH   5   6
ATOM      6  C   UNL     1      20.789  25.445  28.982  1.00  0.00     0.028 C 
BRANCH   6   7
ATOM      7  C   UNL     1      21.847  26.410  28.501  1.00  0.00    -0.028 C 
ATOM      8  C   UNL     1      22.010  27.681  28.934  1.00  0.00    -0.070 CG0
ATOM      9  C   UNL     1      23.126  28.496  28.330  1.00  0.00     0.039 C 
ATOM     10  G   UNL     1      21.151  28.307  30.015  1.00  0.00     0.000 G0
ENDBRANCH   6   7
ENDBRANCH   5   6
ENDBRANCH   3   5
ENDBRANCH   1   3
BRANCH   1  11
ATOM     11  C   UNL     1      18.326  28.030  29.669  1.00  0.00     0.087 C 
BRANCH  11  12
ATOM     12  C   UNL     1      18.862  29.446  29.340  1.00  0.00     0.066 C 
BRANCH  12  13
ATOM     13  C   UNL     1      20.373  29.504  29.492  1.00  0.00     0.140 C 
ATOM     14  O   UNL     1      20.983  30.503  29.137  1.00  0.00    -0.299 OA
BRANCH  13  15
ATOM     15  C   UNL     1      21.153  28.330  30.024  1.00  0.00     0.106 CG0
ATOM     16  G   UNL     1      21.991  27.696  28.931  1.00  0.00     0.000 G0
ENDBRANCH  13  15
ENDBRANCH  12  13
BRANCH  12  17
ATOM     17  C   UNL     1      18.188  30.578  30.179  1.00  0.00    -0.006 C 
ATOM     18  C   UNL     1      16.667  30.378  30.283  1.00  0.00     0.008 C 
ATOM     19  C   UNL     1      18.794  30.758  31.581  1.00  0.00     0.008 C 
ENDBRANCH  12  17
ENDBRANCH  11  12
ENDBRANCH   1  11
TORSDOF 1
ENDMDL
MODEL 6
REMARK VINA RESULT:    -3.200      2.588      5.204
REMARK INTER + INTRA:          -5.149
REMARK INTER:                  -5.410
REMARK INTRA:                   0.261
REMARK UNBOUND:                -0.265
REMARK SMILES CC1=CCC[C@H](C)C(=O)C[C@@H](C(C)C)C(=O)C1
REMARK SMILES IDX 8 1 9 2 6 3 7 4 5 5 4 6 3 7 2 8 1 9 10 11 11 12 15 13 16 14
REMARK SMILES IDX 17 15 12 17 13 18 14 19
REMARK H PARENT
REMARK Flexibility Score: 70.00
ROOT
ATOM      1  C   UNL     1      20.338  30.068  29.580  1.00  0.00     0.136 C 
ATOM      2  O   UNL     1      20.914  31.111  29.302  1.00  0.00    -0.299 OA
ENDROOT
BRANCH   1   3
ATOM      3  C   UNL     1      18.833  29.974  29.433  1.00  0.00     0.053 C 
ATOM      4  C   UNL     1      18.266  31.364  29.123  1.00  0.00     0.016 C 
BRANCH   3   5
ATOM      5  C   UNL     1      18.426  28.971  28.328  1.00  0.00     0.015 C 
BRANCH   5   6
ATOM      6  C   UNL     1      17.931  27.627  28.881  1.00  0.00     0.028 C 
BRANCH   6   7
ATOM      7  C   UNL     1      18.418  26.473  28.037  1.00  0.00    -0.028 C 
ATOM      8  C   UNL     1      19.616  25.857  28.158  1.00  0.00    -0.070 CG0
ATOM      9  C   UNL     1      19.925  24.720  27.217  1.00  0.00     0.039 C 
ATOM     10  G   UNL     1      20.638  26.231  29.213  1.00  0.00     0.000 G0
ENDBRANCH   6   7
ENDBRANCH   5   6
ENDBRANCH   3   5
ENDBRANCH   1   3
BRANCH   1  11
ATOM     11  C   UNL     1      21.145  28.900  30.087  1.00  0.00     0.087 C 
BRANCH  11  12
ATOM     12  C   UNL     1      22.150  28.388  29.024  1.00  0.00     0.066 C 
BRANCH  12  13
ATOM     13  C   UNL     1      21.831  26.958  28.620  1.00  0.00     0.140 C 
ATOM     14  O   UNL     1      22.505  26.403  27.764  1.00  0.00    -0.299 OA
BRANCH  13  15
ATOM     15  C   UNL     1      20.661  26.218  29.214  1.00  0.00     0.106 CG0
ATOM     16  G   UNL     1      19.640  25.874  28.147  1.00  0.00     0.000 G0
ENDBRANCH  13  15
ENDBRANCH  12  13
BRANCH  12  17
ATOM     17  C   UNL     1      23.642  28.508  29.468  1.00  0.00    -0.006 C 
ATOM     18  C   UNL     1      24.567  28.802  28.276  1.00  0.00     0.008 C 
ATOM     19  C   UNL     1      23.879  29.537  30.587  1.00  0.00     0.008 C 
ENDBRANCH  12  17
ENDBRANCH  11  12
ENDBRANCH   1  11
TORSDOF 1
ENDMDL
MODEL 7
REMARK VINA RESULT:    -3.098      2.391      4.559
REMARK INTER + INTRA:          -4.994
REMARK INTER:                  -4.944
REMARK INTRA:                  -0.050
REMARK UNBOUND:                -0.265
REMARK SMILES CC1=CCC[C@H](C)C(=O)C[C@@H](C(C)C)C(=O)C1
REMARK SMILES IDX 8 1 9 2 6 3 7 4 5 5 4 6 3 7 2 8 1 9 10 11 11 12 15 13 16 14
REMARK SMILES IDX 17 15 12 17 13 18 14 19
REMARK H PARENT
REMARK Flexibility Score: 70.00
ROOT
ATOM      1  C   UNL     1      18.081  25.973  27.843  1.00  0.00     0.136 C 
ATOM      2  O   UNL     1      18.721  24.981  27.523  1.00  0.00    -0.299 OA
ENDROOT
BRANCH   1   3
ATOM      3  C   UNL     1      16.571  25.897  27.944  1.00  0.00     0.053 C 
ATOM      4  C   UNL     1      16.087  24.580  27.326  1.00  0.00     0.016 C 
BRANCH   3   5
ATOM      5  C   UNL     1      16.086  26.011  29.408  1.00  0.00     0.015 C 
BRANCH   5   6
ATOM      6  C   UNL     1      15.393  27.347  29.715  1.00  0.00     0.028 C 
BRANCH   6   7
ATOM      7  C   UNL     1      15.814  27.888  31.061  1.00  0.00    -0.028 C 
ATOM      8  C   UNL     1      16.869  28.703  31.288  1.00  0.00    -0.070 CG0
ATOM      9  C   UNL     1      17.134  29.137  32.708  1.00  0.00     0.039 C 
ATOM     10  G   UNL     1      17.768  29.225  30.185  1.00  0.00     0.000 G0
ENDBRANCH   6   7
ENDBRANCH   5   6
ENDBRANCH   3   5
ENDBRANCH   1   3
BRANCH   1  11
ATOM     11  C   UNL     1      18.815  27.262  28.112  1.00  0.00     0.087 C 
BRANCH  11  12
ATOM     12  C   UNL     1      19.422  27.293  29.538  1.00  0.00     0.066 C 
BRANCH  12  13
ATOM     13  C   UNL     1      19.131  28.619  30.222  1.00  0.00     0.140 C 
ATOM     14  O   UNL     1      20.008  29.176  30.867  1.00  0.00    -0.299 OA
BRANCH  13  15
ATOM     15  C   UNL     1      17.760  29.243  30.173  1.00  0.00     0.106 CG0
ATOM     16  G   UNL     1      16.878  28.700  31.280  1.00  0.00     0.000 G0
ENDBRANCH  13  15
ENDBRANCH  12  13
BRANCH  12  17
ATOM     17  C   UNL     1      20.953  26.990  29.570  1.00  0.00    -0.006 C 
ATOM     18  C   UNL     1      21.232  25.480  29.636  1.00  0.00     0.008 C 
ATOM     19  C   UNL     1      21.738  27.622  28.407  1.00  0.00     0.008 C 
ENDBRANCH  12  17
ENDBRANCH  11  12
ENDBRANCH   1  11
TORSDOF 1
ENDMDL
MODEL 8
REMARK VINA RESULT:    -2.959      1.786      2.539
REMARK INTER + INTRA:          -4.781
REMARK INTER:                  -5.033
REMARK INTRA:                   0.251
REMARK UNBOUND:                -0.265
REMARK SMILES CC1=CCC[C@H](C)C(=O)C[C@@H](C(C)C)C(=O)C1
REMARK SMILES IDX 8 1 9 2 6 3 7 4 5 5 4 6 3 7 2 8 1 9 10 11 11 12 15 13 16 14
REMARK SMILES IDX 17 15 12 17 13 18 14 19
REMARK H PARENT
REMARK Flexibility Score: 70.00
ROOT
ATOM      1  C   UNL     1      18.489  27.762  28.759  1.00  0.00     0.136 C 
ATOM      2  O   UNL     1      18.334  28.171  27.617  1.00  0.00    -0.299 OA
ENDROOT
BRANCH   1   3
ATOM      3  C   UNL     1      19.159  26.424  28.998  1.00  0.00     0.053 C 
ATOM      4  C   UNL     1      18.537  25.374  28.071  1.00  0.00     0.016 C 
BRANCH   3   5
ATOM      5  C   UNL     1      20.687  26.499  28.774  1.00  0.00     0.015 C 
BRANCH   5   6
ATOM      6  C   UNL     1      21.212  27.937  28.645  1.00  0.00     0.028 C 
BRANCH   6   7
ATOM      7  C   UNL     1      21.820  28.417  29.941  1.00  0.00    -0.028 C 
ATOM      8  C   UNL     1      21.644  29.640  30.489  1.00  0.00    -0.070 CG0
ATOM      9  C   UNL     1      22.339  29.938  31.794  1.00  0.00     0.039 C 
ATOM     10  G   UNL     1      20.757  30.706  29.875  1.00  0.00     0.000 G0
ENDBRANCH   6   7
ENDBRANCH   5   6
ENDBRANCH   3   5
ENDBRANCH   1   3
BRANCH   1  11
ATOM     11  C   UNL     1      17.989  28.599  29.909  1.00  0.00     0.087 C 
BRANCH  11  12
ATOM     12  C   UNL     1      18.190  30.113  29.651  1.00  0.00     0.066 C 
BRANCH  12  13
ATOM     13  C   UNL     1      19.361  30.651  30.457  1.00  0.00     0.140 C 
ATOM     14  O   UNL     1      19.177  31.081  31.587  1.00  0.00    -0.299 OA
BRANCH  13  15
ATOM     15  C   UNL     1      20.749  30.719  29.874  1.00  0.00     0.106 CG0
ATOM     16  G   UNL     1      21.644  29.655  30.479  1.00  0.00     0.000 G0
ENDBRANCH  13  15
ENDBRANCH  12  13
BRANCH  12  17
ATOM     17  C   UNL     1      16.910  30.967  29.919  1.00  0.00    -0.006 C 
ATOM     18  C   UNL     1      17.044  32.387  29.348  1.00  0.00     0.008 C 
ATOM     19  C   UNL     1      15.610  30.316  29.414  1.00  0.00     0.008 C 
ENDBRANCH  12  17
ENDBRANCH  11  12
ENDBRANCH   1  11
TORSDOF 1
ENDMDL
MODEL 9
REMARK VINA RESULT:    -2.947      1.900      4.366
REMARK INTER + INTRA:          -4.763
REMARK INTER:                  -5.077
REMARK INTRA:                   0.315
REMARK UNBOUND:                -0.265
REMARK SMILES CC1=CCC[C@H](C)C(=O)C[C@@H](C(C)C)C(=O)C1
REMARK SMILES IDX 8 1 9 2 6 3 7 4 5 5 4 6 3 7 2 8 1 9 10 11 11 12 15 13 16 14
REMARK SMILES IDX 17 15 12 17 13 18 14 19
REMARK H PARENT
REMARK Flexibility Score: 70.00
ROOT
ATOM      1  C   UNL     1      16.690  29.684  29.764  1.00  0.00     0.136 C 
ATOM      2  O   UNL     1      16.381  28.783  30.532  1.00  0.00    -0.299 OA
ENDROOT
BRANCH   1   3
ATOM      3  C   UNL     1      15.660  30.719  29.362  1.00  0.00     0.053 C 
ATOM      4  C   UNL     1      14.268  30.243  29.791  1.00  0.00     0.016 C 
BRANCH   3   5
ATOM      5  C   UNL     1      15.967  32.104  29.978  1.00  0.00     0.015 C 
BRANCH   5   6
ATOM      6  C   UNL     1      16.836  32.991  29.074  1.00  0.00     0.028 C 
BRANCH   6   7
ATOM      7  C   UNL     1      17.759  33.866  29.889  1.00  0.00    -0.028 C 
ATOM      8  C   UNL     1      19.026  33.558  30.247  1.00  0.00    -0.070 CG0
ATOM      9  C   UNL     1      19.794  34.564  31.068  1.00  0.00     0.039 C 
ATOM     10  G   UNL     1      19.717  32.274  29.832  1.00  0.00     0.000 G0
ENDBRANCH   6   7
ENDBRANCH   5   6
ENDBRANCH   3   5
ENDBRANCH   1   3
BRANCH   1  11
ATOM     11  C   UNL     1      18.095  29.728  29.218  1.00  0.00     0.087 C 
BRANCH  11  12
ATOM     12  C   UNL     1      19.154  29.734  30.348  1.00  0.00     0.066 C 
BRANCH  12  13
ATOM     13  C   UNL     1      19.449  31.152  30.809  1.00  0.00     0.140 C 
ATOM     14  O   UNL     1      19.425  31.422  32.001  1.00  0.00    -0.299 OA
BRANCH  13  15
ATOM     15  C   UNL     1      19.719  32.257  29.821  1.00  0.00     0.106 CG0
ATOM     16  G   UNL     1      19.028  33.540  30.241  1.00  0.00     0.000 G0
ENDBRANCH  13  15
ENDBRANCH  12  13
BRANCH  12  17
ATOM     17  C   UNL     1      20.479  29.002  29.965  1.00  0.00    -0.006 C 
ATOM     18  C   UNL     1      21.352  28.724  31.198  1.00  0.00     0.008 C 
ATOM     19  C   UNL     1      20.264  27.703  29.167  1.00  0.00     0.008 C 
ENDBRANCH  12  17
ENDBRANCH  11  12
ENDBRANCH   1  11
TORSDOF 1
ENDMDL
