MODEL 1
REMARK VINA RESULT:    -4.612      0.000      0.000
REMARK INTER + INTRA:          -4.747
REMARK INTER:                  -4.747
REMARK INTRA:                   0.000
REMARK UNBOUND:                 0.000
REMARK SMILES Oc1ccc2[nH]ccc2c1
REMARK SMILES IDX 3 1 4 2 5 3 9 4 8 5 7 6 6 7 10 8 2 9 1 11
REMARK H PARENT 6 10 1 12
REMARK Flexibility Score: inf
ROOT
ATOM      1  C   UNL     1      19.293 -49.177  -0.510  1.00  0.00     0.048 A 
ATOM      2  C   UNL     1      17.949 -49.317  -0.116  1.00  0.00     0.030 A 
ATOM      3  C   UNL     1      16.967 -48.801  -0.960  1.00  0.00     0.046 A 
ATOM      4  C   UNL     1      17.284 -48.175  -2.135  1.00  0.00     0.003 A 
ATOM      5  C   UNL     1      16.103 -47.785  -2.727  1.00  0.00     0.028 A 
ATOM      6  C   UNL     1      15.104 -48.207  -1.855  1.00  0.00     0.083 A 
ATOM      7  N   UNL     1      15.636 -48.827  -0.776  1.00  0.00    -0.361 N 
ATOM      8  C   UNL     1      18.604 -48.018  -2.554  1.00  0.00     0.056 A 
ATOM      9  C   UNL     1      19.624 -48.530  -1.723  1.00  0.00     0.116 A 
ATOM     10  H   UNL     1      15.117 -49.240   0.030  1.00  0.00     0.166 HD
ENDROOT
BRANCH   9  11
ATOM     11  O   UNL     1      20.962 -48.404  -2.088  1.00  0.00    -0.508 OA
ATOM     12  H   UNL     1      21.237 -48.297  -3.058  1.00  0.00     0.293 HD
ENDBRANCH   9  11
TORSDOF 1
ENDMDL
MODEL 2
REMARK VINA RESULT:    -4.478      0.773      2.167
REMARK INTER + INTRA:          -4.609
REMARK INTER:                  -4.609
REMARK INTRA:                   0.000
REMARK UNBOUND:                 0.000
REMARK SMILES Oc1ccc2[nH]ccc2c1
REMARK SMILES IDX 3 1 4 2 5 3 9 4 8 5 7 6 6 7 10 8 2 9 1 11
REMARK H PARENT 6 10 1 12
REMARK Flexibility Score: inf
ROOT
ATOM      1  C   UNL     1      18.644 -47.983  -2.692  1.00  0.00     0.048 A 
ATOM      2  C   UNL     1      17.261 -48.042  -2.436  1.00  0.00     0.030 A 
ATOM      3  C   UNL     1      16.846 -48.610  -1.233  1.00  0.00     0.046 A 
ATOM      4  C   UNL     1      17.742 -49.100  -0.321  1.00  0.00     0.003 A 
ATOM      5  C   UNL     1      17.020 -49.587   0.746  1.00  0.00     0.028 A 
ATOM      6  C   UNL     1      15.688 -49.362   0.416  1.00  0.00     0.083 A 
ATOM      7  N   UNL     1      15.586 -48.765  -0.794  1.00  0.00    -0.361 N 
ATOM      8  C   UNL     1      19.117 -49.058  -0.544  1.00  0.00     0.056 A 
ATOM      9  C   UNL     1      19.572 -48.488  -1.752  1.00  0.00     0.116 A 
ATOM     10  H   UNL     1      14.707 -48.483  -1.282  1.00  0.00     0.166 HD
ENDROOT
BRANCH   9  11
ATOM     11  O   UNL     1      20.935 -48.418  -2.031  1.00  0.00    -0.508 OA
ATOM     12  H   UNL     1      21.467 -47.574  -1.856  1.00  0.00     0.293 HD
ENDBRANCH   9  11
TORSDOF 1
ENDMDL
MODEL 3
REMARK VINA RESULT:    -4.392      2.637      4.250
REMARK INTER + INTRA:          -4.520
REMARK INTER:                  -4.520
REMARK INTRA:                   0.000
REMARK UNBOUND:                 0.000
REMARK SMILES Oc1ccc2[nH]ccc2c1
REMARK SMILES IDX 3 1 4 2 5 3 9 4 8 5 7 6 6 7 10 8 2 9 1 11
REMARK H PARENT 6 10 1 12
REMARK Flexibility Score: inf
ROOT
ATOM      1  C   UNL     1      17.281 -48.247  -2.596  1.00  0.00     0.048 A 
ATOM      2  C   UNL     1      18.523 -48.216  -3.256  1.00  0.00     0.030 A 
ATOM      3  C   UNL     1      19.656 -48.577  -2.529  1.00  0.00     0.046 A 
ATOM      4  C   UNL     1      19.578 -48.952  -1.214  1.00  0.00     0.003 A 
ATOM      5  C   UNL     1      20.856 -49.243  -0.792  1.00  0.00     0.028 A 
ATOM      6  C   UNL     1      21.664 -49.023  -1.903  1.00  0.00     0.083 A 
ATOM      7  N   UNL     1      20.927 -48.615  -2.962  1.00  0.00    -0.361 N 
ATOM      8  C   UNL     1      18.364 -48.993  -0.531  1.00  0.00     0.056 A 
ATOM      9  C   UNL     1      17.197 -48.634  -1.239  1.00  0.00     0.116 A 
ATOM     10  H   UNL     1      21.277 -48.381  -3.917  1.00  0.00     0.166 HD
ENDROOT
BRANCH   9  11
ATOM     11  O   UNL     1      15.955 -48.656  -0.609  1.00  0.00    -0.508 OA
ATOM     12  H   UNL     1      15.294 -47.895  -0.716  1.00  0.00     0.293 HD
ENDBRANCH   9  11
TORSDOF 1
ENDMDL
MODEL 4
REMARK VINA RESULT:    -4.135     11.204     12.544
REMARK INTER + INTRA:          -4.256
REMARK INTER:                  -4.256
REMARK INTRA:                   0.000
REMARK UNBOUND:                 0.000
REMARK SMILES Oc1ccc2[nH]ccc2c1
REMARK SMILES IDX 3 1 4 2 5 3 9 4 8 5 7 6 6 7 10 8 2 9 1 11
REMARK H PARENT 6 10 1 12
REMARK Flexibility Score: inf
ROOT
ATOM      1  C   UNL     1      24.698 -44.599  -7.862  1.00  0.00     0.048 A 
ATOM      2  C   UNL     1      24.947 -43.355  -8.469  1.00  0.00     0.030 A 
ATOM      3  C   UNL     1      26.169 -43.180  -9.117  1.00  0.00     0.046 A 
ATOM      4  C   UNL     1      27.106 -44.177  -9.169  1.00  0.00     0.003 A 
ATOM      5  C   UNL     1      28.186 -43.691  -9.872  1.00  0.00     0.028 A 
ATOM      6  C   UNL     1      27.838 -42.390 -10.218  1.00  0.00     0.083 A 
ATOM      7  N   UNL     1      26.605 -42.081  -9.755  1.00  0.00    -0.361 N 
ATOM      8  C   UNL     1      26.891 -45.420  -8.578  1.00  0.00     0.056 A 
ATOM      9  C   UNL     1      25.663 -45.631  -7.914  1.00  0.00     0.116 A 
ATOM     10  H   UNL     1      26.100 -41.174  -9.872  1.00  0.00     0.166 HD
ENDROOT
BRANCH   9  11
ATOM     11  O   UNL     1      25.392 -46.854  -7.304  1.00  0.00    -0.508 OA
ATOM     12  H   UNL     1      24.686 -46.939  -6.582  1.00  0.00     0.293 HD
ENDBRANCH   9  11
TORSDOF 1
ENDMDL
MODEL 5
REMARK VINA RESULT:    -4.045     10.590     11.835
REMARK INTER + INTRA:          -4.163
REMARK INTER:                  -4.163
REMARK INTRA:                   0.000
REMARK UNBOUND:                 0.000
REMARK SMILES Oc1ccc2[nH]ccc2c1
REMARK SMILES IDX 3 1 4 2 5 3 9 4 8 5 7 6 6 7 10 8 2 9 1 11
REMARK H PARENT 6 10 1 12
REMARK Flexibility Score: inf
ROOT
ATOM      1  C   UNL     1      24.754 -43.366  -8.387  1.00  0.00     0.048 A 
ATOM      2  C   UNL     1      24.588 -44.633  -7.800  1.00  0.00     0.030 A 
ATOM      3  C   UNL     1      25.600 -45.574  -7.985  1.00  0.00     0.046 A 
ATOM      4  C   UNL     1      26.724 -45.288  -8.712  1.00  0.00     0.003 A 
ATOM      5  C   UNL     1      27.518 -46.414  -8.705  1.00  0.00     0.028 A 
ATOM      6  C   UNL     1      26.814 -47.349  -7.953  1.00  0.00     0.083 A 
ATOM      7  N   UNL     1      25.642 -46.832  -7.516  1.00  0.00    -0.361 N 
ATOM      8  C   UNL     1      26.919 -44.043  -9.308  1.00  0.00     0.056 A 
ATOM      9  C   UNL     1      25.914 -43.067  -9.139  1.00  0.00     0.116 A 
ATOM     10  H   UNL     1      24.923 -47.314  -6.932  1.00  0.00     0.166 HD
ENDROOT
BRANCH   9  11
ATOM     11  O   UNL     1      26.053 -41.805  -9.711  1.00  0.00    -0.508 OA
ATOM     12  H   UNL     1      26.073 -40.966  -9.142  1.00  0.00     0.293 HD
ENDBRANCH   9  11
TORSDOF 1
ENDMDL
MODEL 6
REMARK VINA RESULT:    -3.984      2.556      3.609
REMARK INTER + INTRA:          -4.100
REMARK INTER:                  -4.100
REMARK INTRA:                   0.000
REMARK UNBOUND:                 0.000
REMARK SMILES Oc1ccc2[nH]ccc2c1
REMARK SMILES IDX 3 1 4 2 5 3 9 4 8 5 7 6 6 7 10 8 2 9 1 11
REMARK H PARENT 6 10 1 12
REMARK Flexibility Score: inf
ROOT
ATOM      1  C   UNL     1      15.755 -48.982  -0.263  1.00  0.00     0.048 A 
ATOM      2  C   UNL     1      17.058 -49.370   0.099  1.00  0.00     0.030 A 
ATOM      3  C   UNL     1      18.100 -49.030  -0.761  1.00  0.00     0.046 A 
ATOM      4  C   UNL     1      17.879 -48.341  -1.924  1.00  0.00     0.003 A 
ATOM      5  C   UNL     1      19.100 -48.165  -2.537  1.00  0.00     0.028 A 
ATOM      6  C   UNL     1      20.022 -48.773  -1.692  1.00  0.00     0.083 A 
ATOM      7  N   UNL     1      19.407 -49.301  -0.608  1.00  0.00    -0.361 N 
ATOM      8  C   UNL     1      16.602 -47.942  -2.312  1.00  0.00     0.056 A 
ATOM      9  C   UNL     1      15.523 -48.270  -1.463  1.00  0.00     0.116 A 
ATOM     10  H   UNL     1      19.859 -49.812   0.182  1.00  0.00     0.166 HD
ENDROOT
BRANCH   9  11
ATOM     11  O   UNL     1      14.223 -47.898  -1.798  1.00  0.00    -0.508 OA
ATOM     12  H   UNL     1      13.890 -46.952  -1.651  1.00  0.00     0.293 HD
ENDBRANCH   9  11
TORSDOF 1
ENDMDL
MODEL 7
REMARK VINA RESULT:    -3.981      2.748      3.842
REMARK INTER + INTRA:          -4.097
REMARK INTER:                  -4.097
REMARK INTRA:                   0.000
REMARK UNBOUND:                 0.000
REMARK SMILES Oc1ccc2[nH]ccc2c1
REMARK SMILES IDX 3 1 4 2 5 3 9 4 8 5 7 6 6 7 10 8 2 9 1 11
REMARK H PARENT 6 10 1 12
REMARK Flexibility Score: inf
ROOT
ATOM      1  C   UNL     1      18.196 -48.985  -0.436  1.00  0.00     0.048 A 
ATOM      2  C   UNL     1      19.560 -49.274  -0.624  1.00  0.00     0.030 A 
ATOM      3  C   UNL     1      20.083 -49.138  -1.908  1.00  0.00     0.046 A 
ATOM      4  C   UNL     1      19.307 -48.738  -2.963  1.00  0.00     0.003 A 
ATOM      5  C   UNL     1      20.113 -48.703  -4.079  1.00  0.00     0.028 A 
ATOM      6  C   UNL     1      21.371 -49.096  -3.631  1.00  0.00     0.083 A 
ATOM      7  N   UNL     1      21.348 -49.361  -2.304  1.00  0.00    -0.361 N 
ATOM      8  C   UNL     1      17.953 -48.445  -2.812  1.00  0.00     0.056 A 
ATOM      9  C   UNL     1      17.392 -48.572  -1.523  1.00  0.00     0.116 A 
ATOM     10  H   UNL     1      22.150 -49.673  -1.713  1.00  0.00     0.166 HD
ENDROOT
BRANCH   9  11
ATOM     11  O   UNL     1      16.044 -48.293  -1.310  1.00  0.00    -0.508 OA
ATOM     12  H   UNL     1      15.431 -48.962  -0.857  1.00  0.00     0.293 HD
ENDBRANCH   9  11
TORSDOF 1
ENDMDL
MODEL 8
REMARK VINA RESULT:    -3.968      2.359      3.239
REMARK INTER + INTRA:          -4.084
REMARK INTER:                  -4.084
REMARK INTRA:                   0.000
REMARK UNBOUND:                 0.000
REMARK SMILES Oc1ccc2[nH]ccc2c1
REMARK SMILES IDX 3 1 4 2 5 3 9 4 8 5 7 6 6 7 10 8 2 9 1 11
REMARK H PARENT 6 10 1 12
REMARK Flexibility Score: inf
ROOT
ATOM      1  C   UNL     1      21.859 -49.018  -2.461  1.00  0.00     0.048 A 
ATOM      2  C   UNL     1      21.157 -49.222  -3.664  1.00  0.00     0.030 A 
ATOM      3  C   UNL     1      19.772 -49.060  -3.644  1.00  0.00     0.046 A 
ATOM      4  C   UNL     1      19.104 -48.715  -2.500  1.00  0.00     0.003 A 
ATOM      5  C   UNL     1      17.765 -48.637  -2.812  1.00  0.00     0.028 A 
ATOM      6  C   UNL     1      17.689 -48.947  -4.166  1.00  0.00     0.083 A 
ATOM      7  N   UNL     1      18.918 -49.206  -4.670  1.00  0.00    -0.361 N 
ATOM      8  C   UNL     1      19.769 -48.507  -1.293  1.00  0.00     0.056 A 
ATOM      9  C   UNL     1      21.172 -48.662  -1.278  1.00  0.00     0.116 A 
ATOM     10  H   UNL     1      19.150 -49.464  -5.655  1.00  0.00     0.166 HD
ENDROOT
BRANCH   9  11
ATOM     11  O   UNL     1      21.891 -48.467  -0.101  1.00  0.00    -0.508 OA
ATOM     12  H   UNL     1      21.855 -49.138   0.657  1.00  0.00     0.293 HD
ENDBRANCH   9  11
TORSDOF 1
ENDMDL
MODEL 9
REMARK VINA RESULT:    -3.943      1.761      3.009
REMARK INTER + INTRA:          -4.058
REMARK INTER:                  -4.058
REMARK INTRA:                   0.000
REMARK UNBOUND:                 0.000
REMARK SMILES Oc1ccc2[nH]ccc2c1
REMARK SMILES IDX 3 1 4 2 5 3 9 4 8 5 7 6 6 7 10 8 2 9 1 11
REMARK H PARENT 6 10 1 12
REMARK Flexibility Score: inf
ROOT
ATOM      1  C   UNL     1      20.864 -48.873  -3.942  1.00  0.00     0.048 A 
ATOM      2  C   UNL     1      19.487 -48.601  -3.853  1.00  0.00     0.030 A 
ATOM      3  C   UNL     1      18.884 -48.698  -2.600  1.00  0.00     0.046 A 
ATOM      4  C   UNL     1      19.595 -49.047  -1.484  1.00  0.00     0.003 A 
ATOM      5  C   UNL     1      18.719 -49.053  -0.421  1.00  0.00     0.028 A 
ATOM      6  C   UNL     1      17.488 -48.699  -0.964  1.00  0.00     0.083 A 
ATOM      7  N   UNL     1      17.592 -48.484  -2.296  1.00  0.00    -0.361 N 
ATOM      8  C   UNL     1      20.960 -49.323  -1.537  1.00  0.00     0.056 A 
ATOM      9  C   UNL     1      21.602 -49.233  -2.791  1.00  0.00     0.116 A 
ATOM     10  H   UNL     1      16.826 -48.207  -2.949  1.00  0.00     0.166 HD
ENDROOT
BRANCH   9  11
ATOM     11  O   UNL     1      22.965 -49.497  -2.906  1.00  0.00    -0.508 OA
ATOM     12  H   UNL     1      23.494 -49.200  -3.718  1.00  0.00     0.293 HD
ENDBRANCH   9  11
TORSDOF 1
ENDMDL
