MODEL 1
REMARK VINA RESULT:    -3.155      0.000      0.000
REMARK INTER + INTRA:          -6.641
REMARK INTER:                  -5.553
REMARK INTRA:                  -1.088
REMARK UNBOUND:                -1.088
REMARK SMILES CCCCCCC=CCCCCCCCC(=O)[O-]
REMARK SMILES IDX 10 1 11 2 12 3 13 4 14 5 15 6 16 7 17 8 18 9 9 10 8 11 7 12
REMARK SMILES IDX 6 13 5 14 4 15 3 16 2 17 1 18
REMARK H PARENT
REMARK Flexibility Score: inf
ROOT
ATOM      1  C   UNL     1      27.991  16.027  10.989  1.00  0.00     0.004 C 
ENDROOT
BRANCH   1   2
ATOM      2  C   UNL     1      29.055  14.924  11.084  1.00  0.00     0.000 C 
BRANCH   2   3
ATOM      3  C   UNL     1      28.866  14.086  12.357  1.00  0.00     0.000 C 
BRANCH   3   4
ATOM      4  C   UNL     1      28.751  14.942  13.630  1.00  0.00     0.000 C 
BRANCH   4   5
ATOM      5  C   UNL     1      27.361  14.937  14.293  1.00  0.00     0.006 C 
BRANCH   5   6
ATOM      6  C   UNL     1      26.661  16.300  14.224  1.00  0.00     0.053 C 
BRANCH   6   7
ATOM      7  C   UNL     1      25.190  16.144  14.443  1.00  0.00     0.041 C 
ATOM      8  O   UNL     1      24.508  15.422  13.668  1.00  0.00    -0.550 OA
ATOM      9  O   UNL     1      24.580  16.754  15.531  1.00  0.00    -0.550 OA
ENDBRANCH   6   7
ENDBRANCH   5   6
ENDBRANCH   4   5
ENDBRANCH   3   4
ENDBRANCH   2   3
ENDBRANCH   1   2
BRANCH   1  10
ATOM     10  C   UNL     1      28.588  17.428  11.190  1.00  0.00     0.027 C 
BRANCH  10  11
ATOM     11  C   UNL     1      27.543  18.427  11.623  1.00  0.00    -0.031 C 
ATOM     12  C   UNL     1      27.757  19.431  12.493  1.00  0.00    -0.031 C 
BRANCH  12  13
ATOM     13  C   UNL     1      29.047  19.655  13.245  1.00  0.00     0.027 C 
BRANCH  13  14
ATOM     14  C   UNL     1      29.357  18.499  14.207  1.00  0.00     0.004 C 
BRANCH  14  15
ATOM     15  C   UNL     1      30.811  18.529  14.701  1.00  0.00     0.000 C 
BRANCH  15  16
ATOM     16  C   UNL     1      31.037  19.693  15.673  1.00  0.00    -0.000 C 
BRANCH  16  17
ATOM     17  C   UNL     1      30.368  19.418  17.024  1.00  0.00    -0.003 C 
ATOM     18  C   UNL     1      30.908  20.349  18.107  1.00  0.00     0.004 C 
ENDBRANCH  16  17
ENDBRANCH  15  16
ENDBRANCH  14  15
ENDBRANCH  13  14
ENDBRANCH  12  13
ENDBRANCH  10  11
ENDBRANCH   1  10
TORSDOF 13
ENDMDL
MODEL 2
REMARK VINA RESULT:    -3.013      2.752      5.540
REMARK INTER + INTRA:          -6.391
REMARK INTER:                  -4.760
REMARK INTRA:                  -1.631
REMARK UNBOUND:                -1.088
REMARK SMILES CCCCCCC=CCCCCCCCC(=O)[O-]
REMARK SMILES IDX 10 1 11 2 12 3 13 4 14 5 15 6 16 7 17 8 18 9 9 10 8 11 7 12
REMARK SMILES IDX 6 13 5 14 4 15 3 16 2 17 1 18
REMARK H PARENT
REMARK Flexibility Score: inf
ROOT
ATOM      1  C   UNL     1      27.862  18.117  10.919  1.00  0.00     0.004 C 
ENDROOT
BRANCH   1   2
ATOM      2  C   UNL     1      27.407  18.519  12.329  1.00  0.00     0.000 C 
BRANCH   2   3
ATOM      3  C   UNL     1      27.887  19.935  12.680  1.00  0.00     0.000 C 
BRANCH   3   4
ATOM      4  C   UNL     1      29.013  19.946  13.729  1.00  0.00     0.000 C 
BRANCH   4   5
ATOM      5  C   UNL     1      29.716  18.593  13.942  1.00  0.00     0.006 C 
BRANCH   5   6
ATOM      6  C   UNL     1      30.060  18.324  15.413  1.00  0.00     0.053 C 
BRANCH   6   7
ATOM      7  C   UNL     1      31.028  19.345  15.919  1.00  0.00     0.041 C 
ATOM      8  O   UNL     1      32.040  19.652  15.235  1.00  0.00    -0.550 OA
ATOM      9  O   UNL     1      30.787  19.996  17.122  1.00  0.00    -0.550 OA
ENDBRANCH   6   7
ENDBRANCH   5   6
ENDBRANCH   4   5
ENDBRANCH   3   4
ENDBRANCH   2   3
ENDBRANCH   1   2
BRANCH   1  10
ATOM     10  C   UNL     1      28.849  16.941  10.941  1.00  0.00     0.027 C 
BRANCH  10  11
ATOM     11  C   UNL     1      28.149  15.617  10.751  1.00  0.00    -0.031 C 
ATOM     12  C   UNL     1      28.314  14.543  11.545  1.00  0.00    -0.031 C 
BRANCH  12  13
ATOM     13  C   UNL     1      29.297  14.463  12.688  1.00  0.00     0.027 C 
BRANCH  13  14
ATOM     14  C   UNL     1      28.740  15.102  13.969  1.00  0.00     0.004 C 
BRANCH  14  15
ATOM     15  C   UNL     1      27.205  15.075  14.009  1.00  0.00     0.000 C 
BRANCH  15  16
ATOM     16  C   UNL     1      26.645  16.411  14.510  1.00  0.00    -0.000 C 
BRANCH  16  17
ATOM     17  C   UNL     1      25.115  16.375  14.578  1.00  0.00    -0.003 C 
ATOM     18  C   UNL     1      24.550  15.256  13.707  1.00  0.00     0.004 C 
ENDBRANCH  16  17
ENDBRANCH  15  16
ENDBRANCH  14  15
ENDBRANCH  13  14
ENDBRANCH  12  13
ENDBRANCH  10  11
ENDBRANCH   1  10
TORSDOF 13
ENDMDL
MODEL 3
REMARK VINA RESULT:    -2.873      2.714      5.528
REMARK INTER + INTRA:          -6.144
REMARK INTER:                  -4.894
REMARK INTRA:                  -1.250
REMARK UNBOUND:                -1.088
REMARK SMILES CCCCCCC=CCCCCCCCC(=O)[O-]
REMARK SMILES IDX 10 1 11 2 12 3 13 4 14 5 15 6 16 7 17 8 18 9 9 10 8 11 7 12
REMARK SMILES IDX 6 13 5 14 4 15 3 16 2 17 1 18
REMARK H PARENT
REMARK Flexibility Score: inf
ROOT
ATOM      1  C   UNL     1      28.621  17.047  11.225  1.00  0.00     0.004 C 
ENDROOT
BRANCH   1   2
ATOM      2  C   UNL     1      27.520  18.077  10.935  1.00  0.00     0.000 C 
BRANCH   2   3
ATOM      3  C   UNL     1      27.769  19.380  11.709  1.00  0.00     0.000 C 
BRANCH   3   4
ATOM      4  C   UNL     1      27.994  19.153  13.214  1.00  0.00     0.000 C 
BRANCH   4   5
ATOM      5  C   UNL     1      29.322  19.703  13.763  1.00  0.00     0.006 C 
BRANCH   5   6
ATOM      6  C   UNL     1      30.066  18.694  14.649  1.00  0.00     0.053 C 
BRANCH   6   7
ATOM      7  C   UNL     1      31.052  19.397  15.526  1.00  0.00     0.041 C 
ATOM      8  O   UNL     1      32.226  19.604  15.120  1.00  0.00    -0.550 OA
ATOM      9  O   UNL     1      30.662  19.867  16.774  1.00  0.00    -0.550 OA
ENDBRANCH   6   7
ENDBRANCH   5   6
ENDBRANCH   4   5
ENDBRANCH   3   4
ENDBRANCH   2   3
ENDBRANCH   1   2
BRANCH   1  10
ATOM     10  C   UNL     1      28.142  15.606  10.998  1.00  0.00     0.027 C 
BRANCH  10  11
ATOM     11  C   UNL     1      29.196  14.596  11.386  1.00  0.00    -0.031 C 
ATOM     12  C   UNL     1      29.239  13.949  12.565  1.00  0.00    -0.031 C 
BRANCH  12  13
ATOM     13  C   UNL     1      28.301  14.204  13.719  1.00  0.00     0.027 C 
BRANCH  13  14
ATOM     14  C   UNL     1      28.430  15.637  14.257  1.00  0.00     0.004 C 
BRANCH  14  15
ATOM     15  C   UNL     1      27.063  16.317  14.430  1.00  0.00     0.000 C 
BRANCH  15  16
ATOM     16  C   UNL     1      25.948  15.474  13.801  1.00  0.00    -0.000 C 
BRANCH  16  17
ATOM     17  C   UNL     1      24.573  15.909  14.320  1.00  0.00    -0.003 C 
ATOM     18  C   UNL     1      24.699  16.718  15.608  1.00  0.00     0.004 C 
ENDBRANCH  16  17
ENDBRANCH  15  16
ENDBRANCH  14  15
ENDBRANCH  13  14
ENDBRANCH  12  13
ENDBRANCH  10  11
ENDBRANCH   1  10
TORSDOF 13
ENDMDL
MODEL 4
REMARK VINA RESULT:    -2.483     16.998     18.720
REMARK INTER + INTRA:          -5.458
REMARK INTER:                  -4.181
REMARK INTRA:                  -1.277
REMARK UNBOUND:                -1.088
REMARK SMILES CCCCCCC=CCCCCCCCC(=O)[O-]
REMARK SMILES IDX 10 1 11 2 12 3 13 4 14 5 15 6 16 7 17 8 18 9 9 10 8 11 7 12
REMARK SMILES IDX 6 13 5 14 4 15 3 16 2 17 1 18
REMARK H PARENT
REMARK Flexibility Score: inf
ROOT
ATOM      1  C   UNL     1      31.729  10.106  -1.072  1.00  0.00     0.004 C 
ENDROOT
BRANCH   1   2
ATOM      2  C   UNL     1      32.871  10.097  -2.098  1.00  0.00     0.000 C 
BRANCH   2   3
ATOM      3  C   UNL     1      34.009  11.033  -1.664  1.00  0.00     0.000 C 
BRANCH   3   4
ATOM      4  C   UNL     1      35.284  10.278  -1.252  1.00  0.00     0.000 C 
BRANCH   4   5
ATOM      5  C   UNL     1      35.461   8.894  -1.904  1.00  0.00     0.006 C 
BRANCH   5   6
ATOM      6  C   UNL     1      35.749   7.785  -0.883  1.00  0.00     0.053 C 
BRANCH   6   7
ATOM      7  C   UNL     1      34.476   7.137  -0.443  1.00  0.00     0.041 C 
ATOM      8  O   UNL     1      34.115   7.203   0.761  1.00  0.00    -0.550 OA
ATOM      9  O   UNL     1      33.663   6.501  -1.373  1.00  0.00    -0.550 OA
ENDBRANCH   6   7
ENDBRANCH   5   6
ENDBRANCH   4   5
ENDBRANCH   3   4
ENDBRANCH   2   3
ENDBRANCH   1   2
BRANCH   1  10
ATOM     10  C   UNL     1      30.856   8.846  -1.163  1.00  0.00     0.027 C 
BRANCH  10  11
ATOM     11  C   UNL     1      30.973   7.991   0.075  1.00  0.00    -0.031 C 
ATOM     12  C   UNL     1      30.690   6.677   0.128  1.00  0.00    -0.031 C 
BRANCH  12  13
ATOM     13  C   UNL     1      30.117   5.875  -1.016  1.00  0.00     0.027 C 
BRANCH  13  14
ATOM     14  C   UNL     1      28.591   6.021  -1.110  1.00  0.00     0.004 C 
BRANCH  14  15
ATOM     15  C   UNL     1      28.173   7.095  -2.125  1.00  0.00     0.000 C 
BRANCH  15  16
ATOM     16  C   UNL     1      26.662   7.352  -2.061  1.00  0.00    -0.000 C 
BRANCH  16  17
ATOM     17  C   UNL     1      26.290   8.128  -0.793  1.00  0.00    -0.003 C 
ATOM     18  C   UNL     1      27.267   9.274  -0.541  1.00  0.00     0.004 C 
ENDBRANCH  16  17
ENDBRANCH  15  16
ENDBRANCH  14  15
ENDBRANCH  13  14
ENDBRANCH  12  13
ENDBRANCH  10  11
ENDBRANCH   1  10
TORSDOF 13
ENDMDL
MODEL 5
REMARK VINA RESULT:    -1.739      1.242      4.349
REMARK INTER + INTRA:          -4.149
REMARK INTER:                  -2.240
REMARK INTRA:                  -1.909
REMARK UNBOUND:                -1.088
REMARK SMILES CCCCCCC=CCCCCCCCC(=O)[O-]
REMARK SMILES IDX 10 1 11 2 12 3 13 4 14 5 15 6 16 7 17 8 18 9 9 10 8 11 7 12
REMARK SMILES IDX 6 13 5 14 4 15 3 16 2 17 1 18
REMARK H PARENT
REMARK Flexibility Score: inf
ROOT
ATOM      1  C   UNL     1      30.286  19.370  15.047  1.00  0.00     0.004 C 
ENDROOT
BRANCH   1   2
ATOM      2  C   UNL     1      30.005  17.959  15.584  1.00  0.00     0.000 C 
BRANCH   2   3
ATOM      3  C   UNL     1      29.783  16.967  14.433  1.00  0.00     0.000 C 
BRANCH   3   4
ATOM      4  C   UNL     1      28.642  15.972  14.709  1.00  0.00     0.000 C 
BRANCH   4   5
ATOM      5  C   UNL     1      27.230  16.495  14.386  1.00  0.00     0.006 C 
BRANCH   5   6
ATOM      6  C   UNL     1      26.230  15.371  14.087  1.00  0.00     0.053 C 
BRANCH   6   7
ATOM      7  C   UNL     1      24.828  15.860  14.256  1.00  0.00     0.041 C 
ATOM      8  O   UNL     1      24.524  16.585  15.240  1.00  0.00    -0.550 OA
ATOM      9  O   UNL     1      23.866  15.557  13.301  1.00  0.00    -0.550 OA
ENDBRANCH   6   7
ENDBRANCH   5   6
ENDBRANCH   4   5
ENDBRANCH   3   4
ENDBRANCH   2   3
ENDBRANCH   1   2
BRANCH   1  10
ATOM     10  C   UNL     1      29.791  19.552  13.604  1.00  0.00     0.027 C 
BRANCH  10  11
ATOM     11  C   UNL     1      28.388  20.110  13.558  1.00  0.00    -0.031 C 
ATOM     12  C   UNL     1      27.499  19.864  12.580  1.00  0.00    -0.031 C 
BRANCH  12  13
ATOM     13  C   UNL     1      27.795  19.075  11.327  1.00  0.00     0.027 C 
BRANCH  13  14
ATOM     14  C   UNL     1      27.523  17.575  11.519  1.00  0.00     0.004 C 
BRANCH  14  15
ATOM     15  C   UNL     1      28.644  16.704  10.931  1.00  0.00     0.000 C 
BRANCH  15  16
ATOM     16  C   UNL     1      28.298  15.215  11.045  1.00  0.00    -0.000 C 
BRANCH  16  17
ATOM     17  C   UNL     1      29.453  14.430  11.677  1.00  0.00    -0.003 C 
ATOM     18  C   UNL     1      28.934  13.270  12.524  1.00  0.00     0.004 C 
ENDBRANCH  16  17
ENDBRANCH  15  16
ENDBRANCH  14  15
ENDBRANCH  13  14
ENDBRANCH  12  13
ENDBRANCH  10  11
ENDBRANCH   1  10
TORSDOF 13
ENDMDL
MODEL 6
REMARK VINA RESULT:    -1.670     16.381     18.518
REMARK INTER + INTRA:          -4.028
REMARK INTER:                  -3.303
REMARK INTRA:                  -0.725
REMARK UNBOUND:                -1.088
REMARK SMILES CCCCCCC=CCCCCCCCC(=O)[O-]
REMARK SMILES IDX 10 1 11 2 12 3 13 4 14 5 15 6 16 7 17 8 18 9 9 10 8 11 7 12
REMARK SMILES IDX 6 13 5 14 4 15 3 16 2 17 1 18
REMARK H PARENT
REMARK Flexibility Score: inf
ROOT
ATOM      1  C   UNL     1      33.399   7.474  -0.719  1.00  0.00     0.004 C 
ENDROOT
BRANCH   1   2
ATOM      2  C   UNL     1      34.593   8.369  -0.357  1.00  0.00     0.000 C 
BRANCH   2   3
ATOM      3  C   UNL     1      35.666   8.324  -1.455  1.00  0.00     0.000 C 
BRANCH   3   4
ATOM      4  C   UNL     1      36.116   9.722  -1.914  1.00  0.00     0.000 C 
BRANCH   4   5
ATOM      5  C   UNL     1      34.981  10.749  -2.078  1.00  0.00     0.006 C 
BRANCH   5   6
ATOM      6  C   UNL     1      34.460  11.285  -0.738  1.00  0.00     0.053 C 
BRANCH   6   7
ATOM      7  C   UNL     1      35.583  11.853   0.069  1.00  0.00     0.041 C 
ATOM      8  O   UNL     1      36.071  11.197   1.027  1.00  0.00    -0.550 OA
ATOM      9  O   UNL     1      36.125  13.088  -0.266  1.00  0.00    -0.550 OA
ENDBRANCH   6   7
ENDBRANCH   5   6
ENDBRANCH   4   5
ENDBRANCH   3   4
ENDBRANCH   2   3
ENDBRANCH   1   2
BRANCH   1  10
ATOM     10  C   UNL     1      32.083   8.263  -0.788  1.00  0.00     0.027 C 
BRANCH  10  11
ATOM     11  C   UNL     1      31.074   7.761   0.217  1.00  0.00    -0.031 C 
ATOM     12  C   UNL     1      30.275   6.694   0.033  1.00  0.00    -0.031 C 
BRANCH  12  13
ATOM     13  C   UNL     1      30.192   5.894  -1.244  1.00  0.00     0.027 C 
BRANCH  13  14
ATOM     14  C   UNL     1      28.990   6.311  -2.104  1.00  0.00     0.004 C 
BRANCH  14  15
ATOM     15  C   UNL     1      27.815   6.815  -1.253  1.00  0.00     0.000 C 
BRANCH  15  16
ATOM     16  C   UNL     1      26.896   7.728  -2.071  1.00  0.00    -0.000 C 
BRANCH  16  17
ATOM     17  C   UNL     1      26.950   9.169  -1.554  1.00  0.00    -0.003 C 
ATOM     18  C   UNL     1      27.557   9.231  -0.154  1.00  0.00     0.004 C 
ENDBRANCH  16  17
ENDBRANCH  15  16
ENDBRANCH  14  15
ENDBRANCH  13  14
ENDBRANCH  12  13
ENDBRANCH  10  11
ENDBRANCH   1  10
TORSDOF 13
ENDMDL
MODEL 7
REMARK VINA RESULT:    -1.517      5.593      8.926
REMARK INTER + INTRA:          -3.758
REMARK INTER:                  -2.964
REMARK INTRA:                  -0.794
REMARK UNBOUND:                -1.088
REMARK SMILES CCCCCCC=CCCCCCCCC(=O)[O-]
REMARK SMILES IDX 10 1 11 2 12 3 13 4 14 5 15 6 16 7 17 8 18 9 9 10 8 11 7 12
REMARK SMILES IDX 6 13 5 14 4 15 3 16 2 17 1 18
REMARK H PARENT
REMARK Flexibility Score: inf
ROOT
ATOM      1  C   UNL     1      33.823  20.169  15.219  1.00  0.00     0.004 C 
ENDROOT
BRANCH   1   2
ATOM      2  C   UNL     1      34.788  20.494  14.069  1.00  0.00     0.000 C 
BRANCH   2   3
ATOM      3  C   UNL     1      35.935  21.394  14.551  1.00  0.00     0.000 C 
BRANCH   3   4
ATOM      4  C   UNL     1      36.029  22.718  13.772  1.00  0.00     0.000 C 
BRANCH   4   5
ATOM      5  C   UNL     1      35.888  23.989  14.630  1.00  0.00     0.006 C 
BRANCH   5   6
ATOM      6  C   UNL     1      34.673  23.946  15.566  1.00  0.00     0.053 C 
BRANCH   6   7
ATOM      7  C   UNL     1      34.138  25.324  15.792  1.00  0.00     0.041 C 
ATOM      8  O   UNL     1      34.750  26.124  16.548  1.00  0.00    -0.550 OA
ATOM      9  O   UNL     1      32.991  25.742  15.130  1.00  0.00    -0.550 OA
ENDBRANCH   6   7
ENDBRANCH   5   6
ENDBRANCH   4   5
ENDBRANCH   3   4
ENDBRANCH   2   3
ENDBRANCH   1   2
BRANCH   1  10
ATOM     10  C   UNL     1      32.612  19.352  14.747  1.00  0.00     0.027 C 
BRANCH  10  11
ATOM     11  C   UNL     1      31.360  19.709  15.511  1.00  0.00    -0.031 C 
ATOM     12  C   UNL     1      30.151  19.160  15.299  1.00  0.00    -0.031 C 
BRANCH  12  13
ATOM     13  C   UNL     1      29.835  18.175  14.200  1.00  0.00     0.027 C 
BRANCH  13  14
ATOM     14  C   UNL     1      29.050  16.963  14.725  1.00  0.00     0.004 C 
BRANCH  14  15
ATOM     15  C   UNL     1      28.136  16.356  13.650  1.00  0.00     0.000 C 
BRANCH  15  16
ATOM     16  C   UNL     1      28.013  17.290  12.441  1.00  0.00    -0.000 C 
BRANCH  16  17
ATOM     17  C   UNL     1      28.358  16.555  11.142  1.00  0.00    -0.003 C 
ATOM     18  C   UNL     1      28.773  15.112  11.417  1.00  0.00     0.004 C 
ENDBRANCH  16  17
ENDBRANCH  15  16
ENDBRANCH  14  15
ENDBRANCH  13  14
ENDBRANCH  12  13
ENDBRANCH  10  11
ENDBRANCH   1  10
TORSDOF 13
ENDMDL
MODEL 8
REMARK VINA RESULT:    -1.375     15.751     18.046
REMARK INTER + INTRA:          -3.508
REMARK INTER:                  -2.374
REMARK INTRA:                  -1.134
REMARK UNBOUND:                -1.088
REMARK SMILES CCCCCCC=CCCCCCCCC(=O)[O-]
REMARK SMILES IDX 10 1 11 2 12 3 13 4 14 5 15 6 16 7 17 8 18 9 9 10 8 11 7 12
REMARK SMILES IDX 6 13 5 14 4 15 3 16 2 17 1 18
REMARK H PARENT
REMARK Flexibility Score: inf
ROOT
ATOM      1  C   UNL     1      33.918   7.628  -1.651  1.00  0.00     0.004 C 
ENDROOT
BRANCH   1   2
ATOM      2  C   UNL     1      35.067   8.645  -1.610  1.00  0.00     0.000 C 
BRANCH   2   3
ATOM      3  C   UNL     1      34.565  10.057  -1.945  1.00  0.00     0.000 C 
BRANCH   3   4
ATOM      4  C   UNL     1      33.950  10.780  -0.734  1.00  0.00     0.000 C 
BRANCH   4   5
ATOM      5  C   UNL     1      34.739  10.635   0.580  1.00  0.00     0.006 C 
BRANCH   5   6
ATOM      6  C   UNL     1      36.104  11.334   0.539  1.00  0.00     0.053 C 
BRANCH   6   7
ATOM      7  C   UNL     1      35.938  12.812   0.693  1.00  0.00     0.041 C 
ATOM      8  O   UNL     1      36.125  13.577  -0.289  1.00  0.00    -0.550 OA
ATOM      9  O   UNL     1      35.530  13.342   1.911  1.00  0.00    -0.550 OA
ENDBRANCH   6   7
ENDBRANCH   5   6
ENDBRANCH   4   5
ENDBRANCH   3   4
ENDBRANCH   2   3
ENDBRANCH   1   2
BRANCH   1  10
ATOM     10  C   UNL     1      33.424   7.253  -0.247  1.00  0.00     0.027 C 
BRANCH  10  11
ATOM     11  C   UNL     1      32.362   6.180  -0.292  1.00  0.00    -0.031 C 
ATOM     12  C   UNL     1      31.087   6.348   0.101  1.00  0.00    -0.031 C 
BRANCH  12  13
ATOM     13  C   UNL     1      30.543   7.602   0.741  1.00  0.00     0.027 C 
BRANCH  13  14
ATOM     14  C   UNL     1      29.869   8.523  -0.286  1.00  0.00     0.004 C 
BRANCH  14  15
ATOM     15  C   UNL     1      28.558   9.123   0.246  1.00  0.00     0.000 C 
BRANCH  15  16
ATOM     16  C   UNL     1      27.368   8.700  -0.623  1.00  0.00    -0.000 C 
BRANCH  16  17
ATOM     17  C   UNL     1      27.814   7.753  -1.742  1.00  0.00    -0.003 C 
ATOM     18  C   UNL     1      26.780   6.656  -1.982  1.00  0.00     0.004 C 
ENDBRANCH  16  17
ENDBRANCH  15  16
ENDBRANCH  14  15
ENDBRANCH  13  14
ENDBRANCH  12  13
ENDBRANCH  10  11
ENDBRANCH   1  10
TORSDOF 13
ENDMDL
