MODEL 1
REMARK VINA RESULT:    -5.567      0.000      0.000
REMARK INTER + INTRA:          -6.873
REMARK INTER:                  -6.707
REMARK INTRA:                  -0.166
REMARK UNBOUND:                -0.166
REMARK SMILES O=c1c(O)c(-c2ccc(O)c(O)c2)oc2cc(O)cc(O)c12
REMARK SMILES IDX 5 1 3 2 2 3 1 4 22 5 20 6 19 7 17 8 16 9 15 10 14 11 6 12
REMARK SMILES IDX 7 13 8 14 9 15 13 16 11 17 10 18 12 20 4 22 21 24 18 26
REMARK H PARENT 10 19 12 21 4 23 21 25 18 27
REMARK Flexibility Score: inf
ROOT
ATOM      1  C   UNL     1      59.168  36.562  45.636  1.00  0.00     0.180 A 
ATOM      2  C   UNL     1      57.902  36.008  45.894  1.00  0.00     0.208 A 
ATOM      3  C   UNL     1      56.913  36.079  44.901  1.00  0.00     0.238 A 
ATOM      4  O   UNL     1      55.799  35.532  45.117  1.00  0.00    -0.285 OA
ATOM      5  C   UNL     1      57.195  36.715  43.668  1.00  0.00     0.111 A 
ATOM      6  C   UNL     1      56.255  36.880  42.606  1.00  0.00     0.134 A 
ATOM      7  C   UNL     1      56.682  37.410  41.383  1.00  0.00     0.093 A 
ATOM      8  C   UNL     1      57.995  37.841  41.202  1.00  0.00     0.123 A 
ATOM      9  C   UNL     1      58.908  37.740  42.254  1.00  0.00     0.094 A 
ATOM     10  C   UNL     1      58.521  37.182  43.475  1.00  0.00     0.146 A 
ATOM     11  O   UNL     1      59.422  37.095  44.446  1.00  0.00    -0.452 OA
ENDROOT
BRANCH   1  12
ATOM     12  C   UNL     1      60.254  36.549  46.642  1.00  0.00     0.025 A 
ATOM     13  C   UNL     1      60.836  35.327  47.014  1.00  0.00     0.016 A 
ATOM     14  C   UNL     1      61.876  35.293  47.947  1.00  0.00     0.051 A 
ATOM     15  C   UNL     1      62.359  36.482  48.509  1.00  0.00     0.157 A 
ATOM     16  C   UNL     1      60.755  37.742  47.194  1.00  0.00     0.062 A 
ATOM     17  C   UNL     1      61.800  37.709  48.129  1.00  0.00     0.158 A 
BRANCH  15  18
ATOM     18  O   UNL     1      63.395  36.453  49.442  1.00  0.00    -0.504 OA
ATOM     19  H   UNL     1      63.476  37.157  50.165  1.00  0.00     0.293 HD
ENDBRANCH  15  18
BRANCH  17  20
ATOM     20  O   UNL     1      62.291  38.891  48.679  1.00  0.00    -0.504 OA
ATOM     21  H   UNL     1      63.015  39.431  48.219  1.00  0.00     0.293 HD
ENDBRANCH  17  20
ENDBRANCH   1  12
BRANCH   2  22
ATOM     22  O   UNL     1      57.651  35.364  47.109  1.00  0.00    -0.502 OA
ATOM     23  H   UNL     1      57.368  34.393  47.161  1.00  0.00     0.293 HD
ENDBRANCH   2  22
BRANCH   6  24
ATOM     24  O   UNL     1      54.896  36.567  42.711  1.00  0.00    -0.507 OA
ATOM     25  H   UNL     1      54.486  35.688  42.434  1.00  0.00     0.293 HD
ENDBRANCH   6  24
BRANCH   8  26
ATOM     26  O   UNL     1      58.380  38.378  39.977  1.00  0.00    -0.508 OA
ATOM     27  H   UNL     1      59.018  37.887  39.360  1.00  0.00     0.293 HD
ENDBRANCH   8  26
TORSDOF 6
ENDMDL
MODEL 2
REMARK VINA RESULT:    -5.205     18.095     22.279
REMARK INTER + INTRA:          -6.437
REMARK INTER:                  -6.203
REMARK INTRA:                  -0.234
REMARK UNBOUND:                -0.166
REMARK SMILES O=c1c(O)c(-c2ccc(O)c(O)c2)oc2cc(O)cc(O)c12
REMARK SMILES IDX 5 1 3 2 2 3 1 4 22 5 20 6 19 7 17 8 16 9 15 10 14 11 6 12
REMARK SMILES IDX 7 13 8 14 9 15 13 16 11 17 10 18 12 20 4 22 21 24 18 26
REMARK H PARENT 10 19 12 21 4 23 21 25 18 27
REMARK Flexibility Score: inf
ROOT
ATOM      1  C   UNL     1      70.779  51.958  54.078  1.00  0.00     0.180 A 
ATOM      2  C   UNL     1      70.409  53.015  54.929  1.00  0.00     0.208 A 
ATOM      3  C   UNL     1      70.850  53.002  56.261  1.00  0.00     0.238 A 
ATOM      4  O   UNL     1      70.562  53.978  57.003  1.00  0.00    -0.285 OA
ATOM      5  C   UNL     1      71.643  51.927  56.731  1.00  0.00     0.111 A 
ATOM      6  C   UNL     1      72.112  51.792  58.073  1.00  0.00     0.134 A 
ATOM      7  C   UNL     1      72.996  50.755  58.394  1.00  0.00     0.093 A 
ATOM      8  C   UNL     1      73.378  49.812  57.440  1.00  0.00     0.123 A 
ATOM      9  C   UNL     1      72.878  49.901  56.139  1.00  0.00     0.094 A 
ATOM     10  C   UNL     1      72.022  50.945  55.780  1.00  0.00     0.146 A 
ATOM     11  O   UNL     1      71.577  50.998  54.531  1.00  0.00    -0.452 OA
ENDROOT
BRANCH   1  12
ATOM     12  C   UNL     1      70.331  51.888  52.669  1.00  0.00     0.025 A 
ATOM     13  C   UNL     1      70.909  52.745  51.717  1.00  0.00     0.016 A 
ATOM     14  C   UNL     1      70.517  52.681  50.378  1.00  0.00     0.051 A 
ATOM     15  C   UNL     1      69.552  51.752  49.967  1.00  0.00     0.157 A 
ATOM     16  C   UNL     1      69.379  50.943  52.248  1.00  0.00     0.062 A 
ATOM     17  C   UNL     1      68.985  50.878  50.904  1.00  0.00     0.158 A 
BRANCH  15  18
ATOM     18  O   UNL     1      69.157  51.687  48.632  1.00  0.00    -0.504 OA
ATOM     19  H   UNL     1      69.817  51.823  47.877  1.00  0.00     0.293 HD
ENDBRANCH  15  18
BRANCH  17  20
ATOM     20  O   UNL     1      68.037  49.944  50.491  1.00  0.00    -0.504 OA
ATOM     21  H   UNL     1      68.252  48.955  50.442  1.00  0.00     0.293 HD
ENDBRANCH  17  20
ENDBRANCH   1  12
BRANCH   2  22
ATOM     22  O   UNL     1      69.644  54.078  54.438  1.00  0.00    -0.502 OA
ATOM     23  H   UNL     1      68.732  53.943  54.020  1.00  0.00     0.293 HD
ENDBRANCH   2  22
BRANCH   6  24
ATOM     24  O   UNL     1      71.720  52.626  59.125  1.00  0.00    -0.507 OA
ATOM     25  H   UNL     1      72.339  52.981  59.837  1.00  0.00     0.293 HD
ENDBRANCH   6  24
BRANCH   8  26
ATOM     26  O   UNL     1      74.247  48.785  57.798  1.00  0.00    -0.508 OA
ATOM     27  H   UNL     1      75.081  48.963  58.347  1.00  0.00     0.293 HD
ENDBRANCH   8  26
TORSDOF 6
ENDMDL
MODEL 3
REMARK VINA RESULT:    -5.001      1.939      7.039
REMARK INTER + INTRA:          -6.190
REMARK INTER:                  -6.002
REMARK INTRA:                  -0.188
REMARK UNBOUND:                -0.166
REMARK SMILES O=c1c(O)c(-c2ccc(O)c(O)c2)oc2cc(O)cc(O)c12
REMARK SMILES IDX 5 1 3 2 2 3 1 4 22 5 20 6 19 7 17 8 16 9 15 10 14 11 6 12
REMARK SMILES IDX 7 13 8 14 9 15 13 16 11 17 10 18 12 20 4 22 21 24 18 26
REMARK H PARENT 10 19 12 21 4 23 21 25 18 27
REMARK Flexibility Score: inf
ROOT
ATOM      1  C   UNL     1      58.970  36.685  44.191  1.00  0.00     0.180 A 
ATOM      2  C   UNL     1      60.179  36.003  43.962  1.00  0.00     0.208 A 
ATOM      3  C   UNL     1      60.921  35.545  45.062  1.00  0.00     0.238 A 
ATOM      4  O   UNL     1      61.973  34.887  44.849  1.00  0.00    -0.285 OA
ATOM      5  C   UNL     1      60.455  35.787  46.376  1.00  0.00     0.111 A 
ATOM      6  C   UNL     1      61.146  35.402  47.565  1.00  0.00     0.134 A 
ATOM      7  C   UNL     1      60.529  35.578  48.810  1.00  0.00     0.093 A 
ATOM      8  C   UNL     1      59.276  36.181  48.915  1.00  0.00     0.123 A 
ATOM      9  C   UNL     1      58.618  36.615  47.763  1.00  0.00     0.094 A 
ATOM     10  C   UNL     1      59.192  36.421  46.504  1.00  0.00     0.146 A 
ATOM     11  O   UNL     1      58.528  36.839  45.434  1.00  0.00    -0.452 OA
ENDROOT
BRANCH   1  12
ATOM     12  C   UNL     1      58.146  37.220  43.084  1.00  0.00     0.025 A 
ATOM     13  C   UNL     1      56.840  36.738  42.899  1.00  0.00     0.016 A 
ATOM     14  C   UNL     1      56.037  37.243  41.874  1.00  0.00     0.051 A 
ATOM     15  C   UNL     1      56.522  38.249  41.028  1.00  0.00     0.157 A 
ATOM     16  C   UNL     1      58.621  38.244  42.245  1.00  0.00     0.062 A 
ATOM     17  C   UNL     1      57.816  38.753  41.216  1.00  0.00     0.158 A 
BRANCH  15  18
ATOM     18  O   UNL     1      55.725  38.754  40.002  1.00  0.00    -0.504 OA
ATOM     19  H   UNL     1      55.636  38.274  39.115  1.00  0.00     0.293 HD
ENDBRANCH  15  18
BRANCH  17  20
ATOM     20  O   UNL     1      58.291  39.762  40.382  1.00  0.00    -0.504 OA
ATOM     21  H   UNL     1      57.712  40.166  39.654  1.00  0.00     0.293 HD
ENDBRANCH  17  20
ENDBRANCH   1  12
BRANCH   2  22
ATOM     22  O   UNL     1      60.609  35.755  42.655  1.00  0.00    -0.502 OA
ATOM     23  H   UNL     1      60.407  36.385  41.888  1.00  0.00     0.293 HD
ENDBRANCH   2  22
BRANCH   6  24
ATOM     24  O   UNL     1      62.441  34.875  47.579  1.00  0.00    -0.507 OA
ATOM     25  H   UNL     1      62.833  34.295  46.853  1.00  0.00     0.293 HD
ENDBRANCH   6  24
BRANCH   8  26
ATOM     26  O   UNL     1      58.700  36.354  50.170  1.00  0.00    -0.508 OA
ATOM     27  H   UNL     1      59.263  36.384  51.013  1.00  0.00     0.293 HD
ENDBRANCH   8  26
TORSDOF 6
ENDMDL
MODEL 4
REMARK VINA RESULT:    -4.945      1.673      2.764
REMARK INTER + INTRA:          -6.123
REMARK INTER:                  -5.863
REMARK INTRA:                  -0.261
REMARK UNBOUND:                -0.166
REMARK SMILES O=c1c(O)c(-c2ccc(O)c(O)c2)oc2cc(O)cc(O)c12
REMARK SMILES IDX 5 1 3 2 2 3 1 4 22 5 20 6 19 7 17 8 16 9 15 10 14 11 6 12
REMARK SMILES IDX 7 13 8 14 9 15 13 16 11 17 10 18 12 20 4 22 21 24 18 26
REMARK H PARENT 10 19 12 21 4 23 21 25 18 27
REMARK Flexibility Score: inf
ROOT
ATOM      1  C   UNL     1      60.206  36.092  44.977  1.00  0.00     0.180 A 
ATOM      2  C   UNL     1      60.876  35.634  43.829  1.00  0.00     0.208 A 
ATOM      3  C   UNL     1      60.179  35.576  42.612  1.00  0.00     0.238 A 
ATOM      4  O   UNL     1      60.799  35.218  41.576  1.00  0.00    -0.285 OA
ATOM      5  C   UNL     1      58.818  35.962  42.560  1.00  0.00     0.111 A 
ATOM      6  C   UNL     1      58.003  35.906  41.388  1.00  0.00     0.134 A 
ATOM      7  C   UNL     1      56.707  36.435  41.423  1.00  0.00     0.093 A 
ATOM      8  C   UNL     1      56.173  36.958  42.600  1.00  0.00     0.123 A 
ATOM      9  C   UNL     1      56.940  36.964  43.766  1.00  0.00     0.094 A 
ATOM     10  C   UNL     1      58.249  36.475  43.754  1.00  0.00     0.146 A 
ATOM     11  O   UNL     1      58.948  36.508  44.882  1.00  0.00    -0.452 OA
ENDROOT
BRANCH   1  12
ATOM     12  C   UNL     1      60.865  36.156  46.301  1.00  0.00     0.025 A 
ATOM     13  C   UNL     1      61.108  34.969  47.011  1.00  0.00     0.016 A 
ATOM     14  C   UNL     1      61.748  35.005  48.252  1.00  0.00     0.051 A 
ATOM     15  C   UNL     1      62.167  36.226  48.795  1.00  0.00     0.157 A 
ATOM     16  C   UNL     1      61.307  37.378  46.841  1.00  0.00     0.062 A 
ATOM     17  C   UNL     1      61.950  37.414  48.086  1.00  0.00     0.158 A 
BRANCH  15  18
ATOM     18  O   UNL     1      62.804  36.266  50.035  1.00  0.00    -0.504 OA
ATOM     19  H   UNL     1      63.594  35.668  50.244  1.00  0.00     0.293 HD
ENDBRANCH  15  18
BRANCH  17  20
ATOM     20  O   UNL     1      62.382  38.626  48.622  1.00  0.00    -0.504 OA
ATOM     21  H   UNL     1      62.204  39.507  48.153  1.00  0.00     0.293 HD
ENDBRANCH  17  20
ENDBRANCH   1  12
BRANCH   2  22
ATOM     22  O   UNL     1      62.226  35.279  43.898  1.00  0.00    -0.502 OA
ATOM     23  H   UNL     1      62.530  34.337  44.114  1.00  0.00     0.293 HD
ENDBRANCH   2  22
BRANCH   6  24
ATOM     24  O   UNL     1      58.406  35.321  40.184  1.00  0.00    -0.507 OA
ATOM     25  H   UNL     1      59.362  35.265  39.865  1.00  0.00     0.293 HD
ENDBRANCH   6  24
BRANCH   8  26
ATOM     26  O   UNL     1      54.875  37.462  42.601  1.00  0.00    -0.508 OA
ATOM     27  H   UNL     1      54.669  38.398  42.270  1.00  0.00     0.293 HD
ENDBRANCH   8  26
TORSDOF 6
ENDMDL
MODEL 5
REMARK VINA RESULT:    -4.892      1.356      1.805
REMARK INTER + INTRA:          -6.059
REMARK INTER:                  -5.743
REMARK INTRA:                  -0.316
REMARK UNBOUND:                -0.166
REMARK SMILES O=c1c(O)c(-c2ccc(O)c(O)c2)oc2cc(O)cc(O)c12
REMARK SMILES IDX 5 1 3 2 2 3 1 4 22 5 20 6 19 7 17 8 16 9 15 10 14 11 6 12
REMARK SMILES IDX 7 13 8 14 9 15 13 16 11 17 10 18 12 20 4 22 21 24 18 26
REMARK H PARENT 10 19 12 21 4 23 21 25 18 27
REMARK Flexibility Score: inf
ROOT
ATOM      1  C   UNL     1      58.859  36.816  44.208  1.00  0.00     0.180 A 
ATOM      2  C   UNL     1      57.484  36.529  44.263  1.00  0.00     0.208 A 
ATOM      3  C   UNL     1      56.654  36.976  43.223  1.00  0.00     0.238 A 
ATOM      4  O   UNL     1      55.433  36.669  43.250  1.00  0.00    -0.285 OA
ATOM      5  C   UNL     1      57.205  37.715  42.149  1.00  0.00     0.111 A 
ATOM      6  C   UNL     1      56.450  38.251  41.062  1.00  0.00     0.134 A 
ATOM      7  C   UNL     1      57.118  38.855  39.989  1.00  0.00     0.093 A 
ATOM      8  C   UNL     1      58.505  39.000  39.993  1.00  0.00     0.123 A 
ATOM      9  C   UNL     1      59.247  38.532  41.079  1.00  0.00     0.094 A 
ATOM     10  C   UNL     1      58.613  37.894  42.148  1.00  0.00     0.146 A 
ATOM     11  O   UNL     1      59.357  37.455  43.155  1.00  0.00    -0.452 OA
ENDROOT
BRANCH   1  12
ATOM     12  C   UNL     1      59.794  36.401  45.279  1.00  0.00     0.025 A 
ATOM     13  C   UNL     1      60.607  35.273  45.087  1.00  0.00     0.016 A 
ATOM     14  C   UNL     1      61.511  34.876  46.076  1.00  0.00     0.051 A 
ATOM     15  C   UNL     1      61.625  35.609  47.264  1.00  0.00     0.157 A 
ATOM     16  C   UNL     1      59.926  37.146  46.465  1.00  0.00     0.062 A 
ATOM     17  C   UNL     1      60.834  36.749  47.457  1.00  0.00     0.158 A 
BRANCH  15  18
ATOM     18  O   UNL     1      62.524  35.215  48.254  1.00  0.00    -0.504 OA
ATOM     19  H   UNL     1      62.937  35.885  48.891  1.00  0.00     0.293 HD
ENDBRANCH  15  18
BRANCH  17  20
ATOM     20  O   UNL     1      60.959  37.485  48.634  1.00  0.00    -0.504 OA
ATOM     21  H   UNL     1      61.309  37.065  49.487  1.00  0.00     0.293 HD
ENDBRANCH  17  20
ENDBRANCH   1  12
BRANCH   2  22
ATOM     22  O   UNL     1      56.964  35.778  45.321  1.00  0.00    -0.502 OA
ATOM     23  H   UNL     1      55.977  35.765  45.545  1.00  0.00     0.293 HD
ENDBRANCH   2  22
BRANCH   6  24
ATOM     24  O   UNL     1      55.053  38.242  41.002  1.00  0.00    -0.507 OA
ATOM     25  H   UNL     1      54.454  37.766  41.658  1.00  0.00     0.293 HD
ENDBRANCH   6  24
BRANCH   8  26
ATOM     26  O   UNL     1      59.134  39.619  38.916  1.00  0.00    -0.508 OA
ATOM     27  H   UNL     1      59.822  39.133  38.352  1.00  0.00     0.293 HD
ENDBRANCH   8  26
TORSDOF 6
ENDMDL
MODEL 6
REMARK VINA RESULT:    -4.878     20.105     21.962
REMARK INTER + INTRA:          -6.042
REMARK INTER:                  -5.751
REMARK INTRA:                  -0.292
REMARK UNBOUND:                -0.166
REMARK SMILES O=c1c(O)c(-c2ccc(O)c(O)c2)oc2cc(O)cc(O)c12
REMARK SMILES IDX 5 1 3 2 2 3 1 4 22 5 20 6 19 7 17 8 16 9 15 10 14 11 6 12
REMARK SMILES IDX 7 13 8 14 9 15 13 16 11 17 10 18 12 20 4 22 21 24 18 26
REMARK H PARENT 10 19 12 21 4 23 21 25 18 27
REMARK Flexibility Score: inf
ROOT
ATOM      1  C   UNL     1      70.745  51.000  55.005  1.00  0.00     0.180 A 
ATOM      2  C   UNL     1      69.629  50.433  55.646  1.00  0.00     0.208 A 
ATOM      3  C   UNL     1      69.831  49.614  56.768  1.00  0.00     0.238 A 
ATOM      4  O   UNL     1      68.825  49.154  57.369  1.00  0.00    -0.285 OA
ATOM      5  C   UNL     1      71.146  49.359  57.226  1.00  0.00     0.111 A 
ATOM      6  C   UNL     1      71.469  48.513  58.330  1.00  0.00     0.134 A 
ATOM      7  C   UNL     1      72.795  48.436  58.776  1.00  0.00     0.093 A 
ATOM      8  C   UNL     1      73.816  49.123  58.122  1.00  0.00     0.123 A 
ATOM      9  C   UNL     1      73.519  49.907  57.005  1.00  0.00     0.094 A 
ATOM     10  C   UNL     1      72.202  50.031  56.558  1.00  0.00     0.146 A 
ATOM     11  O   UNL     1      71.961  50.795  55.499  1.00  0.00    -0.452 OA
ENDROOT
BRANCH   1  12
ATOM     12  C   UNL     1      70.615  51.853  53.802  1.00  0.00     0.025 A 
ATOM     13  C   UNL     1      70.274  53.207  53.949  1.00  0.00     0.016 A 
ATOM     14  C   UNL     1      70.166  54.035  52.829  1.00  0.00     0.051 A 
ATOM     15  C   UNL     1      70.411  53.525  51.547  1.00  0.00     0.157 A 
ATOM     16  C   UNL     1      70.880  51.350  52.516  1.00  0.00     0.062 A 
ATOM     17  C   UNL     1      70.772  52.180  51.391  1.00  0.00     0.158 A 
BRANCH  15  18
ATOM     18  O   UNL     1      70.301  54.347  50.427  1.00  0.00    -0.504 OA
ATOM     19  H   UNL     1      69.462  54.885  50.245  1.00  0.00     0.293 HD
ENDBRANCH  15  18
BRANCH  17  20
ATOM     20  O   UNL     1      71.029  51.679  50.116  1.00  0.00    -0.504 OA
ATOM     21  H   UNL     1      71.862  51.137  49.917  1.00  0.00     0.293 HD
ENDBRANCH  17  20
ENDBRANCH   1  12
BRANCH   2  22
ATOM     22  O   UNL     1      68.338  50.716  55.189  1.00  0.00    -0.502 OA
ATOM     23  H   UNL     1      68.157  51.071  54.258  1.00  0.00     0.293 HD
ENDBRANCH   2  22
BRANCH   6  24
ATOM     24  O   UNL     1      70.539  47.711  58.998  1.00  0.00    -0.507 OA
ATOM     25  H   UNL     1      70.754  46.834  59.448  1.00  0.00     0.293 HD
ENDBRANCH   6  24
BRANCH   8  26
ATOM     26  O   UNL     1      75.125  49.011  58.584  1.00  0.00    -0.508 OA
ATOM     27  H   UNL     1      75.500  49.651  59.275  1.00  0.00     0.293 HD
ENDBRANCH   8  26
TORSDOF 6
ENDMDL
MODEL 7
REMARK VINA RESULT:    -4.723     18.679     20.762
REMARK INTER + INTRA:          -5.856
REMARK INTER:                  -5.554
REMARK INTRA:                  -0.302
REMARK UNBOUND:                -0.166
REMARK SMILES O=c1c(O)c(-c2ccc(O)c(O)c2)oc2cc(O)cc(O)c12
REMARK SMILES IDX 5 1 3 2 2 3 1 4 22 5 20 6 19 7 17 8 16 9 15 10 14 11 6 12
REMARK SMILES IDX 7 13 8 14 9 15 13 16 11 17 10 18 12 20 4 22 21 24 18 26
REMARK H PARENT 10 19 12 21 4 23 21 25 18 27
REMARK Flexibility Score: inf
ROOT
ATOM      1  C   UNL     1      70.474  51.280  54.761  1.00  0.00     0.180 A 
ATOM      2  C   UNL     1      70.628  52.666  54.942  1.00  0.00     0.208 A 
ATOM      3  C   UNL     1      70.415  53.523  53.850  1.00  0.00     0.238 A 
ATOM      4  O   UNL     1      70.500  54.766  54.032  1.00  0.00    -0.285 OA
ATOM      5  C   UNL     1      70.066  52.984  52.589  1.00  0.00     0.111 A 
ATOM      6  C   UNL     1      69.865  53.756  51.405  1.00  0.00     0.134 A 
ATOM      7  C   UNL     1      69.396  53.130  50.243  1.00  0.00     0.093 A 
ATOM      8  C   UNL     1      69.181  51.753  50.203  1.00  0.00     0.123 A 
ATOM      9  C   UNL     1      69.431  50.980  51.339  1.00  0.00     0.094 A 
ATOM     10  C   UNL     1      69.866  51.581  52.522  1.00  0.00     0.146 A 
ATOM     11  O   UNL     1      70.082  50.811  53.581  1.00  0.00    -0.452 OA
ENDROOT
BRANCH   1  12
ATOM     12  C   UNL     1      70.707  50.312  55.856  1.00  0.00     0.025 A 
ATOM     13  C   UNL     1      72.020  49.928  56.172  1.00  0.00     0.016 A 
ATOM     14  C   UNL     1      72.264  49.032  57.215  1.00  0.00     0.051 A 
ATOM     15  C   UNL     1      71.200  48.518  57.968  1.00  0.00     0.157 A 
ATOM     16  C   UNL     1      69.643  49.809  56.627  1.00  0.00     0.062 A 
ATOM     17  C   UNL     1      69.887  48.910  57.675  1.00  0.00     0.158 A 
BRANCH  15  18
ATOM     18  O   UNL     1      71.439  47.621  59.008  1.00  0.00    -0.504 OA
ATOM     19  H   UNL     1      70.996  47.729  59.912  1.00  0.00     0.293 HD
ENDBRANCH  15  18
BRANCH  17  20
ATOM     20  O   UNL     1      68.832  48.408  58.434  1.00  0.00    -0.504 OA
ATOM     21  H   UNL     1      68.482  47.467  58.299  1.00  0.00     0.293 HD
ENDBRANCH  17  20
ENDBRANCH   1  12
BRANCH   2  22
ATOM     22  O   UNL     1      70.951  53.179  56.202  1.00  0.00    -0.502 OA
ATOM     23  H   UNL     1      71.018  52.593  57.025  1.00  0.00     0.293 HD
ENDBRANCH   2  22
BRANCH   6  24
ATOM     24  O   UNL     1      70.137  55.125  51.310  1.00  0.00    -0.507 OA
ATOM     25  H   UNL     1      70.786  55.623  51.899  1.00  0.00     0.293 HD
ENDBRANCH   6  24
BRANCH   8  26
ATOM     26  O   UNL     1      68.729  51.162  49.026  1.00  0.00    -0.508 OA
ATOM     27  H   UNL     1      69.370  50.739  48.365  1.00  0.00     0.293 HD
ENDBRANCH   8  26
TORSDOF 6
ENDMDL
MODEL 8
REMARK VINA RESULT:    -4.631      1.958      3.364
REMARK INTER + INTRA:          -5.745
REMARK INTER:                  -5.560
REMARK INTRA:                  -0.184
REMARK UNBOUND:                -0.166
REMARK SMILES O=c1c(O)c(-c2ccc(O)c(O)c2)oc2cc(O)cc(O)c12
REMARK SMILES IDX 5 1 3 2 2 3 1 4 22 5 20 6 19 7 17 8 16 9 15 10 14 11 6 12
REMARK SMILES IDX 7 13 8 14 9 15 13 16 11 17 10 18 12 20 4 22 21 24 18 26
REMARK H PARENT 10 19 12 21 4 23 21 25 18 27
REMARK Flexibility Score: inf
ROOT
ATOM      1  C   UNL     1      59.216  36.824  44.058  1.00  0.00     0.180 A 
ATOM      2  C   UNL     1      60.337  36.774  43.211  1.00  0.00     0.208 A 
ATOM      3  C   UNL     1      60.169  37.038  41.843  1.00  0.00     0.238 A 
ATOM      4  O   UNL     1      61.185  37.046  41.099  1.00  0.00    -0.285 OA
ATOM      5  C   UNL     1      58.881  37.335  41.336  1.00  0.00     0.111 A 
ATOM      6  C   UNL     1      58.589  37.580  39.959  1.00  0.00     0.134 A 
ATOM      7  C   UNL     1      57.302  37.991  39.590  1.00  0.00     0.093 A 
ATOM      8  C   UNL     1      56.282  38.104  40.533  1.00  0.00     0.123 A 
ATOM      9  C   UNL     1      56.543  37.809  41.873  1.00  0.00     0.094 A 
ATOM     10  C   UNL     1      57.825  37.431  42.278  1.00  0.00     0.146 A 
ATOM     11  O   UNL     1      58.033  37.169  43.563  1.00  0.00    -0.452 OA
ENDROOT
BRANCH   1  12
ATOM     12  C   UNL     1      59.309  36.532  45.506  1.00  0.00     0.025 A 
ATOM     13  C   UNL     1      58.729  35.358  46.013  1.00  0.00     0.016 A 
ATOM     14  C   UNL     1      58.823  35.052  47.373  1.00  0.00     0.051 A 
ATOM     15  C   UNL     1      59.510  35.908  48.244  1.00  0.00     0.157 A 
ATOM     16  C   UNL     1      60.015  37.378  46.381  1.00  0.00     0.062 A 
ATOM     17  C   UNL     1      60.111  37.071  47.745  1.00  0.00     0.158 A 
BRANCH  15  18
ATOM     18  O   UNL     1      59.603  35.608  49.602  1.00  0.00    -0.504 OA
ATOM     19  H   UNL     1      59.221  34.751  49.982  1.00  0.00     0.293 HD
ENDBRANCH  15  18
BRANCH  17  20
ATOM     20  O   UNL     1      60.806  37.914  48.611  1.00  0.00    -0.504 OA
ATOM     21  H   UNL     1      61.797  37.794  48.787  1.00  0.00     0.293 HD
ENDBRANCH  17  20
ENDBRANCH   1  12
BRANCH   2  22
ATOM     22  O   UNL     1      61.604  36.501  43.737  1.00  0.00    -0.502 OA
ATOM     23  H   UNL     1      62.038  37.088  44.439  1.00  0.00     0.293 HD
ENDBRANCH   2  22
BRANCH   6  24
ATOM     24  O   UNL     1      59.511  37.408  38.923  1.00  0.00    -0.507 OA
ATOM     25  H   UNL     1      59.377  37.729  37.976  1.00  0.00     0.293 HD
ENDBRANCH   6  24
BRANCH   8  26
ATOM     26  O   UNL     1      55.011  38.500  40.127  1.00  0.00    -0.508 OA
ATOM     27  H   UNL     1      54.799  39.470  39.920  1.00  0.00     0.293 HD
ENDBRANCH   8  26
TORSDOF 6
ENDMDL
MODEL 9
REMARK VINA RESULT:    -2.656     18.699     20.381
REMARK INTER + INTRA:          -3.365
REMARK INTER:                  -3.542
REMARK INTRA:                   0.177
REMARK UNBOUND:                -0.166
REMARK SMILES O=c1c(O)c(-c2ccc(O)c(O)c2)oc2cc(O)cc(O)c12
REMARK SMILES IDX 5 1 3 2 2 3 1 4 22 5 20 6 19 7 17 8 16 9 15 10 14 11 6 12
REMARK SMILES IDX 7 13 8 14 9 15 13 16 11 17 10 18 12 20 4 22 21 24 18 26
REMARK H PARENT 10 19 12 21 4 23 21 25 18 27
REMARK Flexibility Score: inf
ROOT
ATOM      1  C   UNL     1      70.135  51.529  52.770  1.00  0.00     0.180 A 
ATOM      2  C   UNL     1      69.123  51.167  51.863  1.00  0.00     0.208 A 
ATOM      3  C   UNL     1      69.132  51.725  50.576  1.00  0.00     0.238 A 
ATOM      4  O   UNL     1      68.256  51.356  49.750  1.00  0.00    -0.285 OA
ATOM      5  C   UNL     1      70.142  52.649  50.215  1.00  0.00     0.111 A 
ATOM      6  C   UNL     1      70.225  53.307  48.950  1.00  0.00     0.134 A 
ATOM      7  C   UNL     1      71.340  54.102  48.657  1.00  0.00     0.093 A 
ATOM      8  C   UNL     1      72.342  54.316  49.603  1.00  0.00     0.123 A 
ATOM      9  C   UNL     1      72.240  53.725  50.864  1.00  0.00     0.094 A 
ATOM     10  C   UNL     1      71.158  52.898  51.174  1.00  0.00     0.146 A 
ATOM     11  O   UNL     1      71.106  52.347  52.380  1.00  0.00    -0.452 OA
ENDROOT
BRANCH   1  12
ATOM     12  C   UNL     1      70.178  51.002  54.153  1.00  0.00     0.025 A 
ATOM     13  C   UNL     1      71.420  50.799  54.777  1.00  0.00     0.016 A 
ATOM     14  C   UNL     1      71.484  50.323  56.088  1.00  0.00     0.051 A 
ATOM     15  C   UNL     1      70.308  50.057  56.801  1.00  0.00     0.157 A 
ATOM     16  C   UNL     1      69.000  50.754  54.880  1.00  0.00     0.062 A 
ATOM     17  C   UNL     1      69.063  50.277  56.197  1.00  0.00     0.158 A 
BRANCH  15  18
ATOM     18  O   UNL     1      70.367  49.580  58.110  1.00  0.00    -0.504 OA
ATOM     19  H   UNL     1      71.022  49.960  58.782  1.00  0.00     0.293 HD
ENDBRANCH  15  18
BRANCH  17  20
ATOM     20  O   UNL     1      67.895  50.026  56.913  1.00  0.00    -0.504 OA
ATOM     21  H   UNL     1      67.719  49.125  57.344  1.00  0.00     0.293 HD
ENDBRANCH  17  20
ENDBRANCH   1  12
BRANCH   2  22
ATOM     22  O   UNL     1      68.148  50.235  52.233  1.00  0.00    -0.502 OA
ATOM     23  H   UNL     1      68.259  49.241  52.074  1.00  0.00     0.293 HD
ENDBRANCH   2  22
BRANCH   6  24
ATOM     24  O   UNL     1      69.234  53.235  47.966  1.00  0.00    -0.507 OA
ATOM     25  H   UNL     1      68.509  52.534  47.932  1.00  0.00     0.293 HD
ENDBRANCH   6  24
BRANCH   8  26
ATOM     26  O   UNL     1      73.428  55.125  49.283  1.00  0.00    -0.508 OA
ATOM     27  H   UNL     1      74.072  54.878  48.540  1.00  0.00     0.293 HD
ENDBRANCH   8  26
TORSDOF 6
ENDMDL
