MODEL 1
REMARK VINA RESULT:    -5.889      0.000      0.000
REMARK INTER + INTRA:          -6.640
REMARK INTER:                  -6.578
REMARK INTRA:                  -0.062
REMARK UNBOUND:                -0.062
REMARK SMILES COc1cc2ccc(=O)oc2c(O)c1O
REMARK SMILES IDX 3 1 14 2 12 3 11 4 5 5 4 6 6 7 7 8 8 9 9 10 10 11 2 12 1 13
REMARK SMILES IDX 15 14 13 16
REMARK H PARENT 15 15 13 17
REMARK Flexibility Score: inf
ROOT
ATOM      1  C   UNL     1       6.850  12.012 -24.646  1.00  0.00     0.165 A 
ATOM      2  C   UNL     1       5.530  12.366 -24.321  1.00  0.00     0.204 A 
ATOM      3  C   UNL     1       4.767  11.543 -23.455  1.00  0.00     0.205 A 
ATOM      4  C   UNL     1       5.338  10.378 -22.926  1.00  0.00     0.184 A 
ATOM      5  C   UNL     1       6.664  10.026 -23.254  1.00  0.00     0.025 A 
ATOM      6  C   UNL     1       7.413  10.839 -24.109  1.00  0.00     0.062 A 
ATOM      7  C   UNL     1       7.199   8.856 -22.707  1.00  0.00     0.020 A 
ATOM      8  C   UNL     1       6.416   8.074 -21.859  1.00  0.00     0.094 A 
ATOM      9  C   UNL     1       5.110   8.484 -21.577  1.00  0.00     0.336 A 
ATOM     10  O   UNL     1       4.385   7.793 -20.814  1.00  0.00    -0.246 OA
ATOM     11  O   UNL     1       4.626   9.602 -22.111  1.00  0.00    -0.419 OA
ENDROOT
BRANCH   1  12
ATOM     12  O   UNL     1       7.570  12.854 -25.508  1.00  0.00    -0.493 OA
ATOM     13  C   UNL     1       7.744  12.626 -26.903  1.00  0.00     0.278 C 
ENDBRANCH   1  12
BRANCH   2  14
ATOM     14  O   UNL     1       5.016  13.540 -24.880  1.00  0.00    -0.502 OA
ATOM     15  H   UNL     1       5.579  14.324 -25.175  1.00  0.00     0.293 HD
ENDBRANCH   2  14
BRANCH   3  16
ATOM     16  O   UNL     1       3.451  11.847 -23.098  1.00  0.00    -0.502 OA
ATOM     17  H   UNL     1       2.994  12.725 -23.300  1.00  0.00     0.293 HD
ENDBRANCH   3  16
TORSDOF 3
ENDMDL
MODEL 2
REMARK VINA RESULT:    -5.873      1.185      4.740
REMARK INTER + INTRA:          -6.622
REMARK INTER:                  -6.560
REMARK INTRA:                  -0.062
REMARK UNBOUND:                -0.062
REMARK SMILES COc1cc2ccc(=O)oc2c(O)c1O
REMARK SMILES IDX 3 1 14 2 12 3 11 4 5 5 4 6 6 7 7 8 8 9 9 10 10 11 2 12 1 13
REMARK SMILES IDX 15 14 13 16
REMARK H PARENT 15 15 13 17
REMARK Flexibility Score: inf
ROOT
ATOM      1  C   UNL     1       5.762   9.231 -22.553  1.00  0.00     0.165 A 
ATOM      2  C   UNL     1       4.594  10.004 -22.446  1.00  0.00     0.204 A 
ATOM      3  C   UNL     1       4.442  11.175 -23.231  1.00  0.00     0.205 A 
ATOM      4  C   UNL     1       5.464  11.554 -24.113  1.00  0.00     0.184 A 
ATOM      5  C   UNL     1       6.635  10.775 -24.218  1.00  0.00     0.025 A 
ATOM      6  C   UNL     1       6.781   9.622 -23.443  1.00  0.00     0.062 A 
ATOM      7  C   UNL     1       7.632  11.185 -25.109  1.00  0.00     0.020 A 
ATOM      8  C   UNL     1       7.444  12.343 -25.863  1.00  0.00     0.094 A 
ATOM      9  C   UNL     1       6.258  13.065 -25.707  1.00  0.00     0.336 A 
ATOM     10  O   UNL     1       6.068  14.114 -26.378  1.00  0.00    -0.246 OA
ATOM     11  O   UNL     1       5.326  12.653 -24.853  1.00  0.00    -0.419 OA
ENDROOT
BRANCH   1  12
ATOM     12  O   UNL     1       5.872   8.080 -21.758  1.00  0.00    -0.493 OA
ATOM     13  C   UNL     1       5.605   6.756 -22.210  1.00  0.00     0.278 C 
ENDBRANCH   1  12
BRANCH   2  14
ATOM     14  O   UNL     1       3.611   9.575 -21.549  1.00  0.00    -0.502 OA
ATOM     15  H   UNL     1       3.787   8.977 -20.756  1.00  0.00     0.293 HD
ENDBRANCH   2  14
BRANCH   3  16
ATOM     16  O   UNL     1       3.302  11.980 -23.165  1.00  0.00    -0.502 OA
ATOM     17  H   UNL     1       2.413  11.679 -22.794  1.00  0.00     0.293 HD
ENDBRANCH   3  16
TORSDOF 3
ENDMDL
MODEL 3
REMARK VINA RESULT:    -5.792      1.875      5.112
REMARK INTER + INTRA:          -6.532
REMARK INTER:                  -6.468
REMARK INTRA:                  -0.064
REMARK UNBOUND:                -0.062
REMARK SMILES COc1cc2ccc(=O)oc2c(O)c1O
REMARK SMILES IDX 3 1 14 2 12 3 11 4 5 5 4 6 6 7 7 8 8 9 9 10 10 11 2 12 1 13
REMARK SMILES IDX 15 14 13 16
REMARK H PARENT 15 15 13 17
REMARK Flexibility Score: inf
ROOT
ATOM      1  C   UNL     1       5.200   6.953 -22.123  1.00  0.00     0.165 A 
ATOM      2  C   UNL     1       4.002   7.435 -22.678  1.00  0.00     0.204 A 
ATOM      3  C   UNL     1       3.958   8.728 -23.258  1.00  0.00     0.205 A 
ATOM      4  C   UNL     1       5.116   9.519 -23.273  1.00  0.00     0.184 A 
ATOM      5  C   UNL     1       6.316   9.031 -22.715  1.00  0.00     0.025 A 
ATOM      6  C   UNL     1       6.355   7.756 -22.145  1.00  0.00     0.062 A 
ATOM      7  C   UNL     1       7.449   9.850 -22.749  1.00  0.00     0.020 A 
ATOM      8  C   UNL     1       7.364  11.116 -23.328  1.00  0.00     0.094 A 
ATOM      9  C   UNL     1       6.142  11.533 -23.862  1.00  0.00     0.336 A 
ATOM     10  O   UNL     1       6.044  12.673 -24.390  1.00  0.00    -0.246 OA
ATOM     11  O   UNL     1       5.080  10.735 -23.817  1.00  0.00    -0.419 OA
ENDROOT
BRANCH   1  12
ATOM     12  O   UNL     1       5.199   5.667 -21.560  1.00  0.00    -0.493 OA
ATOM     13  C   UNL     1       6.108   4.628 -21.913  1.00  0.00     0.278 C 
ENDBRANCH   1  12
BRANCH   2  14
ATOM     14  O   UNL     1       2.882   6.600 -22.633  1.00  0.00    -0.502 OA
ATOM     15  H   UNL     1       2.174   6.637 -21.915  1.00  0.00     0.293 HD
ENDBRANCH   2  14
BRANCH   3  16
ATOM     16  O   UNL     1       2.796   9.258 -23.824  1.00  0.00    -0.502 OA
ATOM     17  H   UNL     1       1.880   8.842 -23.738  1.00  0.00     0.293 HD
ENDBRANCH   3  16
TORSDOF 3
ENDMDL
MODEL 4
REMARK VINA RESULT:    -5.701     11.029     13.509
REMARK INTER + INTRA:          -6.430
REMARK INTER:                  -6.378
REMARK INTRA:                  -0.052
REMARK UNBOUND:                -0.062
REMARK SMILES COc1cc2ccc(=O)oc2c(O)c1O
REMARK SMILES IDX 3 1 14 2 12 3 11 4 5 5 4 6 6 7 7 8 8 9 9 10 10 11 2 12 1 13
REMARK SMILES IDX 15 14 13 16
REMARK H PARENT 15 15 13 17
REMARK Flexibility Score: inf
ROOT
ATOM      1  C   UNL     1       4.916  -0.588 -23.031  1.00  0.00     0.165 A 
ATOM      2  C   UNL     1       5.066  -1.375 -24.185  1.00  0.00     0.204 A 
ATOM      3  C   UNL     1       4.517  -2.682 -24.230  1.00  0.00     0.205 A 
ATOM      4  C   UNL     1       3.824  -3.180 -23.117  1.00  0.00     0.184 A 
ATOM      5  C   UNL     1       3.676  -2.386 -21.960  1.00  0.00     0.025 A 
ATOM      6  C   UNL     1       4.219  -1.099 -21.920  1.00  0.00     0.062 A 
ATOM      7  C   UNL     1       2.980  -2.918 -20.871  1.00  0.00     0.020 A 
ATOM      8  C   UNL     1       2.455  -4.207 -20.954  1.00  0.00     0.094 A 
ATOM      9  C   UNL     1       2.639  -4.936 -22.132  1.00  0.00     0.336 A 
ATOM     10  O   UNL     1       2.174  -6.102 -22.229  1.00  0.00    -0.246 OA
ATOM     11  O   UNL     1       3.306  -4.406 -23.154  1.00  0.00    -0.419 OA
ENDROOT
BRANCH   1  12
ATOM     12  O   UNL     1       5.476   0.699 -23.029  1.00  0.00    -0.493 OA
ATOM     13  C   UNL     1       5.448   1.592 -21.919  1.00  0.00     0.278 C 
ENDBRANCH   1  12
BRANCH   2  14
ATOM     14  O   UNL     1       5.766  -0.824 -25.262  1.00  0.00    -0.502 OA
ATOM     15  H   UNL     1       6.460  -0.097 -25.176  1.00  0.00     0.293 HD
ENDBRANCH   2  14
BRANCH   3  16
ATOM     16  O   UNL     1       4.635  -3.508 -25.350  1.00  0.00    -0.502 OA
ATOM     17  H   UNL     1       3.865  -4.004 -25.775  1.00  0.00     0.293 HD
ENDBRANCH   3  16
TORSDOF 3
ENDMDL
MODEL 5
REMARK VINA RESULT:    -5.526     11.732     14.062
REMARK INTER + INTRA:          -6.235
REMARK INTER:                  -6.167
REMARK INTRA:                  -0.068
REMARK UNBOUND:                -0.062
REMARK SMILES COc1cc2ccc(=O)oc2c(O)c1O
REMARK SMILES IDX 3 1 14 2 12 3 11 4 5 5 4 6 6 7 7 8 8 9 9 10 10 11 2 12 1 13
REMARK SMILES IDX 15 14 13 16
REMARK H PARENT 15 15 13 17
REMARK Flexibility Score: inf
ROOT
ATOM      1  C   UNL     1       4.198  -1.345 -25.060  1.00  0.00     0.165 A 
ATOM      2  C   UNL     1       5.181  -2.347 -25.107  1.00  0.00     0.204 A 
ATOM      3  C   UNL     1       5.019  -3.539 -24.355  1.00  0.00     0.205 A 
ATOM      4  C   UNL     1       3.871  -3.709 -23.568  1.00  0.00     0.184 A 
ATOM      5  C   UNL     1       2.885  -2.701 -23.524  1.00  0.00     0.025 A 
ATOM      6  C   UNL     1       3.050  -1.528 -24.266  1.00  0.00     0.062 A 
ATOM      7  C   UNL     1       1.754  -2.907 -22.728  1.00  0.00     0.020 A 
ATOM      8  C   UNL     1       1.631  -4.092 -22.004  1.00  0.00     0.094 A 
ATOM      9  C   UNL     1       2.647  -5.047 -22.096  1.00  0.00     0.336 A 
ATOM     10  O   UNL     1       2.557  -6.125 -21.450  1.00  0.00    -0.246 OA
ATOM     11  O   UNL     1       3.712  -4.826 -22.861  1.00  0.00    -0.419 OA
ENDROOT
BRANCH   1  12
ATOM     12  O   UNL     1       4.399  -0.182 -25.819  1.00  0.00    -0.493 OA
ATOM     13  C   UNL     1       4.839   1.064 -25.287  1.00  0.00     0.278 C 
ENDBRANCH   1  12
BRANCH   2  14
ATOM     14  O   UNL     1       6.303  -2.120 -25.909  1.00  0.00    -0.502 OA
ATOM     15  H   UNL     1       7.081  -2.757 -25.993  1.00  0.00     0.293 HD
ENDBRANCH   2  14
BRANCH   3  16
ATOM     16  O   UNL     1       5.964  -4.567 -24.364  1.00  0.00    -0.502 OA
ATOM     17  H   UNL     1       6.090  -5.218 -25.126  1.00  0.00     0.293 HD
ENDBRANCH   3  16
TORSDOF 3
ENDMDL
MODEL 6
REMARK VINA RESULT:    -5.500     10.071     13.187
REMARK INTER + INTRA:          -6.205
REMARK INTER:                  -6.138
REMARK INTRA:                  -0.068
REMARK UNBOUND:                -0.062
REMARK SMILES COc1cc2ccc(=O)oc2c(O)c1O
REMARK SMILES IDX 3 1 14 2 12 3 11 4 5 5 4 6 6 7 7 8 8 9 9 10 10 11 2 12 1 13
REMARK SMILES IDX 15 14 13 16
REMARK H PARENT 15 15 13 17
REMARK Flexibility Score: inf
ROOT
ATOM      1  C   UNL     1       4.337  -3.389 -22.488  1.00  0.00     0.165 A 
ATOM      2  C   UNL     1       4.812  -3.066 -23.771  1.00  0.00     0.204 A 
ATOM      3  C   UNL     1       5.129  -1.722 -24.093  1.00  0.00     0.205 A 
ATOM      4  C   UNL     1       4.967  -0.722 -23.123  1.00  0.00     0.184 A 
ATOM      5  C   UNL     1       4.491  -1.051 -21.837  1.00  0.00     0.025 A 
ATOM      6  C   UNL     1       4.179  -2.377 -21.524  1.00  0.00     0.062 A 
ATOM      7  C   UNL     1       4.343  -0.026 -20.897  1.00  0.00     0.020 A 
ATOM      8  C   UNL     1       4.666   1.283 -21.253  1.00  0.00     0.094 A 
ATOM      9  C   UNL     1       5.133   1.536 -22.546  1.00  0.00     0.336 A 
ATOM     10  O   UNL     1       5.430   2.711 -22.888  1.00  0.00    -0.246 OA
ATOM     11  O   UNL     1       5.265   0.543 -23.420  1.00  0.00    -0.419 OA
ENDROOT
BRANCH   1  12
ATOM     12  O   UNL     1       4.035  -4.732 -22.212  1.00  0.00    -0.493 OA
ATOM     13  C   UNL     1       2.718  -5.275 -22.186  1.00  0.00     0.278 C 
ENDBRANCH   1  12
BRANCH   2  14
ATOM     14  O   UNL     1       4.951  -4.106 -24.694  1.00  0.00    -0.502 OA
ATOM     15  H   UNL     1       4.892  -5.086 -24.460  1.00  0.00     0.293 HD
ENDBRANCH   2  14
BRANCH   3  16
ATOM     16  O   UNL     1       5.604  -1.343 -25.351  1.00  0.00    -0.502 OA
ATOM     17  H   UNL     1       6.577  -1.362 -25.621  1.00  0.00     0.293 HD
ENDBRANCH   3  16
TORSDOF 3
ENDMDL
MODEL 7
REMARK VINA RESULT:    -5.458      2.699      2.868
REMARK INTER + INTRA:          -6.158
REMARK INTER:                  -6.096
REMARK INTRA:                  -0.062
REMARK UNBOUND:                -0.062
REMARK SMILES COc1cc2ccc(=O)oc2c(O)c1O
REMARK SMILES IDX 3 1 14 2 12 3 11 4 5 5 4 6 6 7 7 8 8 9 9 10 10 11 2 12 1 13
REMARK SMILES IDX 15 14 13 16
REMARK H PARENT 15 15 13 17
REMARK Flexibility Score: inf
ROOT
ATOM      1  C   UNL     1       6.158  10.956 -24.837  1.00  0.00     0.165 A 
ATOM      2  C   UNL     1       5.202  11.704 -24.130  1.00  0.00     0.204 A 
ATOM      3  C   UNL     1       3.909  11.169 -23.900  1.00  0.00     0.205 A 
ATOM      4  C   UNL     1       3.594   9.890 -24.381  1.00  0.00     0.184 A 
ATOM      5  C   UNL     1       4.556   9.142 -25.090  1.00  0.00     0.025 A 
ATOM      6  C   UNL     1       5.829   9.674 -25.315  1.00  0.00     0.062 A 
ATOM      7  C   UNL     1       4.204   7.871 -25.555  1.00  0.00     0.020 A 
ATOM      8  C   UNL     1       2.923   7.381 -25.308  1.00  0.00     0.094 A 
ATOM      9  C   UNL     1       2.020   8.177 -24.598  1.00  0.00     0.336 A 
ATOM     10  O   UNL     1       0.858   7.754 -24.364  1.00  0.00    -0.246 OA
ATOM     11  O   UNL     1       2.381   9.382 -24.167  1.00  0.00    -0.419 OA
ENDROOT
BRANCH   1  12
ATOM     12  O   UNL     1       7.425  11.523 -25.043  1.00  0.00    -0.493 OA
ATOM     13  C   UNL     1       7.837  12.167 -26.245  1.00  0.00     0.278 C 
ENDBRANCH   1  12
BRANCH   2  14
ATOM     14  O   UNL     1       5.575  12.972 -23.675  1.00  0.00    -0.502 OA
ATOM     15  H   UNL     1       6.523  13.318 -23.670  1.00  0.00     0.293 HD
ENDBRANCH   2  14
BRANCH   3  16
ATOM     16  O   UNL     1       2.920  11.868 -23.203  1.00  0.00    -0.502 OA
ATOM     17  H   UNL     1       2.843  12.874 -23.182  1.00  0.00     0.293 HD
ENDBRANCH   3  16
TORSDOF 3
ENDMDL
MODEL 8
REMARK VINA RESULT:    -5.431      2.043      2.903
REMARK INTER + INTRA:          -6.128
REMARK INTER:                  -6.074
REMARK INTRA:                  -0.054
REMARK UNBOUND:                -0.062
REMARK SMILES COc1cc2ccc(=O)oc2c(O)c1O
REMARK SMILES IDX 3 1 14 2 12 3 11 4 5 5 4 6 6 7 7 8 8 9 9 10 10 11 2 12 1 13
REMARK SMILES IDX 15 14 13 16
REMARK H PARENT 15 15 13 17
REMARK Flexibility Score: inf
ROOT
ATOM      1  C   UNL     1       6.377  12.074 -24.137  1.00  0.00     0.165 A 
ATOM      2  C   UNL     1       7.255  11.285 -23.375  1.00  0.00     0.204 A 
ATOM      3  C   UNL     1       6.891   9.961 -23.018  1.00  0.00     0.205 A 
ATOM      4  C   UNL     1       5.654   9.448 -23.431  1.00  0.00     0.184 A 
ATOM      5  C   UNL     1       4.777  10.243 -24.197  1.00  0.00     0.025 A 
ATOM      6  C   UNL     1       5.138  11.547 -24.547  1.00  0.00     0.062 A 
ATOM      7  C   UNL     1       3.551   9.697 -24.591  1.00  0.00     0.020 A 
ATOM      8  C   UNL     1       3.231   8.391 -24.219  1.00  0.00     0.094 A 
ATOM      9  C   UNL     1       4.150   7.661 -23.460  1.00  0.00     0.336 A 
ATOM     10  O   UNL     1       3.881   6.481 -23.114  1.00  0.00    -0.246 OA
ATOM     11  O   UNL     1       5.308   8.205 -23.099  1.00  0.00    -0.419 OA
ENDROOT
BRANCH   1  12
ATOM     12  O   UNL     1       6.776  13.379 -24.468  1.00  0.00    -0.493 OA
ATOM     13  C   UNL     1       6.267  14.125 -25.570  1.00  0.00     0.278 C 
ENDBRANCH   1  12
BRANCH   2  14
ATOM     14  O   UNL     1       8.473  11.852 -22.992  1.00  0.00    -0.502 OA
ATOM     15  H   UNL     1       9.122  11.425 -22.348  1.00  0.00     0.293 HD
ENDBRANCH   2  14
BRANCH   3  16
ATOM     16  O   UNL     1       7.724   9.132 -22.262  1.00  0.00    -0.502 OA
ATOM     17  H   UNL     1       7.538   8.158 -22.074  1.00  0.00     0.293 HD
ENDBRANCH   3  16
TORSDOF 3
ENDMDL
MODEL 9
REMARK VINA RESULT:    -5.393      2.408      4.804
REMARK INTER + INTRA:          -6.085
REMARK INTER:                  -6.017
REMARK INTRA:                  -0.069
REMARK UNBOUND:                -0.062
REMARK SMILES COc1cc2ccc(=O)oc2c(O)c1O
REMARK SMILES IDX 3 1 14 2 12 3 11 4 5 5 4 6 6 7 7 8 8 9 9 10 10 11 2 12 1 13
REMARK SMILES IDX 15 14 13 16
REMARK H PARENT 15 15 13 17
REMARK Flexibility Score: inf
ROOT
ATOM      1  C   UNL     1       4.046   8.667 -25.006  1.00  0.00     0.165 A 
ATOM      2  C   UNL     1       3.287   9.595 -24.275  1.00  0.00     0.204 A 
ATOM      3  C   UNL     1       3.768  10.916 -24.087  1.00  0.00     0.205 A 
ATOM      4  C   UNL     1       5.003  11.287 -24.637  1.00  0.00     0.184 A 
ATOM      5  C   UNL     1       5.763  10.352 -25.370  1.00  0.00     0.025 A 
ATOM      6  C   UNL     1       5.285   9.051 -25.553  1.00  0.00     0.062 A 
ATOM      7  C   UNL     1       6.990  10.758 -25.903  1.00  0.00     0.020 A 
ATOM      8  C   UNL     1       7.428  12.066 -25.696  1.00  0.00     0.094 A 
ATOM      9  C   UNL     1       6.623  12.939 -24.959  1.00  0.00     0.336 A 
ATOM     10  O   UNL     1       6.999  14.124 -24.760  1.00  0.00    -0.246 OA
ATOM     11  O   UNL     1       5.460  12.526 -24.464  1.00  0.00    -0.419 OA
ENDROOT
BRANCH   1  12
ATOM     12  O   UNL     1       3.533   7.370 -25.167  1.00  0.00    -0.493 OA
ATOM     13  C   UNL     1       3.974   6.230 -24.437  1.00  0.00     0.278 C 
ENDBRANCH   1  12
BRANCH   2  14
ATOM     14  O   UNL     1       2.064   9.167 -23.751  1.00  0.00    -0.502 OA
ATOM     15  H   UNL     1       1.526   8.396 -24.119  1.00  0.00     0.293 HD
ENDBRANCH   2  14
BRANCH   3  16
ATOM     16  O   UNL     1       3.056  11.880 -23.369  1.00  0.00    -0.502 OA
ATOM     17  H   UNL     1       3.096  12.872 -23.554  1.00  0.00     0.293 HD
ENDBRANCH   3  16
TORSDOF 3
ENDMDL
