MODEL 1
REMARK VINA RESULT:    -5.382      0.000      0.000
REMARK INTER + INTRA:          -6.308
REMARK INTER:                  -6.168
REMARK INTRA:                  -0.140
REMARK UNBOUND:                -0.140
REMARK SMILES O=C([O-])C=Cc1ccc(O)cc1
REMARK SMILES IDX 6 1 7 2 12 3 8 4 11 5 9 6 5 7 4 8 2 9 1 10 3 11 10 12
REMARK H PARENT 10 13
REMARK Flexibility Score: inf
ROOT
ATOM      1  C   UNL     1      27.884 -14.968  18.844  1.00  0.00    -0.025 A 
ATOM      2  C   UNL     1      26.937 -15.245  19.851  1.00  0.00     0.012 A 
ATOM      3  C   UNL     1      29.249 -15.152  19.127  1.00  0.00     0.012 A 
ATOM      4  C   UNL     1      27.355 -15.671  21.116  1.00  0.00     0.047 A 
ATOM      5  C   UNL     1      29.661 -15.577  20.394  1.00  0.00     0.047 A 
ATOM      6  C   UNL     1      28.717 -15.836  21.391  1.00  0.00     0.115 A 
ENDROOT
BRANCH   1   7
ATOM      7  C   UNL     1      27.496 -14.525  17.481  1.00  0.00     0.010 C 
ATOM      8  C   UNL     1      27.755 -15.225  16.368  1.00  0.00     0.025 C 
BRANCH   8   9
ATOM      9  C   UNL     1      27.343 -14.759  15.033  1.00  0.00     0.064 C 
ATOM     10  O   UNL     1      26.130 -14.565  14.755  1.00  0.00    -0.545 OA
ATOM     11  O   UNL     1      28.310 -14.525  14.064  1.00  0.00    -0.545 OA
ENDBRANCH   8   9
ENDBRANCH   1   7
BRANCH   6  12
ATOM     12  O   UNL     1      29.143 -16.258  22.648  1.00  0.00    -0.508 OA
ATOM     13  H   UNL     1      28.768 -17.094  23.082  1.00  0.00     0.293 HD
ENDBRANCH   6  12
TORSDOF 3
ENDMDL
MODEL 2
REMARK VINA RESULT:    -5.359      0.240      1.411
REMARK INTER + INTRA:          -6.282
REMARK INTER:                  -6.150
REMARK INTRA:                  -0.133
REMARK UNBOUND:                -0.140
REMARK SMILES O=C([O-])C=Cc1ccc(O)cc1
REMARK SMILES IDX 6 1 7 2 12 3 8 4 11 5 9 6 5 7 4 8 2 9 1 10 3 11 10 12
REMARK H PARENT 10 13
REMARK Flexibility Score: inf
ROOT
ATOM      1  C   UNL     1      28.099 -14.975  18.921  1.00  0.00    -0.025 A 
ATOM      2  C   UNL     1      29.416 -15.125  19.402  1.00  0.00     0.012 A 
ATOM      3  C   UNL     1      27.026 -15.260  19.783  1.00  0.00     0.012 A 
ATOM      4  C   UNL     1      29.645 -15.573  20.706  1.00  0.00     0.047 A 
ATOM      5  C   UNL     1      27.260 -15.708  21.086  1.00  0.00     0.047 A 
ATOM      6  C   UNL     1      28.568 -15.868  21.551  1.00  0.00     0.115 A 
ENDROOT
BRANCH   1   7
ATOM      7  C   UNL     1      27.800 -14.493  17.550  1.00  0.00     0.010 C 
ATOM      8  C   UNL     1      27.631 -15.303  16.495  1.00  0.00     0.025 C 
BRANCH   8   9
ATOM      9  C   UNL     1      27.323 -14.787  15.150  1.00  0.00     0.064 C 
ATOM     10  O   UNL     1      26.136 -14.560  14.795  1.00  0.00    -0.545 OA
ATOM     11  O   UNL     1      28.359 -14.546  14.258  1.00  0.00    -0.545 OA
ENDBRANCH   8   9
ENDBRANCH   1   7
BRANCH   6  12
ATOM     12  O   UNL     1      28.786 -16.316  22.852  1.00  0.00    -0.508 OA
ATOM     13  H   UNL     1      28.269 -15.937  23.636  1.00  0.00     0.293 HD
ENDBRANCH   6  12
TORSDOF 3
ENDMDL
MODEL 3
REMARK VINA RESULT:    -5.155      1.862      5.784
REMARK INTER + INTRA:          -6.048
REMARK INTER:                  -5.898
REMARK INTRA:                  -0.151
REMARK UNBOUND:                -0.140
REMARK SMILES O=C([O-])C=Cc1ccc(O)cc1
REMARK SMILES IDX 6 1 7 2 12 3 8 4 11 5 9 6 5 7 4 8 2 9 1 10 3 11 10 12
REMARK H PARENT 10 13
REMARK Flexibility Score: inf
ROOT
ATOM      1  C   UNL     1      27.017 -14.942  17.378  1.00  0.00    -0.025 A 
ATOM      2  C   UNL     1      27.251 -14.819  15.993  1.00  0.00     0.012 A 
ATOM      3  C   UNL     1      25.751 -15.370  17.816  1.00  0.00     0.012 A 
ATOM      4  C   UNL     1      26.231 -15.095  15.077  1.00  0.00     0.047 A 
ATOM      5  C   UNL     1      24.735 -15.645  16.896  1.00  0.00     0.047 A 
ATOM      6  C   UNL     1      24.970 -15.506  15.525  1.00  0.00     0.115 A 
ENDROOT
BRANCH   1   7
ATOM      7  C   UNL     1      28.066 -14.673  18.393  1.00  0.00     0.010 C 
ATOM      8  C   UNL     1      28.121 -15.280  19.587  1.00  0.00     0.025 C 
BRANCH   8   9
ATOM      9  C   UNL     1      29.185 -14.995  20.565  1.00  0.00     0.064 C 
ATOM     10  O   UNL     1      30.180 -14.287  20.258  1.00  0.00    -0.545 OA
ATOM     11  O   UNL     1      29.087 -15.515  21.849  1.00  0.00    -0.545 OA
ENDBRANCH   8   9
ENDBRANCH   1   7
BRANCH   6  12
ATOM     12  O   UNL     1      23.948 -15.782  14.621  1.00  0.00    -0.508 OA
ATOM     13  H   UNL     1      22.981 -15.842  14.916  1.00  0.00     0.293 HD
ENDBRANCH   6  12
TORSDOF 3
ENDMDL
MODEL 4
REMARK VINA RESULT:    -4.955      3.019      4.011
REMARK INTER + INTRA:          -5.819
REMARK INTER:                  -5.678
REMARK INTRA:                  -0.142
REMARK UNBOUND:                -0.140
REMARK SMILES O=C([O-])C=Cc1ccc(O)cc1
REMARK SMILES IDX 6 1 7 2 12 3 8 4 11 5 9 6 5 7 4 8 2 9 1 10 3 11 10 12
REMARK H PARENT 10 13
REMARK Flexibility Score: inf
ROOT
ATOM      1  C   UNL     1      26.189 -15.626  16.602  1.00  0.00    -0.025 A 
ATOM      2  C   UNL     1      26.011 -15.282  17.958  1.00  0.00     0.012 A 
ATOM      3  C   UNL     1      27.307 -15.122  15.916  1.00  0.00     0.012 A 
ATOM      4  C   UNL     1      26.920 -14.433  18.596  1.00  0.00     0.047 A 
ATOM      5  C   UNL     1      28.214 -14.274  16.559  1.00  0.00     0.047 A 
ATOM      6  C   UNL     1      28.023 -13.926  17.899  1.00  0.00     0.115 A 
ENDROOT
BRANCH   1   7
ATOM      7  C   UNL     1      25.261 -16.531  15.879  1.00  0.00     0.010 C 
ATOM      8  C   UNL     1      24.645 -16.206  14.733  1.00  0.00     0.025 C 
BRANCH   8   9
ATOM      9  C   UNL     1      23.739 -17.135  14.037  1.00  0.00     0.064 C 
ATOM     10  O   UNL     1      23.080 -18.002  14.671  1.00  0.00    -0.545 OA
ATOM     11  O   UNL     1      23.607 -17.054  12.657  1.00  0.00    -0.545 OA
ENDBRANCH   8   9
ENDBRANCH   1   7
BRANCH   6  12
ATOM     12  O   UNL     1      28.933 -13.079  18.526  1.00  0.00    -0.508 OA
ATOM     13  H   UNL     1      29.842 -12.886  18.122  1.00  0.00     0.293 HD
ENDBRANCH   6  12
TORSDOF 3
ENDMDL
MODEL 5
REMARK VINA RESULT:    -4.950      2.918      3.995
REMARK INTER + INTRA:          -5.813
REMARK INTER:                  -5.671
REMARK INTRA:                  -0.141
REMARK UNBOUND:                -0.140
REMARK SMILES O=C([O-])C=Cc1ccc(O)cc1
REMARK SMILES IDX 6 1 7 2 12 3 8 4 11 5 9 6 5 7 4 8 2 9 1 10 3 11 10 12
REMARK H PARENT 10 13
REMARK Flexibility Score: inf
ROOT
ATOM      1  C   UNL     1      26.187 -15.436  16.758  1.00  0.00    -0.025 A 
ATOM      2  C   UNL     1      27.264 -14.862  16.053  1.00  0.00     0.012 A 
ATOM      3  C   UNL     1      26.113 -15.254  18.150  1.00  0.00     0.012 A 
ATOM      4  C   UNL     1      28.253 -14.147  16.734  1.00  0.00     0.047 A 
ATOM      5  C   UNL     1      27.105 -14.537  18.827  1.00  0.00     0.047 A 
ATOM      6  C   UNL     1      28.178 -13.983  18.122  1.00  0.00     0.115 A 
ENDROOT
BRANCH   1   7
ATOM      7  C   UNL     1      25.104 -16.196  16.084  1.00  0.00     0.010 C 
ATOM      8  C   UNL     1      24.983 -16.297  14.753  1.00  0.00     0.025 C 
BRANCH   8   9
ATOM      9  C   UNL     1      23.901 -17.071  14.120  1.00  0.00     0.064 C 
ATOM     10  O   UNL     1      23.114 -17.775  14.806  1.00  0.00    -0.545 OA
ATOM     11  O   UNL     1      23.744 -17.021  12.741  1.00  0.00    -0.545 OA
ENDBRANCH   8   9
ENDBRANCH   1   7
BRANCH   6  12
ATOM     12  O   UNL     1      29.159 -13.273  18.810  1.00  0.00    -0.508 OA
ATOM     13  H   UNL     1      29.923 -13.744  19.279  1.00  0.00     0.293 HD
ENDBRANCH   6  12
TORSDOF 3
ENDMDL
MODEL 6
REMARK VINA RESULT:    -4.834      3.472      4.165
REMARK INTER + INTRA:          -5.680
REMARK INTER:                  -5.535
REMARK INTRA:                  -0.144
REMARK UNBOUND:                -0.140
REMARK SMILES O=C([O-])C=Cc1ccc(O)cc1
REMARK SMILES IDX 6 1 7 2 12 3 8 4 11 5 9 6 5 7 4 8 2 9 1 10 3 11 10 12
REMARK H PARENT 10 13
REMARK Flexibility Score: inf
ROOT
ATOM      1  C   UNL     1      26.790 -16.214  17.339  1.00  0.00    -0.025 A 
ATOM      2  C   UNL     1      26.602 -15.691  18.636  1.00  0.00     0.012 A 
ATOM      3  C   UNL     1      27.640 -15.533  16.451  1.00  0.00     0.012 A 
ATOM      4  C   UNL     1      27.234 -14.504  19.017  1.00  0.00     0.047 A 
ATOM      5  C   UNL     1      28.270 -14.345  16.837  1.00  0.00     0.047 A 
ATOM      6  C   UNL     1      28.067 -13.827  18.119  1.00  0.00     0.115 A 
ENDROOT
BRANCH   1   7
ATOM      7  C   UNL     1      26.153 -17.475  16.886  1.00  0.00     0.010 C 
ATOM      8  C   UNL     1      26.829 -18.498  16.345  1.00  0.00     0.025 C 
BRANCH   8   9
ATOM      9  C   UNL     1      26.164 -19.741  15.917  1.00  0.00     0.064 C 
ATOM     10  O   UNL     1      24.908 -19.820  15.853  1.00  0.00    -0.545 OA
ATOM     11  O   UNL     1      26.935 -20.845  15.576  1.00  0.00    -0.545 OA
ENDBRANCH   8   9
ENDBRANCH   1   7
BRANCH   6  12
ATOM     12  O   UNL     1      28.700 -12.643  18.489  1.00  0.00    -0.508 OA
ATOM     13  H   UNL     1      29.493 -12.281  17.972  1.00  0.00     0.293 HD
ENDBRANCH   6  12
TORSDOF 3
ENDMDL
MODEL 7
REMARK VINA RESULT:    -4.774      2.899      5.976
REMARK INTER + INTRA:          -5.611
REMARK INTER:                  -5.459
REMARK INTRA:                  -0.152
REMARK UNBOUND:                -0.140
REMARK SMILES O=C([O-])C=Cc1ccc(O)cc1
REMARK SMILES IDX 6 1 7 2 12 3 8 4 11 5 9 6 5 7 4 8 2 9 1 10 3 11 10 12
REMARK H PARENT 10 13
REMARK Flexibility Score: inf
ROOT
ATOM      1  C   UNL     1      27.488 -16.035  21.151  1.00  0.00    -0.025 A 
ATOM      2  C   UNL     1      28.827 -15.622  21.310  1.00  0.00     0.012 A 
ATOM      3  C   UNL     1      26.818 -15.716  19.957  1.00  0.00     0.012 A 
ATOM      4  C   UNL     1      29.464 -14.888  20.305  1.00  0.00     0.047 A 
ATOM      5  C   UNL     1      27.459 -14.981  18.955  1.00  0.00     0.047 A 
ATOM      6  C   UNL     1      28.783 -14.564  19.126  1.00  0.00     0.115 A 
ENDROOT
BRANCH   1   7
ATOM      7  C   UNL     1      26.768 -16.825  22.180  1.00  0.00     0.010 C 
ATOM      8  C   UNL     1      25.592 -17.432  21.965  1.00  0.00     0.025 C 
BRANCH   8   9
ATOM      9  C   UNL     1      24.912 -18.219  23.008  1.00  0.00     0.064 C 
ATOM     10  O   UNL     1      23.655 -18.248  23.088  1.00  0.00    -0.545 OA
ATOM     11  O   UNL     1      25.670 -18.943  23.919  1.00  0.00    -0.545 OA
ENDBRANCH   8   9
ENDBRANCH   1   7
BRANCH   6  12
ATOM     12  O   UNL     1      29.408 -13.832  18.121  1.00  0.00    -0.508 OA
ATOM     13  H   UNL     1      29.141 -12.876  17.917  1.00  0.00     0.293 HD
ENDBRANCH   6  12
TORSDOF 3
ENDMDL
MODEL 8
REMARK VINA RESULT:    -4.747      9.948     10.494
REMARK INTER + INTRA:          -5.580
REMARK INTER:                  -5.441
REMARK INTRA:                  -0.140
REMARK UNBOUND:                -0.140
REMARK SMILES O=C([O-])C=Cc1ccc(O)cc1
REMARK SMILES IDX 6 1 7 2 12 3 8 4 11 5 9 6 5 7 4 8 2 9 1 10 3 11 10 12
REMARK H PARENT 10 13
REMARK Flexibility Score: inf
ROOT
ATOM      1  C   UNL     1      32.956  -6.930  21.859  1.00  0.00    -0.025 A 
ATOM      2  C   UNL     1      31.755  -7.663  21.764  1.00  0.00     0.012 A 
ATOM      3  C   UNL     1      33.960  -7.384  22.731  1.00  0.00     0.012 A 
ATOM      4  C   UNL     1      31.562  -8.807  22.544  1.00  0.00     0.047 A 
ATOM      5  C   UNL     1      33.763  -8.528  23.509  1.00  0.00     0.047 A 
ATOM      6  C   UNL     1      32.564  -9.242  23.420  1.00  0.00     0.115 A 
ENDROOT
BRANCH   1   7
ATOM      7  C   UNL     1      33.217  -5.716  21.046  1.00  0.00     0.010 C 
ATOM      8  C   UNL     1      32.285  -5.100  20.305  1.00  0.00     0.025 C 
BRANCH   8   9
ATOM      9  C   UNL     1      32.579  -3.889  19.520  1.00  0.00     0.064 C 
ATOM     10  O   UNL     1      31.960  -3.638  18.452  1.00  0.00    -0.545 OA
ATOM     11  O   UNL     1      33.554  -3.007  19.966  1.00  0.00    -0.545 OA
ENDBRANCH   8   9
ENDBRANCH   1   7
BRANCH   6  12
ATOM     12  O   UNL     1      32.380 -10.379  24.202  1.00  0.00    -0.508 OA
ATOM     13  H   UNL     1      32.954 -11.205  24.078  1.00  0.00     0.293 HD
ENDBRANCH   6  12
TORSDOF 3
ENDMDL
MODEL 9
REMARK VINA RESULT:    -4.669      3.362      4.206
REMARK INTER + INTRA:          -5.491
REMARK INTER:                  -5.339
REMARK INTRA:                  -0.151
REMARK UNBOUND:                -0.140
REMARK SMILES O=C([O-])C=Cc1ccc(O)cc1
REMARK SMILES IDX 6 1 7 2 12 3 8 4 11 5 9 6 5 7 4 8 2 9 1 10 3 11 10 12
REMARK H PARENT 10 13
REMARK Flexibility Score: inf
ROOT
ATOM      1  C   UNL     1      26.182 -15.457  17.691  1.00  0.00    -0.025 A 
ATOM      2  C   UNL     1      27.087 -14.752  16.872  1.00  0.00     0.012 A 
ATOM      3  C   UNL     1      26.462 -15.579  19.064  1.00  0.00     0.012 A 
ATOM      4  C   UNL     1      28.254 -14.207  17.415  1.00  0.00     0.047 A 
ATOM      5  C   UNL     1      27.631 -15.031  19.602  1.00  0.00     0.047 A 
ATOM      6  C   UNL     1      28.530 -14.346  18.781  1.00  0.00     0.115 A 
ENDROOT
BRANCH   1   7
ATOM      7  C   UNL     1      24.924 -16.047  17.169  1.00  0.00     0.010 C 
ATOM      8  C   UNL     1      24.091 -16.796  17.905  1.00  0.00     0.025 C 
BRANCH   8   9
ATOM      9  C   UNL     1      22.844 -17.355  17.355  1.00  0.00     0.064 C 
ATOM     10  O   UNL     1      21.723 -17.056  17.845  1.00  0.00    -0.545 OA
ATOM     11  O   UNL     1      22.905 -18.227  16.276  1.00  0.00    -0.545 OA
ENDBRANCH   8   9
ENDBRANCH   1   7
BRANCH   6  12
ATOM     12  O   UNL     1      29.691 -13.807  19.330  1.00  0.00    -0.508 OA
ATOM     13  H   UNL     1      29.681 -13.328  20.223  1.00  0.00     0.293 HD
ENDBRANCH   6  12
TORSDOF 3
ENDMDL
