MODEL 1
REMARK VINA RESULT:    -3.058      0.000      0.000
REMARK INTER + INTRA:          -4.323
REMARK INTER:                  -4.131
REMARK INTRA:                  -0.192
REMARK UNBOUND:                -0.192
REMARK SMILES CCCCCCCC(=O)[O-]
REMARK SMILES IDX 5 1 6 2 7 3 8 4 9 5 10 6 4 7 3 8 2 9 1 10
REMARK H PARENT
REMARK Flexibility Score: inf
ROOT
ATOM      1  C   UNL     1     -10.053 -20.028  19.405  1.00  0.00     0.000 C 
ENDROOT
BRANCH   1   2
ATOM      2  C   UNL     1     -10.883 -19.155  20.357  1.00  0.00     0.006 C 
BRANCH   2   3
ATOM      3  C   UNL     1     -10.029 -18.030  20.952  1.00  0.00     0.053 C 
BRANCH   3   4
ATOM      4  C   UNL     1      -9.801 -18.264  22.413  1.00  0.00     0.041 C 
ATOM      5  O   UNL     1     -10.322 -19.257  22.985  1.00  0.00    -0.550 OA
ATOM      6  O   UNL     1      -9.053 -17.356  23.153  1.00  0.00    -0.550 OA
ENDBRANCH   3   4
ENDBRANCH   2   3
ENDBRANCH   1   2
BRANCH   1   7
ATOM      7  C   UNL     1     -10.918 -21.008  18.595  1.00  0.00     0.000 C 
BRANCH   7   8
ATOM      8  C   UNL     1     -10.458 -21.133  17.133  1.00  0.00    -0.000 C 
BRANCH   8   9
ATOM      9  C   UNL     1     -10.987 -19.992  16.250  1.00  0.00    -0.003 C 
ATOM     10  C   UNL     1     -10.579 -20.143  14.784  1.00  0.00     0.004 C 
ENDBRANCH   8   9
ENDBRANCH   7   8
ENDBRANCH   1   7
TORSDOF 6
ENDMDL
MODEL 2
REMARK VINA RESULT:    -3.043     19.188     20.023
REMARK INTER + INTRA:          -4.301
REMARK INTER:                  -4.015
REMARK INTRA:                  -0.286
REMARK UNBOUND:                -0.192
REMARK SMILES CCCCCCCC(=O)[O-]
REMARK SMILES IDX 5 1 6 2 7 3 8 4 9 5 10 6 4 7 3 8 2 9 1 10
REMARK H PARENT
REMARK Flexibility Score: inf
ROOT
ATOM      1  C   UNL     1       8.618 -19.714  14.165  1.00  0.00     0.000 C 
ENDROOT
BRANCH   1   2
ATOM      2  C   UNL     1       8.700 -19.580  12.637  1.00  0.00     0.006 C 
BRANCH   2   3
ATOM      3  C   UNL     1       9.075 -20.917  11.990  1.00  0.00     0.053 C 
BRANCH   3   4
ATOM      4  C   UNL     1       7.940 -21.436  11.164  1.00  0.00     0.041 C 
ATOM      5  O   UNL     1       6.909 -21.897  11.722  1.00  0.00    -0.550 OA
ATOM      6  O   UNL     1       8.041 -21.455   9.779  1.00  0.00    -0.550 OA
ENDBRANCH   3   4
ENDBRANCH   2   3
ENDBRANCH   1   2
BRANCH   1   7
ATOM      7  C   UNL     1       8.763 -21.169  14.639  1.00  0.00     0.000 C 
BRANCH   7   8
ATOM      8  C   UNL     1       7.489 -21.699  15.319  1.00  0.00    -0.000 C 
BRANCH   8   9
ATOM      9  C   UNL     1       7.562 -21.616  16.852  1.00  0.00    -0.003 C 
ATOM     10  C   UNL     1       6.183 -21.523  17.504  1.00  0.00     0.004 C 
ENDBRANCH   8   9
ENDBRANCH   7   8
ENDBRANCH   1   7
TORSDOF 6
ENDMDL
MODEL 3
REMARK VINA RESULT:    -2.988      2.254      3.716
REMARK INTER + INTRA:          -4.227
REMARK INTER:                  -3.690
REMARK INTRA:                  -0.537
REMARK UNBOUND:                -0.192
REMARK SMILES CCCCCCCC(=O)[O-]
REMARK SMILES IDX 5 1 6 2 7 3 8 4 9 5 10 6 4 7 3 8 2 9 1 10
REMARK H PARENT
REMARK Flexibility Score: inf
ROOT
ATOM      1  C   UNL     1     -10.608 -19.590  19.688  1.00  0.00     0.000 C 
ENDROOT
BRANCH   1   2
ATOM      2  C   UNL     1     -11.100 -18.355  20.458  1.00  0.00     0.006 C 
BRANCH   2   3
ATOM      3  C   UNL     1      -9.934 -17.640  21.147  1.00  0.00     0.053 C 
BRANCH   3   4
ATOM      4  C   UNL     1      -9.913 -17.960  22.609  1.00  0.00     0.041 C 
ATOM      5  O   UNL     1     -10.855 -18.616  23.128  1.00  0.00    -0.550 OA
ATOM      6  O   UNL     1      -8.878 -17.491  23.408  1.00  0.00    -0.550 OA
ENDBRANCH   3   4
ENDBRANCH   2   3
ENDBRANCH   1   2
BRANCH   1   7
ATOM      7  C   UNL     1     -11.125 -20.907  20.290  1.00  0.00     0.000 C 
BRANCH   7   8
ATOM      8  C   UNL     1      -9.998 -21.766  20.888  1.00  0.00    -0.000 C 
BRANCH   8   9
ATOM      9  C   UNL     1     -10.150 -21.964  22.405  1.00  0.00    -0.003 C 
ATOM     10  C   UNL     1      -8.875 -21.624  23.175  1.00  0.00     0.004 C 
ENDBRANCH   8   9
ENDBRANCH   7   8
ENDBRANCH   1   7
TORSDOF 6
ENDMDL
MODEL 4
REMARK VINA RESULT:    -2.961     18.611     19.531
REMARK INTER + INTRA:          -4.191
REMARK INTER:                  -3.828
REMARK INTRA:                  -0.363
REMARK UNBOUND:                -0.192
REMARK SMILES CCCCCCCC(=O)[O-]
REMARK SMILES IDX 5 1 6 2 7 3 8 4 9 5 10 6 4 7 3 8 2 9 1 10
REMARK H PARENT
REMARK Flexibility Score: inf
ROOT
ATOM      1  C   UNL     1       6.706 -22.907  13.938  1.00  0.00     0.000 C 
ENDROOT
BRANCH   1   2
ATOM      2  C   UNL     1       6.337 -21.962  12.785  1.00  0.00     0.006 C 
BRANCH   2   3
ATOM      3  C   UNL     1       7.288 -22.150  11.599  1.00  0.00     0.053 C 
BRANCH   3   4
ATOM      4  C   UNL     1       8.066 -20.896  11.347  1.00  0.00     0.041 C 
ATOM      5  O   UNL     1       8.886 -20.839  10.393  1.00  0.00    -0.550 OA
ATOM      6  O   UNL     1       7.921 -19.806  12.197  1.00  0.00    -0.550 OA
ENDBRANCH   3   4
ENDBRANCH   2   3
ENDBRANCH   1   2
BRANCH   1   7
ATOM      7  C   UNL     1       7.971 -22.459  14.689  1.00  0.00     0.000 C 
BRANCH   7   8
ATOM      8  C   UNL     1       7.704 -21.286  15.648  1.00  0.00    -0.000 C 
BRANCH   8   9
ATOM      9  C   UNL     1       7.478 -21.750  17.096  1.00  0.00    -0.003 C 
ATOM     10  C   UNL     1       6.039 -21.537  17.565  1.00  0.00     0.004 C 
ENDBRANCH   8   9
ENDBRANCH   7   8
ENDBRANCH   1   7
TORSDOF 6
ENDMDL
MODEL 5
REMARK VINA RESULT:    -2.809      2.016      2.533
REMARK INTER + INTRA:          -3.985
REMARK INTER:                  -3.702
REMARK INTRA:                  -0.283
REMARK UNBOUND:                -0.192
REMARK SMILES CCCCCCCC(=O)[O-]
REMARK SMILES IDX 5 1 6 2 7 3 8 4 9 5 10 6 4 7 3 8 2 9 1 10
REMARK H PARENT
REMARK Flexibility Score: inf
ROOT
ATOM      1  C   UNL     1     -10.597 -19.487  19.617  1.00  0.00     0.000 C 
ENDROOT
BRANCH   1   2
ATOM      2  C   UNL     1     -11.105 -18.396  20.572  1.00  0.00     0.006 C 
BRANCH   2   3
ATOM      3  C   UNL     1      -9.936 -17.608  21.172  1.00  0.00     0.053 C 
BRANCH   3   4
ATOM      4  C   UNL     1      -9.689 -18.033  22.586  1.00  0.00     0.041 C 
ATOM      5  O   UNL     1      -8.988 -17.319  23.350  1.00  0.00    -0.550 OA
ATOM      6  O   UNL     1     -10.194 -19.243  23.046  1.00  0.00    -0.550 OA
ENDBRANCH   3   4
ENDBRANCH   2   3
ENDBRANCH   1   2
BRANCH   1   7
ATOM      7  C   UNL     1     -10.947 -20.904  20.098  1.00  0.00     0.000 C 
BRANCH   7   8
ATOM      8  C   UNL     1      -9.784 -21.894  19.916  1.00  0.00    -0.000 C 
BRANCH   8   9
ATOM      9  C   UNL     1      -8.925 -21.573  18.683  1.00  0.00    -0.003 C 
ATOM     10  C   UNL     1      -7.671 -22.442  18.595  1.00  0.00     0.004 C 
ENDBRANCH   8   9
ENDBRANCH   7   8
ENDBRANCH   1   7
TORSDOF 6
ENDMDL
MODEL 6
REMARK VINA RESULT:    -2.778      3.391      5.557
REMARK INTER + INTRA:          -3.944
REMARK INTER:                  -3.632
REMARK INTRA:                  -0.312
REMARK UNBOUND:                -0.192
REMARK SMILES CCCCCCCC(=O)[O-]
REMARK SMILES IDX 5 1 6 2 7 3 8 4 9 5 10 6 4 7 3 8 2 9 1 10
REMARK H PARENT
REMARK Flexibility Score: inf
ROOT
ATOM      1  C   UNL     1     -10.373 -20.550  20.949  1.00  0.00     0.000 C 
ENDROOT
BRANCH   1   2
ATOM      2  C   UNL     1      -9.784 -21.760  20.209  1.00  0.00     0.006 C 
BRANCH   2   3
ATOM      3  C   UNL     1      -9.671 -21.480  18.707  1.00  0.00     0.053 C 
BRANCH   3   4
ATOM      4  C   UNL     1      -8.382 -22.019  18.170  1.00  0.00     0.041 C 
ATOM      5  O   UNL     1      -7.497 -22.448  18.956  1.00  0.00    -0.550 OA
ATOM      6  O   UNL     1      -8.138 -22.001  16.802  1.00  0.00    -0.550 OA
ENDBRANCH   3   4
ENDBRANCH   2   3
ENDBRANCH   1   2
BRANCH   1   7
ATOM      7  C   UNL     1     -10.416 -19.286  20.075  1.00  0.00     0.000 C 
BRANCH   7   8
ATOM      8  C   UNL     1     -10.199 -17.997  20.888  1.00  0.00    -0.000 C 
BRANCH   8   9
ATOM      9  C   UNL     1     -10.184 -18.253  22.403  1.00  0.00    -0.003 C 
ATOM     10  C   UNL     1      -9.061 -17.502  23.117  1.00  0.00     0.004 C 
ENDBRANCH   8   9
ENDBRANCH   7   8
ENDBRANCH   1   7
TORSDOF 6
ENDMDL
MODEL 7
REMARK VINA RESULT:    -2.763      2.256      3.382
REMARK INTER + INTRA:          -3.923
REMARK INTER:                  -3.478
REMARK INTRA:                  -0.445
REMARK UNBOUND:                -0.192
REMARK SMILES CCCCCCCC(=O)[O-]
REMARK SMILES IDX 5 1 6 2 7 3 8 4 9 5 10 6 4 7 3 8 2 9 1 10
REMARK H PARENT
REMARK Flexibility Score: inf
ROOT
ATOM      1  C   UNL     1      -9.486 -20.912  23.085  1.00  0.00     0.000 C 
ENDROOT
BRANCH   1   2
ATOM      2  C   UNL     1     -10.793 -20.270  22.597  1.00  0.00     0.006 C 
BRANCH   2   3
ATOM      3  C   UNL     1     -10.892 -18.812  23.059  1.00  0.00     0.053 C 
BRANCH   3   4
ATOM      4  C   UNL     1      -9.821 -17.987  22.416  1.00  0.00     0.041 C 
ATOM      5  O   UNL     1      -8.983 -17.371  23.127  1.00  0.00    -0.550 OA
ATOM      6  O   UNL     1      -9.779 -17.857  21.034  1.00  0.00    -0.550 OA
ENDBRANCH   3   4
ENDBRANCH   2   3
ENDBRANCH   1   2
BRANCH   1   7
ATOM      7  C   UNL     1      -9.170 -22.231  22.361  1.00  0.00     0.000 C 
BRANCH   7   8
ATOM      8  C   UNL     1     -10.071 -22.464  21.136  1.00  0.00    -0.000 C 
BRANCH   8   9
ATOM      9  C   UNL     1      -9.319 -22.277  19.809  1.00  0.00    -0.003 C 
ATOM     10  C   UNL     1      -9.763 -21.027  19.050  1.00  0.00     0.004 C 
ENDBRANCH   8   9
ENDBRANCH   7   8
ENDBRANCH   1   7
TORSDOF 6
ENDMDL
MODEL 8
REMARK VINA RESULT:    -2.739      2.728      4.726
REMARK INTER + INTRA:          -3.892
REMARK INTER:                  -3.322
REMARK INTRA:                  -0.570
REMARK UNBOUND:                -0.192
REMARK SMILES CCCCCCCC(=O)[O-]
REMARK SMILES IDX 5 1 6 2 7 3 8 4 9 5 10 6 4 7 3 8 2 9 1 10
REMARK H PARENT
REMARK Flexibility Score: inf
ROOT
ATOM      1  C   UNL     1     -10.041 -20.206  19.783  1.00  0.00     0.000 C 
ENDROOT
BRANCH   1   2
ATOM      2  C   UNL     1     -10.601 -21.578  20.188  1.00  0.00     0.006 C 
BRANCH   2   3
ATOM      3  C   UNL     1     -10.671 -21.710  21.713  1.00  0.00     0.053 C 
BRANCH   3   4
ATOM      4  C   UNL     1      -9.324 -22.044  22.272  1.00  0.00     0.041 C 
ATOM      5  O   UNL     1      -8.938 -21.522  23.352  1.00  0.00    -0.550 OA
ATOM      6  O   UNL     1      -8.473 -22.894  21.576  1.00  0.00    -0.550 OA
ENDBRANCH   3   4
ENDBRANCH   2   3
ENDBRANCH   1   2
BRANCH   1   7
ATOM      7  C   UNL     1     -10.892 -19.041  20.315  1.00  0.00     0.000 C 
BRANCH   7   8
ATOM      8  C   UNL     1     -10.036 -17.889  20.871  1.00  0.00    -0.000 C 
BRANCH   8   9
ATOM      9  C   UNL     1      -9.756 -18.037  22.374  1.00  0.00    -0.003 C 
ATOM     10  C   UNL     1     -10.987 -18.484  23.162  1.00  0.00     0.004 C 
ENDBRANCH   8   9
ENDBRANCH   7   8
ENDBRANCH   1   7
TORSDOF 6
ENDMDL
MODEL 9
REMARK VINA RESULT:    -2.396      3.230      5.126
REMARK INTER + INTRA:          -3.428
REMARK INTER:                  -2.870
REMARK INTRA:                  -0.558
REMARK UNBOUND:                -0.192
REMARK SMILES CCCCCCCC(=O)[O-]
REMARK SMILES IDX 5 1 6 2 7 3 8 4 9 5 10 6 4 7 3 8 2 9 1 10
REMARK H PARENT
REMARK Flexibility Score: inf
ROOT
ATOM      1  C   UNL     1      -9.749 -20.948  23.035  1.00  0.00     0.000 C 
ENDROOT
BRANCH   1   2
ATOM      2  C   UNL     1      -9.666 -21.963  21.885  1.00  0.00     0.006 C 
BRANCH   2   3
ATOM      3  C   UNL     1     -10.649 -21.603  20.767  1.00  0.00     0.053 C 
BRANCH   3   4
ATOM      4  C   UNL     1      -9.920 -21.400  19.475  1.00  0.00     0.041 C 
ATOM      5  O   UNL     1      -8.843 -22.012  19.252  1.00  0.00    -0.550 OA
ATOM      6  O   UNL     1     -10.406 -20.496  18.538  1.00  0.00    -0.550 OA
ENDBRANCH   3   4
ENDBRANCH   2   3
ENDBRANCH   1   2
BRANCH   1   7
ATOM      7  C   UNL     1     -11.125 -20.269  23.126  1.00  0.00     0.000 C 
BRANCH   7   8
ATOM      8  C   UNL     1     -11.029 -18.733  23.104  1.00  0.00    -0.000 C 
BRANCH   8   9
ATOM      9  C   UNL     1      -9.759 -18.233  22.399  1.00  0.00    -0.003 C 
ATOM     10  C   UNL     1     -10.002 -17.869  20.935  1.00  0.00     0.004 C 
ENDBRANCH   8   9
ENDBRANCH   7   8
ENDBRANCH   1   7
TORSDOF 6
ENDMDL
