MODEL 1
REMARK VINA RESULT:    -4.680      0.000      0.000
REMARK INTER + INTRA:         -13.596
REMARK INTER:                 -10.152
REMARK INTRA:                  -3.444
REMARK UNBOUND:                -3.444
REMARK SMILES CCCCCCCCCCCCCCCCCCCCCC(=O)[O-]
REMARK SMILES IDX 12 1 11 2 10 3 9 4 8 5 7 6 6 7 5 8 4 9 3 10 2 11 1 12 13 13
REMARK SMILES IDX 14 14 15 15 16 16 17 17 18 18 19 19 20 20 21 21 22 22 23 23
REMARK SMILES IDX 24 24
REMARK H PARENT
REMARK Flexibility Score: inf
ROOT
ATOM      1  C   UNL     1      32.580  55.828  33.833  1.00  0.00     0.000 C 
ENDROOT
BRANCH   1   2
ATOM      2  C   UNL     1      32.533  56.649  32.527  1.00  0.00     0.000 C 
BRANCH   2   3
ATOM      3  C   UNL     1      32.597  55.763  31.271  1.00  0.00     0.000 C 
BRANCH   3   4
ATOM      4  C   UNL     1      33.998  55.739  30.639  1.00  0.00    -0.000 C 
BRANCH   4   5
ATOM      5  C   UNL     1      34.696  57.107  30.699  1.00  0.00    -0.000 C 
BRANCH   5   6
ATOM      6  C   UNL     1      35.216  57.527  29.319  1.00  0.00    -0.000 C 
BRANCH   6   7
ATOM      7  C   UNL     1      34.974  56.415  28.287  1.00  0.00    -0.000 C 
BRANCH   7   8
ATOM      8  C   UNL     1      34.758  56.960  26.865  1.00  0.00    -0.000 C 
BRANCH   8   9
ATOM      9  C   UNL     1      33.580  56.277  26.148  1.00  0.00    -0.000 C 
BRANCH   9  10
ATOM     10  C   UNL     1      32.408  55.971  27.094  1.00  0.00    -0.000 C 
BRANCH  10  11
ATOM     11  C   UNL     1      31.892  54.530  26.952  1.00  0.00    -0.003 C 
ATOM     12  C   UNL     1      32.737  53.559  27.773  1.00  0.00     0.004 C 
ENDBRANCH  10  11
ENDBRANCH   9  10
ENDBRANCH   8   9
ENDBRANCH   7   8
ENDBRANCH   6   7
ENDBRANCH   5   6
ENDBRANCH   4   5
ENDBRANCH   3   4
ENDBRANCH   2   3
ENDBRANCH   1   2
BRANCH   1  13
ATOM     13  C   UNL     1      33.734  56.221  34.774  1.00  0.00     0.000 C 
BRANCH  13  14
ATOM     14  C   UNL     1      35.145  56.038  34.183  1.00  0.00     0.000 C 
BRANCH  14  15
ATOM     15  C   UNL     1      36.029  55.009  34.914  1.00  0.00     0.000 C 
BRANCH  15  16
ATOM     16  C   UNL     1      35.548  53.562  34.729  1.00  0.00     0.000 C 
BRANCH  16  17
ATOM     17  C   UNL     1      35.289  53.252  33.247  1.00  0.00     0.000 C 
BRANCH  17  18
ATOM     18  C   UNL     1      33.965  52.500  33.029  1.00  0.00     0.000 C 
BRANCH  18  19
ATOM     19  C   UNL     1      33.724  52.169  31.546  1.00  0.00     0.000 C 
BRANCH  19  20
ATOM     20  C   UNL     1      32.231  52.171  31.179  1.00  0.00     0.006 C 
BRANCH  20  21
ATOM     21  C   UNL     1      31.326  51.990  32.407  1.00  0.00     0.053 C 
BRANCH  21  22
ATOM     22  C   UNL     1      30.003  51.420  32.001  1.00  0.00     0.041 C 
ATOM     23  O   UNL     1      28.989  51.595  32.726  1.00  0.00    -0.550 OA
ATOM     24  O   UNL     1      29.877  50.743  30.793  1.00  0.00    -0.550 OA
ENDBRANCH  21  22
ENDBRANCH  20  21
ENDBRANCH  19  20
ENDBRANCH  18  19
ENDBRANCH  17  18
ENDBRANCH  16  17
ENDBRANCH  15  16
ENDBRANCH  14  15
ENDBRANCH  13  14
ENDBRANCH   1  13
TORSDOF 20
ENDMDL
MODEL 2
REMARK VINA RESULT:    -4.675      2.671      4.306
REMARK INTER + INTRA:         -13.585
REMARK INTER:                 -10.160
REMARK INTRA:                  -3.425
REMARK UNBOUND:                -3.444
REMARK SMILES CCCCCCCCCCCCCCCCCCCCCC(=O)[O-]
REMARK SMILES IDX 12 1 11 2 10 3 9 4 8 5 7 6 6 7 5 8 4 9 3 10 2 11 1 12 13 13
REMARK SMILES IDX 14 14 15 15 16 16 17 17 18 18 19 19 20 20 21 21 22 22 23 23
REMARK SMILES IDX 24 24
REMARK H PARENT
REMARK Flexibility Score: inf
ROOT
ATOM      1  C   UNL     1      34.663  57.629  31.639  1.00  0.00     0.000 C 
ENDROOT
BRANCH   1   2
ATOM      2  C   UNL     1      35.528  58.134  30.463  1.00  0.00     0.000 C 
BRANCH   2   3
ATOM      3  C   UNL     1      35.124  57.502  29.120  1.00  0.00     0.000 C 
BRANCH   3   4
ATOM      4  C   UNL     1      36.332  56.957  28.340  1.00  0.00    -0.000 C 
BRANCH   4   5
ATOM      5  C   UNL     1      35.990  56.632  26.877  1.00  0.00    -0.000 C 
BRANCH   5   6
ATOM      6  C   UNL     1      34.652  57.258  26.467  1.00  0.00    -0.000 C 
BRANCH   6   7
ATOM      7  C   UNL     1      33.667  56.176  25.996  1.00  0.00    -0.000 C 
BRANCH   7   8
ATOM      8  C   UNL     1      32.322  56.234  26.738  1.00  0.00    -0.000 C 
BRANCH   8   9
ATOM      9  C   UNL     1      32.259  55.245  27.916  1.00  0.00    -0.000 C 
BRANCH   9  10
ATOM     10  C   UNL     1      33.276  54.102  27.784  1.00  0.00    -0.000 C 
BRANCH  10  11
ATOM     11  C   UNL     1      33.574  53.416  29.128  1.00  0.00    -0.003 C 
ATOM     12  C   UNL     1      32.387  52.578  29.594  1.00  0.00     0.004 C 
ENDBRANCH  10  11
ENDBRANCH   9  10
ENDBRANCH   8   9
ENDBRANCH   7   8
ENDBRANCH   6   7
ENDBRANCH   5   6
ENDBRANCH   4   5
ENDBRANCH   3   4
ENDBRANCH   2   3
ENDBRANCH   1   2
BRANCH   1  13
ATOM     13  C   UNL     1      34.170  56.181  31.470  1.00  0.00     0.000 C 
BRANCH  13  14
ATOM     14  C   UNL     1      32.691  55.951  31.834  1.00  0.00     0.000 C 
BRANCH  14  15
ATOM     15  C   UNL     1      32.333  56.216  33.308  1.00  0.00     0.000 C 
BRANCH  15  16
ATOM     16  C   UNL     1      31.862  54.956  34.050  1.00  0.00     0.000 C 
BRANCH  16  17
ATOM     17  C   UNL     1      32.081  53.699  33.195  1.00  0.00     0.000 C 
BRANCH  17  18
ATOM     18  C   UNL     1      33.173  52.782  33.772  1.00  0.00     0.000 C 
BRANCH  18  19
ATOM     19  C   UNL     1      34.391  52.671  32.839  1.00  0.00     0.000 C 
BRANCH  19  20
ATOM     20  C   UNL     1      35.693  53.128  33.516  1.00  0.00     0.006 C 
BRANCH  20  21
ATOM     21  C   UNL     1      35.496  54.385  34.376  1.00  0.00     0.053 C 
BRANCH  21  22
ATOM     22  C   UNL     1      35.950  54.133  35.780  1.00  0.00     0.041 C 
ATOM     23  O   UNL     1      35.331  53.312  36.508  1.00  0.00    -0.550 OA
ATOM     24  O   UNL     1      37.090  54.761  36.268  1.00  0.00    -0.550 OA
ENDBRANCH  21  22
ENDBRANCH  20  21
ENDBRANCH  19  20
ENDBRANCH  18  19
ENDBRANCH  17  18
ENDBRANCH  16  17
ENDBRANCH  15  16
ENDBRANCH  14  15
ENDBRANCH  13  14
ENDBRANCH   1  13
TORSDOF 20
ENDMDL
MODEL 3
REMARK VINA RESULT:    -4.624      2.020      5.887
REMARK INTER + INTRA:         -13.475
REMARK INTER:                  -9.951
REMARK INTRA:                  -3.524
REMARK UNBOUND:                -3.444
REMARK SMILES CCCCCCCCCCCCCCCCCCCCCC(=O)[O-]
REMARK SMILES IDX 12 1 11 2 10 3 9 4 8 5 7 6 6 7 5 8 4 9 3 10 2 11 1 12 13 13
REMARK SMILES IDX 14 14 15 15 16 16 17 17 18 18 19 19 20 20 21 21 22 22 23 23
REMARK SMILES IDX 24 24
REMARK H PARENT
REMARK Flexibility Score: inf
ROOT
ATOM      1  C   UNL     1      32.415  56.540  32.470  1.00  0.00     0.000 C 
ENDROOT
BRANCH   1   2
ATOM      2  C   UNL     1      32.238  55.868  33.849  1.00  0.00     0.000 C 
BRANCH   2   3
ATOM      3  C   UNL     1      33.339  56.270  34.846  1.00  0.00     0.000 C 
BRANCH   3   4
ATOM      4  C   UNL     1      34.207  57.429  34.328  1.00  0.00    -0.000 C 
BRANCH   4   5
ATOM      5  C   UNL     1      35.711  57.128  34.424  1.00  0.00    -0.000 C 
BRANCH   5   6
ATOM      6  C   UNL     1      36.015  56.190  35.599  1.00  0.00    -0.000 C 
BRANCH   6   7
ATOM      7  C   UNL     1      36.707  54.910  35.106  1.00  0.00    -0.000 C 
BRANCH   7   8
ATOM      8  C   UNL     1      36.572  54.707  33.588  1.00  0.00    -0.000 C 
BRANCH   8   9
ATOM      9  C   UNL     1      35.908  53.365  33.233  1.00  0.00    -0.000 C 
BRANCH   9  10
ATOM     10  C   UNL     1      34.681  53.061  34.106  1.00  0.00    -0.000 C 
BRANCH  10  11
ATOM     11  C   UNL     1      33.525  52.435  33.308  1.00  0.00    -0.003 C 
ATOM     12  C   UNL     1      34.006  51.919  31.955  1.00  0.00     0.004 C 
ENDBRANCH  10  11
ENDBRANCH   9  10
ENDBRANCH   8   9
ENDBRANCH   7   8
ENDBRANCH   6   7
ENDBRANCH   5   6
ENDBRANCH   4   5
ENDBRANCH   3   4
ENDBRANCH   2   3
ENDBRANCH   1   2
BRANCH   1  13
ATOM     13  C   UNL     1      32.840  55.567  31.354  1.00  0.00     0.000 C 
BRANCH  13  14
ATOM     14  C   UNL     1      34.263  55.786  30.807  1.00  0.00     0.000 C 
BRANCH  14  15
ATOM     15  C   UNL     1      34.698  57.259  30.692  1.00  0.00     0.000 C 
BRANCH  15  16
ATOM     16  C   UNL     1      35.985  57.445  29.874  1.00  0.00     0.000 C 
BRANCH  16  17
ATOM     17  C   UNL     1      35.667  57.903  28.443  1.00  0.00     0.000 C 
BRANCH  17  18
ATOM     18  C   UNL     1      35.601  56.727  27.453  1.00  0.00     0.000 C 
BRANCH  18  19
ATOM     19  C   UNL     1      34.798  57.078  26.188  1.00  0.00     0.000 C 
BRANCH  19  20
ATOM     20  C   UNL     1      33.468  56.311  26.106  1.00  0.00     0.006 C 
BRANCH  20  21
ATOM     21  C   UNL     1      33.309  55.291  27.243  1.00  0.00     0.053 C 
BRANCH  21  22
ATOM     22  C   UNL     1      31.882  54.854  27.357  1.00  0.00     0.041 C 
ATOM     23  O   UNL     1      31.599  53.630  27.443  1.00  0.00    -0.550 OA
ATOM     24  O   UNL     1      30.866  55.801  27.426  1.00  0.00    -0.550 OA
ENDBRANCH  21  22
ENDBRANCH  20  21
ENDBRANCH  19  20
ENDBRANCH  18  19
ENDBRANCH  17  18
ENDBRANCH  16  17
ENDBRANCH  15  16
ENDBRANCH  14  15
ENDBRANCH  13  14
ENDBRANCH   1  13
TORSDOF 20
ENDMDL
MODEL 4
REMARK VINA RESULT:    -4.563      1.357      4.608
REMARK INTER + INTRA:         -13.343
REMARK INTER:                 -10.460
REMARK INTRA:                  -2.882
REMARK UNBOUND:                -3.444
REMARK SMILES CCCCCCCCCCCCCCCCCCCCCC(=O)[O-]
REMARK SMILES IDX 12 1 11 2 10 3 9 4 8 5 7 6 6 7 5 8 4 9 3 10 2 11 1 12 13 13
REMARK SMILES IDX 14 14 15 15 16 16 17 17 18 18 19 19 20 20 21 21 22 22 23 23
REMARK SMILES IDX 24 24
REMARK H PARENT
REMARK Flexibility Score: inf
ROOT
ATOM      1  C   UNL     1      31.896  55.240  27.691  1.00  0.00     0.000 C 
ENDROOT
BRANCH   1   2
ATOM      2  C   UNL     1      32.346  56.263  26.626  1.00  0.00     0.000 C 
BRANCH   2   3
ATOM      3  C   UNL     1      33.867  56.239  26.391  1.00  0.00     0.000 C 
BRANCH   3   4
ATOM      4  C   UNL     1      34.608  57.293  27.230  1.00  0.00    -0.000 C 
BRANCH   4   5
ATOM      5  C   UNL     1      35.389  56.673  28.400  1.00  0.00    -0.000 C 
BRANCH   5   6
ATOM      6  C   UNL     1      35.580  57.683  29.537  1.00  0.00    -0.000 C 
BRANCH   6   7
ATOM      7  C   UNL     1      34.578  57.420  30.671  1.00  0.00    -0.000 C 
BRANCH   7   8
ATOM      8  C   UNL     1      34.135  55.949  30.745  1.00  0.00    -0.000 C 
BRANCH   8   9
ATOM      9  C   UNL     1      32.690  55.797  31.250  1.00  0.00    -0.000 C 
BRANCH   9  10
ATOM     10  C   UNL     1      32.418  56.613  32.523  1.00  0.00    -0.000 C 
BRANCH  10  11
ATOM     11  C   UNL     1      32.203  55.728  33.762  1.00  0.00    -0.003 C 
ATOM     12  C   UNL     1      33.519  55.471  34.491  1.00  0.00     0.004 C 
ENDBRANCH  10  11
ENDBRANCH   9  10
ENDBRANCH   8   9
ENDBRANCH   7   8
ENDBRANCH   6   7
ENDBRANCH   5   6
ENDBRANCH   4   5
ENDBRANCH   3   4
ENDBRANCH   2   3
ENDBRANCH   1   2
BRANCH   1  13
ATOM     13  C   UNL     1      32.438  53.818  27.456  1.00  0.00     0.000 C 
BRANCH  13  14
ATOM     14  C   UNL     1      33.506  53.354  28.464  1.00  0.00     0.000 C 
BRANCH  14  15
ATOM     15  C   UNL     1      33.023  52.317  29.496  1.00  0.00     0.000 C 
BRANCH  15  16
ATOM     16  C   UNL     1      33.909  52.255  30.749  1.00  0.00     0.000 C 
BRANCH  16  17
ATOM     17  C   UNL     1      33.320  51.295  31.793  1.00  0.00     0.000 C 
BRANCH  17  18
ATOM     18  C   UNL     1      32.804  52.032  33.041  1.00  0.00     0.000 C 
BRANCH  18  19
ATOM     19  C   UNL     1      31.282  52.257  32.993  1.00  0.00     0.000 C 
BRANCH  19  20
ATOM     20  C   UNL     1      30.606  51.466  31.862  1.00  0.00     0.006 C 
BRANCH  20  21
ATOM     21  C   UNL     1      29.234  50.911  32.275  1.00  0.00     0.053 C 
BRANCH  21  22
ATOM     22  C   UNL     1      28.606  50.173  31.134  1.00  0.00     0.041 C 
ATOM     23  O   UNL     1      27.531  49.540  31.305  1.00  0.00    -0.550 OA
ATOM     24  O   UNL     1      29.176  50.231  29.868  1.00  0.00    -0.550 OA
ENDBRANCH  21  22
ENDBRANCH  20  21
ENDBRANCH  19  20
ENDBRANCH  18  19
ENDBRANCH  17  18
ENDBRANCH  16  17
ENDBRANCH  15  16
ENDBRANCH  14  15
ENDBRANCH  13  14
ENDBRANCH   1  13
TORSDOF 20
ENDMDL
MODEL 5
REMARK VINA RESULT:    -4.554      1.548      5.679
REMARK INTER + INTRA:         -13.323
REMARK INTER:                 -10.160
REMARK INTRA:                  -3.162
REMARK UNBOUND:                -3.444
REMARK SMILES CCCCCCCCCCCCCCCCCCCCCC(=O)[O-]
REMARK SMILES IDX 12 1 11 2 10 3 9 4 8 5 7 6 6 7 5 8 4 9 3 10 2 11 1 12 13 13
REMARK SMILES IDX 14 14 15 15 16 16 17 17 18 18 19 19 20 20 21 21 22 22 23 23
REMARK SMILES IDX 24 24
REMARK H PARENT
REMARK Flexibility Score: inf
ROOT
ATOM      1  C   UNL     1      33.036  56.024  31.568  1.00  0.00     0.000 C 
ENDROOT
BRANCH   1   2
ATOM      2  C   UNL     1      32.582  56.462  32.977  1.00  0.00     0.000 C 
BRANCH   2   3
ATOM      3  C   UNL     1      33.718  57.108  33.789  1.00  0.00     0.000 C 
BRANCH   3   4
ATOM      4  C   UNL     1      34.053  56.315  35.063  1.00  0.00    -0.000 C 
BRANCH   4   5
ATOM      5  C   UNL     1      34.371  54.839  34.773  1.00  0.00    -0.000 C 
BRANCH   5   6
ATOM      6  C   UNL     1      35.876  54.623  34.577  1.00  0.00    -0.000 C 
BRANCH   6   7
ATOM      7  C   UNL     1      36.139  53.677  33.396  1.00  0.00    -0.000 C 
BRANCH   7   8
ATOM      8  C   UNL     1      35.101  52.547  33.295  1.00  0.00    -0.000 C 
BRANCH   8   9
ATOM      9  C   UNL     1      34.499  52.428  31.884  1.00  0.00    -0.000 C 
BRANCH   9  10
ATOM     10  C   UNL     1      33.108  51.775  31.886  1.00  0.00    -0.000 C 
BRANCH  10  11
ATOM     11  C   UNL     1      32.408  51.875  33.251  1.00  0.00    -0.003 C 
ATOM     12  C   UNL     1      31.390  53.012  33.266  1.00  0.00     0.004 C 
ENDBRANCH  10  11
ENDBRANCH   9  10
ENDBRANCH   8   9
ENDBRANCH   7   8
ENDBRANCH   6   7
ENDBRANCH   5   6
ENDBRANCH   4   5
ENDBRANCH   3   4
ENDBRANCH   2   3
ENDBRANCH   1   2
BRANCH   1  13
ATOM     13  C   UNL     1      34.510  56.348  31.262  1.00  0.00     0.000 C 
BRANCH  13  14
ATOM     14  C   UNL     1      34.738  57.643  30.461  1.00  0.00     0.000 C 
BRANCH  14  15
ATOM     15  C   UNL     1      36.032  57.673  29.624  1.00  0.00     0.000 C 
BRANCH  15  16
ATOM     16  C   UNL     1      35.771  57.815  28.117  1.00  0.00     0.000 C 
BRANCH  16  17
ATOM     17  C   UNL     1      35.045  56.579  27.564  1.00  0.00     0.000 C 
BRANCH  17  18
ATOM     18  C   UNL     1      34.287  56.880  26.260  1.00  0.00     0.000 C 
BRANCH  18  19
ATOM     19  C   UNL     1      32.837  56.366  26.300  1.00  0.00     0.000 C 
BRANCH  19  20
ATOM     20  C   UNL     1      32.531  55.571  27.579  1.00  0.00     0.006 C 
BRANCH  20  21
ATOM     21  C   UNL     1      31.928  54.190  27.279  1.00  0.00     0.053 C 
BRANCH  21  22
ATOM     22  C   UNL     1      32.571  53.142  28.133  1.00  0.00     0.041 C 
ATOM     23  O   UNL     1      33.785  53.244  28.452  1.00  0.00    -0.550 OA
ATOM     24  O   UNL     1      31.817  52.083  28.624  1.00  0.00    -0.550 OA
ENDBRANCH  21  22
ENDBRANCH  20  21
ENDBRANCH  19  20
ENDBRANCH  18  19
ENDBRANCH  17  18
ENDBRANCH  16  17
ENDBRANCH  15  16
ENDBRANCH  14  15
ENDBRANCH  13  14
ENDBRANCH   1  13
TORSDOF 20
ENDMDL
MODEL 6
REMARK VINA RESULT:    -4.549      1.920      5.756
REMARK INTER + INTRA:         -13.312
REMARK INTER:                 -10.320
REMARK INTRA:                  -2.992
REMARK UNBOUND:                -3.444
REMARK SMILES CCCCCCCCCCCCCCCCCCCCCC(=O)[O-]
REMARK SMILES IDX 12 1 11 2 10 3 9 4 8 5 7 6 6 7 5 8 4 9 3 10 2 11 1 12 13 13
REMARK SMILES IDX 14 14 15 15 16 16 17 17 18 18 19 19 20 20 21 21 22 22 23 23
REMARK SMILES IDX 24 24
REMARK H PARENT
REMARK Flexibility Score: inf
ROOT
ATOM      1  C   UNL     1      35.774  56.600  27.614  1.00  0.00     0.000 C 
ENDROOT
BRANCH   1   2
ATOM      2  C   UNL     1      36.402  57.907  28.144  1.00  0.00     0.000 C 
BRANCH   2   3
ATOM      3  C   UNL     1      36.013  58.199  29.604  1.00  0.00     0.000 C 
BRANCH   3   4
ATOM      4  C   UNL     1      35.353  56.990  30.289  1.00  0.00    -0.000 C 
BRANCH   4   5
ATOM      5  C   UNL     1      34.386  57.403  31.410  1.00  0.00    -0.000 C 
BRANCH   5   6
ATOM      6  C   UNL     1      34.837  56.847  32.765  1.00  0.00    -0.000 C 
BRANCH   6   7
ATOM      7  C   UNL     1      33.717  56.983  33.808  1.00  0.00    -0.000 C 
BRANCH   7   8
ATOM      8  C   UNL     1      32.387  56.371  33.337  1.00  0.00    -0.000 C 
BRANCH   8   9
ATOM      9  C   UNL     1      31.957  55.170  34.197  1.00  0.00    -0.000 C 
BRANCH   9  10
ATOM     10  C   UNL     1      32.105  53.829  33.460  1.00  0.00    -0.000 C 
BRANCH  10  11
ATOM     11  C   UNL     1      33.304  53.007  33.959  1.00  0.00    -0.003 C 
ATOM     12  C   UNL     1      34.493  53.137  33.012  1.00  0.00     0.004 C 
ENDBRANCH  10  11
ENDBRANCH   9  10
ENDBRANCH   8   9
ENDBRANCH   7   8
ENDBRANCH   6   7
ENDBRANCH   5   6
ENDBRANCH   4   5
ENDBRANCH   3   4
ENDBRANCH   2   3
ENDBRANCH   1   2
BRANCH   1  13
ATOM     13  C   UNL     1      34.879  56.798  26.377  1.00  0.00     0.000 C 
BRANCH  13  14
ATOM     14  C   UNL     1      33.375  56.576  26.620  1.00  0.00     0.000 C 
BRANCH  14  15
ATOM     15  C   UNL     1      32.844  55.191  26.203  1.00  0.00     0.000 C 
BRANCH  15  16
ATOM     16  C   UNL     1      32.270  54.387  27.379  1.00  0.00     0.000 C 
BRANCH  16  17
ATOM     17  C   UNL     1      32.570  55.077  28.718  1.00  0.00     0.000 C 
BRANCH  17  18
ATOM     18  C   UNL     1      32.964  54.076  29.817  1.00  0.00     0.000 C 
BRANCH  18  19
ATOM     19  C   UNL     1      32.714  52.618  29.392  1.00  0.00     0.000 C 
BRANCH  19  20
ATOM     20  C   UNL     1      32.030  51.795  30.496  1.00  0.00     0.006 C 
BRANCH  20  21
ATOM     21  C   UNL     1      31.770  50.343  30.066  1.00  0.00     0.053 C 
BRANCH  21  22
ATOM     22  C   UNL     1      32.636  49.404  30.847  1.00  0.00     0.041 C 
ATOM     23  O   UNL     1      33.433  49.851  31.714  1.00  0.00    -0.550 OA
ATOM     24  O   UNL     1      32.523  48.032  30.660  1.00  0.00    -0.550 OA
ENDBRANCH  21  22
ENDBRANCH  20  21
ENDBRANCH  19  20
ENDBRANCH  18  19
ENDBRANCH  17  18
ENDBRANCH  16  17
ENDBRANCH  15  16
ENDBRANCH  14  15
ENDBRANCH  13  14
ENDBRANCH   1  13
TORSDOF 20
ENDMDL
MODEL 7
REMARK VINA RESULT:    -4.535      2.310      5.804
REMARK INTER + INTRA:         -13.282
REMARK INTER:                 -10.539
REMARK INTRA:                  -2.743
REMARK UNBOUND:                -3.444
REMARK SMILES CCCCCCCCCCCCCCCCCCCCCC(=O)[O-]
REMARK SMILES IDX 12 1 11 2 10 3 9 4 8 5 7 6 6 7 5 8 4 9 3 10 2 11 1 12 13 13
REMARK SMILES IDX 14 14 15 15 16 16 17 17 18 18 19 19 20 20 21 21 22 22 23 23
REMARK SMILES IDX 24 24
REMARK H PARENT
REMARK Flexibility Score: inf
ROOT
ATOM      1  C   UNL     1      34.166  57.189  33.439  1.00  0.00     0.000 C 
ENDROOT
BRANCH   1   2
ATOM      2  C   UNL     1      32.862  56.971  32.641  1.00  0.00     0.000 C 
BRANCH   2   3
ATOM      3  C   UNL     1      32.629  55.493  32.285  1.00  0.00     0.000 C 
BRANCH   3   4
ATOM      4  C   UNL     1      32.684  55.237  30.770  1.00  0.00    -0.000 C 
BRANCH   4   5
ATOM      5  C   UNL     1      33.393  53.919  30.420  1.00  0.00    -0.000 C 
BRANCH   5   6
ATOM      6  C   UNL     1      32.703  53.212  29.248  1.00  0.00    -0.000 C 
BRANCH   6   7
ATOM      7  C   UNL     1      32.691  51.690  29.462  1.00  0.00    -0.000 C 
BRANCH   7   8
ATOM      8  C   UNL     1      31.550  51.227  30.383  1.00  0.00    -0.000 C 
BRANCH   8   9
ATOM      9  C   UNL     1      32.026  50.977  31.825  1.00  0.00    -0.000 C 
BRANCH   9  10
ATOM     10  C   UNL     1      31.443  51.987  32.825  1.00  0.00    -0.000 C 
BRANCH  10  11
ATOM     11  C   UNL     1      32.403  52.294  33.986  1.00  0.00    -0.003 C 
ATOM     12  C   UNL     1      33.857  52.101  33.564  1.00  0.00     0.004 C 
ENDBRANCH  10  11
ENDBRANCH   9  10
ENDBRANCH   8   9
ENDBRANCH   7   8
ENDBRANCH   6   7
ENDBRANCH   5   6
ENDBRANCH   4   5
ENDBRANCH   3   4
ENDBRANCH   2   3
ENDBRANCH   1   2
BRANCH   1  13
ATOM     13  C   UNL     1      35.328  57.740  32.593  1.00  0.00     0.000 C 
BRANCH  13  14
ATOM     14  C   UNL     1      34.962  58.097  31.140  1.00  0.00     0.000 C 
BRANCH  14  15
ATOM     15  C   UNL     1      36.158  58.442  30.232  1.00  0.00     0.000 C 
BRANCH  15  16
ATOM     16  C   UNL     1      35.922  58.073  28.759  1.00  0.00     0.000 C 
BRANCH  16  17
ATOM     17  C   UNL     1      34.899  56.934  28.633  1.00  0.00     0.000 C 
BRANCH  17  18
ATOM     18  C   UNL     1      35.059  56.144  27.323  1.00  0.00     0.000 C 
BRANCH  18  19
ATOM     19  C   UNL     1      34.412  56.865  26.128  1.00  0.00     0.000 C 
BRANCH  19  20
ATOM     20  C   UNL     1      32.922  56.522  25.972  1.00  0.00     0.006 C 
BRANCH  20  21
ATOM     21  C   UNL     1      32.663  55.008  26.003  1.00  0.00     0.053 C 
BRANCH  21  22
ATOM     22  C   UNL     1      31.271  54.726  26.474  1.00  0.00     0.041 C 
ATOM     23  O   UNL     1      30.668  53.691  26.086  1.00  0.00    -0.550 OA
ATOM     24  O   UNL     1      30.658  55.576  27.388  1.00  0.00    -0.550 OA
ENDBRANCH  21  22
ENDBRANCH  20  21
ENDBRANCH  19  20
ENDBRANCH  18  19
ENDBRANCH  17  18
ENDBRANCH  16  17
ENDBRANCH  15  16
ENDBRANCH  14  15
ENDBRANCH  13  14
ENDBRANCH   1  13
TORSDOF 20
ENDMDL
MODEL 8
REMARK VINA RESULT:    -4.448      1.451      5.254
REMARK INTER + INTRA:         -13.092
REMARK INTER:                 -10.226
REMARK INTRA:                  -2.866
REMARK UNBOUND:                -3.444
REMARK SMILES CCCCCCCCCCCCCCCCCCCCCC(=O)[O-]
REMARK SMILES IDX 12 1 11 2 10 3 9 4 8 5 7 6 6 7 5 8 4 9 3 10 2 11 1 12 13 13
REMARK SMILES IDX 14 14 15 15 16 16 17 17 18 18 19 19 20 20 21 21 22 22 23 23
REMARK SMILES IDX 24 24
REMARK H PARENT
REMARK Flexibility Score: inf
ROOT
ATOM      1  C   UNL     1      35.934  56.338  27.399  1.00  0.00     0.000 C 
ENDROOT
BRANCH   1   2
ATOM      2  C   UNL     1      36.644  57.214  28.453  1.00  0.00     0.000 C 
BRANCH   2   3
ATOM      3  C   UNL     1      35.669  58.132  29.209  1.00  0.00     0.000 C 
BRANCH   3   4
ATOM      4  C   UNL     1      35.850  58.054  30.734  1.00  0.00    -0.000 C 
BRANCH   4   5
ATOM      5  C   UNL     1      34.544  57.708  31.466  1.00  0.00    -0.000 C 
BRANCH   5   6
ATOM      6  C   UNL     1      34.039  56.314  31.074  1.00  0.00    -0.000 C 
BRANCH   6   7
ATOM      7  C   UNL     1      32.622  56.077  31.618  1.00  0.00    -0.000 C 
BRANCH   7   8
ATOM      8  C   UNL     1      32.491  56.428  33.110  1.00  0.00    -0.000 C 
BRANCH   8   9
ATOM      9  C   UNL     1      32.186  55.194  33.977  1.00  0.00    -0.000 C 
BRANCH   9  10
ATOM     10  C   UNL     1      32.170  53.889  33.167  1.00  0.00    -0.000 C 
BRANCH  10  11
ATOM     11  C   UNL     1      33.305  52.931  33.563  1.00  0.00    -0.003 C 
ATOM     12  C   UNL     1      34.625  53.679  33.730  1.00  0.00     0.004 C 
ENDBRANCH  10  11
ENDBRANCH   9  10
ENDBRANCH   8   9
ENDBRANCH   7   8
ENDBRANCH   6   7
ENDBRANCH   5   6
ENDBRANCH   4   5
ENDBRANCH   3   4
ENDBRANCH   2   3
ENDBRANCH   1   2
BRANCH   1  13
ATOM     13  C   UNL     1      34.579  56.901  26.934  1.00  0.00     0.000 C 
BRANCH  13  14
ATOM     14  C   UNL     1      33.388  55.936  27.087  1.00  0.00     0.000 C 
BRANCH  14  15
ATOM     15  C   UNL     1      33.720  54.590  27.759  1.00  0.00     0.000 C 
BRANCH  15  16
ATOM     16  C   UNL     1      32.557  54.028  28.590  1.00  0.00     0.000 C 
BRANCH  16  17
ATOM     17  C   UNL     1      33.042  52.924  29.541  1.00  0.00     0.000 C 
BRANCH  17  18
ATOM     18  C   UNL     1      32.227  51.627  29.397  1.00  0.00     0.000 C 
BRANCH  18  19
ATOM     19  C   UNL     1      32.266  50.772  30.675  1.00  0.00     0.000 C 
BRANCH  19  20
ATOM     20  C   UNL     1      30.981  50.903  31.509  1.00  0.00     0.006 C 
BRANCH  20  21
ATOM     21  C   UNL     1      30.141  49.617  31.497  1.00  0.00     0.053 C 
BRANCH  21  22
ATOM     22  C   UNL     1      28.866  49.832  30.743  1.00  0.00     0.041 C 
ATOM     23  O   UNL     1      27.773  49.922  31.360  1.00  0.00    -0.550 OA
ATOM     24  O   UNL     1      28.892  49.991  29.362  1.00  0.00    -0.550 OA
ENDBRANCH  21  22
ENDBRANCH  20  21
ENDBRANCH  19  20
ENDBRANCH  18  19
ENDBRANCH  17  18
ENDBRANCH  16  17
ENDBRANCH  15  16
ENDBRANCH  14  15
ENDBRANCH  13  14
ENDBRANCH   1  13
TORSDOF 20
ENDMDL
MODEL 9
REMARK VINA RESULT:    -4.422      2.449      5.056
REMARK INTER + INTRA:         -13.037
REMARK INTER:                 -10.316
REMARK INTRA:                  -2.721
REMARK UNBOUND:                -3.444
REMARK SMILES CCCCCCCCCCCCCCCCCCCCCC(=O)[O-]
REMARK SMILES IDX 12 1 11 2 10 3 9 4 8 5 7 6 6 7 5 8 4 9 3 10 2 11 1 12 13 13
REMARK SMILES IDX 14 14 15 15 16 16 17 17 18 18 19 19 20 20 21 21 22 22 23 23
REMARK SMILES IDX 24 24
REMARK H PARENT
REMARK Flexibility Score: inf
ROOT
ATOM      1  C   UNL     1      32.384  53.896  27.581  1.00  0.00     0.000 C 
ENDROOT
BRANCH   1   2
ATOM      2  C   UNL     1      31.803  55.311  27.789  1.00  0.00     0.000 C 
BRANCH   2   3
ATOM      3  C   UNL     1      32.099  56.249  26.606  1.00  0.00     0.000 C 
BRANCH   3   4
ATOM      4  C   UNL     1      33.448  55.942  25.935  1.00  0.00    -0.000 C 
BRANCH   4   5
ATOM      5  C   UNL     1      34.524  56.988  26.269  1.00  0.00    -0.000 C 
BRANCH   5   6
ATOM      6  C   UNL     1      35.392  56.534  27.449  1.00  0.00    -0.000 C 
BRANCH   6   7
ATOM      7  C   UNL     1      35.992  57.745  28.179  1.00  0.00    -0.000 C 
BRANCH   7   8
ATOM      8  C   UNL     1      35.627  57.780  29.672  1.00  0.00    -0.000 C 
BRANCH   8   9
ATOM      9  C   UNL     1      34.626  56.676  30.057  1.00  0.00    -0.000 C 
BRANCH   9  10
ATOM     10  C   UNL     1      33.989  56.908  31.436  1.00  0.00    -0.000 C 
BRANCH  10  11
ATOM     11  C   UNL     1      32.750  56.030  31.672  1.00  0.00    -0.003 C 
ATOM     12  C   UNL     1      32.336  56.044  33.141  1.00  0.00     0.004 C 
ENDBRANCH  10  11
ENDBRANCH   9  10
ENDBRANCH   8   9
ENDBRANCH   7   8
ENDBRANCH   6   7
ENDBRANCH   5   6
ENDBRANCH   4   5
ENDBRANCH   3   4
ENDBRANCH   2   3
ENDBRANCH   1   2
BRANCH   1  13
ATOM     13  C   UNL     1      33.390  53.472  28.667  1.00  0.00     0.000 C 
BRANCH  13  14
ATOM     14  C   UNL     1      32.783  52.683  29.843  1.00  0.00     0.000 C 
BRANCH  14  15
ATOM     15  C   UNL     1      32.087  51.365  29.455  1.00  0.00     0.000 C 
BRANCH  15  16
ATOM     16  C   UNL     1      31.592  50.565  30.669  1.00  0.00     0.000 C 
BRANCH  16  17
ATOM     17  C   UNL     1      30.635  51.404  31.529  1.00  0.00     0.000 C 
BRANCH  17  18
ATOM     18  C   UNL     1      30.999  51.360  33.022  1.00  0.00     0.000 C 
BRANCH  18  19
ATOM     19  C   UNL     1      32.051  52.419  33.395  1.00  0.00     0.000 C 
BRANCH  19  20
ATOM     20  C   UNL     1      33.169  51.849  34.283  1.00  0.00     0.006 C 
BRANCH  20  21
ATOM     21  C   UNL     1      33.818  50.596  33.676  1.00  0.00     0.053 C 
BRANCH  21  22
ATOM     22  C   UNL     1      35.262  50.850  33.374  1.00  0.00     0.041 C 
ATOM     23  O   UNL     1      36.157  50.382  34.125  1.00  0.00    -0.550 OA
ATOM     24  O   UNL     1      35.621  51.555  32.231  1.00  0.00    -0.550 OA
ENDBRANCH  21  22
ENDBRANCH  20  21
ENDBRANCH  19  20
ENDBRANCH  18  19
ENDBRANCH  17  18
ENDBRANCH  16  17
ENDBRANCH  15  16
ENDBRANCH  14  15
ENDBRANCH  13  14
ENDBRANCH   1  13
TORSDOF 20
ENDMDL
