MODEL 1
REMARK VINA RESULT:    -4.773      0.000      0.000
REMARK INTER + INTRA:          -5.838
REMARK INTER:                  -6.029
REMARK INTRA:                   0.192
REMARK UNBOUND:                 0.192
REMARK SMILES COc1cc(O)c2c(=O)c(OC)c(-c3ccc(O)c(O)c3)oc2c1
REMARK SMILES IDX 3 1 4 2 5 3 7 4 23 5 24 6 22 7 13 8 10 9 8 10 9 11 2 12 1 13
REMARK SMILES IDX 6 14 14 16 21 17 15 18 19 19 16 20 17 21 20 22 18 24 11 26
REMARK SMILES IDX 12 27
REMARK H PARENT 6 15 20 23 18 25
REMARK Flexibility Score: inf
ROOT
ATOM      1  C   UNL     1      -3.683  12.327 -31.700  1.00  0.00     0.126 A 
ATOM      2  C   UNL     1      -4.404  11.222 -31.222  1.00  0.00     0.093 A 
ATOM      3  C   UNL     1      -4.665  11.063 -29.855  1.00  0.00     0.134 A 
ATOM      4  C   UNL     1      -4.259  12.077 -28.936  1.00  0.00     0.111 A 
ATOM      5  C   UNL     1      -3.513  13.173 -29.432  1.00  0.00     0.146 A 
ATOM      6  C   UNL     1      -3.229  13.284 -30.795  1.00  0.00     0.094 A 
ATOM      7  O   UNL     1      -3.078  14.124 -28.617  1.00  0.00    -0.452 OA
ATOM      8  C   UNL     1      -3.316  14.136 -27.312  1.00  0.00     0.180 A 
ATOM      9  C   UNL     1      -4.064  13.102 -26.719  1.00  0.00     0.210 A 
ATOM     10  C   UNL     1      -4.575  12.082 -27.555  1.00  0.00     0.239 A 
ATOM     11  O   UNL     1      -5.338  11.207 -27.073  1.00  0.00    -0.285 OA
ENDROOT
BRANCH   1  12
ATOM     12  O   UNL     1      -3.390  12.506 -33.060  1.00  0.00    -0.496 OA
ATOM     13  C   UNL     1      -4.280  12.185 -34.124  1.00  0.00     0.278 C 
ENDBRANCH   1  12
BRANCH   3  14
ATOM     14  O   UNL     1      -5.297   9.875 -29.477  1.00  0.00    -0.507 OA
ATOM     15  H   UNL     1      -5.089   8.967 -29.866  1.00  0.00     0.293 HD
ENDBRANCH   3  14
BRANCH   8  16
ATOM     16  C   UNL     1      -2.765  15.259 -26.520  1.00  0.00     0.025 A 
ATOM     17  C   UNL     1      -1.653  15.039 -25.690  1.00  0.00     0.062 A 
ATOM     18  C   UNL     1      -3.291  16.558 -26.627  1.00  0.00     0.016 A 
ATOM     19  C   UNL     1      -1.097  16.089 -24.948  1.00  0.00     0.158 A 
ATOM     20  C   UNL     1      -2.738  17.608 -25.890  1.00  0.00     0.051 A 
ATOM     21  C   UNL     1      -1.644  17.380 -25.046  1.00  0.00     0.157 A 
BRANCH  19  22
ATOM     22  O   UNL     1      -0.003  15.829 -24.124  1.00  0.00    -0.504 OA
ATOM     23  H   UNL     1       0.828  16.411 -24.134  1.00  0.00     0.293 HD
ENDBRANCH  19  22
BRANCH  21  24
ATOM     24  O   UNL     1      -1.095  18.429 -24.310  1.00  0.00    -0.504 OA
ATOM     25  H   UNL     1      -1.348  18.586 -23.341  1.00  0.00     0.293 HD
ENDBRANCH  21  24
ENDBRANCH   8  16
BRANCH   9  26
ATOM     26  O   UNL     1      -4.245  13.128 -25.321  1.00  0.00    -0.490 OA
ATOM     27  C   UNL     1      -5.292  12.500 -24.588  1.00  0.00     0.278 C 
ENDBRANCH   9  26
TORSDOF 6
ENDMDL
MODEL 2
REMARK VINA RESULT:    -4.746      2.932      7.104
REMARK INTER + INTRA:          -5.803
REMARK INTER:                  -5.405
REMARK INTRA:                  -0.398
REMARK UNBOUND:                 0.192
REMARK SMILES COc1cc(O)c2c(=O)c(OC)c(-c3ccc(O)c(O)c3)oc2c1
REMARK SMILES IDX 3 1 4 2 5 3 7 4 23 5 24 6 22 7 13 8 10 9 8 10 9 11 2 12 1 13
REMARK SMILES IDX 6 14 14 16 21 17 15 18 19 19 16 20 17 21 20 22 18 24 11 26
REMARK SMILES IDX 12 27
REMARK H PARENT 6 15 20 23 18 25
REMARK Flexibility Score: inf
ROOT
ATOM      1  C   UNL     1      -2.871  20.772 -28.915  1.00  0.00     0.126 A 
ATOM      2  C   UNL     1      -1.754  21.111 -28.136  1.00  0.00     0.093 A 
ATOM      3  C   UNL     1      -1.136  20.168 -27.305  1.00  0.00     0.134 A 
ATOM      4  C   UNL     1      -1.600  18.818 -27.302  1.00  0.00     0.111 A 
ATOM      5  C   UNL     1      -2.742  18.499 -28.076  1.00  0.00     0.146 A 
ATOM      6  C   UNL     1      -3.365  19.471 -28.862  1.00  0.00     0.094 A 
ATOM      7  O   UNL     1      -3.238  17.269 -28.082  1.00  0.00    -0.452 OA
ATOM      8  C   UNL     1      -2.709  16.263 -27.398  1.00  0.00     0.180 A 
ATOM      9  C   UNL     1      -1.561  16.467 -26.610  1.00  0.00     0.210 A 
ATOM     10  C   UNL     1      -0.978  17.757 -26.600  1.00  0.00     0.239 A 
ATOM     11  O   UNL     1       0.108  17.943 -25.995  1.00  0.00    -0.285 OA
ENDROOT
BRANCH   1  12
ATOM     12  O   UNL     1      -3.523  21.699 -29.743  1.00  0.00    -0.496 OA
ATOM     13  C   UNL     1      -4.524  21.361 -30.698  1.00  0.00     0.278 C 
ENDBRANCH   1  12
BRANCH   3  14
ATOM     14  O   UNL     1      -0.100  20.638 -26.493  1.00  0.00    -0.507 OA
ATOM     15  H   UNL     1      -0.173  21.431 -25.872  1.00  0.00     0.293 HD
ENDBRANCH   3  14
BRANCH   8  16
ATOM     16  C   UNL     1      -3.370  14.941 -27.492  1.00  0.00     0.025 A 
ATOM     17  C   UNL     1      -4.255  14.538 -26.479  1.00  0.00     0.062 A 
ATOM     18  C   UNL     1      -3.179  14.105 -28.606  1.00  0.00     0.016 A 
ATOM     19  C   UNL     1      -4.912  13.303 -26.555  1.00  0.00     0.158 A 
ATOM     20  C   UNL     1      -3.834  12.873 -28.686  1.00  0.00     0.051 A 
ATOM     21  C   UNL     1      -4.699  12.465 -27.663  1.00  0.00     0.157 A 
BRANCH  19  22
ATOM     22  O   UNL     1      -5.773  12.930 -25.523  1.00  0.00    -0.504 OA
ATOM     23  H   UNL     1      -5.826  11.976 -25.185  1.00  0.00     0.293 HD
ENDBRANCH  19  22
BRANCH  21  24
ATOM     24  O   UNL     1      -5.349  11.235 -27.743  1.00  0.00    -0.504 OA
ATOM     25  H   UNL     1      -4.925  10.386 -27.387  1.00  0.00     0.293 HD
ENDBRANCH  21  24
ENDBRANCH   8  16
BRANCH   9  26
ATOM     26  O   UNL     1      -1.066  15.382 -25.859  1.00  0.00    -0.490 OA
ATOM     27  C   UNL     1      -0.189  14.359 -26.319  1.00  0.00     0.278 C 
ENDBRANCH   9  26
TORSDOF 6
ENDMDL
MODEL 3
REMARK VINA RESULT:    -4.599      3.557      5.159
REMARK INTER + INTRA:          -5.618
REMARK INTER:                  -5.394
REMARK INTRA:                  -0.224
REMARK UNBOUND:                 0.192
REMARK SMILES COc1cc(O)c2c(=O)c(OC)c(-c3ccc(O)c(O)c3)oc2c1
REMARK SMILES IDX 3 1 4 2 5 3 7 4 23 5 24 6 22 7 13 8 10 9 8 10 9 11 2 12 1 13
REMARK SMILES IDX 6 14 14 16 21 17 15 18 19 19 16 20 17 21 20 22 18 24 11 26
REMARK SMILES IDX 12 27
REMARK H PARENT 6 15 20 23 18 25
REMARK Flexibility Score: inf
ROOT
ATOM      1  C   UNL     1      -2.685  11.683 -29.603  1.00  0.00     0.126 A 
ATOM      2  C   UNL     1      -1.771  11.734 -28.539  1.00  0.00     0.093 A 
ATOM      3  C   UNL     1      -1.602  12.903 -27.785  1.00  0.00     0.134 A 
ATOM      4  C   UNL     1      -2.423  14.039 -28.050  1.00  0.00     0.111 A 
ATOM      5  C   UNL     1      -3.324  13.978 -29.141  1.00  0.00     0.146 A 
ATOM      6  C   UNL     1      -3.441  12.814 -29.904  1.00  0.00     0.094 A 
ATOM      7  O   UNL     1      -4.084  15.017 -29.455  1.00  0.00    -0.452 OA
ATOM      8  C   UNL     1      -4.077  16.160 -28.780  1.00  0.00     0.180 A 
ATOM      9  C   UNL     1      -3.231  16.321 -27.667  1.00  0.00     0.210 A 
ATOM     10  C   UNL     1      -2.426  15.226 -27.276  1.00  0.00     0.239 A 
ATOM     11  O   UNL     1      -1.743  15.301 -26.222  1.00  0.00    -0.285 OA
ENDROOT
BRANCH   1  12
ATOM     12  O   UNL     1      -2.865  10.534 -30.388  1.00  0.00    -0.496 OA
ATOM     13  C   UNL     1      -4.047  10.240 -31.126  1.00  0.00     0.278 C 
ENDBRANCH   1  12
BRANCH   3  14
ATOM     14  O   UNL     1      -0.591  12.879 -26.821  1.00  0.00    -0.507 OA
ATOM     15  H   UNL     1       0.362  12.591 -26.995  1.00  0.00     0.293 HD
ENDBRANCH   3  14
BRANCH   8  16
ATOM     16  C   UNL     1      -4.976  17.241 -29.245  1.00  0.00     0.025 A 
ATOM     17  C   UNL     1      -4.423  18.419 -29.776  1.00  0.00     0.062 A 
ATOM     18  C   UNL     1      -6.373  17.091 -29.226  1.00  0.00     0.016 A 
ATOM     19  C   UNL     1      -5.250  19.447 -30.245  1.00  0.00     0.158 A 
ATOM     20  C   UNL     1      -7.201  18.114 -29.693  1.00  0.00     0.051 A 
ATOM     21  C   UNL     1      -6.646  19.296 -30.201  1.00  0.00     0.157 A 
BRANCH  19  22
ATOM     22  O   UNL     1      -4.665  20.608 -30.751  1.00  0.00    -0.504 OA
ATOM     23  H   UNL     1      -3.904  20.578 -31.421  1.00  0.00     0.293 HD
ENDBRANCH  19  22
BRANCH  21  24
ATOM     24  O   UNL     1      -7.474  20.316 -30.666  1.00  0.00    -0.504 OA
ATOM     25  H   UNL     1      -7.153  21.276 -30.723  1.00  0.00     0.293 HD
ENDBRANCH  21  24
ENDBRANCH   8  16
BRANCH   9  26
ATOM     26  O   UNL     1      -3.218  17.571 -27.015  1.00  0.00    -0.490 OA
ATOM     27  C   UNL     1      -2.118  18.470 -26.923  1.00  0.00     0.278 C 
ENDBRANCH   9  26
TORSDOF 6
ENDMDL
MODEL 4
REMARK VINA RESULT:    -4.551      3.543      7.226
REMARK INTER + INTRA:          -5.557
REMARK INTER:                  -5.929
REMARK INTRA:                   0.372
REMARK UNBOUND:                 0.192
REMARK SMILES COc1cc(O)c2c(=O)c(OC)c(-c3ccc(O)c(O)c3)oc2c1
REMARK SMILES IDX 3 1 4 2 5 3 7 4 23 5 24 6 22 7 13 8 10 9 8 10 9 11 2 12 1 13
REMARK SMILES IDX 6 14 14 16 21 17 15 18 19 19 16 20 17 21 20 22 18 24 11 26
REMARK SMILES IDX 12 27
REMARK H PARENT 6 15 20 23 18 25
REMARK Flexibility Score: inf
ROOT
ATOM      1  C   UNL     1      -0.516  18.013 -25.369  1.00  0.00     0.126 A 
ATOM      2  C   UNL     1      -0.083  16.682 -25.272  1.00  0.00     0.093 A 
ATOM      3  C   UNL     1      -0.756  15.650 -25.940  1.00  0.00     0.134 A 
ATOM      4  C   UNL     1      -1.856  15.961 -26.793  1.00  0.00     0.111 A 
ATOM      5  C   UNL     1      -2.294  17.306 -26.862  1.00  0.00     0.146 A 
ATOM      6  C   UNL     1      -1.631  18.308 -26.151  1.00  0.00     0.094 A 
ATOM      7  O   UNL     1      -3.334  17.645 -27.610  1.00  0.00    -0.452 OA
ATOM      8  C   UNL     1      -4.018  16.781 -28.350  1.00  0.00     0.180 A 
ATOM      9  C   UNL     1      -3.655  15.422 -28.368  1.00  0.00     0.210 A 
ATOM     10  C   UNL     1      -2.530  15.020 -27.610  1.00  0.00     0.239 A 
ATOM     11  O   UNL     1      -2.115  13.836 -27.693  1.00  0.00    -0.285 OA
ENDROOT
BRANCH   1  12
ATOM     12  O   UNL     1       0.125  19.066 -24.700  1.00  0.00    -0.496 OA
ATOM     13  C   UNL     1       0.120  19.243 -23.287  1.00  0.00     0.278 C 
ENDBRANCH   1  12
BRANCH   3  14
ATOM     14  O   UNL     1      -0.305  14.351 -25.689  1.00  0.00    -0.507 OA
ATOM     15  H   UNL     1      -0.886  13.598 -25.348  1.00  0.00     0.293 HD
ENDBRANCH   3  14
BRANCH   8  16
ATOM     16  C   UNL     1      -5.163  17.298 -29.134  1.00  0.00     0.025 A 
ATOM     17  C   UNL     1      -5.139  18.622 -29.601  1.00  0.00     0.062 A 
ATOM     18  C   UNL     1      -6.248  16.472 -29.475  1.00  0.00     0.016 A 
ATOM     19  C   UNL     1      -6.197  19.129 -30.365  1.00  0.00     0.158 A 
ATOM     20  C   UNL     1      -7.306  16.974 -30.237  1.00  0.00     0.051 A 
ATOM     21  C   UNL     1      -7.288  18.302 -30.683  1.00  0.00     0.157 A 
BRANCH  19  22
ATOM     22  O   UNL     1      -6.145  20.453 -30.799  1.00  0.00    -0.504 OA
ATOM     23  H   UNL     1      -6.972  20.950 -31.109  1.00  0.00     0.293 HD
ENDBRANCH  19  22
BRANCH  21  24
ATOM     24  O   UNL     1      -8.345  18.801 -31.442  1.00  0.00    -0.504 OA
ATOM     25  H   UNL     1      -9.273  18.916 -31.049  1.00  0.00     0.293 HD
ENDBRANCH  21  24
ENDBRANCH   8  16
BRANCH   9  26
ATOM     26  O   UNL     1      -4.443  14.531 -29.126  1.00  0.00    -0.490 OA
ATOM     27  C   UNL     1      -4.057  13.862 -30.322  1.00  0.00     0.278 C 
ENDBRANCH   9  26
TORSDOF 6
ENDMDL
MODEL 5
REMARK VINA RESULT:    -4.494      3.549      6.118
REMARK INTER + INTRA:          -5.484
REMARK INTER:                  -5.012
REMARK INTRA:                  -0.472
REMARK UNBOUND:                 0.192
REMARK SMILES COc1cc(O)c2c(=O)c(OC)c(-c3ccc(O)c(O)c3)oc2c1
REMARK SMILES IDX 3 1 4 2 5 3 7 4 23 5 24 6 22 7 13 8 10 9 8 10 9 11 2 12 1 13
REMARK SMILES IDX 6 14 14 16 21 17 15 18 19 19 16 20 17 21 20 22 18 24 11 26
REMARK SMILES IDX 12 27
REMARK H PARENT 6 15 20 23 18 25
REMARK Flexibility Score: inf
ROOT
ATOM      1  C   UNL     1      -6.835  18.219 -30.410  1.00  0.00     0.126 A 
ATOM      2  C   UNL     1      -5.745  19.103 -30.354  1.00  0.00     0.093 A 
ATOM      3  C   UNL     1      -4.602  18.797 -29.604  1.00  0.00     0.134 A 
ATOM      4  C   UNL     1      -4.507  17.535 -28.945  1.00  0.00     0.111 A 
ATOM      5  C   UNL     1      -5.624  16.666 -28.993  1.00  0.00     0.146 A 
ATOM      6  C   UNL     1      -6.769  17.016 -29.712  1.00  0.00     0.094 A 
ATOM      7  O   UNL     1      -5.604  15.498 -28.367  1.00  0.00    -0.452 OA
ATOM      8  C   UNL     1      -4.559  15.051 -27.681  1.00  0.00     0.180 A 
ATOM      9  C   UNL     1      -3.391  15.829 -27.585  1.00  0.00     0.210 A 
ATOM     10  C   UNL     1      -3.355  17.070 -28.264  1.00  0.00     0.239 A 
ATOM     11  O   UNL     1      -2.288  17.735 -28.289  1.00  0.00    -0.285 OA
ENDROOT
BRANCH   1  12
ATOM     12  O   UNL     1      -8.001  18.505 -31.137  1.00  0.00    -0.496 OA
ATOM     13  C   UNL     1      -8.079  18.520 -32.558  1.00  0.00     0.278 C 
ENDBRANCH   1  12
BRANCH   3  14
ATOM     14  O   UNL     1      -3.623  19.792 -29.531  1.00  0.00    -0.507 OA
ATOM     15  H   UNL     1      -3.715  20.649 -29.006  1.00  0.00     0.293 HD
ENDBRANCH   3  14
BRANCH   8  16
ATOM     16  C   UNL     1      -4.677  13.728 -27.027  1.00  0.00     0.025 A 
ATOM     17  C   UNL     1      -4.144  12.594 -27.661  1.00  0.00     0.062 A 
ATOM     18  C   UNL     1      -5.257  13.590 -25.754  1.00  0.00     0.016 A 
ATOM     19  C   UNL     1      -4.221  11.334 -27.054  1.00  0.00     0.158 A 
ATOM     20  C   UNL     1      -5.335  12.336 -25.145  1.00  0.00     0.051 A 
ATOM     21  C   UNL     1      -4.822  11.204 -25.790  1.00  0.00     0.157 A 
BRANCH  19  22
ATOM     22  O   UNL     1      -3.694  10.229 -27.720  1.00  0.00    -0.504 OA
ATOM     23  H   UNL     1      -2.986   9.636 -27.301  1.00  0.00     0.293 HD
ENDBRANCH  19  22
BRANCH  21  24
ATOM     24  O   UNL     1      -4.902   9.952 -25.181  1.00  0.00    -0.504 OA
ATOM     25  H   UNL     1      -4.607   9.109 -25.659  1.00  0.00     0.293 HD
ENDBRANCH  21  24
ENDBRANCH   8  16
BRANCH   9  26
ATOM     26  O   UNL     1      -2.326  15.339 -26.801  1.00  0.00    -0.490 OA
ATOM     27  C   UNL     1      -2.006  15.722 -25.468  1.00  0.00     0.278 C 
ENDBRANCH   9  26
TORSDOF 6
ENDMDL
MODEL 6
REMARK VINA RESULT:    -4.413      2.100      3.168
REMARK INTER + INTRA:          -5.382
REMARK INTER:                  -5.311
REMARK INTRA:                  -0.071
REMARK UNBOUND:                 0.192
REMARK SMILES COc1cc(O)c2c(=O)c(OC)c(-c3ccc(O)c(O)c3)oc2c1
REMARK SMILES IDX 3 1 4 2 5 3 7 4 23 5 24 6 22 7 13 8 10 9 8 10 9 11 2 12 1 13
REMARK SMILES IDX 6 14 14 16 21 17 15 18 19 19 16 20 17 21 20 22 18 24 11 26
REMARK SMILES IDX 12 27
REMARK H PARENT 6 15 20 23 18 25
REMARK Flexibility Score: inf
ROOT
ATOM      1  C   UNL     1      -3.798  12.055 -29.933  1.00  0.00     0.126 A 
ATOM      2  C   UNL     1      -4.376  11.433 -28.815  1.00  0.00     0.093 A 
ATOM      3  C   UNL     1      -4.319  12.024 -27.547  1.00  0.00     0.134 A 
ATOM      4  C   UNL     1      -3.730  13.315 -27.395  1.00  0.00     0.111 A 
ATOM      5  C   UNL     1      -3.132  13.918 -28.528  1.00  0.00     0.146 A 
ATOM      6  C   UNL     1      -3.165  13.285 -29.773  1.00  0.00     0.094 A 
ATOM      7  O   UNL     1      -2.537  15.099 -28.435  1.00  0.00    -0.452 OA
ATOM      8  C   UNL     1      -2.475  15.802 -27.312  1.00  0.00     0.180 A 
ATOM      9  C   UNL     1      -3.054  15.302 -26.131  1.00  0.00     0.210 A 
ATOM     10  C   UNL     1      -3.727  14.059 -26.190  1.00  0.00     0.239 A 
ATOM     11  O   UNL     1      -4.348  13.640 -25.180  1.00  0.00    -0.285 OA
ENDROOT
BRANCH   1  12
ATOM     12  O   UNL     1      -3.822  11.481 -31.213  1.00  0.00    -0.496 OA
ATOM     13  C   UNL     1      -4.363  12.112 -32.369  1.00  0.00     0.278 C 
ENDBRANCH   1  12
BRANCH   3  14
ATOM     14  O   UNL     1      -4.832  11.271 -26.487  1.00  0.00    -0.507 OA
ATOM     15  H   UNL     1      -4.914  11.601 -25.536  1.00  0.00     0.293 HD
ENDBRANCH   3  14
BRANCH   8  16
ATOM     16  C   UNL     1      -1.775  17.106 -27.351  1.00  0.00     0.025 A 
ATOM     17  C   UNL     1      -2.410  18.214 -27.935  1.00  0.00     0.062 A 
ATOM     18  C   UNL     1      -0.510  17.276 -26.762  1.00  0.00     0.016 A 
ATOM     19  C   UNL     1      -1.781  19.464 -27.966  1.00  0.00     0.158 A 
ATOM     20  C   UNL     1       0.121  18.522 -26.789  1.00  0.00     0.051 A 
ATOM     21  C   UNL     1      -0.507  19.619 -27.391  1.00  0.00     0.157 A 
BRANCH  19  22
ATOM     22  O   UNL     1      -2.437  20.538 -28.567  1.00  0.00    -0.504 OA
ATOM     23  H   UNL     1      -3.113  21.103 -28.066  1.00  0.00     0.293 HD
ENDBRANCH  19  22
BRANCH  21  24
ATOM     24  O   UNL     1       0.125  20.861 -27.419  1.00  0.00    -0.504 OA
ATOM     25  H   UNL     1       0.200  21.437 -26.588  1.00  0.00     0.293 HD
ENDBRANCH  21  24
ENDBRANCH   8  16
BRANCH   9  26
ATOM     26  O   UNL     1      -2.915  16.058 -24.949  1.00  0.00    -0.490 OA
ATOM     27  C   UNL     1      -1.810  16.035 -24.050  1.00  0.00     0.278 C 
ENDBRANCH   9  26
TORSDOF 6
ENDMDL
MODEL 7
REMARK VINA RESULT:    -3.827      1.713      6.889
REMARK INTER + INTRA:          -4.643
REMARK INTER:                  -5.330
REMARK INTRA:                   0.687
REMARK UNBOUND:                 0.192
REMARK SMILES COc1cc(O)c2c(=O)c(OC)c(-c3ccc(O)c(O)c3)oc2c1
REMARK SMILES IDX 3 1 4 2 5 3 7 4 23 5 24 6 22 7 13 8 10 9 8 10 9 11 2 12 1 13
REMARK SMILES IDX 6 14 14 16 21 17 15 18 19 19 16 20 17 21 20 22 18 24 11 26
REMARK SMILES IDX 12 27
REMARK H PARENT 6 15 20 23 18 25
REMARK Flexibility Score: inf
ROOT
ATOM      1  C   UNL     1      -2.031  18.809 -27.432  1.00  0.00     0.126 A 
ATOM      2  C   UNL     1      -1.890  18.665 -26.042  1.00  0.00     0.093 A 
ATOM      3  C   UNL     1      -2.158  17.444 -25.410  1.00  0.00     0.134 A 
ATOM      4  C   UNL     1      -2.506  16.304 -26.194  1.00  0.00     0.111 A 
ATOM      5  C   UNL     1      -2.666  16.472 -27.590  1.00  0.00     0.146 A 
ATOM      6  C   UNL     1      -2.435  17.712 -28.190  1.00  0.00     0.094 A 
ATOM      7  O   UNL     1      -3.025  15.456 -28.361  1.00  0.00    -0.452 OA
ATOM      8  C   UNL     1      -3.239  14.229 -27.903  1.00  0.00     0.180 A 
ATOM      9  C   UNL     1      -3.091  13.948 -26.532  1.00  0.00     0.210 A 
ATOM     10  C   UNL     1      -2.677  14.996 -25.677  1.00  0.00     0.239 A 
ATOM     11  O   UNL     1      -2.429  14.751 -24.468  1.00  0.00    -0.285 OA
ENDROOT
BRANCH   1  12
ATOM     12  O   UNL     1      -1.788  20.022 -28.093  1.00  0.00    -0.496 OA
ATOM     13  C   UNL     1      -1.417  21.233 -27.442  1.00  0.00     0.278 C 
ENDBRANCH   1  12
BRANCH   3  14
ATOM     14  O   UNL     1      -2.090  17.440 -24.014  1.00  0.00    -0.507 OA
ATOM     15  H   UNL     1      -2.070  16.607 -23.443  1.00  0.00     0.293 HD
ENDBRANCH   3  14
BRANCH   8  16
ATOM     16  C   UNL     1      -3.641  13.189 -28.878  1.00  0.00     0.025 A 
ATOM     17  C   UNL     1      -3.298  13.340 -30.232  1.00  0.00     0.062 A 
ATOM     18  C   UNL     1      -4.305  12.020 -28.468  1.00  0.00     0.016 A 
ATOM     19  C   UNL     1      -3.646  12.361 -31.170  1.00  0.00     0.158 A 
ATOM     20  C   UNL     1      -4.653  11.040 -29.401  1.00  0.00     0.051 A 
ATOM     21  C   UNL     1      -4.328  11.206 -30.754  1.00  0.00     0.157 A 
BRANCH  19  22
ATOM     22  O   UNL     1      -3.301  12.553 -32.508  1.00  0.00    -0.504 OA
ATOM     23  H   UNL     1      -3.246  11.783 -33.165  1.00  0.00     0.293 HD
ENDBRANCH  19  22
BRANCH  21  24
ATOM     24  O   UNL     1      -4.678  10.227 -31.683  1.00  0.00    -0.504 OA
ATOM     25  H   UNL     1      -5.636  10.105 -31.991  1.00  0.00     0.293 HD
ENDBRANCH  21  24
ENDBRANCH   8  16
BRANCH   9  26
ATOM     26  O   UNL     1      -3.382  12.644 -26.084  1.00  0.00    -0.490 OA
ATOM     27  C   UNL     1      -4.540  12.231 -25.366  1.00  0.00     0.278 C 
ENDBRANCH   9  26
TORSDOF 6
ENDMDL
MODEL 8
REMARK VINA RESULT:    -3.602      3.600      7.651
REMARK INTER + INTRA:          -4.358
REMARK INTER:                  -4.052
REMARK INTRA:                  -0.306
REMARK UNBOUND:                 0.192
REMARK SMILES COc1cc(O)c2c(=O)c(OC)c(-c3ccc(O)c(O)c3)oc2c1
REMARK SMILES IDX 3 1 4 2 5 3 7 4 23 5 24 6 22 7 13 8 10 9 8 10 9 11 2 12 1 13
REMARK SMILES IDX 6 14 14 16 21 17 15 18 19 19 16 20 17 21 20 22 18 24 11 26
REMARK SMILES IDX 12 27
REMARK H PARENT 6 15 20 23 18 25
REMARK Flexibility Score: inf
ROOT
ATOM      1  C   UNL     1      -1.265  20.611 -27.454  1.00  0.00     0.126 A 
ATOM      2  C   UNL     1      -1.989  21.407 -28.356  1.00  0.00     0.093 A 
ATOM      3  C   UNL     1      -3.026  20.866 -29.127  1.00  0.00     0.134 A 
ATOM      4  C   UNL     1      -3.407  19.503 -28.943  1.00  0.00     0.111 A 
ATOM      5  C   UNL     1      -2.651  18.710 -28.047  1.00  0.00     0.146 A 
ATOM      6  C   UNL     1      -1.593  19.264 -27.322  1.00  0.00     0.094 A 
ATOM      7  O   UNL     1      -2.937  17.428 -27.865  1.00  0.00    -0.452 OA
ATOM      8  C   UNL     1      -3.938  16.808 -28.476  1.00  0.00     0.180 A 
ATOM      9  C   UNL     1      -4.763  17.509 -29.375  1.00  0.00     0.210 A 
ATOM     10  C   UNL     1      -4.515  18.887 -29.575  1.00  0.00     0.239 A 
ATOM     11  O   UNL     1      -5.301  19.564 -30.286  1.00  0.00    -0.285 OA
ENDROOT
BRANCH   1  12
ATOM     12  O   UNL     1      -0.209  21.118 -26.681  1.00  0.00    -0.496 OA
ATOM     13  C   UNL     1       0.125  22.499 -26.581  1.00  0.00     0.278 C 
ENDBRANCH   1  12
BRANCH   3  14
ATOM     14  O   UNL     1      -3.609  21.719 -30.069  1.00  0.00    -0.507 OA
ATOM     15  H   UNL     1      -3.283  22.652 -30.277  1.00  0.00     0.293 HD
ENDBRANCH   3  14
BRANCH   8  16
ATOM     16  C   UNL     1      -4.141  15.370 -28.183  1.00  0.00     0.025 A 
ATOM     17  C   UNL     1      -4.836  14.993 -27.022  1.00  0.00     0.062 A 
ATOM     18  C   UNL     1      -3.706  14.373 -29.074  1.00  0.00     0.016 A 
ATOM     19  C   UNL     1      -5.061  13.641 -26.733  1.00  0.00     0.158 A 
ATOM     20  C   UNL     1      -3.930  13.024 -28.789  1.00  0.00     0.051 A 
ATOM     21  C   UNL     1      -4.604  12.652 -27.620  1.00  0.00     0.157 A 
BRANCH  19  22
ATOM     22  O   UNL     1      -5.743  13.304 -25.564  1.00  0.00    -0.504 OA
ATOM     23  H   UNL     1      -6.025  12.352 -25.362  1.00  0.00     0.293 HD
ENDBRANCH  19  22
BRANCH  21  24
ATOM     24  O   UNL     1      -4.825  11.304 -27.337  1.00  0.00    -0.504 OA
ATOM     25  H   UNL     1      -4.265  10.806 -26.655  1.00  0.00     0.293 HD
ENDBRANCH  21  24
ENDBRANCH   8  16
BRANCH   9  26
ATOM     26  O   UNL     1      -5.780  16.795 -30.042  1.00  0.00    -0.490 OA
ATOM     27  C   UNL     1      -7.183  17.006 -29.926  1.00  0.00     0.278 C 
ENDBRANCH   9  26
TORSDOF 6
ENDMDL
MODEL 9
REMARK VINA RESULT:    -2.899      2.398      7.326
REMARK INTER + INTRA:          -3.470
REMARK INTER:                  -2.976
REMARK INTRA:                  -0.494
REMARK UNBOUND:                 0.192
REMARK SMILES COc1cc(O)c2c(=O)c(OC)c(-c3ccc(O)c(O)c3)oc2c1
REMARK SMILES IDX 3 1 4 2 5 3 7 4 23 5 24 6 22 7 13 8 10 9 8 10 9 11 2 12 1 13
REMARK SMILES IDX 6 14 14 16 21 17 15 18 19 19 16 20 17 21 20 22 18 24 11 26
REMARK SMILES IDX 12 27
REMARK H PARENT 6 15 20 23 18 25
REMARK Flexibility Score: inf
ROOT
ATOM      1  C   UNL     1      -0.680  18.195 -24.810  1.00  0.00     0.126 A 
ATOM      2  C   UNL     1      -0.825  19.026 -25.932  1.00  0.00     0.093 A 
ATOM      3  C   UNL     1      -1.622  18.644 -27.018  1.00  0.00     0.134 A 
ATOM      4  C   UNL     1      -2.362  17.425 -26.958  1.00  0.00     0.111 A 
ATOM      5  C   UNL     1      -2.186  16.588 -25.830  1.00  0.00     0.146 A 
ATOM      6  C   UNL     1      -1.350  16.974 -24.779  1.00  0.00     0.094 A 
ATOM      7  O   UNL     1      -2.819  15.427 -25.738  1.00  0.00    -0.452 OA
ATOM      8  C   UNL     1      -3.660  14.977 -26.661  1.00  0.00     0.180 A 
ATOM      9  C   UNL     1      -3.920  15.739 -27.815  1.00  0.00     0.210 A 
ATOM     10  C   UNL     1      -3.291  17.000 -27.939  1.00  0.00     0.239 A 
ATOM     11  O   UNL     1      -3.588  17.751 -28.903  1.00  0.00    -0.285 OA
ENDROOT
BRANCH   1  12
ATOM     12  O   UNL     1       0.125  18.540 -23.714  1.00  0.00    -0.496 OA
ATOM     13  C   UNL     1       0.102  19.808 -23.066  1.00  0.00     0.278 C 
ENDBRANCH   1  12
BRANCH   3  14
ATOM     14  O   UNL     1      -1.611  19.496 -28.126  1.00  0.00    -0.507 OA
ATOM     15  H   UNL     1      -1.315  20.461 -28.105  1.00  0.00     0.293 HD
ENDBRANCH   3  14
BRANCH   8  16
ATOM     16  C   UNL     1      -4.295  13.659 -26.432  1.00  0.00     0.025 A 
ATOM     17  C   UNL     1      -3.659  12.496 -26.896  1.00  0.00     0.062 A 
ATOM     18  C   UNL     1      -5.492  13.539 -25.705  1.00  0.00     0.016 A 
ATOM     19  C   UNL     1      -4.225  11.235 -26.673  1.00  0.00     0.158 A 
ATOM     20  C   UNL     1      -6.060  12.283 -25.479  1.00  0.00     0.051 A 
ATOM     21  C   UNL     1      -5.433  11.127 -25.963  1.00  0.00     0.157 A 
BRANCH  19  22
ATOM     22  O   UNL     1      -3.572  10.103 -27.161  1.00  0.00    -0.504 OA
ATOM     23  H   UNL     1      -3.786   9.172 -26.823  1.00  0.00     0.293 HD
ENDBRANCH  19  22
BRANCH  21  24
ATOM     24  O   UNL     1      -6.002   9.875 -25.738  1.00  0.00    -0.504 OA
ATOM     25  H   UNL     1      -7.006   9.737 -25.755  1.00  0.00     0.293 HD
ENDBRANCH  21  24
ENDBRANCH   8  16
BRANCH   9  26
ATOM     26  O   UNL     1      -4.778  15.196 -28.793  1.00  0.00    -0.490 OA
ATOM     27  C   UNL     1      -4.388  14.529 -29.990  1.00  0.00     0.278 C 
ENDBRANCH   9  26
TORSDOF 6
ENDMDL
