MODEL 1
REMARK VINA RESULT:    -7.161      0.000      0.000
REMARK INTER + INTRA:          -9.231
REMARK INTER:                  -8.836
REMARK INTRA:                  -0.396
REMARK UNBOUND:                -0.396
REMARK SMILES O=C1c2c(O)cc(O)cc2O[C@@H](c2cc(O)c(O)c(O)c2)[C@H]1O
REMARK SMILES IDX 12 1 22 2 2 3 1 4 3 5 4 6 6 7 7 8 9 9 10 10 11 11 13 12
REMARK SMILES IDX 14 13 15 14 21 15 17 16 19 17 16 18 18 20 20 22 23 24 5 26
REMARK SMILES IDX 8 28
REMARK H PARENT 16 19 18 21 20 23 23 25 5 27 8 29
REMARK Flexibility Score: inf
ROOT
ATOM      1  C   UNL     1      15.967  12.319  -3.376  1.00  0.00     0.240 C 
ATOM      2  C   UNL     1      14.757  13.260  -3.516  1.00  0.00     0.231 C 
ATOM      3  C   UNL     1      14.025  12.907  -4.781  1.00  0.00     0.202 C 
ATOM      4  O   UNL     1      12.773  12.779  -4.754  1.00  0.00    -0.291 OA
ATOM      5  C   UNL     1      14.809  12.652  -6.016  1.00  0.00     0.105 A 
ATOM      6  C   UNL     1      14.267  12.699  -7.327  1.00  0.00     0.133 A 
ATOM      7  C   UNL     1      15.081  12.378  -8.421  1.00  0.00     0.093 A 
ATOM      8  C   UNL     1      16.432  12.072  -8.243  1.00  0.00     0.123 A 
ATOM      9  C   UNL     1      16.981  12.072  -6.959  1.00  0.00     0.093 A 
ATOM     10  C   UNL     1      16.178  12.349  -5.850  1.00  0.00     0.138 A 
ATOM     11  O   UNL     1      16.753  12.327  -4.571  1.00  0.00    -0.481 OA
ENDROOT
BRANCH   1  12
ATOM     12  C   UNL     1      16.818  12.681  -2.179  1.00  0.00     0.003 A 
ATOM     13  C   UNL     1      18.181  12.969  -2.351  1.00  0.00     0.058 A 
ATOM     14  C   UNL     1      18.991  13.273  -1.248  1.00  0.00     0.161 A 
ATOM     15  C   UNL     1      16.278  12.674  -0.881  1.00  0.00     0.058 A 
ATOM     16  C   UNL     1      18.439  13.280   0.045  1.00  0.00     0.200 A 
ATOM     17  C   UNL     1      17.084  12.977   0.225  1.00  0.00     0.161 A 
BRANCH  14  18
ATOM     18  O   UNL     1      20.341  13.566  -1.432  1.00  0.00    -0.504 OA
ATOM     19  H   UNL     1      20.648  14.476  -1.755  1.00  0.00     0.293 HD
ENDBRANCH  14  18
BRANCH  16  20
ATOM     20  O   UNL     1      19.224  13.581   1.157  1.00  0.00    -0.502 OA
ATOM     21  H   UNL     1      19.550  12.866   1.798  1.00  0.00     0.293 HD
ENDBRANCH  16  20
BRANCH  17  22
ATOM     22  O   UNL     1      16.543  12.977   1.510  1.00  0.00    -0.504 OA
ATOM     23  H   UNL     1      16.338  13.840   2.000  1.00  0.00     0.293 HD
ENDBRANCH  17  22
ENDBRANCH   1  12
BRANCH   2  24
ATOM     24  O   UNL     1      15.185  14.596  -3.584  1.00  0.00    -0.381 OA
ATOM     25  H   UNL     1      15.726  14.764  -2.768  1.00  0.00     0.211 HD
ENDBRANCH   2  24
BRANCH   6  26
ATOM     26  O   UNL     1      12.952  13.084  -7.596  1.00  0.00    -0.507 OA
ATOM     27  H   UNL     1      12.474  12.890  -8.464  1.00  0.00     0.293 HD
ENDBRANCH   6  26
BRANCH   8  28
ATOM     28  O   UNL     1      17.221  11.776  -9.353  1.00  0.00    -0.508 OA
ATOM     29  H   UNL     1      18.115  12.229  -9.503  1.00  0.00     0.293 HD
ENDBRANCH   8  28
TORSDOF 7
ENDMDL
MODEL 2
REMARK VINA RESULT:    -7.014      1.761      7.607
REMARK INTER + INTRA:          -9.050
REMARK INTER:                  -8.670
REMARK INTRA:                  -0.380
REMARK UNBOUND:                -0.396
REMARK SMILES O=C1c2c(O)cc(O)cc2O[C@@H](c2cc(O)c(O)c(O)c2)[C@H]1O
REMARK SMILES IDX 12 1 22 2 2 3 1 4 3 5 4 6 6 7 7 8 9 9 10 10 11 11 13 12
REMARK SMILES IDX 14 13 15 14 21 15 17 16 19 17 16 18 18 20 20 22 23 24 5 26
REMARK SMILES IDX 8 28
REMARK H PARENT 16 19 18 21 20 23 23 25 5 27 8 29
REMARK Flexibility Score: inf
ROOT
ATOM      1  C   UNL     1      15.240  12.176  -3.357  1.00  0.00     0.240 C 
ATOM      2  C   UNL     1      16.125  13.433  -3.269  1.00  0.00     0.231 C 
ATOM      3  C   UNL     1      16.970  13.332  -2.029  1.00  0.00     0.202 C 
ATOM      4  O   UNL     1      18.204  13.577  -2.100  1.00  0.00    -0.291 OA
ATOM      5  C   UNL     1      16.337  12.882  -0.763  1.00  0.00     0.105 A 
ATOM      6  C   UNL     1      16.885  13.109   0.527  1.00  0.00     0.133 A 
ATOM      7  C   UNL     1      16.237  12.584   1.652  1.00  0.00     0.093 A 
ATOM      8  C   UNL     1      15.030  11.893   1.527  1.00  0.00     0.123 A 
ATOM      9  C   UNL     1      14.463  11.709   0.263  1.00  0.00     0.093 A 
ATOM     10  C   UNL     1      15.112  12.188  -0.877  1.00  0.00     0.138 A 
ATOM     11  O   UNL     1      14.527  11.976  -2.133  1.00  0.00    -0.481 OA
ENDROOT
BRANCH   1  12
ATOM     12  C   UNL     1      14.282  12.253  -4.524  1.00  0.00     0.003 A 
ATOM     13  C   UNL     1      12.907  12.061  -4.314  1.00  0.00     0.058 A 
ATOM     14  C   UNL     1      12.009  12.094  -5.390  1.00  0.00     0.161 A 
ATOM     15  C   UNL     1      14.753  12.450  -5.833  1.00  0.00     0.058 A 
ATOM     16  C   UNL     1      12.487  12.309  -6.694  1.00  0.00     0.200 A 
ATOM     17  C   UNL     1      13.860  12.483  -6.912  1.00  0.00     0.161 A 
BRANCH  14  18
ATOM     18  O   UNL     1      10.645  11.912  -5.168  1.00  0.00    -0.504 OA
ATOM     19  H   UNL     1      10.286  11.647  -4.258  1.00  0.00     0.293 HD
ENDBRANCH  14  18
BRANCH  16  20
ATOM     20  O   UNL     1      11.614  12.347  -7.780  1.00  0.00    -0.502 OA
ATOM     21  H   UNL     1      11.875  11.999  -8.695  1.00  0.00     0.293 HD
ENDBRANCH  16  20
BRANCH  17  22
ATOM     22  O   UNL     1      14.330  12.688  -8.209  1.00  0.00    -0.504 OA
ATOM     23  H   UNL     1      13.917  13.383  -8.820  1.00  0.00     0.293 HD
ENDBRANCH  17  22
ENDBRANCH   1  12
BRANCH   2  24
ATOM     24  O   UNL     1      15.327  14.587  -3.195  1.00  0.00    -0.381 OA
ATOM     25  H   UNL     1      15.091  14.830  -4.128  1.00  0.00     0.211 HD
ENDBRANCH   2  24
BRANCH   6  26
ATOM     26  O   UNL     1      18.037  13.867   0.744  1.00  0.00    -0.507 OA
ATOM     27  H   UNL     1      18.940  13.646   0.351  1.00  0.00     0.293 HD
ENDBRANCH   6  26
BRANCH   8  28
ATOM     28  O   UNL     1      14.400  11.399   2.667  1.00  0.00    -0.508 OA
ATOM     29  H   UNL     1      14.602  10.474   3.026  1.00  0.00     0.293 HD
ENDBRANCH   8  28
TORSDOF 7
ENDMDL
MODEL 3
REMARK VINA RESULT:    -6.930      0.480      1.807
REMARK INTER + INTRA:          -8.947
REMARK INTER:                  -8.559
REMARK INTRA:                  -0.388
REMARK UNBOUND:                -0.396
REMARK SMILES O=C1c2c(O)cc(O)cc2O[C@@H](c2cc(O)c(O)c(O)c2)[C@H]1O
REMARK SMILES IDX 12 1 22 2 2 3 1 4 3 5 4 6 6 7 7 8 9 9 10 10 11 11 13 12
REMARK SMILES IDX 14 13 15 14 21 15 17 16 19 17 16 18 18 20 20 22 23 24 5 26
REMARK SMILES IDX 8 28
REMARK H PARENT 16 19 18 21 20 23 23 25 5 27 8 29
REMARK Flexibility Score: inf
ROOT
ATOM      1  C   UNL     1      15.802  12.216  -3.152  1.00  0.00     0.240 C 
ATOM      2  C   UNL     1      14.631  13.187  -3.386  1.00  0.00     0.231 C 
ATOM      3  C   UNL     1      14.011  12.871  -4.719  1.00  0.00     0.202 C 
ATOM      4  O   UNL     1      12.759  12.773  -4.810  1.00  0.00    -0.291 OA
ATOM      5  C   UNL     1      14.900  12.618  -5.882  1.00  0.00     0.105 A 
ATOM      6  C   UNL     1      14.482  12.697  -7.236  1.00  0.00     0.133 A 
ATOM      7  C   UNL     1      15.386  12.375  -8.256  1.00  0.00     0.093 A 
ATOM      8  C   UNL     1      16.708  12.035  -7.961  1.00  0.00     0.123 A 
ATOM      9  C   UNL     1      17.136  12.002  -6.631  1.00  0.00     0.093 A 
ATOM     10  C   UNL     1      16.241  12.280  -5.596  1.00  0.00     0.138 A 
ATOM     11  O   UNL     1      16.695  12.225  -4.270  1.00  0.00    -0.481 OA
ENDROOT
BRANCH   1  12
ATOM     12  C   UNL     1      16.546  12.540  -1.876  1.00  0.00     0.003 A 
ATOM     13  C   UNL     1      15.884  12.461  -0.641  1.00  0.00     0.058 A 
ATOM     14  C   UNL     1      16.549  12.792   0.548  1.00  0.00     0.161 A 
ATOM     15  C   UNL     1      17.879  12.984  -1.911  1.00  0.00     0.058 A 
ATOM     16  C   UNL     1      17.887  13.218   0.506  1.00  0.00     0.200 A 
ATOM     17  C   UNL     1      18.548  13.316  -0.725  1.00  0.00     0.161 A 
BRANCH  14  18
ATOM     18  O   UNL     1      15.884  12.700   1.769  1.00  0.00    -0.504 OA
ATOM     19  H   UNL     1      14.952  13.078   1.897  1.00  0.00     0.293 HD
ENDBRANCH  14  18
BRANCH  16  20
ATOM     20  O   UNL     1      18.571  13.551   1.674  1.00  0.00    -0.502 OA
ATOM     21  H   UNL     1      19.136  12.879   2.179  1.00  0.00     0.293 HD
ENDBRANCH  16  20
BRANCH  17  22
ATOM     22  O   UNL     1      19.874  13.747  -0.763  1.00  0.00    -0.504 OA
ATOM     23  H   UNL     1      20.642  13.120  -0.556  1.00  0.00     0.293 HD
ENDBRANCH  17  22
ENDBRANCH   1  12
BRANCH   2  24
ATOM     24  O   UNL     1      15.092  14.515  -3.391  1.00  0.00    -0.381 OA
ATOM     25  H   UNL     1      15.771  14.577  -4.113  1.00  0.00     0.211 HD
ENDBRANCH   2  24
BRANCH   6  26
ATOM     26  O   UNL     1      13.206  13.118  -7.618  1.00  0.00    -0.507 OA
ATOM     27  H   UNL     1      12.373  12.960  -7.070  1.00  0.00     0.293 HD
ENDBRANCH   6  26
BRANCH   8  28
ATOM     28  O   UNL     1      17.589  11.738  -8.998  1.00  0.00    -0.508 OA
ATOM     29  H   UNL     1      17.963  12.462  -9.600  1.00  0.00     0.293 HD
ENDBRANCH   8  28
TORSDOF 7
ENDMDL
MODEL 4
REMARK VINA RESULT:    -6.866      2.571      5.366
REMARK INTER + INTRA:          -8.867
REMARK INTER:                  -8.476
REMARK INTRA:                  -0.391
REMARK UNBOUND:                -0.396
REMARK SMILES O=C1c2c(O)cc(O)cc2O[C@@H](c2cc(O)c(O)c(O)c2)[C@H]1O
REMARK SMILES IDX 12 1 22 2 2 3 1 4 3 5 4 6 6 7 7 8 9 9 10 10 11 11 13 12
REMARK SMILES IDX 14 13 15 14 21 15 17 16 19 17 16 18 18 20 20 22 23 24 5 26
REMARK SMILES IDX 8 28
REMARK H PARENT 16 19 18 21 20 23 23 25 5 27 8 29
REMARK Flexibility Score: inf
ROOT
ATOM      1  C   UNL     1      15.744  12.224  -3.655  1.00  0.00     0.240 C 
ATOM      2  C   UNL     1      15.438  13.333  -2.633  1.00  0.00     0.231 C 
ATOM      3  C   UNL     1      14.228  12.926  -1.839  1.00  0.00     0.202 C 
ATOM      4  O   UNL     1      14.249  13.031  -0.584  1.00  0.00    -0.291 OA
ATOM      5  C   UNL     1      13.062  12.348  -2.554  1.00  0.00     0.105 A 
ATOM      6  C   UNL     1      11.749  12.288  -2.017  1.00  0.00     0.133 A 
ATOM      7  C   UNL     1      10.733  11.662  -2.751  1.00  0.00     0.093 A 
ATOM      8  C   UNL     1      10.982  11.151  -4.027  1.00  0.00     0.123 A 
ATOM      9  C   UNL     1      12.262  11.251  -4.578  1.00  0.00     0.093 A 
ATOM     10  C   UNL     1      13.299  11.834  -3.847  1.00  0.00     0.138 A 
ATOM     11  O   UNL     1      14.577  11.907  -4.420  1.00  0.00    -0.481 OA
ENDROOT
BRANCH   1  12
ATOM     12  C   UNL     1      16.888  12.609  -4.567  1.00  0.00     0.003 A 
ATOM     13  C   UNL     1      16.710  12.589  -5.960  1.00  0.00     0.058 A 
ATOM     14  C   UNL     1      17.769  12.908  -6.820  1.00  0.00     0.161 A 
ATOM     15  C   UNL     1      18.153  12.928  -4.044  1.00  0.00     0.058 A 
ATOM     16  C   UNL     1      19.026  13.243  -6.287  1.00  0.00     0.200 A 
ATOM     17  C   UNL     1      19.215  13.249  -4.899  1.00  0.00     0.161 A 
BRANCH  14  18
ATOM     18  O   UNL     1      17.578  12.894  -8.200  1.00  0.00    -0.504 OA
ATOM     19  H   UNL     1      18.336  13.086  -8.844  1.00  0.00     0.293 HD
ENDBRANCH  14  18
BRANCH  16  20
ATOM     20  O   UNL     1      20.095  13.567  -7.122  1.00  0.00    -0.502 OA
ATOM     21  H   UNL     1      20.301  14.523  -7.389  1.00  0.00     0.293 HD
ENDBRANCH  16  20
BRANCH  17  22
ATOM     22  O   UNL     1      20.466  13.574  -4.376  1.00  0.00    -0.504 OA
ATOM     23  H   UNL     1      20.921  14.452  -4.595  1.00  0.00     0.293 HD
ENDBRANCH  17  22
ENDBRANCH   1  12
BRANCH   2  24
ATOM     24  O   UNL     1      15.174  14.545  -3.293  1.00  0.00    -0.381 OA
ATOM     25  H   UNL     1      16.044  15.017  -3.380  1.00  0.00     0.211 HD
ENDBRANCH   2  24
BRANCH   6  26
ATOM     26  O   UNL     1      11.398  12.856  -0.791  1.00  0.00    -0.507 OA
ATOM     27  H   UNL     1      11.378  13.851  -0.616  1.00  0.00     0.293 HD
ENDBRANCH   6  26
BRANCH   8  28
ATOM     28  O   UNL     1       9.946  10.551  -4.741  1.00  0.00    -0.508 OA
ATOM     29  H   UNL     1      10.126   9.836  -5.435  1.00  0.00     0.293 HD
ENDBRANCH   8  28
TORSDOF 7
ENDMDL
MODEL 5
REMARK VINA RESULT:    -6.860      2.613      5.379
REMARK INTER + INTRA:          -8.859
REMARK INTER:                  -8.484
REMARK INTRA:                  -0.375
REMARK UNBOUND:                -0.396
REMARK SMILES O=C1c2c(O)cc(O)cc2O[C@@H](c2cc(O)c(O)c(O)c2)[C@H]1O
REMARK SMILES IDX 12 1 22 2 2 3 1 4 3 5 4 6 6 7 7 8 9 9 10 10 11 11 13 12
REMARK SMILES IDX 14 13 15 14 21 15 17 16 19 17 16 18 18 20 20 22 23 24 5 26
REMARK SMILES IDX 8 28
REMARK H PARENT 16 19 18 21 20 23 23 25 5 27 8 29
REMARK Flexibility Score: inf
ROOT
ATOM      1  C   UNL     1      15.713  12.230  -2.825  1.00  0.00     0.240 C 
ATOM      2  C   UNL     1      15.644  13.317  -3.912  1.00  0.00     0.231 C 
ATOM      3  C   UNL     1      16.921  13.278  -4.705  1.00  0.00     0.202 C 
ATOM      4  O   UNL     1      16.868  13.297  -5.963  1.00  0.00    -0.291 OA
ATOM      5  C   UNL     1      18.212  13.151  -3.981  1.00  0.00     0.105 A 
ATOM      6  C   UNL     1      19.474  13.488  -4.537  1.00  0.00     0.133 A 
ATOM      7  C   UNL     1      20.637  13.268  -3.788  1.00  0.00     0.093 A 
ATOM      8  C   UNL     1      20.567  12.779  -2.482  1.00  0.00     0.123 A 
ATOM      9  C   UNL     1      19.323  12.491  -1.914  1.00  0.00     0.093 A 
ATOM     10  C   UNL     1      18.153  12.664  -2.657  1.00  0.00     0.138 A 
ATOM     11  O   UNL     1      16.920  12.352  -2.066  1.00  0.00    -0.481 OA
ENDROOT
BRANCH   1  12
ATOM     12  C   UNL     1      14.506  12.277  -1.915  1.00  0.00     0.003 A 
ATOM     13  C   UNL     1      14.681  12.334  -0.523  1.00  0.00     0.058 A 
ATOM     14  C   UNL     1      13.574  12.342   0.336  1.00  0.00     0.161 A 
ATOM     15  C   UNL     1      13.204  12.200  -2.438  1.00  0.00     0.058 A 
ATOM     16  C   UNL     1      12.275  12.283  -0.197  1.00  0.00     0.200 A 
ATOM     17  C   UNL     1      12.094  12.208  -1.584  1.00  0.00     0.161 A 
BRANCH  14  18
ATOM     18  O   UNL     1      13.760  12.409   1.716  1.00  0.00    -0.504 OA
ATOM     19  H   UNL     1      14.357  13.110   2.138  1.00  0.00     0.293 HD
ENDBRANCH  14  18
BRANCH  16  20
ATOM     20  O   UNL     1      11.157  12.292   0.636  1.00  0.00    -0.502 OA
ATOM     21  H   UNL     1      10.710  11.438   0.949  1.00  0.00     0.293 HD
ENDBRANCH  16  20
BRANCH  17  22
ATOM     22  O   UNL     1      10.803  12.140  -2.107  1.00  0.00    -0.504 OA
ATOM     23  H   UNL     1       9.993  12.029  -1.509  1.00  0.00     0.293 HD
ENDBRANCH  17  22
ENDBRANCH   1  12
BRANCH   2  24
ATOM     24  O   UNL     1      15.501  14.586  -3.325  1.00  0.00    -0.381 OA
ATOM     25  H   UNL     1      15.722  14.480  -2.363  1.00  0.00     0.211 HD
ENDBRANCH   2  24
BRANCH   6  26
ATOM     26  O   UNL     1      19.622  14.066  -5.799  1.00  0.00    -0.507 OA
ATOM     27  H   UNL     1      20.095  14.943  -5.965  1.00  0.00     0.293 HD
ENDBRANCH   6  26
BRANCH   8  28
ATOM     28  O   UNL     1      21.740  12.588  -1.756  1.00  0.00    -0.508 OA
ATOM     29  H   UNL     1      21.766  11.990  -0.939  1.00  0.00     0.293 HD
ENDBRANCH   8  28
TORSDOF 7
ENDMDL
MODEL 6
REMARK VINA RESULT:    -6.630      1.663      6.995
REMARK INTER + INTRA:          -8.577
REMARK INTER:                  -8.296
REMARK INTRA:                  -0.281
REMARK UNBOUND:                -0.396
REMARK SMILES O=C1c2c(O)cc(O)cc2O[C@@H](c2cc(O)c(O)c(O)c2)[C@H]1O
REMARK SMILES IDX 12 1 22 2 2 3 1 4 3 5 4 6 6 7 7 8 9 9 10 10 11 11 13 12
REMARK SMILES IDX 14 13 15 14 21 15 17 16 19 17 16 18 18 20 20 22 23 24 5 26
REMARK SMILES IDX 8 28
REMARK H PARENT 16 19 18 21 20 23 23 25 5 27 8 29
REMARK Flexibility Score: inf
ROOT
ATOM      1  C   UNL     1      14.743  13.358  -3.600  1.00  0.00     0.240 C 
ATOM      2  C   UNL     1      13.565  12.532  -3.053  1.00  0.00     0.231 C 
ATOM      3  C   UNL     1      13.476  12.755  -1.569  1.00  0.00     0.202 C 
ATOM      4  O   UNL     1      12.358  13.009  -1.048  1.00  0.00    -0.291 OA
ATOM      5  C   UNL     1      14.725  12.735  -0.765  1.00  0.00     0.105 A 
ATOM      6  C   UNL     1      14.763  12.540   0.641  1.00  0.00     0.133 A 
ATOM      7  C   UNL     1      15.991  12.604   1.311  1.00  0.00     0.093 A 
ATOM      8  C   UNL     1      17.182  12.797   0.608  1.00  0.00     0.123 A 
ATOM      9  C   UNL     1      17.153  12.942  -0.781  1.00  0.00     0.093 A 
ATOM     10  C   UNL     1      15.936  12.922  -1.466  1.00  0.00     0.138 A 
ATOM     11  O   UNL     1      15.936  13.086  -2.858  1.00  0.00    -0.481 OA
ENDROOT
BRANCH   1  12
ATOM     12  C   UNL     1      14.964  13.102  -5.074  1.00  0.00     0.003 A 
ATOM     13  C   UNL     1      13.865  13.029  -5.944  1.00  0.00     0.058 A 
ATOM     14  C   UNL     1      14.049  12.757  -7.306  1.00  0.00     0.161 A 
ATOM     15  C   UNL     1      16.255  12.873  -5.581  1.00  0.00     0.058 A 
ATOM     16  C   UNL     1      15.345  12.546  -7.808  1.00  0.00     0.200 A 
ATOM     17  C   UNL     1      16.445  12.602  -6.943  1.00  0.00     0.161 A 
BRANCH  14  18
ATOM     18  O   UNL     1      12.951  12.696  -8.162  1.00  0.00    -0.504 OA
ATOM     19  H   UNL     1      12.370  11.868  -8.223  1.00  0.00     0.293 HD
ENDBRANCH  14  18
BRANCH  16  20
ATOM     20  O   UNL     1      15.555  12.277  -9.160  1.00  0.00    -0.502 OA
ATOM     21  H   UNL     1      15.214  12.890  -9.892  1.00  0.00     0.293 HD
ENDBRANCH  16  20
BRANCH  17  22
ATOM     22  O   UNL     1      17.727  12.383  -7.444  1.00  0.00    -0.504 OA
ATOM     23  H   UNL     1      18.302  13.146  -7.781  1.00  0.00     0.293 HD
ENDBRANCH  17  22
ENDBRANCH   1  12
BRANCH   2  24
ATOM     24  O   UNL     1      13.769  11.165  -3.306  1.00  0.00    -0.381 OA
ATOM     25  H   UNL     1      12.922  10.817  -3.692  1.00  0.00     0.211 HD
ENDBRANCH   2  24
BRANCH   6  26
ATOM     26  O   UNL     1      13.630  12.250   1.403  1.00  0.00    -0.507 OA
ATOM     27  H   UNL     1      13.268  12.853   2.127  1.00  0.00     0.293 HD
ENDBRANCH   6  26
BRANCH   8  28
ATOM     28  O   UNL     1      18.391  12.837   1.301  1.00  0.00    -0.508 OA
ATOM     29  H   UNL     1      18.963  12.009   1.416  1.00  0.00     0.293 HD
ENDBRANCH   8  28
TORSDOF 7
ENDMDL
MODEL 7
REMARK VINA RESULT:    -6.603      1.675      6.844
REMARK INTER + INTRA:          -8.542
REMARK INTER:                  -8.250
REMARK INTRA:                  -0.293
REMARK UNBOUND:                -0.396
REMARK SMILES O=C1c2c(O)cc(O)cc2O[C@@H](c2cc(O)c(O)c(O)c2)[C@H]1O
REMARK SMILES IDX 12 1 22 2 2 3 1 4 3 5 4 6 6 7 7 8 9 9 10 10 11 11 13 12
REMARK SMILES IDX 14 13 15 14 21 15 17 16 19 17 16 18 18 20 20 22 23 24 5 26
REMARK SMILES IDX 8 28
REMARK H PARENT 16 19 18 21 20 23 23 25 5 27 8 29
REMARK Flexibility Score: inf
ROOT
ATOM      1  C   UNL     1      14.767  13.297  -3.583  1.00  0.00     0.240 C 
ATOM      2  C   UNL     1      13.585  12.485  -3.023  1.00  0.00     0.231 C 
ATOM      3  C   UNL     1      13.502  12.729  -1.542  1.00  0.00     0.202 C 
ATOM      4  O   UNL     1      12.386  12.996  -1.022  1.00  0.00    -0.291 OA
ATOM      5  C   UNL     1      14.752  12.712  -0.740  1.00  0.00     0.105 A 
ATOM      6  C   UNL     1      14.792  12.536   0.668  1.00  0.00     0.133 A 
ATOM      7  C   UNL     1      16.022  12.601   1.335  1.00  0.00     0.093 A 
ATOM      8  C   UNL     1      17.213  12.778   0.627  1.00  0.00     0.123 A 
ATOM      9  C   UNL     1      17.181  12.905  -0.764  1.00  0.00     0.093 A 
ATOM     10  C   UNL     1      15.962  12.883  -1.446  1.00  0.00     0.138 A 
ATOM     11  O   UNL     1      15.960  13.028  -2.841  1.00  0.00    -0.481 OA
ENDROOT
BRANCH   1  12
ATOM     12  C   UNL     1      14.983  13.021  -5.054  1.00  0.00     0.003 A 
ATOM     13  C   UNL     1      16.287  12.881  -5.556  1.00  0.00     0.058 A 
ATOM     14  C   UNL     1      16.507  12.660  -6.922  1.00  0.00     0.161 A 
ATOM     15  C   UNL     1      13.898  12.964  -5.946  1.00  0.00     0.058 A 
ATOM     16  C   UNL     1      15.414  12.587  -7.803  1.00  0.00     0.200 A 
ATOM     17  C   UNL     1      14.112  12.743  -7.312  1.00  0.00     0.161 A 
BRANCH  14  18
ATOM     18  O   UNL     1      17.805  12.513  -7.407  1.00  0.00    -0.504 OA
ATOM     19  H   UNL     1      18.613  12.618  -6.803  1.00  0.00     0.293 HD
ENDBRANCH  14  18
BRANCH  16  20
ATOM     20  O   UNL     1      15.607  12.366  -9.167  1.00  0.00    -0.502 OA
ATOM     21  H   UNL     1      16.064  13.045  -9.764  1.00  0.00     0.293 HD
ENDBRANCH  16  20
BRANCH  17  22
ATOM     22  O   UNL     1      13.032  12.679  -8.192  1.00  0.00    -0.504 OA
ATOM     23  H   UNL     1      12.401  11.886  -8.200  1.00  0.00     0.293 HD
ENDBRANCH  17  22
ENDBRANCH   1  12
BRANCH   2  24
ATOM     24  O   UNL     1      13.781  11.114  -3.258  1.00  0.00    -0.381 OA
ATOM     25  H   UNL     1      13.265  10.889  -4.076  1.00  0.00     0.211 HD
ENDBRANCH   2  24
BRANCH   6  26
ATOM     26  O   UNL     1      13.659  12.263   1.437  1.00  0.00    -0.507 OA
ATOM     27  H   UNL     1      12.994  11.533   1.222  1.00  0.00     0.293 HD
ENDBRANCH   6  26
BRANCH   8  28
ATOM     28  O   UNL     1      18.423  12.821   1.316  1.00  0.00    -0.508 OA
ATOM     29  H   UNL     1      18.596  12.230   2.120  1.00  0.00     0.293 HD
ENDBRANCH   8  28
TORSDOF 7
ENDMDL
MODEL 8
REMARK VINA RESULT:    -6.448      2.558      5.870
REMARK INTER + INTRA:          -8.352
REMARK INTER:                  -8.036
REMARK INTRA:                  -0.316
REMARK UNBOUND:                -0.396
REMARK SMILES O=C1c2c(O)cc(O)cc2O[C@@H](c2cc(O)c(O)c(O)c2)[C@H]1O
REMARK SMILES IDX 12 1 22 2 2 3 1 4 3 5 4 6 6 7 7 8 9 9 10 10 11 11 13 12
REMARK SMILES IDX 14 13 15 14 21 15 17 16 19 17 16 18 18 20 20 22 23 24 5 26
REMARK SMILES IDX 8 28
REMARK H PARENT 16 19 18 21 20 23 23 25 5 27 8 29
REMARK Flexibility Score: inf
ROOT
ATOM      1  C   UNL     1      15.116  13.345  -2.489  1.00  0.00     0.240 C 
ATOM      2  C   UNL     1      15.907  12.781  -1.295  1.00  0.00     0.231 C 
ATOM      3  C   UNL     1      17.318  13.292  -1.377  1.00  0.00     0.202 C 
ATOM      4  O   UNL     1      17.863  13.769  -0.346  1.00  0.00    -0.291 OA
ATOM      5  C   UNL     1      18.011  13.282  -2.690  1.00  0.00     0.105 A 
ATOM      6  C   UNL     1      19.420  13.356  -2.849  1.00  0.00     0.133 A 
ATOM      7  C   UNL     1      19.966  13.404  -4.138  1.00  0.00     0.093 A 
ATOM      8  C   UNL     1      19.148  13.320  -5.266  1.00  0.00     0.123 A 
ATOM      9  C   UNL     1      17.764  13.199  -5.114  1.00  0.00     0.093 A 
ATOM     10  C   UNL     1      17.194  13.190  -3.839  1.00  0.00     0.138 A 
ATOM     11  O   UNL     1      15.801  13.083  -3.717  1.00  0.00    -0.481 OA
ENDROOT
BRANCH   1  12
ATOM     12  C   UNL     1      13.710  12.788  -2.537  1.00  0.00     0.003 A 
ATOM     13  C   UNL     1      13.166  12.366  -3.760  1.00  0.00     0.058 A 
ATOM     14  C   UNL     1      11.853  11.881  -3.828  1.00  0.00     0.161 A 
ATOM     15  C   UNL     1      12.911  12.745  -1.381  1.00  0.00     0.058 A 
ATOM     16  C   UNL     1      11.067  11.825  -2.664  1.00  0.00     0.200 A 
ATOM     17  C   UNL     1      11.598  12.261  -1.444  1.00  0.00     0.161 A 
BRANCH  14  18
ATOM     18  O   UNL     1      11.327  11.456  -5.047  1.00  0.00    -0.504 OA
ATOM     19  H   UNL     1      11.556  11.923  -5.916  1.00  0.00     0.293 HD
ENDBRANCH  14  18
BRANCH  16  20
ATOM     20  O   UNL     1       9.758  11.345  -2.706  1.00  0.00    -0.502 OA
ATOM     21  H   UNL     1       9.134  11.409  -1.910  1.00  0.00     0.293 HD
ENDBRANCH  16  20
BRANCH  17  22
ATOM     22  O   UNL     1      10.811  12.211  -0.294  1.00  0.00    -0.504 OA
ATOM     23  H   UNL     1      11.066  11.633   0.499  1.00  0.00     0.293 HD
ENDBRANCH  17  22
ENDBRANCH   1  12
BRANCH   2  24
ATOM     24  O   UNL     1      15.918  11.376  -1.338  1.00  0.00    -0.381 OA
ATOM     25  H   UNL     1      16.384  11.121  -2.177  1.00  0.00     0.211 HD
ENDBRANCH   2  24
BRANCH   6  26
ATOM     26  O   UNL     1      20.310  13.350  -1.773  1.00  0.00    -0.507 OA
ATOM     27  H   UNL     1      21.308  13.473  -1.867  1.00  0.00     0.293 HD
ENDBRANCH   6  26
BRANCH   8  28
ATOM     28  O   UNL     1      19.722  13.351  -6.535  1.00  0.00    -0.508 OA
ATOM     29  H   UNL     1      19.480  14.067  -7.209  1.00  0.00     0.293 HD
ENDBRANCH   8  28
TORSDOF 7
ENDMDL
MODEL 9
REMARK VINA RESULT:    -6.352      3.439      7.260
REMARK INTER + INTRA:          -8.233
REMARK INTER:                  -7.839
REMARK INTRA:                  -0.394
REMARK UNBOUND:                -0.396
REMARK SMILES O=C1c2c(O)cc(O)cc2O[C@@H](c2cc(O)c(O)c(O)c2)[C@H]1O
REMARK SMILES IDX 12 1 22 2 2 3 1 4 3 5 4 6 6 7 7 8 9 9 10 10 11 11 13 12
REMARK SMILES IDX 14 13 15 14 21 15 17 16 19 17 16 18 18 20 20 22 23 24 5 26
REMARK SMILES IDX 8 28
REMARK H PARENT 16 19 18 21 20 23 23 25 5 27 8 29
REMARK Flexibility Score: inf
ROOT
ATOM      1  C   UNL     1      13.845  11.634  -2.792  1.00  0.00     0.240 C 
ATOM      2  C   UNL     1      14.369  12.606  -1.720  1.00  0.00     0.231 C 
ATOM      3  C   UNL     1      13.672  12.302  -0.422  1.00  0.00     0.202 C 
ATOM      4  O   UNL     1      14.350  12.204   0.635  1.00  0.00    -0.291 OA
ATOM      5  C   UNL     1      12.207  12.061  -0.434  1.00  0.00     0.105 A 
ATOM      6  C   UNL     1      11.375  12.153   0.713  1.00  0.00     0.133 A 
ATOM      7  C   UNL     1      10.014  11.841   0.604  1.00  0.00     0.093 A 
ATOM      8  C   UNL     1       9.455  11.499  -0.629  1.00  0.00     0.123 A 
ATOM      9  C   UNL     1      10.260  11.454  -1.770  1.00  0.00     0.093 A 
ATOM     10  C   UNL     1      11.628  11.721  -1.676  1.00  0.00     0.138 A 
ATOM     11  O   UNL     1      12.415  11.654  -2.835  1.00  0.00    -0.481 OA
ENDROOT
BRANCH   1  12
ATOM     12  C   UNL     1      14.422  11.947  -4.155  1.00  0.00     0.003 A 
ATOM     13  C   UNL     1      13.580  12.397  -5.184  1.00  0.00     0.058 A 
ATOM     14  C   UNL     1      14.092  12.658  -6.462  1.00  0.00     0.161 A 
ATOM     15  C   UNL     1      15.784  11.732  -4.429  1.00  0.00     0.058 A 
ATOM     16  C   UNL     1      15.458  12.457  -6.723  1.00  0.00     0.200 A 
ATOM     17  C   UNL     1      16.300  11.991  -5.705  1.00  0.00     0.161 A 
BRANCH  14  18
ATOM     18  O   UNL     1      13.248  13.114  -7.474  1.00  0.00    -0.504 OA
ATOM     19  H   UNL     1      12.420  13.661  -7.268  1.00  0.00     0.293 HD
ENDBRANCH  14  18
BRANCH  16  20
ATOM     20  O   UNL     1      15.992  12.711  -7.986  1.00  0.00    -0.502 OA
ATOM     21  H   UNL     1      15.861  13.598  -8.459  1.00  0.00     0.293 HD
ENDBRANCH  16  20
BRANCH  17  22
ATOM     22  O   UNL     1      17.654  11.786  -5.971  1.00  0.00    -0.504 OA
ATOM     23  H   UNL     1      18.199  12.459  -6.496  1.00  0.00     0.293 HD
ENDBRANCH  17  22
ENDBRANCH   1  12
BRANCH   2  24
ATOM     24  O   UNL     1      14.099  13.934  -2.092  1.00  0.00    -0.381 OA
ATOM     25  H   UNL     1      14.534  14.513  -1.413  1.00  0.00     0.211 HD
ENDBRANCH   2  24
BRANCH   6  26
ATOM     26  O   UNL     1      11.839  12.575   1.960  1.00  0.00    -0.507 OA
ATOM     27  H   UNL     1      12.576  12.114   2.474  1.00  0.00     0.293 HD
ENDBRANCH   6  26
BRANCH   8  28
ATOM     28  O   UNL     1       8.093  11.213  -0.710  1.00  0.00    -0.508 OA
ATOM     29  H   UNL     1       7.752  10.259  -0.721  1.00  0.00     0.293 HD
ENDBRANCH   8  28
TORSDOF 7
ENDMDL
