MODEL 1
REMARK VINA RESULT:    -5.345      0.000      0.000
REMARK INTER + INTRA:          -6.229
REMARK INTER:                  -6.126
REMARK INTRA:                  -0.103
REMARK UNBOUND:                -0.103
REMARK SMILES COc1cc(C(=O)[O-])ccc1O
REMARK SMILES IDX 5 1 9 2 4 3 10 4 3 5 11 6 6 7 7 8 8 9 2 10 1 11 12 12
REMARK H PARENT 12 13
REMARK Flexibility Score: inf
ROOT
ATOM      1  C   UNL     1      36.891 -29.941  -6.786  1.00  0.00     0.001 A 
ATOM      2  C   UNL     1      37.031 -30.327  -5.442  1.00  0.00     0.014 A 
ATOM      3  C   UNL     1      37.758 -30.488  -7.747  1.00  0.00     0.060 A 
ATOM      4  C   UNL     1      38.018 -31.241  -5.068  1.00  0.00     0.051 A 
ATOM      5  C   UNL     1      38.757 -31.412  -7.376  1.00  0.00     0.161 A 
ATOM      6  C   UNL     1      38.880 -31.784  -6.026  1.00  0.00     0.157 A 
ENDROOT
BRANCH   1   7
ATOM      7  C   UNL     1      35.846 -28.972  -7.185  1.00  0.00     0.072 C 
ATOM      8  O   UNL     1      35.062 -28.485  -6.327  1.00  0.00    -0.545 OA
ATOM      9  O   UNL     1      35.714 -28.585  -8.514  1.00  0.00    -0.545 OA
ENDBRANCH   1   7
BRANCH   5  10
ATOM     10  O   UNL     1      39.637 -31.974  -8.315  1.00  0.00    -0.493 OA
ATOM     11  C   UNL     1      40.728 -31.284  -8.915  1.00  0.00     0.278 C 
ENDBRANCH   5  10
BRANCH   6  12
ATOM     12  O   UNL     1      39.853 -32.695  -5.614  1.00  0.00    -0.504 OA
ATOM     13  H   UNL     1      40.728 -32.399  -5.197  1.00  0.00     0.293 HD
ENDBRANCH   6  12
TORSDOF 3
ENDMDL
MODEL 2
REMARK VINA RESULT:    -5.287      1.564      3.120
REMARK INTER + INTRA:          -6.163
REMARK INTER:                  -6.079
REMARK INTRA:                  -0.083
REMARK UNBOUND:                -0.103
REMARK SMILES COc1cc(C(=O)[O-])ccc1O
REMARK SMILES IDX 5 1 9 2 4 3 10 4 3 5 11 6 6 7 7 8 8 9 2 10 1 11 12 12
REMARK H PARENT 12 13
REMARK Flexibility Score: inf
ROOT
ATOM      1  C   UNL     1      36.145 -29.351  -6.979  1.00  0.00     0.001 A 
ATOM      2  C   UNL     1      37.192 -29.769  -7.819  1.00  0.00     0.014 A 
ATOM      3  C   UNL     1      36.155 -29.743  -5.629  1.00  0.00     0.060 A 
ATOM      4  C   UNL     1      38.226 -30.561  -7.319  1.00  0.00     0.051 A 
ATOM      5  C   UNL     1      37.198 -30.543  -5.118  1.00  0.00     0.161 A 
ATOM      6  C   UNL     1      38.235 -30.950  -5.976  1.00  0.00     0.157 A 
ENDROOT
BRANCH   1   7
ATOM      7  C   UNL     1      35.047 -28.512  -7.507  1.00  0.00     0.072 C 
ATOM      8  O   UNL     1      34.418 -27.727  -6.747  1.00  0.00    -0.545 OA
ATOM      9  O   UNL     1      34.691 -28.577  -8.850  1.00  0.00    -0.545 OA
ENDBRANCH   1   7
BRANCH   5  10
ATOM     10  O   UNL     1      37.234 -30.949  -3.774  1.00  0.00    -0.493 OA
ATOM     11  C   UNL     1      36.846 -30.134  -2.673  1.00  0.00     0.278 C 
ENDBRANCH   5  10
BRANCH   6  12
ATOM     12  O   UNL     1      39.287 -31.741  -5.513  1.00  0.00    -0.504 OA
ATOM     13  H   UNL     1      39.307 -32.745  -5.648  1.00  0.00     0.293 HD
ENDBRANCH   6  12
TORSDOF 3
ENDMDL
MODEL 3
REMARK VINA RESULT:    -4.845      1.491      4.830
REMARK INTER + INTRA:          -5.656
REMARK INTER:                  -5.573
REMARK INTRA:                  -0.083
REMARK UNBOUND:                -0.103
REMARK SMILES COc1cc(C(=O)[O-])ccc1O
REMARK SMILES IDX 5 1 9 2 4 3 10 4 3 5 11 6 6 7 7 8 8 9 2 10 1 11 12 12
REMARK H PARENT 12 13
REMARK Flexibility Score: inf
ROOT
ATOM      1  C   UNL     1      38.193 -30.877  -6.571  1.00  0.00     0.001 A 
ATOM      2  C   UNL     1      37.562 -30.112  -7.567  1.00  0.00     0.014 A 
ATOM      3  C   UNL     1      37.662 -30.874  -5.270  1.00  0.00     0.060 A 
ATOM      4  C   UNL     1      36.425 -29.360  -7.268  1.00  0.00     0.051 A 
ATOM      5  C   UNL     1      36.514 -30.116  -4.960  1.00  0.00     0.161 A 
ATOM      6  C   UNL     1      35.898 -29.358  -5.973  1.00  0.00     0.157 A 
ENDROOT
BRANCH   1   7
ATOM      7  C   UNL     1      39.398 -31.675  -6.886  1.00  0.00     0.072 C 
ATOM      8  O   UNL     1      39.644 -32.741  -6.260  1.00  0.00    -0.545 OA
ATOM      9  O   UNL     1      40.280 -31.259  -7.879  1.00  0.00    -0.545 OA
ENDBRANCH   1   7
BRANCH   5  10
ATOM     10  O   UNL     1      35.961 -30.094  -3.669  1.00  0.00    -0.493 OA
ATOM     11  C   UNL     1      36.720 -30.129  -2.465  1.00  0.00     0.278 C 
ENDBRANCH   5  10
BRANCH   6  12
ATOM     12  O   UNL     1      34.760 -28.594  -5.711  1.00  0.00    -0.504 OA
ATOM     13  H   UNL     1      34.358 -28.525  -4.784  1.00  0.00     0.293 HD
ENDBRANCH   6  12
TORSDOF 3
ENDMDL
MODEL 4
REMARK VINA RESULT:    -4.789      2.068      3.885
REMARK INTER + INTRA:          -5.591
REMARK INTER:                  -5.510
REMARK INTRA:                  -0.081
REMARK UNBOUND:                -0.103
REMARK SMILES COc1cc(C(=O)[O-])ccc1O
REMARK SMILES IDX 5 1 9 2 4 3 10 4 3 5 11 6 6 7 7 8 8 9 2 10 1 11 12 12
REMARK H PARENT 12 13
REMARK Flexibility Score: inf
ROOT
ATOM      1  C   UNL     1      37.386 -30.632  -4.606  1.00  0.00     0.001 A 
ATOM      2  C   UNL     1      38.347 -31.571  -5.017  1.00  0.00     0.014 A 
ATOM      3  C   UNL     1      36.784 -29.805  -5.571  1.00  0.00     0.060 A 
ATOM      4  C   UNL     1      38.699 -31.681  -6.363  1.00  0.00     0.051 A 
ATOM      5  C   UNL     1      37.136 -29.910  -6.932  1.00  0.00     0.161 A 
ATOM      6  C   UNL     1      38.100 -30.857  -7.321  1.00  0.00     0.157 A 
ENDROOT
BRANCH   1   7
ATOM      7  C   UNL     1      37.011 -30.513  -3.180  1.00  0.00     0.072 C 
ATOM      8  O   UNL     1      36.957 -29.384  -2.623  1.00  0.00    -0.545 OA
ATOM      9  O   UNL     1      36.712 -31.647  -2.432  1.00  0.00    -0.545 OA
ENDBRANCH   1   7
BRANCH   5  10
ATOM     10  O   UNL     1      36.551 -29.097  -7.917  1.00  0.00    -0.493 OA
ATOM     11  C   UNL     1      35.173 -28.745  -7.961  1.00  0.00     0.278 C 
ENDBRANCH   5  10
BRANCH   6  12
ATOM     12  O   UNL     1      38.477 -30.996  -8.657  1.00  0.00    -0.504 OA
ATOM     13  H   UNL     1      38.050 -31.680  -9.270  1.00  0.00     0.293 HD
ENDBRANCH   6  12
TORSDOF 3
ENDMDL
MODEL 5
REMARK VINA RESULT:    -4.729      1.038      4.443
REMARK INTER + INTRA:          -5.523
REMARK INTER:                  -5.650
REMARK INTRA:                   0.128
REMARK UNBOUND:                -0.103
REMARK SMILES COc1cc(C(=O)[O-])ccc1O
REMARK SMILES IDX 5 1 9 2 4 3 10 4 3 5 11 6 6 7 7 8 8 9 2 10 1 11 12 12
REMARK H PARENT 12 13
REMARK Flexibility Score: inf
ROOT
ATOM      1  C   UNL     1      38.040 -30.762  -6.497  1.00  0.00     0.001 A 
ATOM      2  C   UNL     1      37.460 -30.710  -5.218  1.00  0.00     0.014 A 
ATOM      3  C   UNL     1      37.447 -30.037  -7.545  1.00  0.00     0.060 A 
ATOM      4  C   UNL     1      36.312 -29.950  -4.993  1.00  0.00     0.051 A 
ATOM      5  C   UNL     1      36.287 -29.267  -7.324  1.00  0.00     0.161 A 
ATOM      6  C   UNL     1      35.723 -29.230  -6.036  1.00  0.00     0.157 A 
ENDROOT
BRANCH   1   7
ATOM      7  C   UNL     1      39.258 -31.567  -6.739  1.00  0.00     0.072 C 
ATOM      8  O   UNL     1      39.507 -32.582  -6.034  1.00  0.00    -0.545 OA
ATOM      9  O   UNL     1      40.147 -31.215  -7.750  1.00  0.00    -0.545 OA
ENDBRANCH   1   7
BRANCH   5  10
ATOM     10  O   UNL     1      35.673 -28.533  -8.352  1.00  0.00    -0.493 OA
ATOM     11  C   UNL     1      34.362 -28.782  -8.851  1.00  0.00     0.278 C 
ENDBRANCH   5  10
BRANCH   6  12
ATOM     12  O   UNL     1      34.575 -28.481  -5.772  1.00  0.00    -0.504 OA
ATOM     13  H   UNL     1      33.646 -28.882  -5.822  1.00  0.00     0.293 HD
ENDBRANCH   6  12
TORSDOF 3
ENDMDL
MODEL 6
REMARK VINA RESULT:    -4.565      2.158      3.772
REMARK INTER + INTRA:          -5.334
REMARK INTER:                  -5.256
REMARK INTRA:                  -0.078
REMARK UNBOUND:                -0.103
REMARK SMILES COc1cc(C(=O)[O-])ccc1O
REMARK SMILES IDX 5 1 9 2 4 3 10 4 3 5 11 6 6 7 7 8 8 9 2 10 1 11 12 12
REMARK H PARENT 12 13
REMARK Flexibility Score: inf
ROOT
ATOM      1  C   UNL     1      36.747 -30.173  -4.596  1.00  0.00     0.001 A 
ATOM      2  C   UNL     1      35.698 -29.347  -5.035  1.00  0.00     0.014 A 
ATOM      3  C   UNL     1      37.690 -30.634  -5.532  1.00  0.00     0.060 A 
ATOM      4  C   UNL     1      35.594 -28.991  -6.381  1.00  0.00     0.051 A 
ATOM      5  C   UNL     1      37.591 -30.278  -6.892  1.00  0.00     0.161 A 
ATOM      6  C   UNL     1      36.532 -29.450  -7.310  1.00  0.00     0.157 A 
ENDROOT
BRANCH   1   7
ATOM      7  C   UNL     1      36.859 -30.553  -3.171  1.00  0.00     0.072 C 
ATOM      8  O   UNL     1      36.819 -31.764  -2.825  1.00  0.00    -0.545 OA
ATOM      9  O   UNL     1      37.011 -29.578  -2.191  1.00  0.00    -0.545 OA
ENDBRANCH   1   7
BRANCH   5  10
ATOM     10  O   UNL     1      38.518 -30.723  -7.848  1.00  0.00    -0.493 OA
ATOM     11  C   UNL     1      39.130 -32.009  -7.843  1.00  0.00     0.278 C 
ENDBRANCH   5  10
BRANCH   6  12
ATOM     12  O   UNL     1      36.396 -29.072  -8.646  1.00  0.00    -0.504 OA
ATOM     13  H   UNL     1      35.561 -29.275  -9.182  1.00  0.00     0.293 HD
ENDBRANCH   6  12
TORSDOF 3
ENDMDL
MODEL 7
REMARK VINA RESULT:    -3.991      2.133      3.341
REMARK INTER + INTRA:          -4.676
REMARK INTER:                  -4.591
REMARK INTRA:                  -0.085
REMARK UNBOUND:                -0.103
REMARK SMILES COc1cc(C(=O)[O-])ccc1O
REMARK SMILES IDX 5 1 9 2 4 3 10 4 3 5 11 6 6 7 7 8 8 9 2 10 1 11 12 12
REMARK H PARENT 12 13
REMARK Flexibility Score: inf
ROOT
ATOM      1  C   UNL     1      37.434 -30.546  -4.797  1.00  0.00     0.001 A 
ATOM      2  C   UNL     1      37.007 -29.662  -5.802  1.00  0.00     0.014 A 
ATOM      3  C   UNL     1      38.249 -31.637  -5.148  1.00  0.00     0.060 A 
ATOM      4  C   UNL     1      37.386 -29.865  -7.130  1.00  0.00     0.051 A 
ATOM      5  C   UNL     1      38.635 -31.847  -6.487  1.00  0.00     0.161 A 
ATOM      6  C   UNL     1      38.196 -30.950  -7.478  1.00  0.00     0.157 A 
ENDROOT
BRANCH   1   7
ATOM      7  C   UNL     1      37.033 -30.334  -3.389  1.00  0.00     0.072 C 
ATOM      8  O   UNL     1      36.972 -29.170  -2.907  1.00  0.00    -0.545 OA
ATOM      9  O   UNL     1      36.718 -31.416  -2.574  1.00  0.00    -0.545 OA
ENDBRANCH   1   7
BRANCH   5  10
ATOM     10  O   UNL     1      39.448 -32.928  -6.867  1.00  0.00    -0.493 OA
ATOM     11  C   UNL     1      38.961 -34.205  -7.265  1.00  0.00     0.278 C 
ENDBRANCH   5  10
BRANCH   6  12
ATOM     12  O   UNL     1      38.555 -31.120  -8.815  1.00  0.00    -0.504 OA
ATOM     13  H   UNL     1      37.866 -31.180  -9.556  1.00  0.00     0.293 HD
ENDBRANCH   6  12
TORSDOF 3
ENDMDL
MODEL 8
REMARK VINA RESULT:    -3.506     20.044     20.738
REMARK INTER + INTRA:          -4.121
REMARK INTER:                  -4.025
REMARK INTRA:                  -0.096
REMARK UNBOUND:                -0.103
REMARK SMILES COc1cc(C(=O)[O-])ccc1O
REMARK SMILES IDX 5 1 9 2 4 3 10 4 3 5 11 6 6 7 7 8 8 9 2 10 1 11 12 12
REMARK H PARENT 12 13
REMARK Flexibility Score: inf
ROOT
ATOM      1  C   UNL     1      22.667 -43.982  -4.220  1.00  0.00     0.001 A 
ATOM      2  C   UNL     1      23.858 -43.237  -4.260  1.00  0.00     0.014 A 
ATOM      3  C   UNL     1      22.295 -44.610  -3.018  1.00  0.00     0.060 A 
ATOM      4  C   UNL     1      24.659 -43.122  -3.124  1.00  0.00     0.051 A 
ATOM      5  C   UNL     1      23.100 -44.498  -1.866  1.00  0.00     0.161 A 
ATOM      6  C   UNL     1      24.288 -43.747  -1.929  1.00  0.00     0.157 A 
ENDROOT
BRANCH   1   7
ATOM      7  C   UNL     1      21.816 -44.106  -5.424  1.00  0.00     0.072 C 
ATOM      8  O   UNL     1      20.875 -43.294  -5.631  1.00  0.00    -0.545 OA
ATOM      9  O   UNL     1      22.043 -45.123  -6.346  1.00  0.00    -0.545 OA
ENDBRANCH   1   7
BRANCH   5  10
ATOM     10  O   UNL     1      22.753 -45.113  -0.653  1.00  0.00    -0.493 OA
ATOM     11  C   UNL     1      21.835 -44.575   0.293  1.00  0.00     0.278 C 
ENDBRANCH   5  10
BRANCH   6  12
ATOM     12  O   UNL     1      25.114 -43.609  -0.813  1.00  0.00    -0.504 OA
ATOM     13  H   UNL     1      25.102 -44.272  -0.048  1.00  0.00     0.293 HD
ENDBRANCH   6  12
TORSDOF 3
ENDMDL
MODEL 9
REMARK VINA RESULT:    -2.808     18.990     19.597
REMARK INTER + INTRA:          -3.321
REMARK INTER:                  -3.257
REMARK INTRA:                  -0.064
REMARK UNBOUND:                -0.103
REMARK SMILES COc1cc(C(=O)[O-])ccc1O
REMARK SMILES IDX 5 1 9 2 4 3 10 4 3 5 11 6 6 7 7 8 8 9 2 10 1 11 12 12
REMARK H PARENT 12 13
REMARK Flexibility Score: inf
ROOT
ATOM      1  C   UNL     1      23.420 -44.184  -4.140  1.00  0.00     0.001 A 
ATOM      2  C   UNL     1      24.307 -44.820  -5.024  1.00  0.00     0.014 A 
ATOM      3  C   UNL     1      23.864 -43.858  -2.846  1.00  0.00     0.060 A 
ATOM      4  C   UNL     1      25.608 -45.125  -4.624  1.00  0.00     0.051 A 
ATOM      5  C   UNL     1      25.177 -44.163  -2.435  1.00  0.00     0.161 A 
ATOM      6  C   UNL     1      26.048 -44.801  -3.337  1.00  0.00     0.157 A 
ENDROOT
BRANCH   1   7
ATOM      7  C   UNL     1      22.040 -43.860  -4.561  1.00  0.00     0.072 C 
ATOM      8  O   UNL     1      21.051 -44.370  -3.968  1.00  0.00    -0.545 OA
ATOM      9  O   UNL     1      21.811 -42.986  -5.620  1.00  0.00    -0.545 OA
ENDBRANCH   1   7
BRANCH   5  10
ATOM     10  O   UNL     1      25.647 -43.850  -1.149  1.00  0.00    -0.493 OA
ATOM     11  C   UNL     1      26.366 -42.666  -0.818  1.00  0.00     0.278 C 
ENDBRANCH   5  10
BRANCH   6  12
ATOM     12  O   UNL     1      27.356 -45.121  -2.973  1.00  0.00    -0.504 OA
ATOM     13  H   UNL     1      27.573 -45.911  -2.377  1.00  0.00     0.293 HD
ENDBRANCH   6  12
TORSDOF 3
ENDMDL
