MODEL 1
REMARK VINA RESULT:    -8.135      0.000      0.000
REMARK INTER + INTRA:          -9.959
REMARK INTER:                  -9.799
REMARK INTRA:                  -0.160
REMARK UNBOUND:                -0.160
REMARK SMILES O=c1c(O)c(-c2ccc(O)c(O)c2)oc2cc(O)cc(O)c12
REMARK SMILES IDX 5 1 3 2 2 3 1 4 22 5 20 6 19 7 17 8 16 9 15 10 14 11 6 12
REMARK SMILES IDX 7 13 8 14 9 15 13 16 11 17 10 18 12 20 4 22 21 24 18 26
REMARK H PARENT 10 19 12 21 4 23 21 25 18 27
REMARK Flexibility Score: inf
ROOT
ATOM      1  C   UNL     1      38.117  80.465 124.686  1.00  0.00     0.180 A 
ATOM      2  C   UNL     1      37.416  79.730 123.715  1.00  0.00     0.208 A 
ATOM      3  C   UNL     1      37.592  80.050 122.359  1.00  0.00     0.238 A 
ATOM      4  O   UNL     1      37.004  79.353 121.493  1.00  0.00    -0.285 OA
ATOM      5  C   UNL     1      38.454  81.112 121.993  1.00  0.00     0.111 A 
ATOM      6  C   UNL     1      38.675  81.550 120.653  1.00  0.00     0.134 A 
ATOM      7  C   UNL     1      39.648  82.525 120.396  1.00  0.00     0.093 A 
ATOM      8  C   UNL     1      40.360  83.123 121.438  1.00  0.00     0.123 A 
ATOM      9  C   UNL     1      40.108  82.745 122.756  1.00  0.00     0.094 A 
ATOM     10  C   UNL     1      39.169  81.750 123.039  1.00  0.00     0.146 A 
ATOM     11  O   UNL     1      38.968  81.412 124.307  1.00  0.00    -0.452 OA
ENDROOT
BRANCH   1  12
ATOM     12  C   UNL     1      37.966  80.203 126.135  1.00  0.00     0.025 A 
ATOM     13  C   UNL     1      36.718  80.402 126.748  1.00  0.00     0.016 A 
ATOM     14  C   UNL     1      36.548  80.141 128.109  1.00  0.00     0.051 A 
ATOM     15  C   UNL     1      37.615  79.663 128.877  1.00  0.00     0.157 A 
ATOM     16  C   UNL     1      39.033  79.703 126.905  1.00  0.00     0.062 A 
ATOM     17  C   UNL     1      38.863  79.439 128.272  1.00  0.00     0.158 A 
BRANCH  15  18
ATOM     18  O   UNL     1      37.415  79.414 130.234  1.00  0.00    -0.504 OA
ATOM     19  H   UNL     1      38.184  79.368 130.892  1.00  0.00     0.293 HD
ENDBRANCH  15  18
BRANCH  17  20
ATOM     20  O   UNL     1      39.926  78.949 129.028  1.00  0.00    -0.504 OA
ATOM     21  H   UNL     1      40.744  79.516 129.222  1.00  0.00     0.293 HD
ENDBRANCH  17  20
ENDBRANCH   1  12
BRANCH   2  22
ATOM     22  O   UNL     1      36.589  78.671 124.098  1.00  0.00    -0.502 OA
ATOM     23  H   UNL     1      36.346  77.915 123.468  1.00  0.00     0.293 HD
ENDBRANCH   2  22
BRANCH   6  24
ATOM     24  O   UNL     1      37.953  81.085 119.550  1.00  0.00    -0.507 OA
ATOM     25  H   UNL     1      37.954  81.517 118.639  1.00  0.00     0.293 HD
ENDBRANCH   6  24
BRANCH   8  26
ATOM     26  O   UNL     1      41.315  84.103 121.176  1.00  0.00    -0.508 OA
ATOM     27  H   UNL     1      42.215  84.103 121.641  1.00  0.00     0.293 HD
ENDBRANCH   8  26
TORSDOF 6
ENDMDL
MODEL 2
REMARK VINA RESULT:    -7.705      2.966      6.743
REMARK INTER + INTRA:          -9.442
REMARK INTER:                  -9.186
REMARK INTRA:                  -0.256
REMARK UNBOUND:                -0.160
REMARK SMILES O=c1c(O)c(-c2ccc(O)c(O)c2)oc2cc(O)cc(O)c12
REMARK SMILES IDX 5 1 3 2 2 3 1 4 22 5 20 6 19 7 17 8 16 9 15 10 14 11 6 12
REMARK SMILES IDX 7 13 8 14 9 15 13 16 11 17 10 18 12 20 4 22 21 24 18 26
REMARK H PARENT 10 19 12 21 4 23 21 25 18 27
REMARK Flexibility Score: inf
ROOT
ATOM      1  C   UNL     1      36.013  80.704 124.574  1.00  0.00     0.180 A 
ATOM      2  C   UNL     1      37.301  80.789 124.018  1.00  0.00     0.208 A 
ATOM      3  C   UNL     1      38.417  80.646 124.857  1.00  0.00     0.238 A 
ATOM      4  O   UNL     1      39.565  80.669 124.344  1.00  0.00    -0.285 OA
ATOM      5  C   UNL     1      38.231  80.435 126.245  1.00  0.00     0.111 A 
ATOM      6  C   UNL     1      39.290  80.317 127.195  1.00  0.00     0.134 A 
ATOM      7  C   UNL     1      38.993  79.980 128.521  1.00  0.00     0.093 A 
ATOM      8  C   UNL     1      37.672  79.822 128.946  1.00  0.00     0.123 A 
ATOM      9  C   UNL     1      36.628  79.994 128.039  1.00  0.00     0.094 A 
ATOM     10  C   UNL     1      36.895  80.295 126.701  1.00  0.00     0.146 A 
ATOM     11  O   UNL     1      35.872  80.440 125.868  1.00  0.00    -0.452 OA
ENDROOT
BRANCH   1  12
ATOM     12  C   UNL     1      34.788  80.869 123.758  1.00  0.00     0.025 A 
ATOM     13  C   UNL     1      34.430  82.147 123.299  1.00  0.00     0.016 A 
ATOM     14  C   UNL     1      33.290  82.322 122.511  1.00  0.00     0.051 A 
ATOM     15  C   UNL     1      32.500  81.224 122.156  1.00  0.00     0.157 A 
ATOM     16  C   UNL     1      34.003  79.763 123.383  1.00  0.00     0.062 A 
ATOM     17  C   UNL     1      32.860  79.937 122.591  1.00  0.00     0.158 A 
BRANCH  15  18
ATOM     18  O   UNL     1      31.367  81.431 121.370  1.00  0.00    -0.504 OA
ATOM     19  H   UNL     1      30.758  80.670 121.093  1.00  0.00     0.293 HD
ENDBRANCH  15  18
BRANCH  17  20
ATOM     20  O   UNL     1      32.084  78.837 122.228  1.00  0.00    -0.504 OA
ATOM     21  H   UNL     1      31.973  78.563 121.259  1.00  0.00     0.293 HD
ENDBRANCH  17  20
ENDBRANCH   1  12
BRANCH   2  22
ATOM     22  O   UNL     1      37.460  80.974 122.642  1.00  0.00    -0.502 OA
ATOM     23  H   UNL     1      38.053  81.698 122.256  1.00  0.00     0.293 HD
ENDBRANCH   2  22
BRANCH   6  24
ATOM     24  O   UNL     1      40.636  80.545 126.896  1.00  0.00    -0.507 OA
ATOM     25  H   UNL     1      41.115  80.179 126.087  1.00  0.00     0.293 HD
ENDBRANCH   6  24
BRANCH   8  26
ATOM     26  O   UNL     1      37.385  79.502 130.271  1.00  0.00    -0.508 OA
ATOM     27  H   UNL     1      36.916  80.158 130.885  1.00  0.00     0.293 HD
ENDBRANCH   8  26
TORSDOF 6
ENDMDL
MODEL 3
REMARK VINA RESULT:    -7.495      1.749      3.335
REMARK INTER + INTRA:          -9.189
REMARK INTER:                  -8.903
REMARK INTRA:                  -0.286
REMARK UNBOUND:                -0.160
REMARK SMILES O=c1c(O)c(-c2ccc(O)c(O)c2)oc2cc(O)cc(O)c12
REMARK SMILES IDX 5 1 3 2 2 3 1 4 22 5 20 6 19 7 17 8 16 9 15 10 14 11 6 12
REMARK SMILES IDX 7 13 8 14 9 15 13 16 11 17 10 18 12 20 4 22 21 24 18 26
REMARK H PARENT 10 19 12 21 4 23 21 25 18 27
REMARK Flexibility Score: inf
ROOT
ATOM      1  C   UNL     1      37.805  79.896 124.588  1.00  0.00     0.180 A 
ATOM      2  C   UNL     1      37.847  81.075 123.825  1.00  0.00     0.208 A 
ATOM      3  C   UNL     1      37.848  80.981 122.424  1.00  0.00     0.238 A 
ATOM      4  O   UNL     1      37.830  82.041 121.747  1.00  0.00    -0.285 OA
ATOM      5  C   UNL     1      37.824  79.708 121.804  1.00  0.00     0.111 A 
ATOM      6  C   UNL     1      37.863  79.493 120.394  1.00  0.00     0.134 A 
ATOM      7  C   UNL     1      37.702  78.197 119.888  1.00  0.00     0.093 A 
ATOM      8  C   UNL     1      37.570  77.101 120.744  1.00  0.00     0.123 A 
ATOM      9  C   UNL     1      37.590  77.294 122.124  1.00  0.00     0.094 A 
ATOM     10  C   UNL     1      37.713  78.580 122.657  1.00  0.00     0.146 A 
ATOM     11  O   UNL     1      37.716  78.720 123.977  1.00  0.00    -0.452 OA
ENDROOT
BRANCH   1  12
ATOM     12  C   UNL     1      37.826  79.913 126.069  1.00  0.00     0.025 A 
ATOM     13  C   UNL     1      36.642  80.183 126.774  1.00  0.00     0.016 A 
ATOM     14  C   UNL     1      36.635  80.184 128.171  1.00  0.00     0.051 A 
ATOM     15  C   UNL     1      37.804  79.902 128.885  1.00  0.00     0.157 A 
ATOM     16  C   UNL     1      38.996  79.609 126.788  1.00  0.00     0.062 A 
ATOM     17  C   UNL     1      38.990  79.609 128.191  1.00  0.00     0.158 A 
BRANCH  15  18
ATOM     18  O   UNL     1      37.766  79.913 130.278  1.00  0.00    -0.504 OA
ATOM     19  H   UNL     1      37.959  79.084 130.828  1.00  0.00     0.293 HD
ENDBRANCH  15  18
BRANCH  17  20
ATOM     20  O   UNL     1      40.155  79.313 128.896  1.00  0.00    -0.504 OA
ATOM     21  H   UNL     1      41.005  79.850 128.767  1.00  0.00     0.293 HD
ENDBRANCH  17  20
ENDBRANCH   1  12
BRANCH   2  22
ATOM     22  O   UNL     1      37.847  82.321 124.457  1.00  0.00    -0.502 OA
ATOM     23  H   UNL     1      37.323  83.112 124.102  1.00  0.00     0.293 HD
ENDBRANCH   2  22
BRANCH   6  24
ATOM     24  O   UNL     1      38.084  80.506 119.456  1.00  0.00    -0.507 OA
ATOM     25  H   UNL     1      38.501  81.400 119.663  1.00  0.00     0.293 HD
ENDBRANCH   6  24
BRANCH   8  26
ATOM     26  O   UNL     1      37.426  75.813 120.233  1.00  0.00    -0.508 OA
ATOM     27  H   UNL     1      36.514  75.429 120.015  1.00  0.00     0.293 HD
ENDBRANCH   8  26
TORSDOF 6
ENDMDL
MODEL 4
REMARK VINA RESULT:    -7.476      3.460      7.788
REMARK INTER + INTRA:          -9.166
REMARK INTER:                  -9.021
REMARK INTRA:                  -0.144
REMARK UNBOUND:                -0.160
REMARK SMILES O=c1c(O)c(-c2ccc(O)c(O)c2)oc2cc(O)cc(O)c12
REMARK SMILES IDX 5 1 3 2 2 3 1 4 22 5 20 6 19 7 17 8 16 9 15 10 14 11 6 12
REMARK SMILES IDX 7 13 8 14 9 15 13 16 11 17 10 18 12 20 4 22 21 24 18 26
REMARK H PARENT 10 19 12 21 4 23 21 25 18 27
REMARK Flexibility Score: inf
ROOT
ATOM      1  C   UNL     1      37.321  78.884 121.009  1.00  0.00     0.180 A 
ATOM      2  C   UNL     1      38.203  78.659 122.080  1.00  0.00     0.208 A 
ATOM      3  C   UNL     1      37.784  78.968 123.384  1.00  0.00     0.238 A 
ATOM      4  O   UNL     1      38.558  78.713 124.343  1.00  0.00    -0.285 OA
ATOM      5  C   UNL     1      36.496  79.513 123.599  1.00  0.00     0.111 A 
ATOM      6  C   UNL     1      35.983  79.902 124.873  1.00  0.00     0.134 A 
ATOM      7  C   UNL     1      34.647  80.307 124.985  1.00  0.00     0.093 A 
ATOM      8  C   UNL     1      33.826  80.402 123.859  1.00  0.00     0.123 A 
ATOM      9  C   UNL     1      34.335  80.081 122.602  1.00  0.00     0.094 A 
ATOM     10  C   UNL     1      35.653  79.639 122.464  1.00  0.00     0.146 A 
ATOM     11  O   UNL     1      36.095  79.334 121.250  1.00  0.00    -0.452 OA
ENDROOT
BRANCH   1  12
ATOM     12  C   UNL     1      37.699  78.606 119.605  1.00  0.00     0.025 A 
ATOM     13  C   UNL     1      37.821  79.670 118.698  1.00  0.00     0.016 A 
ATOM     14  C   UNL     1      38.197  79.433 117.373  1.00  0.00     0.051 A 
ATOM     15  C   UNL     1      38.471  78.132 116.938  1.00  0.00     0.157 A 
ATOM     16  C   UNL     1      37.995  77.300 119.170  1.00  0.00     0.062 A 
ATOM     17  C   UNL     1      38.373  77.061 117.841  1.00  0.00     0.158 A 
BRANCH  15  18
ATOM     18  O   UNL     1      38.841  77.926 115.610  1.00  0.00    -0.504 OA
ATOM     19  H   UNL     1      39.720  78.267 115.237  1.00  0.00     0.293 HD
ENDBRANCH  15  18
BRANCH  17  20
ATOM     20  O   UNL     1      38.658  75.763 117.417  1.00  0.00    -0.504 OA
ATOM     21  H   UNL     1      39.610  75.418 117.372  1.00  0.00     0.293 HD
ENDBRANCH  17  20
ENDBRANCH   1  12
BRANCH   2  22
ATOM     22  O   UNL     1      39.462  78.098 121.848  1.00  0.00    -0.502 OA
ATOM     23  H   UNL     1      39.821  77.937 120.915  1.00  0.00     0.293 HD
ENDBRANCH   2  22
BRANCH   6  24
ATOM     24  O   UNL     1      36.744  79.933 126.045  1.00  0.00    -0.507 OA
ATOM     25  H   UNL     1      36.756  79.204 126.742  1.00  0.00     0.293 HD
ENDBRANCH   6  24
BRANCH   8  26
ATOM     26  O   UNL     1      32.503  80.821 123.977  1.00  0.00    -0.508 OA
ATOM     27  H   UNL     1      32.169  81.660 123.516  1.00  0.00     0.293 HD
ENDBRANCH   8  26
TORSDOF 6
ENDMDL
MODEL 5
REMARK VINA RESULT:    -7.466      3.052      3.747
REMARK INTER + INTRA:          -9.154
REMARK INTER:                  -8.857
REMARK INTRA:                  -0.297
REMARK UNBOUND:                -0.160
REMARK SMILES O=c1c(O)c(-c2ccc(O)c(O)c2)oc2cc(O)cc(O)c12
REMARK SMILES IDX 5 1 3 2 2 3 1 4 22 5 20 6 19 7 17 8 16 9 15 10 14 11 6 12
REMARK SMILES IDX 7 13 8 14 9 15 13 16 11 17 10 18 12 20 4 22 21 24 18 26
REMARK H PARENT 10 19 12 21 4 23 21 25 18 27
REMARK Flexibility Score: inf
ROOT
ATOM      1  C   UNL     1      36.859  80.813 125.222  1.00  0.00     0.180 A 
ATOM      2  C   UNL     1      36.383  79.931 124.237  1.00  0.00     0.208 A 
ATOM      3  C   UNL     1      35.482  80.408 123.272  1.00  0.00     0.238 A 
ATOM      4  O   UNL     1      35.102  79.628 122.362  1.00  0.00    -0.285 OA
ATOM      5  C   UNL     1      35.055  81.758 123.315  1.00  0.00     0.111 A 
ATOM      6  C   UNL     1      34.114  82.338 122.413  1.00  0.00     0.134 A 
ATOM      7  C   UNL     1      33.864  83.716 122.467  1.00  0.00     0.093 A 
ATOM      8  C   UNL     1      34.473  84.520 123.433  1.00  0.00     0.123 A 
ATOM      9  C   UNL     1      35.348  83.952 124.356  1.00  0.00     0.094 A 
ATOM     10  C   UNL     1      35.644  82.588 124.304  1.00  0.00     0.146 A 
ATOM     11  O   UNL     1      36.492  82.089 125.195  1.00  0.00    -0.452 OA
ENDROOT
BRANCH   1  12
ATOM     12  C   UNL     1      37.792  80.377 126.286  1.00  0.00     0.025 A 
ATOM     13  C   UNL     1      39.167  80.299 126.012  1.00  0.00     0.016 A 
ATOM     14  C   UNL     1      40.066  79.910 127.008  1.00  0.00     0.051 A 
ATOM     15  C   UNL     1      39.610  79.608 128.295  1.00  0.00     0.157 A 
ATOM     16  C   UNL     1      37.337  80.093 127.588  1.00  0.00     0.062 A 
ATOM     17  C   UNL     1      38.240  79.704 128.588  1.00  0.00     0.158 A 
BRANCH  15  18
ATOM     18  O   UNL     1      40.532  79.221 129.266  1.00  0.00    -0.504 OA
ATOM     19  H   UNL     1      41.449  79.646 129.338  1.00  0.00     0.293 HD
ENDBRANCH  15  18
BRANCH  17  20
ATOM     20  O   UNL     1      37.780  79.419 129.873  1.00  0.00    -0.504 OA
ATOM     21  H   UNL     1      37.775  80.122 130.603  1.00  0.00     0.293 HD
ENDBRANCH  17  20
ENDBRANCH   1  12
BRANCH   2  22
ATOM     22  O   UNL     1      36.835  78.609 124.200  1.00  0.00    -0.502 OA
ATOM     23  H   UNL     1      37.075  78.140 123.335  1.00  0.00     0.293 HD
ENDBRANCH   2  22
BRANCH   6  24
ATOM     24  O   UNL     1      33.382  81.609 121.471  1.00  0.00    -0.507 OA
ATOM     25  H   UNL     1      32.916  82.009 120.671  1.00  0.00     0.293 HD
ENDBRANCH   6  24
BRANCH   8  26
ATOM     26  O   UNL     1      34.207  85.887 123.490  1.00  0.00    -0.508 OA
ATOM     27  H   UNL     1      33.441  86.300 122.971  1.00  0.00     0.293 HD
ENDBRANCH   8  26
TORSDOF 6
ENDMDL
MODEL 6
REMARK VINA RESULT:    -7.406      1.711      2.141
REMARK INTER + INTRA:          -9.082
REMARK INTER:                  -9.239
REMARK INTRA:                   0.157
REMARK UNBOUND:                -0.160
REMARK SMILES O=c1c(O)c(-c2ccc(O)c(O)c2)oc2cc(O)cc(O)c12
REMARK SMILES IDX 5 1 3 2 2 3 1 4 22 5 20 6 19 7 17 8 16 9 15 10 14 11 6 12
REMARK SMILES IDX 7 13 8 14 9 15 13 16 11 17 10 18 12 20 4 22 21 24 18 26
REMARK H PARENT 10 19 12 21 4 23 21 25 18 27
REMARK Flexibility Score: inf
ROOT
ATOM      1  C   UNL     1      38.234  81.140 125.100  1.00  0.00     0.180 A 
ATOM      2  C   UNL     1      36.942  81.470 124.658  1.00  0.00     0.208 A 
ATOM      3  C   UNL     1      36.796  82.229 123.486  1.00  0.00     0.238 A 
ATOM      4  O   UNL     1      35.636  82.474 123.065  1.00  0.00    -0.285 OA
ATOM      5  C   UNL     1      37.944  82.663 122.780  1.00  0.00     0.111 A 
ATOM      6  C   UNL     1      37.916  83.471 121.604  1.00  0.00     0.134 A 
ATOM      7  C   UNL     1      39.107  83.731 120.916  1.00  0.00     0.093 A 
ATOM      8  C   UNL     1      40.333  83.268 121.398  1.00  0.00     0.123 A 
ATOM      9  C   UNL     1      40.379  82.528 122.578  1.00  0.00     0.094 A 
ATOM     10  C   UNL     1      39.202  82.222 123.267  1.00  0.00     0.146 A 
ATOM     11  O   UNL     1      39.289  81.506 124.381  1.00  0.00    -0.452 OA
ENDROOT
BRANCH   1  12
ATOM     12  C   UNL     1      38.469  80.364 126.340  1.00  0.00     0.025 A 
ATOM     13  C   UNL     1      39.550  79.471 126.402  1.00  0.00     0.016 A 
ATOM     14  C   UNL     1      39.803  78.744 127.568  1.00  0.00     0.051 A 
ATOM     15  C   UNL     1      38.989  78.909 128.694  1.00  0.00     0.157 A 
ATOM     16  C   UNL     1      37.665  80.544 127.480  1.00  0.00     0.062 A 
ATOM     17  C   UNL     1      37.918  79.816 128.652  1.00  0.00     0.158 A 
BRANCH  15  18
ATOM     18  O   UNL     1      39.265  78.168 129.842  1.00  0.00    -0.504 OA
ATOM     19  H   UNL     1      38.530  77.834 130.455  1.00  0.00     0.293 HD
ENDBRANCH  15  18
BRANCH  17  20
ATOM     20  O   UNL     1      37.112  79.996 129.775  1.00  0.00    -0.504 OA
ATOM     21  H   UNL     1      37.466  79.838 130.712  1.00  0.00     0.293 HD
ENDBRANCH  17  20
ENDBRANCH   1  12
BRANCH   2  22
ATOM     22  O   UNL     1      35.822  81.011 125.356  1.00  0.00    -0.502 OA
ATOM     23  H   UNL     1      35.555  80.035 125.375  1.00  0.00     0.293 HD
ENDBRANCH   2  22
BRANCH   6  24
ATOM     24  O   UNL     1      36.757  84.060 121.090  1.00  0.00    -0.507 OA
ATOM     25  H   UNL     1      36.351  84.919 121.428  1.00  0.00     0.293 HD
ENDBRANCH   6  24
BRANCH   8  26
ATOM     26  O   UNL     1      41.516  83.545 120.715  1.00  0.00    -0.508 OA
ATOM     27  H   UNL     1      42.236  82.842 120.596  1.00  0.00     0.293 HD
ENDBRANCH   8  26
TORSDOF 6
ENDMDL
MODEL 7
REMARK VINA RESULT:    -7.324      3.375      5.408
REMARK INTER + INTRA:          -8.983
REMARK INTER:                  -8.763
REMARK INTRA:                  -0.220
REMARK UNBOUND:                -0.160
REMARK SMILES O=c1c(O)c(-c2ccc(O)c(O)c2)oc2cc(O)cc(O)c12
REMARK SMILES IDX 5 1 3 2 2 3 1 4 22 5 20 6 19 7 17 8 16 9 15 10 14 11 6 12
REMARK SMILES IDX 7 13 8 14 9 15 13 16 11 17 10 18 12 20 4 22 21 24 18 26
REMARK H PARENT 10 19 12 21 4 23 21 25 18 27
REMARK Flexibility Score: inf
ROOT
ATOM      1  C   UNL     1      35.630  80.316 124.886  1.00  0.00     0.180 A 
ATOM      2  C   UNL     1      35.319  81.470 124.147  1.00  0.00     0.208 A 
ATOM      3  C   UNL     1      34.362  81.386 123.124  1.00  0.00     0.238 A 
ATOM      4  O   UNL     1      34.048  82.434 122.502  1.00  0.00    -0.285 OA
ATOM      5  C   UNL     1      33.740  80.146 122.841  1.00  0.00     0.111 A 
ATOM      6  C   UNL     1      32.786  79.936 121.800  1.00  0.00     0.134 A 
ATOM      7  C   UNL     1      32.139  78.698 121.696  1.00  0.00     0.093 A 
ATOM      8  C   UNL     1      32.459  77.644 122.554  1.00  0.00     0.123 A 
ATOM      9  C   UNL     1      33.432  77.820 123.536  1.00  0.00     0.094 A 
ATOM     10  C   UNL     1      34.069  79.055 123.687  1.00  0.00     0.146 A 
ATOM     11  O   UNL     1      34.982  79.183 124.642  1.00  0.00    -0.452 OA
ENDROOT
BRANCH   1  12
ATOM     12  C   UNL     1      36.646  80.320 125.964  1.00  0.00     0.025 A 
ATOM     13  C   UNL     1      38.003  80.468 125.635  1.00  0.00     0.016 A 
ATOM     14  C   UNL     1      38.976  80.495 126.637  1.00  0.00     0.051 A 
ATOM     15  C   UNL     1      38.608  80.390 127.983  1.00  0.00     0.157 A 
ATOM     16  C   UNL     1      36.277  80.235 127.319  1.00  0.00     0.062 A 
ATOM     17  C   UNL     1      37.252  80.264 128.326  1.00  0.00     0.158 A 
BRANCH  15  18
ATOM     18  O   UNL     1      39.602  80.418 128.960  1.00  0.00    -0.504 OA
ATOM     19  H   UNL     1      39.596  79.786 129.752  1.00  0.00     0.293 HD
ENDBRANCH  15  18
BRANCH  17  20
ATOM     20  O   UNL     1      36.878  80.173 129.667  1.00  0.00    -0.504 OA
ATOM     21  H   UNL     1      37.154  80.877 130.342  1.00  0.00     0.293 HD
ENDBRANCH  17  20
ENDBRANCH   1  12
BRANCH   2  22
ATOM     22  O   UNL     1      35.929  82.689 124.458  1.00  0.00    -0.502 OA
ATOM     23  H   UNL     1      36.254  82.912 125.390  1.00  0.00     0.293 HD
ENDBRANCH   2  22
BRANCH   6  24
ATOM     24  O   UNL     1      32.462  80.893 120.834  1.00  0.00    -0.507 OA
ATOM     25  H   UNL     1      31.839  80.735 120.057  1.00  0.00     0.293 HD
ENDBRANCH   6  24
BRANCH   8  26
ATOM     26  O   UNL     1      31.821  76.411 122.433  1.00  0.00    -0.508 OA
ATOM     27  H   UNL     1      31.924  75.840 121.603  1.00  0.00     0.293 HD
ENDBRANCH   8  26
TORSDOF 6
ENDMDL
MODEL 8
REMARK VINA RESULT:    -7.274      5.239      6.634
REMARK INTER + INTRA:          -8.922
REMARK INTER:                  -8.599
REMARK INTRA:                  -0.323
REMARK UNBOUND:                -0.160
REMARK SMILES O=c1c(O)c(-c2ccc(O)c(O)c2)oc2cc(O)cc(O)c12
REMARK SMILES IDX 5 1 3 2 2 3 1 4 22 5 20 6 19 7 17 8 16 9 15 10 14 11 6 12
REMARK SMILES IDX 7 13 8 14 9 15 13 16 11 17 10 18 12 20 4 22 21 24 18 26
REMARK H PARENT 10 19 12 21 4 23 21 25 18 27
REMARK Flexibility Score: inf
ROOT
ATOM      1  C   UNL     1      33.644  82.128 123.214  1.00  0.00     0.180 A 
ATOM      2  C   UNL     1      32.738  83.127 123.607  1.00  0.00     0.208 A 
ATOM      3  C   UNL     1      33.178  84.459 123.671  1.00  0.00     0.238 A 
ATOM      4  O   UNL     1      32.348  85.356 123.970  1.00  0.00    -0.285 OA
ATOM      5  C   UNL     1      34.522  84.772 123.357  1.00  0.00     0.111 A 
ATOM      6  C   UNL     1      35.087  86.081 123.428  1.00  0.00     0.134 A 
ATOM      7  C   UNL     1      36.393  86.295 122.969  1.00  0.00     0.093 A 
ATOM      8  C   UNL     1      37.176  85.236 122.505  1.00  0.00     0.123 A 
ATOM      9  C   UNL     1      36.654  83.944 122.488  1.00  0.00     0.094 A 
ATOM     10  C   UNL     1      35.342  83.706 122.905  1.00  0.00     0.146 A 
ATOM     11  O   UNL     1      34.880  82.462 122.863  1.00  0.00    -0.452 OA
ENDROOT
BRANCH   1  12
ATOM     12  C   UNL     1      33.261  80.699 123.146  1.00  0.00     0.025 A 
ATOM     13  C   UNL     1      33.415  79.887 124.281  1.00  0.00     0.016 A 
ATOM     14  C   UNL     1      33.041  78.541 124.246  1.00  0.00     0.051 A 
ATOM     15  C   UNL     1      32.495  77.990 123.082  1.00  0.00     0.157 A 
ATOM     16  C   UNL     1      32.692  80.147 121.983  1.00  0.00     0.062 A 
ATOM     17  C   UNL     1      32.315  78.797 121.947  1.00  0.00     0.158 A 
BRANCH  15  18
ATOM     18  O   UNL     1      32.134  76.643 123.076  1.00  0.00    -0.504 OA
ATOM     19  H   UNL     1      31.186  76.341 122.883  1.00  0.00     0.293 HD
ENDBRANCH  15  18
BRANCH  17  20
ATOM     20  O   UNL     1      31.757  78.257 120.789  1.00  0.00    -0.504 OA
ATOM     21  H   UNL     1      31.253  78.833 120.124  1.00  0.00     0.293 HD
ENDBRANCH  17  20
ENDBRANCH   1  12
BRANCH   2  22
ATOM     22  O   UNL     1      31.409  82.799 123.890  1.00  0.00    -0.502 OA
ATOM     23  H   UNL     1      30.765  83.457 124.312  1.00  0.00     0.293 HD
ENDBRANCH   2  22
BRANCH   6  24
ATOM     24  O   UNL     1      34.423  87.190 123.960  1.00  0.00    -0.507 OA
ATOM     25  H   UNL     1      33.665  87.141 124.623  1.00  0.00     0.293 HD
ENDBRANCH   6  24
BRANCH   8  26
ATOM     26  O   UNL     1      38.480  85.455 122.065  1.00  0.00    -0.508 OA
ATOM     27  H   UNL     1      39.112  86.069 122.566  1.00  0.00     0.293 HD
ENDBRANCH   8  26
TORSDOF 6
ENDMDL
MODEL 9
REMARK VINA RESULT:    -7.221      2.592      4.662
REMARK INTER + INTRA:          -8.858
REMARK INTER:                  -8.729
REMARK INTRA:                  -0.129
REMARK UNBOUND:                -0.160
REMARK SMILES O=c1c(O)c(-c2ccc(O)c(O)c2)oc2cc(O)cc(O)c12
REMARK SMILES IDX 5 1 3 2 2 3 1 4 22 5 20 6 19 7 17 8 16 9 15 10 14 11 6 12
REMARK SMILES IDX 7 13 8 14 9 15 13 16 11 17 10 18 12 20 4 22 21 24 18 26
REMARK H PARENT 10 19 12 21 4 23 21 25 18 27
REMARK Flexibility Score: inf
ROOT
ATOM      1  C   UNL     1      36.891  80.272 124.809  1.00  0.00     0.180 A 
ATOM      2  C   UNL     1      37.141  81.283 123.866  1.00  0.00     0.208 A 
ATOM      3  C   UNL     1      36.251  81.449 122.793  1.00  0.00     0.238 A 
ATOM      4  O   UNL     1      36.450  82.390 121.982  1.00  0.00    -0.285 OA
ATOM      5  C   UNL     1      35.131  80.591 122.667  1.00  0.00     0.111 A 
ATOM      6  C   UNL     1      34.187  80.642 121.598  1.00  0.00     0.134 A 
ATOM      7  C   UNL     1      33.046  79.831 121.645  1.00  0.00     0.093 A 
ATOM      8  C   UNL     1      32.850  78.924 122.689  1.00  0.00     0.123 A 
ATOM      9  C   UNL     1      33.796  78.824 123.707  1.00  0.00     0.094 A 
ATOM     10  C   UNL     1      34.926  79.646 123.706  1.00  0.00     0.146 A 
ATOM     11  O   UNL     1      35.797  79.526 124.701  1.00  0.00    -0.452 OA
ENDROOT
BRANCH   1  12
ATOM     12  C   UNL     1      37.796  80.020 125.953  1.00  0.00     0.025 A 
ATOM     13  C   UNL     1      39.131  79.657 125.713  1.00  0.00     0.016 A 
ATOM     14  C   UNL     1      40.008  79.435 126.777  1.00  0.00     0.051 A 
ATOM     15  C   UNL     1      39.570  79.586 128.097  1.00  0.00     0.157 A 
ATOM     16  C   UNL     1      37.363  80.190 127.282  1.00  0.00     0.062 A 
ATOM     17  C   UNL     1      38.242  79.969 128.351  1.00  0.00     0.158 A 
BRANCH  15  18
ATOM     18  O   UNL     1      40.467  79.355 129.139  1.00  0.00    -0.504 OA
ATOM     19  H   UNL     1      40.395  79.835 130.028  1.00  0.00     0.293 HD
ENDBRANCH  15  18
BRANCH  17  20
ATOM     20  O   UNL     1      37.804  80.135 129.664  1.00  0.00    -0.504 OA
ATOM     21  H   UNL     1      38.406  80.526 130.379  1.00  0.00     0.293 HD
ENDBRANCH  17  20
ENDBRANCH   1  12
BRANCH   2  22
ATOM     22  O   UNL     1      38.239  82.133 124.021  1.00  0.00    -0.502 OA
ATOM     23  H   UNL     1      38.138  83.118 124.235  1.00  0.00     0.293 HD
ENDBRANCH   2  22
BRANCH   6  24
ATOM     24  O   UNL     1      34.335  81.444 120.463  1.00  0.00    -0.507 OA
ATOM     25  H   UNL     1      35.031  82.167 120.358  1.00  0.00     0.293 HD
ENDBRANCH   6  24
BRANCH   8  26
ATOM     26  O   UNL     1      31.720  78.109 122.720  1.00  0.00    -0.508 OA
ATOM     27  H   UNL     1      31.756  77.166 123.088  1.00  0.00     0.293 HD
ENDBRANCH   8  26
TORSDOF 6
ENDMDL
