MODEL 1
REMARK VINA RESULT:    -2.383      0.000      0.000
REMARK INTER + INTRA:          -2.383
REMARK INTER:                  -2.383
REMARK INTRA:                   0.000
REMARK UNBOUND:                 0.000
REMARK SMILES CC1(C)O[C@]2(C)CC[C@H]1CC2
REMARK SMILES IDX 1 1 2 2 9 3 8 4 7 5 5 6 4 7 11 8 10 9 6 10 3 11
REMARK H PARENT
REMARK Flexibility Score: inf
ROOT
ATOM      1  C   UNL     1       3.918  -2.315  15.183  1.00  0.00     0.042 C 
ATOM      2  C   UNL     1       3.122  -2.283  13.860  1.00  0.00     0.066 C 
ATOM      3  C   UNL     1       1.964  -3.354  13.880  1.00  0.00     0.021 C 
ATOM      4  C   UNL     1       1.170  -3.241  12.556  1.00  0.00     0.009 C 
ATOM      5  C   UNL     1       0.756  -1.767  12.335  1.00  0.00     0.035 C 
ATOM      6  C   UNL     1       1.193  -0.908  13.556  1.00  0.00     0.066 C 
ATOM      7  O   UNL     1       2.616  -0.953  13.677  1.00  0.00    -0.369 OA
ATOM      8  C   UNL     1       0.553  -1.498  14.846  1.00  0.00     0.035 C 
ATOM      9  C   UNL     1       0.971  -2.979  15.008  1.00  0.00     0.009 C 
ATOM     10  C   UNL     1       0.759   0.549  13.365  1.00  0.00     0.042 C 
ATOM     11  C   UNL     1       4.118  -2.578  12.718  1.00  0.00     0.042 C 
ENDROOT
TORSDOF 0
ENDMDL
MODEL 2
REMARK VINA RESULT:    -2.372      7.001      8.663
REMARK INTER + INTRA:          -2.372
REMARK INTER:                  -2.372
REMARK INTRA:                   0.000
REMARK UNBOUND:                 0.000
REMARK SMILES CC1(C)O[C@]2(C)CC[C@H]1CC2
REMARK SMILES IDX 1 1 2 2 9 3 8 4 7 5 5 6 4 7 11 8 10 9 6 10 3 11
REMARK H PARENT
REMARK Flexibility Score: inf
ROOT
ATOM      1  C   UNL     1       6.706  -1.776  18.661  1.00  0.00     0.042 C 
ATOM      2  C   UNL     1       7.913  -2.709  18.902  1.00  0.00     0.066 C 
ATOM      3  C   UNL     1       7.701  -4.092  18.172  1.00  0.00     0.021 C 
ATOM      4  C   UNL     1       8.958  -4.965  18.403  1.00  0.00     0.009 C 
ATOM      5  C   UNL     1      10.218  -4.154  18.015  1.00  0.00     0.035 C 
ATOM      6  C   UNL     1       9.799  -2.772  17.438  1.00  0.00     0.066 C 
ATOM      7  O   UNL     1       9.094  -2.039  18.441  1.00  0.00    -0.369 OA
ATOM      8  C   UNL     1       8.861  -2.996  16.217  1.00  0.00     0.035 C 
ATOM      9  C   UNL     1       7.633  -3.834  16.646  1.00  0.00     0.009 C 
ATOM     10  C   UNL     1      11.036  -1.972  17.019  1.00  0.00     0.042 C 
ATOM     11  C   UNL     1       8.039  -2.912  20.427  1.00  0.00     0.042 C 
ENDROOT
TORSDOF 0
ENDMDL
MODEL 3
REMARK VINA RESULT:    -2.275      5.998      7.718
REMARK INTER + INTRA:          -2.275
REMARK INTER:                  -2.275
REMARK INTRA:                   0.000
REMARK UNBOUND:                 0.000
REMARK SMILES CC1(C)O[C@]2(C)CC[C@H]1CC2
REMARK SMILES IDX 1 1 2 2 9 3 8 4 7 5 5 6 4 7 11 8 10 9 6 10 3 11
REMARK H PARENT
REMARK Flexibility Score: inf
ROOT
ATOM      1  C   UNL     1       5.250  -5.637  19.509  1.00  0.00     0.042 C 
ATOM      2  C   UNL     1       5.644  -4.326  18.795  1.00  0.00     0.066 C 
ATOM      3  C   UNL     1       4.876  -3.098  19.422  1.00  0.00     0.021 C 
ATOM      4  C   UNL     1       5.346  -1.809  18.706  1.00  0.00     0.009 C 
ATOM      5  C   UNL     1       6.893  -1.752  18.725  1.00  0.00     0.035 C 
ATOM      6  C   UNL     1       7.455  -2.956  19.534  1.00  0.00     0.066 C 
ATOM      7  O   UNL     1       7.067  -4.173  18.895  1.00  0.00    -0.369 OA
ATOM      8  C   UNL     1       6.860  -2.921  20.972  1.00  0.00     0.035 C 
ATOM      9  C   UNL     1       5.315  -2.950  20.900  1.00  0.00     0.009 C 
ATOM     10  C   UNL     1       8.985  -2.893  19.589  1.00  0.00     0.042 C 
ATOM     11  C   UNL     1       5.282  -4.490  17.303  1.00  0.00     0.042 C 
ENDROOT
TORSDOF 0
ENDMDL
MODEL 4
REMARK VINA RESULT:    -2.242      1.452      3.692
REMARK INTER + INTRA:          -2.242
REMARK INTER:                  -2.242
REMARK INTRA:                   0.000
REMARK UNBOUND:                 0.000
REMARK SMILES CC1(C)O[C@]2(C)CC[C@H]1CC2
REMARK SMILES IDX 1 1 2 2 9 3 8 4 7 5 5 6 4 7 11 8 10 9 6 10 3 11
REMARK H PARENT
REMARK Flexibility Score: inf
ROOT
ATOM      1  C   UNL     1       1.812  -1.058  13.281  1.00  0.00     0.042 C 
ATOM      2  C   UNL     1       2.705  -2.100  13.989  1.00  0.00     0.066 C 
ATOM      3  C   UNL     1       2.331  -3.561  13.524  1.00  0.00     0.021 C 
ATOM      4  C   UNL     1       3.288  -4.556  14.223  1.00  0.00     0.009 C 
ATOM      5  C   UNL     1       4.750  -4.101  13.995  1.00  0.00     0.035 C 
ATOM      6  C   UNL     1       4.775  -2.853  13.067  1.00  0.00     0.066 C 
ATOM      7  O   UNL     1       4.074  -1.783  13.701  1.00  0.00    -0.369 OA
ATOM      8  C   UNL     1       4.066  -3.204  11.727  1.00  0.00     0.035 C 
ATOM      9  C   UNL     1       2.621  -3.681  12.008  1.00  0.00     0.009 C 
ATOM     10  C   UNL     1       6.219  -2.412  12.806  1.00  0.00     0.042 C 
ATOM     11  C   UNL     1       2.483  -1.938  15.508  1.00  0.00     0.042 C 
ENDROOT
TORSDOF 0
ENDMDL
MODEL 5
REMARK VINA RESULT:    -2.232      8.152      9.607
REMARK INTER + INTRA:          -2.232
REMARK INTER:                  -2.232
REMARK INTRA:                   0.000
REMARK UNBOUND:                 0.000
REMARK SMILES CC1(C)O[C@]2(C)CC[C@H]1CC2
REMARK SMILES IDX 1 1 2 2 9 3 8 4 7 5 5 6 4 7 11 8 10 9 6 10 3 11
REMARK H PARENT
REMARK Flexibility Score: inf
ROOT
ATOM      1  C   UNL     1       6.233   5.057  17.546  1.00  0.00     0.042 C 
ATOM      2  C   UNL     1       5.837   5.417  16.098  1.00  0.00     0.066 C 
ATOM      3  C   UNL     1       6.228   6.910  15.769  1.00  0.00     0.021 C 
ATOM      4  C   UNL     1       5.857   7.199  14.294  1.00  0.00     0.009 C 
ATOM      5  C   UNL     1       6.467   6.101  13.391  1.00  0.00     0.035 C 
ATOM      6  C   UNL     1       7.324   5.127  14.251  1.00  0.00     0.066 C 
ATOM      7  O   UNL     1       6.484   4.490  15.215  1.00  0.00    -0.369 OA
ATOM      8  C   UNL     1       8.425   5.941  14.992  1.00  0.00     0.035 C 
ATOM      9  C   UNL     1       7.768   7.043  15.857  1.00  0.00     0.009 C 
ATOM     10  C   UNL     1       7.962   4.053  13.364  1.00  0.00     0.042 C 
ATOM     11  C   UNL     1       4.312   5.213  15.975  1.00  0.00     0.042 C 
ENDROOT
TORSDOF 0
ENDMDL
MODEL 6
REMARK VINA RESULT:    -2.202      6.498      7.750
REMARK INTER + INTRA:          -2.202
REMARK INTER:                  -2.202
REMARK INTRA:                   0.000
REMARK UNBOUND:                 0.000
REMARK SMILES CC1(C)O[C@]2(C)CC[C@H]1CC2
REMARK SMILES IDX 1 1 2 2 9 3 8 4 7 5 5 6 4 7 11 8 10 9 6 10 3 11
REMARK H PARENT
REMARK Flexibility Score: inf
ROOT
ATOM      1  C   UNL     1       6.700  -4.654  17.276  1.00  0.00     0.042 C 
ATOM      2  C   UNL     1       6.622  -4.424  18.801  1.00  0.00     0.066 C 
ATOM      3  C   UNL     1       7.647  -3.311  19.248  1.00  0.00     0.021 C 
ATOM      4  C   UNL     1       7.490  -3.085  20.771  1.00  0.00     0.009 C 
ATOM      5  C   UNL     1       5.998  -2.834  21.096  1.00  0.00     0.035 C 
ATOM      6  C   UNL     1       5.170  -2.800  19.780  1.00  0.00     0.066 C 
ATOM      7  O   UNL     1       5.272  -4.068  19.129  1.00  0.00    -0.369 OA
ATOM      8  C   UNL     1       5.749  -1.699  18.846  1.00  0.00     0.035 C 
ATOM      9  C   UNL     1       7.247  -1.976  18.574  1.00  0.00     0.009 C 
ATOM     10  C   UNL     1       3.695  -2.519  20.085  1.00  0.00     0.042 C 
ATOM     11  C   UNL     1       6.944  -5.769  19.485  1.00  0.00     0.042 C 
ENDROOT
TORSDOF 0
ENDMDL
MODEL 7
REMARK VINA RESULT:    -2.145      1.711      2.838
REMARK INTER + INTRA:          -2.145
REMARK INTER:                  -2.145
REMARK INTRA:                   0.000
REMARK UNBOUND:                 0.000
REMARK SMILES CC1(C)O[C@]2(C)CC[C@H]1CC2
REMARK SMILES IDX 1 1 2 2 9 3 8 4 7 5 5 6 4 7 11 8 10 9 6 10 3 11
REMARK H PARENT
REMARK Flexibility Score: inf
ROOT
ATOM      1  C   UNL     1      -0.043  -3.639  15.284  1.00  0.00     0.042 C 
ATOM      2  C   UNL     1       0.620  -2.284  14.953  1.00  0.00     0.066 C 
ATOM      3  C   UNL     1       1.572  -2.421  13.702  1.00  0.00     0.021 C 
ATOM      4  C   UNL     1       2.166  -1.027  13.385  1.00  0.00     0.009 C 
ATOM      5  C   UNL     1       1.017   0.004  13.280  1.00  0.00     0.035 C 
ATOM      6  C   UNL     1      -0.354  -0.716  13.436  1.00  0.00     0.066 C 
ATOM      7  O   UNL     1      -0.421  -1.322  14.728  1.00  0.00    -0.369 OA
ATOM      8  C   UNL     1      -0.471  -1.822  12.348  1.00  0.00     0.035 C 
ATOM      9  C   UNL     1       0.714  -2.810  12.474  1.00  0.00     0.009 C 
ATOM     10  C   UNL     1      -1.502   0.288  13.301  1.00  0.00     0.042 C 
ATOM     11  C   UNL     1       1.417  -1.846  16.200  1.00  0.00     0.042 C 
ENDROOT
TORSDOF 0
ENDMDL
MODEL 8
REMARK VINA RESULT:    -2.126      5.917      7.607
REMARK INTER + INTRA:          -2.126
REMARK INTER:                  -2.126
REMARK INTRA:                   0.000
REMARK UNBOUND:                 0.000
REMARK SMILES CC1(C)O[C@]2(C)CC[C@H]1CC2
REMARK SMILES IDX 1 1 2 2 9 3 8 4 7 5 5 6 4 7 11 8 10 9 6 10 3 11
REMARK H PARENT
REMARK Flexibility Score: inf
ROOT
ATOM      1  C   UNL     1       4.392  -4.586  17.743  1.00  0.00     0.042 C 
ATOM      2  C   UNL     1       5.758  -3.980  18.131  1.00  0.00     0.066 C 
ATOM      3  C   UNL     1       5.669  -2.406  18.201  1.00  0.00     0.021 C 
ATOM      4  C   UNL     1       7.047  -1.857  18.643  1.00  0.00     0.009 C 
ATOM      5  C   UNL     1       7.498  -2.591  19.929  1.00  0.00     0.035 C 
ATOM      6  C   UNL     1       6.380  -3.565  20.399  1.00  0.00     0.066 C 
ATOM      7  O   UNL     1       6.158  -4.548  19.386  1.00  0.00    -0.369 OA
ATOM      8  C   UNL     1       5.068  -2.760  20.626  1.00  0.00     0.035 C 
ATOM      9  C   UNL     1       4.675  -2.022  19.324  1.00  0.00     0.009 C 
ATOM     10  C   UNL     1       6.800  -4.274  21.691  1.00  0.00     0.042 C 
ATOM     11  C   UNL     1       6.777  -4.421  17.058  1.00  0.00     0.042 C 
ENDROOT
TORSDOF 0
ENDMDL
MODEL 9
REMARK VINA RESULT:    -2.126      7.131      8.390
REMARK INTER + INTRA:          -2.126
REMARK INTER:                  -2.126
REMARK INTRA:                   0.000
REMARK UNBOUND:                 0.000
REMARK SMILES CC1(C)O[C@]2(C)CC[C@H]1CC2
REMARK SMILES IDX 1 1 2 2 9 3 8 4 7 5 5 6 4 7 11 8 10 9 6 10 3 11
REMARK H PARENT
REMARK Flexibility Score: inf
ROOT
ATOM      1  C   UNL     1       7.329  -4.992  17.347  1.00  0.00     0.042 C 
ATOM      2  C   UNL     1       7.545  -4.622  18.831  1.00  0.00     0.066 C 
ATOM      3  C   UNL     1       8.582  -3.440  18.965  1.00  0.00     0.021 C 
ATOM      4  C   UNL     1       8.719  -3.077  20.463  1.00  0.00     0.009 C 
ATOM      5  C   UNL     1       7.311  -2.844  21.061  1.00  0.00     0.035 C 
ATOM      6  C   UNL     1       6.237  -2.961  19.942  1.00  0.00     0.066 C 
ATOM      7  O   UNL     1       6.271  -4.280  19.395  1.00  0.00    -0.369 OA
ATOM      8  C   UNL     1       6.562  -1.934  18.819  1.00  0.00     0.035 C 
ATOM      9  C   UNL     1       7.989  -2.188  18.274  1.00  0.00     0.009 C 
ATOM     10  C   UNL     1       4.840  -2.699  20.514  1.00  0.00     0.042 C 
ATOM     11  C   UNL     1       8.064  -5.886  19.548  1.00  0.00     0.042 C 
ENDROOT
TORSDOF 0
ENDMDL
