MODEL 1
REMARK VINA RESULT:    -5.593      0.000      0.000
REMARK INTER + INTRA:         -13.108
REMARK INTER:                 -10.171
REMARK INTRA:                  -2.937
REMARK UNBOUND:                -2.937
REMARK SMILES CCCCCC=CCC=CCCCCCCCC(=O)[O-]
REMARK SMILES IDX 11 1 12 2 13 3 14 4 15 5 16 6 17 7 18 8 19 9 20 10 10 11
REMARK SMILES IDX 9 12 8 13 7 14 6 15 5 16 4 17 3 18 2 19 1 20
REMARK H PARENT
REMARK Flexibility Score: inf
ROOT
ATOM      1  C   UNL     1      -2.754   5.666 -16.531  1.00  0.00     0.027 C 
ENDROOT
BRANCH   1   2
ATOM      2  C   UNL     1      -4.149   6.308 -16.558  1.00  0.00     0.004 C 
BRANCH   2   3
ATOM      3  C   UNL     1      -5.032   5.765 -17.695  1.00  0.00     0.000 C 
BRANCH   3   4
ATOM      4  C   UNL     1      -5.574   6.840 -18.657  1.00  0.00     0.000 C 
BRANCH   4   5
ATOM      5  C   UNL     1      -5.173   8.279 -18.265  1.00  0.00     0.000 C 
BRANCH   5   6
ATOM      6  C   UNL     1      -4.045   8.833 -19.154  1.00  0.00     0.006 C 
BRANCH   6   7
ATOM      7  C   UNL     1      -3.109   9.780 -18.391  1.00  0.00     0.053 C 
BRANCH   7   8
ATOM      8  C   UNL     1      -3.560  11.206 -18.472  1.00  0.00     0.041 C 
ATOM      9  O   UNL     1      -3.139  12.053 -17.639  1.00  0.00    -0.550 OA
ATOM     10  O   UNL     1      -4.425  11.606 -19.481  1.00  0.00    -0.550 OA
ENDBRANCH   7   8
ENDBRANCH   6   7
ENDBRANCH   5   6
ENDBRANCH   4   5
ENDBRANCH   3   4
ENDBRANCH   2   3
ENDBRANCH   1   2
BRANCH   1  11
ATOM     11  C   UNL     1      -1.787   6.434 -17.398  1.00  0.00    -0.031 C 
ATOM     12  C   UNL     1      -1.233   5.929 -18.514  1.00  0.00    -0.027 C 
BRANCH  12  13
ATOM     13  C   UNL     1      -1.472   4.527 -19.015  1.00  0.00     0.054 C 
BRANCH  13  14
ATOM     14  C   UNL     1      -2.370   4.524 -20.221  1.00  0.00    -0.027 C 
ATOM     15  C   UNL     1      -2.807   5.667 -20.775  1.00  0.00    -0.031 C 
BRANCH  15  16
ATOM     16  C   UNL     1      -3.682   5.669 -21.999  1.00  0.00     0.027 C 
BRANCH  16  17
ATOM     17  C   UNL     1      -4.305   7.046 -22.276  1.00  0.00     0.004 C 
BRANCH  17  18
ATOM     18  C   UNL     1      -5.638   6.936 -23.036  1.00  0.00     0.000 C 
BRANCH  18  19
ATOM     19  C   UNL     1      -6.840   6.790 -22.091  1.00  0.00    -0.003 C 
ATOM     20  C   UNL     1      -7.346   8.135 -21.569  1.00  0.00     0.004 C 
ENDBRANCH  18  19
ENDBRANCH  17  18
ENDBRANCH  16  17
ENDBRANCH  15  16
ENDBRANCH  13  14
ENDBRANCH  12  13
ENDBRANCH   1  11
TORSDOF 14
ENDMDL
MODEL 2
REMARK VINA RESULT:    -5.522      2.302      3.666
REMARK INTER + INTRA:         -12.979
REMARK INTER:                 -10.272
REMARK INTRA:                  -2.707
REMARK UNBOUND:                -2.937
REMARK SMILES CCCCCC=CCC=CCCCCCCCC(=O)[O-]
REMARK SMILES IDX 11 1 12 2 13 3 14 4 15 5 16 6 17 7 18 8 19 9 20 10 10 11
REMARK SMILES IDX 9 12 8 13 7 14 6 15 5 16 4 17 3 18 2 19 1 20
REMARK H PARENT
REMARK Flexibility Score: inf
ROOT
ATOM      1  C   UNL     1      -0.509   4.522 -18.650  1.00  0.00     0.027 C 
ENDROOT
BRANCH   1   2
ATOM      2  C   UNL     1      -0.572   5.552 -17.514  1.00  0.00     0.004 C 
BRANCH   2   3
ATOM      3  C   UNL     1      -0.501   7.002 -18.021  1.00  0.00     0.000 C 
BRANCH   3   4
ATOM      4  C   UNL     1      -1.810   7.801 -17.869  1.00  0.00     0.000 C 
BRANCH   4   5
ATOM      5  C   UNL     1      -2.934   7.016 -17.158  1.00  0.00     0.000 C 
BRANCH   5   6
ATOM      6  C   UNL     1      -4.257   7.051 -17.944  1.00  0.00     0.006 C 
BRANCH   6   7
ATOM      7  C   UNL     1      -5.298   6.074 -17.382  1.00  0.00     0.053 C 
BRANCH   7   8
ATOM      8  C   UNL     1      -6.274   6.752 -16.469  1.00  0.00     0.041 C 
ATOM      9  O   UNL     1      -6.250   8.004 -16.332  1.00  0.00    -0.550 OA
ATOM     10  O   UNL     1      -7.224   6.004 -15.788  1.00  0.00    -0.550 OA
ENDBRANCH   7   8
ENDBRANCH   6   7
ENDBRANCH   5   6
ENDBRANCH   4   5
ENDBRANCH   3   4
ENDBRANCH   2   3
ENDBRANCH   1   2
BRANCH   1  11
ATOM     11  C   UNL     1      -1.856   3.881 -18.877  1.00  0.00    -0.031 C 
ATOM     12  C   UNL     1      -2.713   4.281 -19.834  1.00  0.00    -0.027 C 
BRANCH  12  13
ATOM     13  C   UNL     1      -2.456   5.440 -20.766  1.00  0.00     0.054 C 
BRANCH  13  14
ATOM     14  C   UNL     1      -3.590   5.619 -21.737  1.00  0.00    -0.027 C 
ATOM     15  C   UNL     1      -4.355   6.724 -21.728  1.00  0.00    -0.031 C 
BRANCH  15  16
ATOM     16  C   UNL     1      -5.472   6.921 -22.717  1.00  0.00     0.027 C 
BRANCH  16  17
ATOM     17  C   UNL     1      -6.730   7.523 -22.073  1.00  0.00     0.004 C 
BRANCH  17  18
ATOM     18  C   UNL     1      -6.389   8.615 -21.045  1.00  0.00     0.000 C 
BRANCH  18  19
ATOM     19  C   UNL     1      -7.244   8.508 -19.773  1.00  0.00    -0.003 C 
ATOM     20  C   UNL     1      -7.984   7.174 -19.670  1.00  0.00     0.004 C 
ENDBRANCH  18  19
ENDBRANCH  17  18
ENDBRANCH  16  17
ENDBRANCH  15  16
ENDBRANCH  13  14
ENDBRANCH  12  13
ENDBRANCH   1  11
TORSDOF 14
ENDMDL
MODEL 3
REMARK VINA RESULT:    -5.479      2.514      3.456
REMARK INTER + INTRA:         -12.900
REMARK INTER:                 -10.253
REMARK INTRA:                  -2.647
REMARK UNBOUND:                -2.937
REMARK SMILES CCCCCC=CCC=CCCCCCCCC(=O)[O-]
REMARK SMILES IDX 11 1 12 2 13 3 14 4 15 5 16 6 17 7 18 8 19 9 20 10 10 11
REMARK SMILES IDX 9 12 8 13 7 14 6 15 5 16 4 17 3 18 2 19 1 20
REMARK H PARENT
REMARK Flexibility Score: inf
ROOT
ATOM      1  C   UNL     1      -0.195   6.566 -18.373  1.00  0.00     0.027 C 
ENDROOT
BRANCH   1   2
ATOM      2  C   UNL     1      -0.880   7.885 -17.986  1.00  0.00     0.004 C 
BRANCH   2   3
ATOM      3  C   UNL     1      -2.235   7.670 -17.290  1.00  0.00     0.000 C 
BRANCH   3   4
ATOM      4  C   UNL     1      -3.458   7.762 -18.223  1.00  0.00     0.000 C 
BRANCH   4   5
ATOM      5  C   UNL     1      -4.798   7.459 -17.516  1.00  0.00     0.000 C 
BRANCH   5   6
ATOM      6  C   UNL     1      -5.413   6.126 -17.978  1.00  0.00     0.006 C 
BRANCH   6   7
ATOM      7  C   UNL     1      -6.908   6.025 -17.645  1.00  0.00     0.053 C 
BRANCH   7   8
ATOM      8  C   UNL     1      -7.224   6.580 -16.290  1.00  0.00     0.041 C 
ATOM      9  O   UNL     1      -7.852   7.666 -16.180  1.00  0.00    -0.550 OA
ATOM     10  O   UNL     1      -6.846   5.886 -15.148  1.00  0.00    -0.550 OA
ENDBRANCH   7   8
ENDBRANCH   6   7
ENDBRANCH   5   6
ENDBRANCH   4   5
ENDBRANCH   3   4
ENDBRANCH   2   3
ENDBRANCH   1   2
BRANCH   1  11
ATOM     11  C   UNL     1      -0.761   5.410 -17.585  1.00  0.00    -0.031 C 
ATOM     12  C   UNL     1      -1.284   4.312 -18.158  1.00  0.00    -0.027 C 
BRANCH  12  13
ATOM     13  C   UNL     1      -1.411   4.116 -19.649  1.00  0.00     0.054 C 
BRANCH  13  14
ATOM     14  C   UNL     1      -2.742   4.603 -20.151  1.00  0.00    -0.027 C 
ATOM     15  C   UNL     1      -2.835   5.614 -21.031  1.00  0.00    -0.031 C 
BRANCH  15  16
ATOM     16  C   UNL     1      -4.162   6.085 -21.559  1.00  0.00     0.027 C 
BRANCH  16  17
ATOM     17  C   UNL     1      -4.128   7.550 -22.019  1.00  0.00     0.004 C 
BRANCH  17  18
ATOM     18  C   UNL     1      -5.249   8.385 -21.378  1.00  0.00     0.000 C 
BRANCH  18  19
ATOM     19  C   UNL     1      -6.631   7.733 -21.541  1.00  0.00    -0.003 C 
ATOM     20  C   UNL     1      -7.619   8.169 -20.459  1.00  0.00     0.004 C 
ENDBRANCH  18  19
ENDBRANCH  17  18
ENDBRANCH  16  17
ENDBRANCH  15  16
ENDBRANCH  13  14
ENDBRANCH  12  13
ENDBRANCH   1  11
TORSDOF 14
ENDMDL
MODEL 4
REMARK VINA RESULT:    -5.437      0.884      4.423
REMARK INTER + INTRA:         -12.825
REMARK INTER:                 -10.382
REMARK INTRA:                  -2.443
REMARK UNBOUND:                -2.937
REMARK SMILES CCCCCC=CCC=CCCCCCCCC(=O)[O-]
REMARK SMILES IDX 11 1 12 2 13 3 14 4 15 5 16 6 17 7 18 8 19 9 20 10 10 11
REMARK SMILES IDX 9 12 8 13 7 14 6 15 5 16 4 17 3 18 2 19 1 20
REMARK H PARENT
REMARK Flexibility Score: inf
ROOT
ATOM      1  C   UNL     1      -6.949   8.092 -21.149  1.00  0.00     0.027 C 
ENDROOT
BRANCH   1   2
ATOM      2  C   UNL     1      -7.712   7.320 -20.062  1.00  0.00     0.004 C 
BRANCH   2   3
ATOM      3  C   UNL     1      -7.109   7.513 -18.660  1.00  0.00     0.000 C 
BRANCH   3   4
ATOM      4  C   UNL     1      -5.807   6.728 -18.407  1.00  0.00     0.000 C 
BRANCH   4   5
ATOM      5  C   UNL     1      -4.680   7.584 -17.787  1.00  0.00     0.000 C 
BRANCH   5   6
ATOM      6  C   UNL     1      -4.168   8.664 -18.757  1.00  0.00     0.006 C 
BRANCH   6   7
ATOM      7  C   UNL     1      -3.479   9.826 -18.028  1.00  0.00     0.053 C 
BRANCH   7   8
ATOM      8  C   UNL     1      -3.655  11.128 -18.748  1.00  0.00     0.041 C 
ATOM      9  O   UNL     1      -2.778  12.028 -18.657  1.00  0.00    -0.550 OA
ATOM     10  O   UNL     1      -4.775  11.339 -19.541  1.00  0.00    -0.550 OA
ENDBRANCH   7   8
ENDBRANCH   6   7
ENDBRANCH   5   6
ENDBRANCH   4   5
ENDBRANCH   3   4
ENDBRANCH   2   3
ENDBRANCH   1   2
BRANCH   1  11
ATOM     11  C   UNL     1      -6.726   7.232 -22.368  1.00  0.00    -0.031 C 
ATOM     12  C   UNL     1      -5.518   6.773 -22.738  1.00  0.00    -0.027 C 
BRANCH  12  13
ATOM     13  C   UNL     1      -4.235   7.093 -22.012  1.00  0.00     0.054 C 
BRANCH  13  14
ATOM     14  C   UNL     1      -3.442   5.846 -21.731  1.00  0.00    -0.027 C 
ATOM     15  C   UNL     1      -2.922   5.602 -20.516  1.00  0.00    -0.031 C 
BRANCH  15  16
ATOM     16  C   UNL     1      -2.153   4.343 -20.223  1.00  0.00     0.027 C 
BRANCH  16  17
ATOM     17  C   UNL     1      -1.945   4.116 -18.718  1.00  0.00     0.004 C 
BRANCH  17  18
ATOM     18  C   UNL     1      -1.963   5.434 -17.925  1.00  0.00     0.000 C 
BRANCH  18  19
ATOM     19  C   UNL     1      -0.564   6.052 -17.783  1.00  0.00    -0.003 C 
ATOM     20  C   UNL     1      -0.580   7.578 -17.885  1.00  0.00     0.004 C 
ENDBRANCH  18  19
ENDBRANCH  17  18
ENDBRANCH  16  17
ENDBRANCH  15  16
ENDBRANCH  13  14
ENDBRANCH  12  13
ENDBRANCH   1  11
TORSDOF 14
ENDMDL
MODEL 5
REMARK VINA RESULT:    -5.415      1.809      5.027
REMARK INTER + INTRA:         -12.784
REMARK INTER:                 -10.324
REMARK INTRA:                  -2.459
REMARK UNBOUND:                -2.937
REMARK SMILES CCCCCC=CCC=CCCCCCCCC(=O)[O-]
REMARK SMILES IDX 11 1 12 2 13 3 14 4 15 5 16 6 17 7 18 8 19 9 20 10 10 11
REMARK SMILES IDX 9 12 8 13 7 14 6 15 5 16 4 17 3 18 2 19 1 20
REMARK H PARENT
REMARK Flexibility Score: inf
ROOT
ATOM      1  C   UNL     1      -6.990   7.105 -20.871  1.00  0.00     0.027 C 
ENDROOT
BRANCH   1   2
ATOM      2  C   UNL     1      -7.543   8.517 -20.633  1.00  0.00     0.004 C 
BRANCH   2   3
ATOM      3  C   UNL     1      -6.476   9.493 -20.108  1.00  0.00     0.000 C 
BRANCH   3   4
ATOM      4  C   UNL     1      -5.446   8.865 -19.149  1.00  0.00     0.000 C 
BRANCH   4   5
ATOM      5  C   UNL     1      -4.051   9.524 -19.224  1.00  0.00     0.000 C 
BRANCH   5   6
ATOM      6  C   UNL     1      -2.996   8.750 -18.412  1.00  0.00     0.006 C 
BRANCH   6   7
ATOM      7  C   UNL     1      -3.626   7.717 -17.469  1.00  0.00     0.053 C 
BRANCH   7   8
ATOM      8  C   UNL     1      -3.467   8.097 -16.028  1.00  0.00     0.041 C 
ATOM      9  O   UNL     1      -3.250   9.296 -15.708  1.00  0.00    -0.550 OA
ATOM     10  O   UNL     1      -3.582   7.131 -15.037  1.00  0.00    -0.550 OA
ENDBRANCH   7   8
ENDBRANCH   6   7
ENDBRANCH   5   6
ENDBRANCH   4   5
ENDBRANCH   3   4
ENDBRANCH   2   3
ENDBRANCH   1   2
BRANCH   1  11
ATOM     11  C   UNL     1      -6.781   6.846 -22.343  1.00  0.00    -0.031 C 
ATOM     12  C   UNL     1      -5.575   6.886 -22.937  1.00  0.00    -0.027 C 
BRANCH  12  13
ATOM     13  C   UNL     1      -4.293   7.236 -22.222  1.00  0.00     0.054 C 
BRANCH  13  14
ATOM     14  C   UNL     1      -3.505   6.001 -21.882  1.00  0.00    -0.027 C 
ATOM     15  C   UNL     1      -3.179   5.702 -20.614  1.00  0.00    -0.031 C 
BRANCH  15  16
ATOM     16  C   UNL     1      -2.415   4.454 -20.266  1.00  0.00     0.027 C 
BRANCH  16  17
ATOM     17  C   UNL     1      -2.413   4.165 -18.757  1.00  0.00     0.004 C 
BRANCH  17  18
ATOM     18  C   UNL     1      -0.991   4.165 -18.170  1.00  0.00     0.000 C 
BRANCH  18  19
ATOM     19  C   UNL     1      -0.597   5.531 -17.589  1.00  0.00    -0.003 C 
ATOM     20  C   UNL     1      -0.066   6.493 -18.652  1.00  0.00     0.004 C 
ENDBRANCH  18  19
ENDBRANCH  17  18
ENDBRANCH  16  17
ENDBRANCH  15  16
ENDBRANCH  13  14
ENDBRANCH  12  13
ENDBRANCH   1  11
TORSDOF 14
ENDMDL
MODEL 6
REMARK VINA RESULT:    -5.415      1.360      2.567
REMARK INTER + INTRA:         -12.783
REMARK INTER:                 -10.416
REMARK INTRA:                  -2.367
REMARK UNBOUND:                -2.937
REMARK SMILES CCCCCC=CCC=CCCCCCCCC(=O)[O-]
REMARK SMILES IDX 11 1 12 2 13 3 14 4 15 5 16 6 17 7 18 8 19 9 20 10 10 11
REMARK SMILES IDX 9 12 8 13 7 14 6 15 5 16 4 17 3 18 2 19 1 20
REMARK H PARENT
REMARK Flexibility Score: inf
ROOT
ATOM      1  C   UNL     1      -0.508   4.905 -18.793  1.00  0.00     0.027 C 
ENDROOT
BRANCH   1   2
ATOM      2  C   UNL     1      -0.603   5.840 -17.578  1.00  0.00     0.004 C 
BRANCH   2   3
ATOM      3  C   UNL     1      -1.077   7.255 -17.952  1.00  0.00     0.000 C 
BRANCH   3   4
ATOM      4  C   UNL     1      -2.366   7.710 -17.239  1.00  0.00     0.000 C 
BRANCH   4   5
ATOM      5  C   UNL     1      -3.650   7.441 -18.055  1.00  0.00     0.000 C 
BRANCH   5   6
ATOM      6  C   UNL     1      -3.961   8.579 -19.044  1.00  0.00     0.006 C 
BRANCH   6   7
ATOM      7  C   UNL     1      -3.694   9.966 -18.444  1.00  0.00     0.053 C 
BRANCH   7   8
ATOM      8  C   UNL     1      -4.855  10.467 -17.641  1.00  0.00     0.041 C 
ATOM      9  O   UNL     1      -4.694  10.819 -16.442  1.00  0.00    -0.550 OA
ATOM     10  O   UNL     1      -6.111  10.569 -18.224  1.00  0.00    -0.550 OA
ENDBRANCH   7   8
ENDBRANCH   6   7
ENDBRANCH   5   6
ENDBRANCH   4   5
ENDBRANCH   3   4
ENDBRANCH   2   3
ENDBRANCH   1   2
BRANCH   1  11
ATOM     11  C   UNL     1      -1.773   4.098 -18.955  1.00  0.00    -0.031 C 
ATOM     12  C   UNL     1      -2.704   4.363 -19.888  1.00  0.00    -0.027 C 
BRANCH  12  13
ATOM     13  C   UNL     1      -2.625   5.519 -20.855  1.00  0.00     0.054 C 
BRANCH  13  14
ATOM     14  C   UNL     1      -3.871   5.616 -21.692  1.00  0.00    -0.027 C 
ATOM     15  C   UNL     1      -4.149   6.714 -22.414  1.00  0.00    -0.031 C 
BRANCH  15  16
ATOM     16  C   UNL     1      -5.379   6.805 -23.275  1.00  0.00     0.027 C 
BRANCH  16  17
ATOM     17  C   UNL     1      -6.667   6.950 -22.451  1.00  0.00     0.004 C 
BRANCH  17  18
ATOM     18  C   UNL     1      -6.610   8.153 -21.493  1.00  0.00     0.000 C 
BRANCH  18  19
ATOM     19  C   UNL     1      -7.729   8.116 -20.441  1.00  0.00    -0.003 C 
ATOM     20  C   UNL     1      -7.441   7.129 -19.309  1.00  0.00     0.004 C 
ENDBRANCH  18  19
ENDBRANCH  17  18
ENDBRANCH  16  17
ENDBRANCH  15  16
ENDBRANCH  13  14
ENDBRANCH  12  13
ENDBRANCH   1  11
TORSDOF 14
ENDMDL
MODEL 7
REMARK VINA RESULT:    -5.367      1.303      4.453
REMARK INTER + INTRA:         -12.696
REMARK INTER:                 -10.072
REMARK INTRA:                  -2.624
REMARK UNBOUND:                -2.937
REMARK SMILES CCCCCC=CCC=CCCCCCCCC(=O)[O-]
REMARK SMILES IDX 11 1 12 2 13 3 14 4 15 5 16 6 17 7 18 8 19 9 20 10 10 11
REMARK SMILES IDX 9 12 8 13 7 14 6 15 5 16 4 17 3 18 2 19 1 20
REMARK H PARENT
REMARK Flexibility Score: inf
ROOT
ATOM      1  C   UNL     1      -6.764   8.123 -21.342  1.00  0.00     0.027 C 
ENDROOT
BRANCH   1   2
ATOM      2  C   UNL     1      -7.007   7.329 -20.051  1.00  0.00     0.004 C 
BRANCH   2   3
ATOM      3  C   UNL     1      -6.132   7.813 -18.882  1.00  0.00     0.000 C 
BRANCH   3   4
ATOM      4  C   UNL     1      -5.401   9.145 -19.135  1.00  0.00     0.000 C 
BRANCH   4   5
ATOM      5  C   UNL     1      -3.866   8.999 -19.228  1.00  0.00     0.000 C 
BRANCH   5   6
ATOM      6  C   UNL     1      -3.128   9.983 -18.302  1.00  0.00     0.006 C 
BRANCH   6   7
ATOM      7  C   UNL     1      -3.102   9.507 -16.844  1.00  0.00     0.053 C 
BRANCH   7   8
ATOM      8  C   UNL     1      -3.829  10.447 -15.931  1.00  0.00     0.041 C 
ATOM      9  O   UNL     1      -3.729  10.322 -14.681  1.00  0.00    -0.550 OA
ATOM     10  O   UNL     1      -4.597  11.476 -16.459  1.00  0.00    -0.550 OA
ENDBRANCH   7   8
ENDBRANCH   6   7
ENDBRANCH   5   6
ENDBRANCH   4   5
ENDBRANCH   3   4
ENDBRANCH   2   3
ENDBRANCH   1   2
BRANCH   1  11
ATOM     11  C   UNL     1      -6.687   7.205 -22.537  1.00  0.00    -0.031 C 
ATOM     12  C   UNL     1      -5.530   6.729 -23.030  1.00  0.00    -0.027 C 
BRANCH  12  13
ATOM     13  C   UNL     1      -4.170   7.084 -22.483  1.00  0.00     0.054 C 
BRANCH  13  14
ATOM     14  C   UNL     1      -3.469   5.872 -21.933  1.00  0.00    -0.027 C 
ATOM     15  C   UNL     1      -3.162   5.768 -20.630  1.00  0.00    -0.031 C 
BRANCH  15  16
ATOM     16  C   UNL     1      -2.488   4.545 -20.071  1.00  0.00     0.027 C 
BRANCH  16  17
ATOM     17  C   UNL     1      -1.335   4.892 -19.116  1.00  0.00     0.004 C 
BRANCH  17  18
ATOM     18  C   UNL     1      -1.639   6.140 -18.270  1.00  0.00     0.000 C 
BRANCH  18  19
ATOM     19  C   UNL     1      -2.238   5.787 -16.900  1.00  0.00    -0.003 C 
ATOM     20  C   UNL     1      -3.763   5.888 -16.880  1.00  0.00     0.004 C 
ENDBRANCH  18  19
ENDBRANCH  17  18
ENDBRANCH  16  17
ENDBRANCH  15  16
ENDBRANCH  13  14
ENDBRANCH  12  13
ENDBRANCH   1  11
TORSDOF 14
ENDMDL
MODEL 8
REMARK VINA RESULT:    -5.330      2.299      4.730
REMARK INTER + INTRA:         -12.629
REMARK INTER:                 -10.185
REMARK INTRA:                  -2.444
REMARK UNBOUND:                -2.937
REMARK SMILES CCCCCC=CCC=CCCCCCCCC(=O)[O-]
REMARK SMILES IDX 11 1 12 2 13 3 14 4 15 5 16 6 17 7 18 8 19 9 20 10 10 11
REMARK SMILES IDX 9 12 8 13 7 14 6 15 5 16 4 17 3 18 2 19 1 20
REMARK H PARENT
REMARK Flexibility Score: inf
ROOT
ATOM      1  C   UNL     1      -1.097   4.688 -18.003  1.00  0.00     0.027 C 
ENDROOT
BRANCH   1   2
ATOM      2  C   UNL     1      -1.261   4.196 -19.448  1.00  0.00     0.004 C 
BRANCH   2   3
ATOM      3  C   UNL     1      -2.669   4.459 -20.010  1.00  0.00     0.000 C 
BRANCH   3   4
ATOM      4  C   UNL     1      -2.752   5.627 -21.013  1.00  0.00     0.000 C 
BRANCH   4   5
ATOM      5  C   UNL     1      -4.028   6.483 -20.859  1.00  0.00     0.000 C 
BRANCH   5   6
ATOM      6  C   UNL     1      -4.292   7.364 -22.093  1.00  0.00     0.006 C 
BRANCH   6   7
ATOM      7  C   UNL     1      -5.223   6.688 -23.107  1.00  0.00     0.053 C 
BRANCH   7   8
ATOM      8  C   UNL     1      -6.639   7.162 -22.978  1.00  0.00     0.041 C 
ATOM      9  O   UNL     1      -7.291   7.499 -24.001  1.00  0.00    -0.550 OA
ATOM     10  O   UNL     1      -7.246   7.208 -21.730  1.00  0.00    -0.550 OA
ENDBRANCH   7   8
ENDBRANCH   6   7
ENDBRANCH   5   6
ENDBRANCH   4   5
ENDBRANCH   3   4
ENDBRANCH   2   3
ENDBRANCH   1   2
BRANCH   1  11
ATOM     11  C   UNL     1      -1.315   6.178 -17.909  1.00  0.00    -0.031 C 
ATOM     12  C   UNL     1      -2.208   6.743 -17.078  1.00  0.00    -0.027 C 
BRANCH  12  13
ATOM     13  C   UNL     1      -3.128   5.964 -16.171  1.00  0.00     0.054 C 
BRANCH  13  14
ATOM     14  C   UNL     1      -4.571   6.267 -16.467  1.00  0.00    -0.027 C 
ATOM     15  C   UNL     1      -5.115   5.998 -17.665  1.00  0.00    -0.031 C 
BRANCH  15  16
ATOM     16  C   UNL     1      -6.564   6.273 -17.956  1.00  0.00     0.027 C 
BRANCH  16  17
ATOM     17  C   UNL     1      -6.941   7.747 -17.741  1.00  0.00     0.004 C 
BRANCH  17  18
ATOM     18  C   UNL     1      -6.250   8.676 -18.754  1.00  0.00     0.000 C 
BRANCH  18  19
ATOM     19  C   UNL     1      -5.222   9.604 -18.090  1.00  0.00    -0.003 C 
ATOM     20  C   UNL     1      -3.862   9.574 -18.789  1.00  0.00     0.004 C 
ENDBRANCH  18  19
ENDBRANCH  17  18
ENDBRANCH  16  17
ENDBRANCH  15  16
ENDBRANCH  13  14
ENDBRANCH  12  13
ENDBRANCH   1  11
TORSDOF 14
ENDMDL
MODEL 9
REMARK VINA RESULT:    -5.316      2.417      5.366
REMARK INTER + INTRA:         -12.603
REMARK INTER:                  -9.766
REMARK INTRA:                  -2.837
REMARK UNBOUND:                -2.937
REMARK SMILES CCCCCC=CCC=CCCCCCCCC(=O)[O-]
REMARK SMILES IDX 11 1 12 2 13 3 14 4 15 5 16 6 17 7 18 8 19 9 20 10 10 11
REMARK SMILES IDX 9 12 8 13 7 14 6 15 5 16 4 17 3 18 2 19 1 20
REMARK H PARENT
REMARK Flexibility Score: inf
ROOT
ATOM      1  C   UNL     1      -7.252   9.670 -20.627  1.00  0.00     0.027 C 
ENDROOT
BRANCH   1   2
ATOM      2  C   UNL     1      -6.171  10.159 -19.653  1.00  0.00     0.004 C 
BRANCH   2   3
ATOM      3  C   UNL     1      -4.748   9.791 -20.109  1.00  0.00     0.000 C 
BRANCH   3   4
ATOM      4  C   UNL     1      -3.946   8.952 -19.095  1.00  0.00     0.000 C 
BRANCH   4   5
ATOM      5  C   UNL     1      -4.807   8.381 -17.946  1.00  0.00     0.000 C 
BRANCH   5   6
ATOM      6  C   UNL     1      -4.722   6.847 -17.862  1.00  0.00     0.006 C 
BRANCH   6   7
ATOM      7  C   UNL     1      -6.107   6.186 -17.815  1.00  0.00     0.053 C 
BRANCH   7   8
ATOM      8  C   UNL     1      -6.842   6.504 -16.549  1.00  0.00     0.041 C 
ATOM      9  O   UNL     1      -6.515   5.945 -15.468  1.00  0.00    -0.550 OA
ATOM     10  O   UNL     1      -7.870   7.437 -16.557  1.00  0.00    -0.550 OA
ENDBRANCH   7   8
ENDBRANCH   6   7
ENDBRANCH   5   6
ENDBRANCH   4   5
ENDBRANCH   3   4
ENDBRANCH   2   3
ENDBRANCH   1   2
BRANCH   1  11
ATOM     11  C   UNL     1      -7.558   8.209 -20.408  1.00  0.00    -0.031 C 
ATOM     12  C   UNL     1      -7.216   7.243 -21.279  1.00  0.00    -0.027 C 
BRANCH  12  13
ATOM     13  C   UNL     1      -6.527   7.500 -22.596  1.00  0.00     0.054 C 
BRANCH  13  14
ATOM     14  C   UNL     1      -5.218   6.765 -22.680  1.00  0.00    -0.027 C 
ATOM     15  C   UNL     1      -4.545   6.400 -21.576  1.00  0.00    -0.031 C 
BRANCH  15  16
ATOM     16  C   UNL     1      -3.250   5.639 -21.654  1.00  0.00     0.027 C 
BRANCH  16  17
ATOM     17  C   UNL     1      -2.443   5.713 -20.349  1.00  0.00     0.004 C 
BRANCH  17  18
ATOM     18  C   UNL     1      -1.976   4.325 -19.877  1.00  0.00     0.000 C 
BRANCH  18  19
ATOM     19  C   UNL     1      -1.630   4.301 -18.381  1.00  0.00    -0.003 C 
ATOM     20  C   UNL     1      -0.953   5.590 -17.912  1.00  0.00     0.004 C 
ENDBRANCH  18  19
ENDBRANCH  17  18
ENDBRANCH  16  17
ENDBRANCH  15  16
ENDBRANCH  13  14
ENDBRANCH  12  13
ENDBRANCH   1  11
TORSDOF 14
ENDMDL
