MODEL 1
REMARK VINA RESULT:    -3.204      0.000      0.000
REMARK INTER + INTRA:          -3.204
REMARK INTER:                  -3.204
REMARK INTRA:                   0.000
REMARK UNBOUND:                 0.000
REMARK SMILES O=c1ccc2ccccc2o1
REMARK SMILES IDX 7 1 8 2 9 3 10 4 5 5 6 6 4 7 3 8 2 9 1 10 11 11
REMARK H PARENT
REMARK Flexibility Score: inf
ROOT
ATOM      1  C   UNL     1       6.796  -9.169  -8.594  1.00  0.00     0.001 A 
ATOM      2  C   UNL     1       7.205  -8.800  -7.308  1.00  0.00     0.004 A 
ATOM      3  C   UNL     1       7.208  -7.453  -6.932  1.00  0.00     0.048 A 
ATOM      4  C   UNL     1       6.801  -6.470  -7.841  1.00  0.00     0.138 A 
ATOM      5  C   UNL     1       6.387  -6.843  -9.140  1.00  0.00     0.018 A 
ATOM      6  C   UNL     1       6.387  -8.195  -9.511  1.00  0.00     0.012 A 
ATOM      7  C   UNL     1       5.987  -5.840 -10.027  1.00  0.00     0.019 A 
ATOM      8  C   UNL     1       6.005  -4.509  -9.609  1.00  0.00     0.094 A 
ATOM      9  C   UNL     1       6.427  -4.214  -8.307  1.00  0.00     0.336 A 
ATOM     10  O   UNL     1       6.451  -3.019  -7.912  1.00  0.00    -0.246 OA
ATOM     11  O   UNL     1       6.804  -5.188  -7.483  1.00  0.00    -0.423 OA
ENDROOT
TORSDOF 0
ENDMDL
MODEL 2
REMARK VINA RESULT:    -3.018      2.911      4.064
REMARK INTER + INTRA:          -3.018
REMARK INTER:                  -3.018
REMARK INTRA:                   0.000
REMARK UNBOUND:                 0.000
REMARK SMILES O=c1ccc2ccccc2o1
REMARK SMILES IDX 7 1 8 2 9 3 10 4 5 5 6 6 4 7 3 8 2 9 1 10 11 11
REMARK H PARENT
REMARK Flexibility Score: inf
ROOT
ATOM      1  C   UNL     1      10.125  -7.070  -5.998  1.00  0.00     0.001 A 
ATOM      2  C   UNL     1       9.794  -8.218  -5.270  1.00  0.00     0.004 A 
ATOM      3  C   UNL     1       8.721  -9.019  -5.673  1.00  0.00     0.048 A 
ATOM      4  C   UNL     1       7.974  -8.675  -6.805  1.00  0.00     0.138 A 
ATOM      5  C   UNL     1       8.308  -7.515  -7.539  1.00  0.00     0.018 A 
ATOM      6  C   UNL     1       9.385  -6.715  -7.130  1.00  0.00     0.012 A 
ATOM      7  C   UNL     1       7.544  -7.195  -8.665  1.00  0.00     0.019 A 
ATOM      8  C   UNL     1       6.483  -8.023  -9.030  1.00  0.00     0.094 A 
ATOM      9  C   UNL     1       6.210  -9.156  -8.255  1.00  0.00     0.336 A 
ATOM     10  O   UNL     1       5.256  -9.915  -8.568  1.00  0.00    -0.246 OA
ATOM     11  O   UNL     1       6.952  -9.438  -7.187  1.00  0.00    -0.423 OA
ENDROOT
TORSDOF 0
ENDMDL
MODEL 3
REMARK VINA RESULT:    -2.569      1.820      4.512
REMARK INTER + INTRA:          -2.569
REMARK INTER:                  -2.569
REMARK INTRA:                   0.000
REMARK UNBOUND:                 0.000
REMARK SMILES O=c1ccc2ccccc2o1
REMARK SMILES IDX 7 1 8 2 9 3 10 4 5 5 6 6 4 7 3 8 2 9 1 10 11 11
REMARK H PARENT
REMARK Flexibility Score: inf
ROOT
ATOM      1  C   UNL     1       6.751  -1.167  -9.434  1.00  0.00     0.001 A 
ATOM      2  C   UNL     1       7.169  -1.256  -8.102  1.00  0.00     0.004 A 
ATOM      3  C   UNL     1       7.169  -2.492  -7.448  1.00  0.00     0.048 A 
ATOM      4  C   UNL     1       6.751  -3.644  -8.124  1.00  0.00     0.138 A 
ATOM      5  C   UNL     1       6.328  -3.553  -9.469  1.00  0.00     0.018 A 
ATOM      6  C   UNL     1       6.330  -2.311 -10.120  1.00  0.00     0.012 A 
ATOM      7  C   UNL     1       5.915  -4.720 -10.118  1.00  0.00     0.019 A 
ATOM      8  C   UNL     1       5.932  -5.931  -9.427  1.00  0.00     0.094 A 
ATOM      9  C   UNL     1       6.364  -5.945  -8.096  1.00  0.00     0.336 A 
ATOM     10  O   UNL     1       6.385  -7.028  -7.455  1.00  0.00    -0.246 OA
ATOM     11  O   UNL     1       6.751  -4.820  -7.500  1.00  0.00    -0.423 OA
ENDROOT
TORSDOF 0
ENDMDL
MODEL 4
REMARK VINA RESULT:    -2.182     24.918     26.131
REMARK INTER + INTRA:          -2.182
REMARK INTER:                  -2.182
REMARK INTRA:                   0.000
REMARK UNBOUND:                 0.000
REMARK SMILES O=c1ccc2ccccc2o1
REMARK SMILES IDX 7 1 8 2 9 3 10 4 5 5 6 6 4 7 3 8 2 9 1 10 11 11
REMARK H PARENT
REMARK Flexibility Score: inf
ROOT
ATOM      1  C   UNL     1      -5.407  10.125   9.498  1.00  0.00     0.001 A 
ATOM      2  C   UNL     1      -4.855   9.731   8.274  1.00  0.00     0.004 A 
ATOM      3  C   UNL     1      -5.267   8.539   7.670  1.00  0.00     0.048 A 
ATOM      4  C   UNL     1      -6.233   7.736   8.287  1.00  0.00     0.138 A 
ATOM      5  C   UNL     1      -6.790   8.134   9.524  1.00  0.00     0.018 A 
ATOM      6  C   UNL     1      -6.372   9.330  10.125  1.00  0.00     0.012 A 
ATOM      7  C   UNL     1      -7.752   7.312  10.117  1.00  0.00     0.019 A 
ATOM      8  C   UNL     1      -8.133   6.132   9.478  1.00  0.00     0.094 A 
ATOM      9  C   UNL     1      -7.539   5.802   8.255  1.00  0.00     0.336 A 
ATOM     10  O   UNL     1      -7.869   4.741   7.663  1.00  0.00    -0.246 OA
ATOM     11  O   UNL     1      -6.624   6.602   7.711  1.00  0.00    -0.423 OA
ENDROOT
TORSDOF 0
ENDMDL
MODEL 5
REMARK VINA RESULT:    -2.141     10.786     11.619
REMARK INTER + INTRA:          -2.141
REMARK INTER:                  -2.141
REMARK INTRA:                   0.000
REMARK UNBOUND:                 0.000
REMARK SMILES O=c1ccc2ccccc2o1
REMARK SMILES IDX 7 1 8 2 9 3 10 4 5 5 6 6 4 7 3 8 2 9 1 10 11 11
REMARK H PARENT
REMARK Flexibility Score: inf
ROOT
ATOM      1  C   UNL     1       1.259  -3.132   2.915  1.00  0.00     0.001 A 
ATOM      2  C   UNL     1       0.458  -4.189   3.360  1.00  0.00     0.004 A 
ATOM      3  C   UNL     1      -0.133  -5.059   2.438  1.00  0.00     0.048 A 
ATOM      4  C   UNL     1       0.074  -4.875   1.067  1.00  0.00     0.138 A 
ATOM      5  C   UNL     1       0.883  -3.806   0.617  1.00  0.00     0.018 A 
ATOM      6  C   UNL     1       1.473  -2.937   1.546  1.00  0.00     0.012 A 
ATOM      7  C   UNL     1       1.072  -3.646  -0.758  1.00  0.00     0.019 A 
ATOM      8  C   UNL     1       0.463  -4.538  -1.642  1.00  0.00     0.094 A 
ATOM      9  C   UNL     1      -0.324  -5.573  -1.124  1.00  0.00     0.336 A 
ATOM     10  O   UNL     1      -0.882  -6.387  -1.905  1.00  0.00    -0.246 OA
ATOM     11  O   UNL     1      -0.489  -5.703   0.190  1.00  0.00    -0.423 OA
ENDROOT
TORSDOF 0
ENDMDL
MODEL 6
REMARK VINA RESULT:    -1.959     24.109     25.571
REMARK INTER + INTRA:          -1.959
REMARK INTER:                  -1.959
REMARK INTRA:                   0.000
REMARK UNBOUND:                 0.000
REMARK SMILES O=c1ccc2ccccc2o1
REMARK SMILES IDX 7 1 8 2 9 3 10 4 5 5 6 6 4 7 3 8 2 9 1 10 11 11
REMARK H PARENT
REMARK Flexibility Score: inf
ROOT
ATOM      1  C   UNL     1      -7.315   8.655  10.125  1.00  0.00     0.001 A 
ATOM      2  C   UNL     1      -5.972   8.283   9.994  1.00  0.00     0.004 A 
ATOM      3  C   UNL     1      -5.629   7.132   9.278  1.00  0.00     0.048 A 
ATOM      4  C   UNL     1      -6.627   6.349   8.689  1.00  0.00     0.138 A 
ATOM      5  C   UNL     1      -7.983   6.724   8.822  1.00  0.00     0.018 A 
ATOM      6  C   UNL     1      -8.321   7.879   9.541  1.00  0.00     0.012 A 
ATOM      7  C   UNL     1      -8.959   5.922   8.224  1.00  0.00     0.019 A 
ATOM      8  C   UNL     1      -8.571   4.783   7.518  1.00  0.00     0.094 A 
ATOM      9  C   UNL     1      -7.209   4.473   7.428  1.00  0.00     0.336 A 
ATOM     10  O   UNL     1      -6.839   3.449   6.797  1.00  0.00    -0.246 OA
ATOM     11  O   UNL     1      -6.300   5.253   8.008  1.00  0.00    -0.423 OA
ENDROOT
TORSDOF 0
ENDMDL
