MODEL 1
REMARK VINA RESULT:    -3.824      0.000      0.000
REMARK INTER + INTRA:          -5.421
REMARK INTER:                  -5.165
REMARK INTRA:                  -0.256
REMARK UNBOUND:                -0.256
REMARK SMILES CCCCCCCC(=O)[O-]
REMARK SMILES IDX 5 1 6 2 7 3 8 4 9 5 10 6 4 7 3 8 2 9 1 10
REMARK H PARENT
REMARK Flexibility Score: inf
ROOT
ATOM      1  C   UNL     1       6.288  18.935   0.430  1.00  0.00     0.000 C 
ENDROOT
BRANCH   1   2
ATOM      2  C   UNL     1       7.434  19.133   1.439  1.00  0.00     0.006 C 
BRANCH   2   3
ATOM      3  C   UNL     1       7.640  17.920   2.356  1.00  0.00     0.053 C 
BRANCH   3   4
ATOM      4  C   UNL     1       6.946  18.130   3.664  1.00  0.00     0.041 C 
ATOM      5  O   UNL     1       6.815  17.174   4.473  1.00  0.00    -0.550 OA
ATOM      6  O   UNL     1       6.485  19.393   4.012  1.00  0.00    -0.550 OA
ENDBRANCH   3   4
ENDBRANCH   2   3
ENDBRANCH   1   2
BRANCH   1   7
ATOM      7  C   UNL     1       5.255  20.076   0.388  1.00  0.00     0.000 C 
BRANCH   7   8
ATOM      8  C   UNL     1       4.654  20.288  -1.009  1.00  0.00    -0.000 C 
BRANCH   8   9
ATOM      9  C   UNL     1       4.895  21.722  -1.498  1.00  0.00    -0.003 C 
ATOM     10  C   UNL     1       6.131  21.799  -2.389  1.00  0.00     0.004 C 
ENDBRANCH   8   9
ENDBRANCH   7   8
ENDBRANCH   1   7
TORSDOF 6
ENDMDL
MODEL 2
REMARK VINA RESULT:    -3.783      3.187      5.128
REMARK INTER + INTRA:          -5.366
REMARK INTER:                  -5.015
REMARK INTRA:                  -0.351
REMARK UNBOUND:                -0.256
REMARK SMILES CCCCCCCC(=O)[O-]
REMARK SMILES IDX 5 1 6 2 7 3 8 4 9 5 10 6 4 7 3 8 2 9 1 10
REMARK H PARENT
REMARK Flexibility Score: inf
ROOT
ATOM      1  C   UNL     1       7.537  19.119   1.471  1.00  0.00     0.000 C 
ENDROOT
BRANCH   1   2
ATOM      2  C   UNL     1       6.293  18.959   0.580  1.00  0.00     0.006 C 
BRANCH   2   3
ATOM      3  C   UNL     1       5.425  20.224   0.532  1.00  0.00     0.053 C 
BRANCH   3   4
ATOM      4  C   UNL     1       4.995  20.509  -0.872  1.00  0.00     0.041 C 
ATOM      5  O   UNL     1       4.438  19.612  -1.559  1.00  0.00    -0.550 OA
ATOM      6  O   UNL     1       5.164  21.780  -1.407  1.00  0.00    -0.550 OA
ENDBRANCH   3   4
ENDBRANCH   2   3
ENDBRANCH   1   2
BRANCH   1   7
ATOM      7  C   UNL     1       7.274  18.997   2.983  1.00  0.00     0.000 C 
BRANCH   7   8
ATOM      8  C   UNL     1       7.567  20.296   3.749  1.00  0.00    -0.000 C 
BRANCH   8   9
ATOM      9  C   UNL     1       6.444  20.610   4.746  1.00  0.00    -0.003 C 
ATOM     10  C   UNL     1       5.542  21.726   4.225  1.00  0.00     0.004 C 
ENDBRANCH   8   9
ENDBRANCH   7   8
ENDBRANCH   1   7
TORSDOF 6
ENDMDL
MODEL 3
REMARK VINA RESULT:    -3.684      1.835      2.374
REMARK INTER + INTRA:          -5.232
REMARK INTER:                  -4.967
REMARK INTRA:                  -0.265
REMARK UNBOUND:                -0.256
REMARK SMILES CCCCCCCC(=O)[O-]
REMARK SMILES IDX 5 1 6 2 7 3 8 4 9 5 10 6 4 7 3 8 2 9 1 10
REMARK H PARENT
REMARK Flexibility Score: inf
ROOT
ATOM      1  C   UNL     1       6.797  18.895   1.308  1.00  0.00     0.000 C 
ENDROOT
BRANCH   1   2
ATOM      2  C   UNL     1       6.657  19.237   2.802  1.00  0.00     0.006 C 
BRANCH   2   3
ATOM      3  C   UNL     1       5.866  20.529   3.048  1.00  0.00     0.053 C 
BRANCH   3   4
ATOM      4  C   UNL     1       6.086  21.018   4.444  1.00  0.00     0.041 C 
ATOM      5  O   UNL     1       5.621  22.130   4.808  1.00  0.00    -0.550 OA
ATOM      6  O   UNL     1       6.764  20.223   5.360  1.00  0.00    -0.550 OA
ENDBRANCH   3   4
ENDBRANCH   2   3
ENDBRANCH   1   2
BRANCH   1   7
ATOM      7  C   UNL     1       6.308  19.989   0.342  1.00  0.00     0.000 C 
BRANCH   7   8
ATOM      8  C   UNL     1       5.135  19.531  -0.537  1.00  0.00    -0.000 C 
BRANCH   8   9
ATOM      9  C   UNL     1       4.545  20.709  -1.323  1.00  0.00    -0.003 C 
ATOM     10  C   UNL     1       5.626  21.722  -1.691  1.00  0.00     0.004 C 
ENDBRANCH   8   9
ENDBRANCH   7   8
ENDBRANCH   1   7
TORSDOF 6
ENDMDL
MODEL 4
REMARK VINA RESULT:    -3.440     13.539     14.532
REMARK INTER + INTRA:          -4.903
REMARK INTER:                  -4.619
REMARK INTRA:                  -0.284
REMARK UNBOUND:                -0.256
REMARK SMILES CCCCCCCC(=O)[O-]
REMARK SMILES IDX 5 1 6 2 7 3 8 4 9 5 10 6 4 7 3 8 2 9 1 10
REMARK H PARENT
REMARK Flexibility Score: inf
ROOT
ATOM      1  C   UNL     1      -7.790  16.450   0.303  1.00  0.00     0.000 C 
ENDROOT
BRANCH   1   2
ATOM      2  C   UNL     1      -7.132  16.370   1.692  1.00  0.00     0.006 C 
BRANCH   2   3
ATOM      3  C   UNL     1      -6.416  17.668   2.091  1.00  0.00     0.053 C 
BRANCH   3   4
ATOM      4  C   UNL     1      -6.951  18.181   3.390  1.00  0.00     0.041 C 
ATOM      5  O   UNL     1      -8.174  18.456   3.508  1.00  0.00    -0.550 OA
ATOM      6  O   UNL     1      -6.108  18.310   4.486  1.00  0.00    -0.550 OA
ENDBRANCH   3   4
ENDBRANCH   2   3
ENDBRANCH   1   2
BRANCH   1   7
ATOM      7  C   UNL     1      -9.297  16.762   0.315  1.00  0.00     0.000 C 
BRANCH   7   8
ATOM      8  C   UNL     1      -9.904  16.842  -1.094  1.00  0.00    -0.000 C 
BRANCH   8   9
ATOM      9  C   UNL     1      -8.840  17.230  -2.128  1.00  0.00    -0.003 C 
ATOM     10  C   UNL     1      -8.747  16.190  -3.241  1.00  0.00     0.004 C 
ENDBRANCH   8   9
ENDBRANCH   7   8
ENDBRANCH   1   7
TORSDOF 6
ENDMDL
MODEL 5
REMARK VINA RESULT:    -3.437     13.901     14.852
REMARK INTER + INTRA:          -4.899
REMARK INTER:                  -4.503
REMARK INTRA:                  -0.396
REMARK UNBOUND:                -0.256
REMARK SMILES CCCCCCCC(=O)[O-]
REMARK SMILES IDX 5 1 6 2 7 3 8 4 9 5 10 6 4 7 3 8 2 9 1 10
REMARK H PARENT
REMARK Flexibility Score: inf
ROOT
ATOM      1  C   UNL     1      -7.752  16.597   1.220  1.00  0.00     0.000 C 
ENDROOT
BRANCH   1   2
ATOM      2  C   UNL     1      -6.453  16.841   2.009  1.00  0.00     0.006 C 
BRANCH   2   3
ATOM      3  C   UNL     1      -6.467  18.160   2.792  1.00  0.00     0.053 C 
BRANCH   3   4
ATOM      4  C   UNL     1      -6.409  17.895   4.263  1.00  0.00     0.041 C 
ATOM      5  O   UNL     1      -6.401  18.853   5.080  1.00  0.00    -0.550 OA
ATOM      6  O   UNL     1      -6.414  16.588   4.734  1.00  0.00    -0.550 OA
ENDBRANCH   3   4
ENDBRANCH   2   3
ENDBRANCH   1   2
BRANCH   1   7
ATOM      7  C   UNL     1      -8.987  16.280   2.083  1.00  0.00     0.000 C 
BRANCH   7   8
ATOM      8  C   UNL     1     -10.114  17.310   1.919  1.00  0.00    -0.000 C 
BRANCH   8   9
ATOM      9  C   UNL     1     -10.205  18.224   3.147  1.00  0.00    -0.003 C 
ATOM     10  C   UNL     1     -11.609  18.802   3.299  1.00  0.00     0.004 C 
ENDBRANCH   8   9
ENDBRANCH   7   8
ENDBRANCH   1   7
TORSDOF 6
ENDMDL
MODEL 6
REMARK VINA RESULT:    -3.394     15.661     16.550
REMARK INTER + INTRA:          -4.841
REMARK INTER:                  -4.638
REMARK INTRA:                  -0.203
REMARK UNBOUND:                -0.256
REMARK SMILES CCCCCCCC(=O)[O-]
REMARK SMILES IDX 5 1 6 2 7 3 8 4 9 5 10 6 4 7 3 8 2 9 1 10
REMARK H PARENT
REMARK Flexibility Score: inf
ROOT
ATOM      1  C   UNL     1      -8.148  15.700  -2.772  1.00  0.00     0.000 C 
ENDROOT
BRANCH   1   2
ATOM      2  C   UNL     1      -8.661  15.029  -4.059  1.00  0.00     0.006 C 
BRANCH   2   3
ATOM      3  C   UNL     1      -8.378  15.857  -5.319  1.00  0.00     0.053 C 
BRANCH   3   4
ATOM      4  C   UNL     1      -7.342  15.185  -6.163  1.00  0.00     0.041 C 
ATOM      5  O   UNL     1      -6.272  14.771  -5.644  1.00  0.00    -0.550 OA
ATOM      6  O   UNL     1      -7.579  14.972  -7.515  1.00  0.00    -0.550 OA
ENDBRANCH   3   4
ENDBRANCH   2   3
ENDBRANCH   1   2
BRANCH   1   7
ATOM      7  C   UNL     1      -8.781  17.066  -2.454  1.00  0.00     0.000 C 
BRANCH   7   8
ATOM      8  C   UNL     1      -9.741  17.019  -1.257  1.00  0.00    -0.000 C 
BRANCH   8   9
ATOM      9  C   UNL     1      -8.997  16.639   0.029  1.00  0.00    -0.003 C 
ATOM     10  C   UNL     1      -9.834  16.956   1.265  1.00  0.00     0.004 C 
ENDBRANCH   8   9
ENDBRANCH   7   8
ENDBRANCH   1   7
TORSDOF 6
ENDMDL
MODEL 7
REMARK VINA RESULT:    -3.385     13.125     14.073
REMARK INTER + INTRA:          -4.828
REMARK INTER:                  -4.509
REMARK INTRA:                  -0.319
REMARK UNBOUND:                -0.256
REMARK SMILES CCCCCCCC(=O)[O-]
REMARK SMILES IDX 5 1 6 2 7 3 8 4 9 5 10 6 4 7 3 8 2 9 1 10
REMARK H PARENT
REMARK Flexibility Score: inf
ROOT
ATOM      1  C   UNL     1      -6.167  16.470   1.529  1.00  0.00     0.000 C 
ENDROOT
BRANCH   1   2
ATOM      2  C   UNL     1      -6.520  17.779   2.259  1.00  0.00     0.006 C 
BRANCH   2   3
ATOM      3  C   UNL     1      -6.597  17.612   3.782  1.00  0.00     0.053 C 
BRANCH   3   4
ATOM      4  C   UNL     1      -6.742  18.944   4.446  1.00  0.00     0.041 C 
ATOM      5  O   UNL     1      -7.400  19.862   3.890  1.00  0.00    -0.550 OA
ATOM      6  O   UNL     1      -6.190  19.158   5.703  1.00  0.00    -0.550 OA
ENDBRANCH   3   4
ENDBRANCH   2   3
ENDBRANCH   1   2
BRANCH   1   7
ATOM      7  C   UNL     1      -7.161  16.049   0.432  1.00  0.00     0.000 C 
BRANCH   7   8
ATOM      8  C   UNL     1      -8.615  16.003   0.925  1.00  0.00    -0.000 C 
BRANCH   8   9
ATOM      9  C   UNL     1      -9.531  16.823   0.009  1.00  0.00    -0.003 C 
ATOM     10  C   UNL     1      -8.934  16.958  -1.389  1.00  0.00     0.004 C 
ENDBRANCH   8   9
ENDBRANCH   7   8
ENDBRANCH   1   7
TORSDOF 6
ENDMDL
MODEL 8
REMARK VINA RESULT:    -3.368      1.561      2.105
REMARK INTER + INTRA:          -4.805
REMARK INTER:                  -4.486
REMARK INTRA:                  -0.319
REMARK UNBOUND:                -0.256
REMARK SMILES CCCCCCCC(=O)[O-]
REMARK SMILES IDX 5 1 6 2 7 3 8 4 9 5 10 6 4 7 3 8 2 9 1 10
REMARK H PARENT
REMARK Flexibility Score: inf
ROOT
ATOM      1  C   UNL     1       5.714  20.419   2.357  1.00  0.00     0.000 C 
ENDROOT
BRANCH   1   2
ATOM      2  C   UNL     1       6.433  20.679   3.693  1.00  0.00     0.006 C 
BRANCH   2   3
ATOM      3  C   UNL     1       7.478  19.607   4.028  1.00  0.00     0.053 C 
BRANCH   3   4
ATOM      4  C   UNL     1       6.947  18.665   5.060  1.00  0.00     0.041 C 
ATOM      5  O   UNL     1       6.970  18.981   6.279  1.00  0.00    -0.550 OA
ATOM      6  O   UNL     1       6.381  17.457   4.673  1.00  0.00    -0.550 OA
ENDBRANCH   3   4
ENDBRANCH   2   3
ENDBRANCH   1   2
BRANCH   1   7
ATOM      7  C   UNL     1       6.452  19.472   1.394  1.00  0.00     0.000 C 
BRANCH   7   8
ATOM      8  C   UNL     1       5.817  19.421  -0.003  1.00  0.00    -0.000 C 
BRANCH   8   9
ATOM      9  C   UNL     1       4.830  20.579  -0.199  1.00  0.00    -0.003 C 
ATOM     10  C   UNL     1       5.131  21.348  -1.482  1.00  0.00     0.004 C 
ENDBRANCH   8   9
ENDBRANCH   7   8
ENDBRANCH   1   7
TORSDOF 6
ENDMDL
MODEL 9
REMARK VINA RESULT:    -3.366     14.175     15.557
REMARK INTER + INTRA:          -4.802
REMARK INTER:                  -4.188
REMARK INTRA:                  -0.614
REMARK UNBOUND:                -0.256
REMARK SMILES CCCCCCCC(=O)[O-]
REMARK SMILES IDX 5 1 6 2 7 3 8 4 9 5 10 6 4 7 3 8 2 9 1 10
REMARK H PARENT
REMARK Flexibility Score: inf
ROOT
ATOM      1  C   UNL     1      -9.992  16.869  -1.109  1.00  0.00     0.000 C 
ENDROOT
BRANCH   1   2
ATOM      2  C   UNL     1      -8.835  17.172  -2.078  1.00  0.00     0.006 C 
BRANCH   2   3
ATOM      3  C   UNL     1      -8.615  16.060  -3.113  1.00  0.00     0.053 C 
BRANCH   3   4
ATOM      4  C   UNL     1      -7.752  14.980  -2.544  1.00  0.00     0.041 C 
ATOM      5  O   UNL     1      -6.497  15.080  -2.591  1.00  0.00    -0.550 OA
ATOM      6  O   UNL     1      -8.331  13.884  -1.917  1.00  0.00    -0.550 OA
ENDBRANCH   3   4
ENDBRANCH   2   3
ENDBRANCH   1   2
BRANCH   1   7
ATOM      7  C   UNL     1      -9.567  16.603   0.347  1.00  0.00     0.000 C 
BRANCH   7   8
ATOM      8  C   UNL     1      -8.092  16.936   0.612  1.00  0.00    -0.000 C 
BRANCH   8   9
ATOM      9  C   UNL     1      -7.322  15.692   1.071  1.00  0.00    -0.003 C 
ATOM     10  C   UNL     1      -5.820  15.866   0.865  1.00  0.00     0.004 C 
ENDBRANCH   8   9
ENDBRANCH   7   8
ENDBRANCH   1   7
TORSDOF 6
ENDMDL
