MODEL 1
REMARK VINA RESULT:    -4.061      0.000      0.000
REMARK INTER + INTRA:          -6.303
REMARK INTER:                  -5.604
REMARK INTRA:                  -0.699
REMARK UNBOUND:                -0.699
REMARK SMILES OC[C@@H](O)C(O)[C@H](O)CO
REMARK SMILES IDX 5 1 7 2 9 3 10 4 8 6 3 8 2 9 1 10 4 12 6 14
REMARK H PARENT 10 5 8 7 1 11 4 13 6 15
REMARK Flexibility Score: inf
ROOT
ATOM      1  C   UNL     1      14.558 263.734  38.853  1.00  0.00     0.176 C 
ENDROOT
BRANCH   1   2
ATOM      2  C   UNL     1      15.653 263.915  37.755  1.00  0.00     0.171 C 
BRANCH   2   3
ATOM      3  C   UNL     1      15.834 265.367  37.276  1.00  0.00     0.190 C 
BRANCH   3   4
ATOM      4  O   UNL     1      16.568 266.104  38.215  1.00  0.00    -0.394 OA
ATOM      5  H   UNL     1      17.446 265.648  38.298  1.00  0.00     0.210 HD
ENDBRANCH   3   4
ENDBRANCH   2   3
BRANCH   2   6
ATOM      6  O   UNL     1      16.883 263.426  38.233  1.00  0.00    -0.388 OA
ATOM      7  H   UNL     1      17.192 262.724  37.602  1.00  0.00     0.211 HD
ENDBRANCH   2   6
ENDBRANCH   1   2
BRANCH   1   8
ATOM      8  C   UNL     1      15.055 263.192  40.229  1.00  0.00     0.171 C 
BRANCH   8   9
ATOM      9  C   UNL     1      14.020 263.386  41.353  1.00  0.00     0.190 C 
BRANCH   9  10
ATOM     10  O   UNL     1      12.794 262.808  40.995  1.00  0.00    -0.394 OA
ATOM     11  H   UNL     1      13.001 262.039  40.403  1.00  0.00     0.210 HD
ENDBRANCH   9  10
ENDBRANCH   8   9
BRANCH   8  12
ATOM     12  O   UNL     1      15.428 261.841  40.125  1.00  0.00    -0.388 OA
ATOM     13  H   UNL     1      16.215 261.797  39.520  1.00  0.00     0.211 HD
ENDBRANCH   8  12
ENDBRANCH   1   8
BRANCH   1  14
ATOM     14  O   UNL     1      13.897 264.960  39.050  1.00  0.00    -0.388 OA
ATOM     15  H   UNL     1      14.445 265.666  38.616  1.00  0.00     0.211 HD
ENDBRANCH   1  14
TORSDOF 9
ENDMDL
MODEL 2
REMARK VINA RESULT:    -3.882     15.078     16.477
REMARK INTER + INTRA:          -6.057
REMARK INTER:                  -5.402
REMARK INTRA:                  -0.655
REMARK UNBOUND:                -0.699
REMARK SMILES OC[C@@H](O)C(O)[C@H](O)CO
REMARK SMILES IDX 5 1 7 2 9 3 10 4 8 6 3 8 2 9 1 10 4 12 6 14
REMARK H PARENT 10 5 8 7 1 11 4 13 6 15
REMARK Flexibility Score: inf
ROOT
ATOM      1  C   UNL     1      26.243 254.782  31.841  1.00  0.00     0.176 C 
ENDROOT
BRANCH   1   2
ATOM      2  C   UNL     1      24.898 255.362  31.299  1.00  0.00     0.171 C 
BRANCH   2   3
ATOM      3  C   UNL     1      24.863 256.899  31.212  1.00  0.00     0.190 C 
BRANCH   3   4
ATOM      4  O   UNL     1      25.636 257.346  30.134  1.00  0.00    -0.394 OA
ATOM      5  H   UNL     1      25.033 257.894  29.568  1.00  0.00     0.210 HD
ENDBRANCH   3   4
ENDBRANCH   2   3
BRANCH   2   6
ATOM      6  O   UNL     1      24.630 254.818  30.029  1.00  0.00    -0.388 OA
ATOM      7  H   UNL     1      23.645 254.846  29.894  1.00  0.00     0.211 HD
ENDBRANCH   2   6
ENDBRANCH   1   2
BRANCH   1   8
ATOM      8  C   UNL     1      26.367 253.227  31.833  1.00  0.00     0.171 C 
BRANCH   8   9
ATOM      9  C   UNL     1      27.450 252.712  32.800  1.00  0.00     0.190 C 
BRANCH   9  10
ATOM     10  O   UNL     1      28.396 253.714  33.055  1.00  0.00    -0.394 OA
ATOM     11  H   UNL     1      27.893 254.509  33.371  1.00  0.00     0.210 HD
ENDBRANCH   9  10
ENDBRANCH   8   9
BRANCH   8  12
ATOM     12  O   UNL     1      25.126 252.629  32.113  1.00  0.00    -0.388 OA
ATOM     13  H   UNL     1      24.659 253.211  32.768  1.00  0.00     0.211 HD
ENDBRANCH   8  12
ENDBRANCH   1   8
BRANCH   1  14
ATOM     14  O   UNL     1      27.310 255.335  31.111  1.00  0.00    -0.388 OA
ATOM     15  H   UNL     1      27.411 256.280  31.401  1.00  0.00     0.211 HD
ENDBRANCH   1  14
TORSDOF 9
ENDMDL
MODEL 3
REMARK VINA RESULT:    -3.846      8.446      9.524
REMARK INTER + INTRA:          -6.007
REMARK INTER:                  -5.554
REMARK INTRA:                  -0.452
REMARK UNBOUND:                -0.699
REMARK SMILES OC[C@@H](O)C(O)[C@H](O)CO
REMARK SMILES IDX 5 1 7 2 9 3 10 4 8 6 3 8 2 9 1 10 4 12 6 14
REMARK H PARENT 10 5 8 7 1 11 4 13 6 15
REMARK Flexibility Score: inf
ROOT
ATOM      1  C   UNL     1      13.497 259.872  31.338  1.00  0.00     0.176 C 
ENDROOT
BRANCH   1   2
ATOM      2  C   UNL     1      14.649 259.174  30.547  1.00  0.00     0.171 C 
BRANCH   2   3
ATOM      3  C   UNL     1      14.560 257.636  30.528  1.00  0.00     0.190 C 
BRANCH   3   4
ATOM      4  O   UNL     1      13.355 257.209  31.101  1.00  0.00    -0.394 OA
ATOM      5  H   UNL     1      12.631 257.589  30.539  1.00  0.00     0.210 HD
ENDBRANCH   3   4
ENDBRANCH   2   3
BRANCH   2   6
ATOM      6  O   UNL     1      14.671 259.655  29.225  1.00  0.00    -0.388 OA
ATOM      7  H   UNL     1      15.534 260.130  29.094  1.00  0.00     0.211 HD
ENDBRANCH   2   6
ENDBRANCH   1   2
BRANCH   1   8
ATOM      8  C   UNL     1      13.906 261.126  32.171  1.00  0.00     0.171 C 
BRANCH   8   9
ATOM      9  C   UNL     1      13.005 262.345  31.891  1.00  0.00     0.190 C 
BRANCH   9  10
ATOM     10  O   UNL     1      13.490 263.071  30.795  1.00  0.00    -0.394 OA
ATOM     11  H   UNL     1      14.470 263.163  30.923  1.00  0.00     0.210 HD
ENDBRANCH   9  10
ENDBRANCH   8   9
BRANCH   8  12
ATOM     12  O   UNL     1      13.923 260.827  33.544  1.00  0.00    -0.388 OA
ATOM     13  H   UNL     1      13.135 261.273  33.953  1.00  0.00     0.211 HD
ENDBRANCH   8  12
ENDBRANCH   1   8
BRANCH   1  14
ATOM     14  O   UNL     1      12.472 260.225  30.442  1.00  0.00    -0.388 OA
ATOM     15  H   UNL     1      12.247 259.415  29.914  1.00  0.00     0.211 HD
ENDBRANCH   1  14
TORSDOF 9
ENDMDL
MODEL 4
REMARK VINA RESULT:    -3.822     16.098     17.282
REMARK INTER + INTRA:          -5.974
REMARK INTER:                  -5.260
REMARK INTRA:                  -0.713
REMARK UNBOUND:                -0.699
REMARK SMILES OC[C@@H](O)C(O)[C@H](O)CO
REMARK SMILES IDX 5 1 7 2 9 3 10 4 8 6 3 8 2 9 1 10 4 12 6 14
REMARK H PARENT 10 5 8 7 1 11 4 13 6 15
REMARK Flexibility Score: inf
ROOT
ATOM      1  C   UNL     1      28.066 253.000  34.227  1.00  0.00     0.176 C 
ENDROOT
BRANCH   1   2
ATOM      2  C   UNL     1      28.159 254.559  34.197  1.00  0.00     0.171 C 
BRANCH   2   3
ATOM      3  C   UNL     1      27.086 255.239  33.327  1.00  0.00     0.190 C 
BRANCH   3   4
ATOM      4  O   UNL     1      27.460 255.209  31.977  1.00  0.00    -0.394 OA
ATOM      5  H   UNL     1      27.955 256.052  31.808  1.00  0.00     0.210 HD
ENDBRANCH   3   4
ENDBRANCH   2   3
BRANCH   2   6
ATOM      6  O   UNL     1      28.079 255.060  35.510  1.00  0.00    -0.388 OA
ATOM      7  H   UNL     1      27.143 254.936  35.821  1.00  0.00     0.211 HD
ENDBRANCH   2   6
ENDBRANCH   1   2
BRANCH   1   8
ATOM      8  C   UNL     1      26.743 252.408  34.806  1.00  0.00     0.171 C 
BRANCH   8   9
ATOM      9  C   UNL     1      26.735 250.868  34.812  1.00  0.00     0.190 C 
BRANCH   9  10
ATOM     10  O   UNL     1      28.045 250.370  34.773  1.00  0.00    -0.394 OA
ATOM     11  H   UNL     1      27.986 249.432  34.455  1.00  0.00     0.210 HD
ENDBRANCH   9  10
ENDBRANCH   8   9
BRANCH   8  12
ATOM     12  O   UNL     1      26.496 252.911  36.095  1.00  0.00    -0.388 OA
ATOM     13  H   UNL     1      26.668 252.173  36.737  1.00  0.00     0.211 HD
ENDBRANCH   8  12
ENDBRANCH   1   8
BRANCH   1  14
ATOM     14  O   UNL     1      28.266 252.502  32.927  1.00  0.00    -0.388 OA
ATOM     15  H   UNL     1      29.246 252.481  32.765  1.00  0.00     0.211 HD
ENDBRANCH   1  14
TORSDOF 9
ENDMDL
MODEL 5
REMARK VINA RESULT:    -3.783     16.274     17.629
REMARK INTER + INTRA:          -5.919
REMARK INTER:                  -4.960
REMARK INTRA:                  -0.959
REMARK UNBOUND:                -0.699
REMARK SMILES OC[C@@H](O)C(O)[C@H](O)CO
REMARK SMILES IDX 5 1 7 2 9 3 10 4 8 6 3 8 2 9 1 10 4 12 6 14
REMARK H PARENT 10 5 8 7 1 11 4 13 6 15
REMARK Flexibility Score: inf
ROOT
ATOM      1  C   UNL     1      26.493 252.423  35.026  1.00  0.00     0.176 C 
ENDROOT
BRANCH   1   2
ATOM      2  C   UNL     1      27.063 251.075  34.481  1.00  0.00     0.171 C 
BRANCH   2   3
ATOM      3  C   UNL     1      27.033 250.951  32.946  1.00  0.00     0.190 C 
BRANCH   3   4
ATOM      4  O   UNL     1      28.039 251.740  32.373  1.00  0.00    -0.394 OA
ATOM      5  H   UNL     1      27.574 252.467  31.883  1.00  0.00     0.210 HD
ENDBRANCH   3   4
ENDBRANCH   2   3
BRANCH   2   6
ATOM      6  O   UNL     1      28.384 250.905  34.936  1.00  0.00    -0.388 OA
ATOM      7  H   UNL     1      28.673 249.989  34.681  1.00  0.00     0.211 HD
ENDBRANCH   2   6
ENDBRANCH   1   2
BRANCH   1   8
ATOM      8  C   UNL     1      27.510 253.339  35.776  1.00  0.00     0.171 C 
BRANCH   8   9
ATOM      9  C   UNL     1      28.058 254.471  34.887  1.00  0.00     0.190 C 
BRANCH   9  10
ATOM     10  O   UNL     1      28.813 253.942  33.830  1.00  0.00    -0.394 OA
ATOM     11  H   UNL     1      29.574 253.453  34.238  1.00  0.00     0.210 HD
ENDBRANCH   9  10
ENDBRANCH   8   9
BRANCH   8  12
ATOM     12  O   UNL     1      26.936 253.862  36.948  1.00  0.00    -0.388 OA
ATOM     13  H   UNL     1      26.619 254.780  36.736  1.00  0.00     0.211 HD
ENDBRANCH   8  12
ENDBRANCH   1   8
BRANCH   1  14
ATOM     14  O   UNL     1      25.920 253.143  33.963  1.00  0.00    -0.388 OA
ATOM     15  H   UNL     1      25.527 253.973  34.343  1.00  0.00     0.211 HD
ENDBRANCH   1  14
TORSDOF 9
ENDMDL
MODEL 6
REMARK VINA RESULT:    -3.760     16.089     17.414
REMARK INTER + INTRA:          -5.889
REMARK INTER:                  -5.238
REMARK INTRA:                  -0.650
REMARK UNBOUND:                -0.699
REMARK SMILES OC[C@@H](O)C(O)[C@H](O)CO
REMARK SMILES IDX 5 1 7 2 9 3 10 4 8 6 3 8 2 9 1 10 4 12 6 14
REMARK H PARENT 10 5 8 7 1 11 4 13 6 15
REMARK Flexibility Score: inf
ROOT
ATOM      1  C   UNL     1      27.757 253.055  35.564  1.00  0.00     0.176 C 
ENDROOT
BRANCH   1   2
ATOM      2  C   UNL     1      27.582 251.523  35.817  1.00  0.00     0.171 C 
BRANCH   2   3
ATOM      3  C   UNL     1      26.119 251.043  35.796  1.00  0.00     0.190 C 
BRANCH   3   4
ATOM      4  O   UNL     1      25.547 251.162  37.069  1.00  0.00    -0.394 OA
ATOM      5  H   UNL     1      24.864 251.878  36.999  1.00  0.00     0.210 HD
ENDBRANCH   3   4
ENDBRANCH   2   3
BRANCH   2   6
ATOM      6  O   UNL     1      28.323 250.802  34.863  1.00  0.00    -0.388 OA
ATOM      7  H   UNL     1      27.681 250.449  34.191  1.00  0.00     0.211 HD
ENDBRANCH   2   6
ENDBRANCH   1   2
BRANCH   1   8
ATOM      8  C   UNL     1      27.478 253.540  34.108  1.00  0.00     0.171 C 
BRANCH   8   9
ATOM      9  C   UNL     1      27.518 255.075  33.975  1.00  0.00     0.190 C 
BRANCH   9  10
ATOM     10  O   UNL     1      28.264 255.637  35.020  1.00  0.00    -0.394 OA
ATOM     11  H   UNL     1      27.739 256.405  35.366  1.00  0.00     0.210 HD
ENDBRANCH   9  10
ENDBRANCH   8   9
BRANCH   8  12
ATOM     12  O   UNL     1      28.372 252.940  33.204  1.00  0.00    -0.388 OA
ATOM     13  H   UNL     1      29.246 253.403  33.303  1.00  0.00     0.211 HD
ENDBRANCH   8  12
ENDBRANCH   1   8
BRANCH   1  14
ATOM     14  O   UNL     1      26.932 253.765  36.454  1.00  0.00    -0.388 OA
ATOM     15  H   UNL     1      26.072 253.941  35.988  1.00  0.00     0.211 HD
ENDBRANCH   1  14
TORSDOF 9
ENDMDL
MODEL 7
REMARK VINA RESULT:    -3.752     13.736     14.992
REMARK INTER + INTRA:          -5.877
REMARK INTER:                  -5.133
REMARK INTRA:                  -0.744
REMARK UNBOUND:                -0.699
REMARK SMILES OC[C@@H](O)C(O)[C@H](O)CO
REMARK SMILES IDX 5 1 7 2 9 3 10 4 8 6 3 8 2 9 1 10 4 12 6 14
REMARK H PARENT 10 5 8 7 1 11 4 13 6 15
REMARK Flexibility Score: inf
ROOT
ATOM      1  C   UNL     1      24.902 257.152  31.215  1.00  0.00     0.176 C 
ENDROOT
BRANCH   1   2
ATOM      2  C   UNL     1      23.383 257.326  30.893  1.00  0.00     0.171 C 
BRANCH   2   3
ATOM      3  C   UNL     1      23.025 258.678  30.249  1.00  0.00     0.190 C 
BRANCH   3   4
ATOM      4  O   UNL     1      23.117 258.594  28.854  1.00  0.00    -0.394 OA
ATOM      5  H   UNL     1      22.574 259.343  28.495  1.00  0.00     0.210 HD
ENDBRANCH   3   4
ENDBRANCH   2   3
BRANCH   2   6
ATOM      6  O   UNL     1      22.959 256.282  30.051  1.00  0.00    -0.388 OA
ATOM      7  H   UNL     1      23.760 255.741  29.818  1.00  0.00     0.211 HD
ENDBRANCH   2   6
ENDBRANCH   1   2
BRANCH   1   8
ATOM      8  C   UNL     1      25.341 255.730  31.681  1.00  0.00     0.171 C 
BRANCH   8   9
ATOM      9  C   UNL     1      26.224 255.010  30.643  1.00  0.00     0.190 C 
BRANCH   9  10
ATOM     10  O   UNL     1      25.450 254.586  29.553  1.00  0.00    -0.394 OA
ATOM     11  H   UNL     1      25.930 253.821  29.142  1.00  0.00     0.210 HD
ENDBRANCH   9  10
ENDBRANCH   8   9
BRANCH   8  12
ATOM     12  O   UNL     1      25.992 255.793  32.925  1.00  0.00    -0.388 OA
ATOM     13  H   UNL     1      25.613 256.569  33.417  1.00  0.00     0.211 HD
ENDBRANCH   8  12
ENDBRANCH   1   8
BRANCH   1  14
ATOM     14  O   UNL     1      25.657 257.523  30.088  1.00  0.00    -0.388 OA
ATOM     15  H   UNL     1      25.026 257.903  29.420  1.00  0.00     0.211 HD
ENDBRANCH   1  14
TORSDOF 9
ENDMDL
MODEL 8
REMARK VINA RESULT:    -3.750     16.331     17.213
REMARK INTER + INTRA:          -5.874
REMARK INTER:                  -5.188
REMARK INTRA:                  -0.686
REMARK UNBOUND:                -0.699
REMARK SMILES OC[C@@H](O)C(O)[C@H](O)CO
REMARK SMILES IDX 5 1 7 2 9 3 10 4 8 6 3 8 2 9 1 10 4 12 6 14
REMARK H PARENT 10 5 8 7 1 11 4 13 6 15
REMARK Flexibility Score: inf
ROOT
ATOM      1  C   UNL     1      26.896 252.740  35.018  1.00  0.00     0.176 C 
ENDROOT
BRANCH   1   2
ATOM      2  C   UNL     1      27.736 253.561  33.988  1.00  0.00     0.171 C 
BRANCH   2   3
ATOM      3  C   UNL     1      28.863 254.400  34.619  1.00  0.00     0.190 C 
BRANCH   3   4
ATOM      4  O   UNL     1      28.341 255.572  35.184  1.00  0.00    -0.394 OA
ATOM      5  H   UNL     1      27.451 255.330  35.548  1.00  0.00     0.210 HD
ENDBRANCH   3   4
ENDBRANCH   2   3
BRANCH   2   6
ATOM      6  O   UNL     1      28.287 252.690  33.030  1.00  0.00    -0.388 OA
ATOM      7  H   UNL     1      29.245 252.929  32.923  1.00  0.00     0.211 HD
ENDBRANCH   2   6
ENDBRANCH   1   2
BRANCH   1   8
ATOM      8  C   UNL     1      27.656 251.597  35.760  1.00  0.00     0.171 C 
BRANCH   8   9
ATOM      9  C   UNL     1      26.772 250.866  36.788  1.00  0.00     0.190 C 
BRANCH   9  10
ATOM     10  O   UNL     1      25.415 251.065  36.498  1.00  0.00    -0.394 OA
ATOM     11  H   UNL     1      24.964 250.190  36.619  1.00  0.00     0.210 HD
ENDBRANCH   9  10
ENDBRANCH   8   9
BRANCH   8  12
ATOM     12  O   UNL     1      28.204 250.686  34.840  1.00  0.00    -0.388 OA
ATOM     13  H   UNL     1      27.450 250.169  34.452  1.00  0.00     0.211 HD
ENDBRANCH   8  12
ENDBRANCH   1   8
BRANCH   1  14
ATOM     14  O   UNL     1      26.343 253.619  35.966  1.00  0.00    -0.388 OA
ATOM     15  H   UNL     1      25.733 253.088  36.543  1.00  0.00     0.211 HD
ENDBRANCH   1  14
TORSDOF 9
ENDMDL
MODEL 9
REMARK VINA RESULT:    -3.695     16.329     17.831
REMARK INTER + INTRA:          -5.799
REMARK INTER:                  -5.078
REMARK INTRA:                  -0.721
REMARK UNBOUND:                -0.699
REMARK SMILES OC[C@@H](O)C(O)[C@H](O)CO
REMARK SMILES IDX 5 1 7 2 9 3 10 4 8 6 3 8 2 9 1 10 4 12 6 14
REMARK H PARENT 10 5 8 7 1 11 4 13 6 15
REMARK Flexibility Score: inf
ROOT
ATOM      1  C   UNL     1      26.227 252.108  34.926  1.00  0.00     0.176 C 
ENDROOT
BRANCH   1   2
ATOM      2  C   UNL     1      27.228 251.157  35.656  1.00  0.00     0.171 C 
BRANCH   2   3
ATOM      3  C   UNL     1      26.654 249.764  35.979  1.00  0.00     0.190 C 
BRANCH   3   4
ATOM      4  O   UNL     1      26.908 248.875  34.926  1.00  0.00    -0.394 OA
ATOM      5  H   UNL     1      26.396 248.051  35.131  1.00  0.00     0.210 HD
ENDBRANCH   3   4
ENDBRANCH   2   3
BRANCH   2   6
ATOM      6  O   UNL     1      28.391 251.012  34.878  1.00  0.00    -0.388 OA
ATOM      7  H   UNL     1      28.373 250.102  34.479  1.00  0.00     0.211 HD
ENDBRANCH   2   6
ENDBRANCH   1   2
BRANCH   1   8
ATOM      8  C   UNL     1      26.696 253.585  34.751  1.00  0.00     0.171 C 
BRANCH   8   9
ATOM      9  C   UNL     1      27.116 253.908  33.304  1.00  0.00     0.190 C 
BRANCH   9  10
ATOM     10  O   UNL     1      28.331 253.282  32.995  1.00  0.00    -0.394 OA
ATOM     11  H   UNL     1      28.616 253.629  32.110  1.00  0.00     0.210 HD
ENDBRANCH   9  10
ENDBRANCH   8   9
BRANCH   8  12
ATOM     12  O   UNL     1      25.703 254.477  35.190  1.00  0.00    -0.388 OA
ATOM     13  H   UNL     1      25.967 255.385  34.886  1.00  0.00     0.211 HD
ENDBRANCH   8  12
ENDBRANCH   1   8
BRANCH   1  14
ATOM     14  O   UNL     1      25.917 251.568  33.665  1.00  0.00    -0.388 OA
ATOM     15  H   UNL     1      25.707 252.328  33.060  1.00  0.00     0.211 HD
ENDBRANCH   1  14
TORSDOF 9
ENDMDL
