MODEL 1
REMARK VINA RESULT:    -3.478      0.000      0.000
REMARK INTER + INTRA:          -3.783
REMARK INTER:                  -3.783
REMARK INTRA:                   0.000
REMARK UNBOUND:                 0.000
REMARK SMILES Oc1cccc(O)c1O
REMARK SMILES IDX 4 1 5 2 6 3 8 4 2 5 3 6 7 7 1 9 9 11
REMARK H PARENT 7 8 1 10 9 12
REMARK Flexibility Score: inf
ROOT
ATOM      1  C   UNL     1     116.255 130.907 109.034  1.00  0.00     0.008 A 
ATOM      2  C   UNL     1     115.685 131.568 107.943  1.00  0.00     0.050 A 
ATOM      3  C   UNL     1     116.219 131.404 106.660  1.00  0.00     0.161 A 
ATOM      4  C   UNL     1     117.337 130.570 106.468  1.00  0.00     0.200 A 
ATOM      5  C   UNL     1     117.909 129.906 107.569  1.00  0.00     0.161 A 
ATOM      6  C   UNL     1     117.363 130.079 108.849  1.00  0.00     0.050 A 
ENDROOT
BRANCH   3   7
ATOM      7  O   UNL     1     115.629 132.076 105.591  1.00  0.00    -0.504 OA
ATOM      8  H   UNL     1     116.109 132.213 104.709  1.00  0.00     0.293 HD
ENDBRANCH   3   7
BRANCH   5   9
ATOM      9  O   UNL     1     119.016 129.077 107.387  1.00  0.00    -0.504 OA
ATOM     10  H   UNL     1     118.947 128.071 107.482  1.00  0.00     0.293 HD
ENDBRANCH   5   9
BRANCH   4  11
ATOM     11  O   UNL     1     117.865 130.410 105.187  1.00  0.00    -0.502 OA
ATOM     12  H   UNL     1     118.421 131.129 104.738  1.00  0.00     0.293 HD
ENDBRANCH   4  11
TORSDOF 3
ENDMDL
MODEL 2
REMARK VINA RESULT:    -3.469     12.764     13.882
REMARK INTER + INTRA:          -3.773
REMARK INTER:                  -3.773
REMARK INTRA:                   0.000
REMARK UNBOUND:                 0.000
REMARK SMILES Oc1cccc(O)c1O
REMARK SMILES IDX 4 1 5 2 6 3 8 4 2 5 3 6 7 7 1 9 9 11
REMARK H PARENT 7 8 1 10 9 12
REMARK Flexibility Score: inf
ROOT
ATOM      1  C   UNL     1     118.122 116.261 109.033  1.00  0.00     0.008 A 
ATOM      2  C   UNL     1     118.948 117.368 108.832  1.00  0.00     0.050 A 
ATOM      3  C   UNL     1     119.110 117.905 107.549  1.00  0.00     0.161 A 
ATOM      4  C   UNL     1     118.437 117.326 106.458  1.00  0.00     0.200 A 
ATOM      5  C   UNL     1     117.605 116.210 106.663  1.00  0.00     0.161 A 
ATOM      6  C   UNL     1     117.451 115.683 107.953  1.00  0.00     0.050 A 
ENDROOT
BRANCH   3   7
ATOM      7  O   UNL     1     119.942 119.011 107.380  1.00  0.00    -0.504 OA
ATOM      8  H   UNL     1     120.907 118.919 107.084  1.00  0.00     0.293 HD
ENDBRANCH   3   7
BRANCH   5   9
ATOM      9  O   UNL     1     116.933 115.631 105.587  1.00  0.00    -0.504 OA
ATOM     10  H   UNL     1     117.433 115.261 104.788  1.00  0.00     0.293 HD
ENDBRANCH   5   9
BRANCH   4  11
ATOM     11  O   UNL     1     118.602 117.866 105.182  1.00  0.00    -0.502 OA
ATOM     12  H   UNL     1     119.168 117.414 104.473  1.00  0.00     0.293 HD
ENDBRANCH   4  11
TORSDOF 3
ENDMDL
MODEL 3
REMARK VINA RESULT:    -3.468     12.667     13.747
REMARK INTER + INTRA:          -3.772
REMARK INTER:                  -3.772
REMARK INTRA:                   0.000
REMARK UNBOUND:                 0.000
REMARK SMILES Oc1cccc(O)c1O
REMARK SMILES IDX 4 1 5 2 6 3 8 4 2 5 3 6 7 7 1 9 9 11
REMARK H PARENT 7 8 1 10 9 12
REMARK Flexibility Score: inf
ROOT
ATOM      1  C   UNL     1     130.609 132.835 109.025  1.00  0.00     0.008 A 
ATOM      2  C   UNL     1     129.850 131.683 108.808  1.00  0.00     0.050 A 
ATOM      3  C   UNL     1     129.793 131.105 107.534  1.00  0.00     0.161 A 
ATOM      4  C   UNL     1     130.502 131.688 106.467  1.00  0.00     0.200 A 
ATOM      5  C   UNL     1     131.265 132.849 106.689  1.00  0.00     0.161 A 
ATOM      6  C   UNL     1     131.315 133.417 107.970  1.00  0.00     0.050 A 
ENDROOT
BRANCH   3   7
ATOM      7  O   UNL     1     129.026 129.955 107.348  1.00  0.00    -0.504 OA
ATOM      8  H   UNL     1     128.121 129.979 106.894  1.00  0.00     0.293 HD
ENDBRANCH   3   7
BRANCH   5   9
ATOM      9  O   UNL     1     131.971 133.433 105.638  1.00  0.00    -0.504 OA
ATOM     10  H   UNL     1     132.668 132.917 105.116  1.00  0.00     0.293 HD
ENDBRANCH   5   9
BRANCH   4  11
ATOM     11  O   UNL     1     130.440 131.108 105.200  1.00  0.00    -0.502 OA
ATOM     12  H   UNL     1     131.041 130.338 104.928  1.00  0.00     0.293 HD
ENDBRANCH   4  11
TORSDOF 3
ENDMDL
MODEL 4
REMARK VINA RESULT:    -3.468      0.028      2.808
REMARK INTER + INTRA:          -3.772
REMARK INTER:                  -3.772
REMARK INTRA:                   0.000
REMARK UNBOUND:                 0.000
REMARK SMILES Oc1cccc(O)c1O
REMARK SMILES IDX 4 1 5 2 6 3 8 4 2 5 3 6 7 7 1 9 9 11
REMARK H PARENT 7 8 1 10 9 12
REMARK Flexibility Score: inf
ROOT
ATOM      1  C   UNL     1     116.247 130.884 109.054  1.00  0.00     0.008 A 
ATOM      2  C   UNL     1     117.355 130.056 108.861  1.00  0.00     0.050 A 
ATOM      3  C   UNL     1     117.899 129.891 107.581  1.00  0.00     0.161 A 
ATOM      4  C   UNL     1     117.326 130.563 106.485  1.00  0.00     0.200 A 
ATOM      5  C   UNL     1     116.210 131.397 106.684  1.00  0.00     0.161 A 
ATOM      6  C   UNL     1     115.676 131.553 107.971  1.00  0.00     0.050 A 
ENDROOT
BRANCH   3   7
ATOM      7  O   UNL     1     119.004 129.058 107.420  1.00  0.00    -0.504 OA
ATOM      8  H   UNL     1     119.652 129.166 106.648  1.00  0.00     0.293 HD
ENDBRANCH   3   7
BRANCH   5   9
ATOM      9  O   UNL     1     115.637 132.067 105.603  1.00  0.00    -0.504 OA
ATOM     10  H   UNL     1     114.793 132.617 105.707  1.00  0.00     0.293 HD
ENDBRANCH   5   9
BRANCH   4  11
ATOM     11  O   UNL     1     117.872 130.395 105.213  1.00  0.00    -0.502 OA
ATOM     12  H   UNL     1     117.371 130.654 104.371  1.00  0.00     0.293 HD
ENDBRANCH   4  11
TORSDOF 3
ENDMDL
MODEL 5
REMARK VINA RESULT:    -3.466     12.772     13.852
REMARK INTER + INTRA:          -3.770
REMARK INTER:                  -3.770
REMARK INTRA:                   0.000
REMARK UNBOUND:                 0.000
REMARK SMILES Oc1cccc(O)c1O
REMARK SMILES IDX 4 1 5 2 6 3 8 4 2 5 3 6 7 7 1 9 9 11
REMARK H PARENT 7 8 1 10 9 12
REMARK Flexibility Score: inf
ROOT
ATOM      1  C   UNL     1     118.087 116.250 109.032  1.00  0.00     0.008 A 
ATOM      2  C   UNL     1     117.433 115.676 107.940  1.00  0.00     0.050 A 
ATOM      3  C   UNL     1     117.606 116.205 106.655  1.00  0.00     0.161 A 
ATOM      4  C   UNL     1     118.441 117.321 106.464  1.00  0.00     0.200 A 
ATOM      5  C   UNL     1     119.098 117.898 107.567  1.00  0.00     0.161 A 
ATOM      6  C   UNL     1     118.917 117.357 108.848  1.00  0.00     0.050 A 
ENDROOT
BRANCH   3   7
ATOM      7  O   UNL     1     116.940 115.610 105.585  1.00  0.00    -0.504 OA
ATOM      8  H   UNL     1     117.329 114.823 105.079  1.00  0.00     0.293 HD
ENDBRANCH   3   7
BRANCH   5   9
ATOM      9  O   UNL     1     119.929 119.004 107.386  1.00  0.00    -0.504 OA
ATOM     10  H   UNL     1     119.757 119.880 107.864  1.00  0.00     0.293 HD
ENDBRANCH   5   9
BRANCH   4  11
ATOM     11  O   UNL     1     118.609 117.844 105.182  1.00  0.00    -0.502 OA
ATOM     12  H   UNL     1     119.486 117.769 104.678  1.00  0.00     0.293 HD
ENDBRANCH   4  11
TORSDOF 3
ENDMDL
MODEL 6
REMARK VINA RESULT:    -3.459     17.880     19.432
REMARK INTER + INTRA:          -3.762
REMARK INTER:                  -3.762
REMARK INTRA:                   0.000
REMARK UNBOUND:                 0.000
REMARK SMILES Oc1cccc(O)c1O
REMARK SMILES IDX 4 1 5 2 6 3 8 4 2 5 3 6 7 7 1 9 9 11
REMARK H PARENT 7 8 1 10 9 12
REMARK Flexibility Score: inf
ROOT
ATOM      1  C   UNL     1     132.786 118.172 109.062  1.00  0.00     0.008 A 
ATOM      2  C   UNL     1     131.663 118.975 108.858  1.00  0.00     0.050 A 
ATOM      3  C   UNL     1     131.119 119.116 107.575  1.00  0.00     0.161 A 
ATOM      4  C   UNL     1     131.708 118.445 106.488  1.00  0.00     0.200 A 
ATOM      5  C   UNL     1     132.840 117.636 106.697  1.00  0.00     0.161 A 
ATOM      6  C   UNL     1     133.374 117.503 107.987  1.00  0.00     0.050 A 
ENDROOT
BRANCH   3   7
ATOM      7  O   UNL     1     129.997 119.925 107.403  1.00  0.00    -0.504 OA
ATOM      8  H   UNL     1     130.072 120.924 107.245  1.00  0.00     0.293 HD
ENDBRANCH   3   7
BRANCH   5   9
ATOM      9  O   UNL     1     133.429 116.967 105.624  1.00  0.00    -0.504 OA
ATOM     10  H   UNL     1     134.407 117.094 105.393  1.00  0.00     0.293 HD
ENDBRANCH   5   9
BRANCH   4  11
ATOM     11  O   UNL     1     131.162 118.589 105.212  1.00  0.00    -0.502 OA
ATOM     12  H   UNL     1     131.599 119.159 104.498  1.00  0.00     0.293 HD
ENDBRANCH   4  11
TORSDOF 3
ENDMDL
MODEL 7
REMARK VINA RESULT:    -3.458     17.867     19.566
REMARK INTER + INTRA:          -3.761
REMARK INTER:                  -3.761
REMARK INTRA:                   0.000
REMARK UNBOUND:                 0.000
REMARK SMILES Oc1cccc(O)c1O
REMARK SMILES IDX 4 1 5 2 6 3 8 4 2 5 3 6 7 7 1 9 9 11
REMARK H PARENT 7 8 1 10 9 12
REMARK Flexibility Score: inf
ROOT
ATOM      1  C   UNL     1     132.807 118.181 109.060  1.00  0.00     0.008 A 
ATOM      2  C   UNL     1     133.372 117.514 107.971  1.00  0.00     0.050 A 
ATOM      3  C   UNL     1     132.819 117.653 106.692  1.00  0.00     0.161 A 
ATOM      4  C   UNL     1     131.687 118.469 106.504  1.00  0.00     0.200 A 
ATOM      5  C   UNL     1     131.120 119.140 107.603  1.00  0.00     0.161 A 
ATOM      6  C   UNL     1     131.685 118.992 108.878  1.00  0.00     0.050 A 
ENDROOT
BRANCH   3   7
ATOM      7  O   UNL     1     133.405 116.974 105.625  1.00  0.00    -0.504 OA
ATOM      8  H   UNL     1     133.532 115.969 105.631  1.00  0.00     0.293 HD
ENDBRANCH   3   7
BRANCH   5   9
ATOM      9  O   UNL     1     129.999 119.950 107.425  1.00  0.00    -0.504 OA
ATOM     10  H   UNL     1     129.343 119.789 106.671  1.00  0.00     0.293 HD
ENDBRANCH   5   9
BRANCH   4  11
ATOM     11  O   UNL     1     131.140 118.603 105.228  1.00  0.00    -0.502 OA
ATOM     12  H   UNL     1     130.842 119.499 104.859  1.00  0.00     0.293 HD
ENDBRANCH   4  11
TORSDOF 3
ENDMDL
MODEL 8
REMARK VINA RESULT:    -3.444     12.653     13.693
REMARK INTER + INTRA:          -3.746
REMARK INTER:                  -3.746
REMARK INTRA:                   0.000
REMARK UNBOUND:                 0.000
REMARK SMILES Oc1cccc(O)c1O
REMARK SMILES IDX 4 1 5 2 6 3 8 4 2 5 3 6 7 7 1 9 9 11
REMARK H PARENT 7 8 1 10 9 12
REMARK Flexibility Score: inf
ROOT
ATOM      1  C   UNL     1     130.657 132.754 109.128  1.00  0.00     0.008 A 
ATOM      2  C   UNL     1     131.338 133.353 108.067  1.00  0.00     0.050 A 
ATOM      3  C   UNL     1     131.248 132.818 106.777  1.00  0.00     0.161 A 
ATOM      4  C   UNL     1     130.467 131.670 106.548  1.00  0.00     0.200 A 
ATOM      5  C   UNL     1     129.781 131.068 107.620  1.00  0.00     0.161 A 
ATOM      6  C   UNL     1     129.880 131.615 108.907  1.00  0.00     0.050 A 
ENDROOT
BRANCH   3   7
ATOM      7  O   UNL     1     131.940 133.439 105.738  1.00  0.00    -0.504 OA
ATOM      8  H   UNL     1     131.466 133.966 105.014  1.00  0.00     0.293 HD
ENDBRANCH   3   7
BRANCH   5   9
ATOM      9  O   UNL     1     129.005 129.930 107.401  1.00  0.00    -0.504 OA
ATOM     10  H   UNL     1     128.969 129.175 108.076  1.00  0.00     0.293 HD
ENDBRANCH   5   9
BRANCH   4  11
ATOM     11  O   UNL     1     130.381 131.141 105.260  1.00  0.00    -0.502 OA
ATOM     12  H   UNL     1     129.566 131.278 104.673  1.00  0.00     0.293 HD
ENDBRANCH   4  11
TORSDOF 3
ENDMDL
MODEL 9
REMARK VINA RESULT:    -3.041     18.178     19.191
REMARK INTER + INTRA:          -3.307
REMARK INTER:                  -3.307
REMARK INTRA:                   0.000
REMARK UNBOUND:                 0.000
REMARK SMILES Oc1cccc(O)c1O
REMARK SMILES IDX 4 1 5 2 6 3 8 4 2 5 3 6 7 7 1 9 9 11
REMARK H PARENT 7 8 1 10 9 12
REMARK Flexibility Score: inf
ROOT
ATOM      1  C   UNL     1     131.598 116.031 107.454  1.00  0.00     0.008 A 
ATOM      2  C   UNL     1     131.464 116.652 106.211  1.00  0.00     0.050 A 
ATOM      3  C   UNL     1     131.219 118.028 106.131  1.00  0.00     0.161 A 
ATOM      4  C   UNL     1     131.108 118.789 107.309  1.00  0.00     0.200 A 
ATOM      5  C   UNL     1     131.244 118.161 108.561  1.00  0.00     0.161 A 
ATOM      6  C   UNL     1     131.489 116.782 108.627  1.00  0.00     0.050 A 
ENDROOT
BRANCH   3   7
ATOM      7  O   UNL     1     131.089 118.619 104.875  1.00  0.00    -0.504 OA
ATOM      8  H   UNL     1     131.269 119.605 104.722  1.00  0.00     0.293 HD
ENDBRANCH   3   7
BRANCH   5   9
ATOM      9  O   UNL     1     131.135 118.908 109.734  1.00  0.00    -0.504 OA
ATOM     10  H   UNL     1     130.404 118.729 110.411  1.00  0.00     0.293 HD
ENDBRANCH   5   9
BRANCH   4  11
ATOM     11  O   UNL     1     130.864 120.160 107.223  1.00  0.00    -0.502 OA
ATOM     12  H   UNL     1     130.281 120.561 106.498  1.00  0.00     0.293 HD
ENDBRANCH   4  11
TORSDOF 3
ENDMDL
