MODEL 1
REMARK VINA RESULT:    -6.276      0.000      0.000
REMARK INTER + INTRA:         -10.859
REMARK INTER:                  -9.212
REMARK INTRA:                  -1.647
REMARK UNBOUND:                -1.647
REMARK SMILES Cc1cc2c(C(C)C)c(O)c(O)c(C=O)c2c(O)c1-c1c(C)cc2c(C(C)C)c(O)c(O)c(C=O)c2c1O
REMARK SMILES IDX 1 1 2 2 3 3 4 4 16 5 13 6 11 7 9 8 5 9 17 10 19 11 20 12
REMARK SMILES IDX 37 13 21 14 36 15 23 16 22 17 24 18 33 19 25 20 31 21 29 22
REMARK SMILES IDX 38 23 34 25 35 26 26 27 27 28 28 29 32 30 30 32 18 34 6 36
REMARK SMILES IDX 7 37 8 38 14 39 15 40 10 41 12 43
REMARK H PARENT 38 24 32 31 30 33 18 35 10 42 12 44
REMARK Flexibility Score: inf
ROOT
ATOM      1  C   UNL     1      33.968  -9.353 -22.348  1.00  0.00     0.045 C 
ATOM      2  C   UNL     1      33.965 -10.634 -21.549  1.00  0.00    -0.039 A 
ATOM      3  C   UNL     1      34.966 -10.853 -20.601  1.00  0.00     0.013 A 
ATOM      4  C   UNL     1      35.019 -12.030 -19.826  1.00  0.00    -0.006 A 
ATOM      5  C   UNL     1      33.954 -12.971 -19.952  1.00  0.00     0.039 A 
ATOM      6  C   UNL     1      33.875 -14.053 -19.032  1.00  0.00     0.072 A 
ATOM      7  C   UNL     1      34.891 -14.247 -18.081  1.00  0.00     0.169 A 
ATOM      8  C   UNL     1      36.022 -13.409 -18.065  1.00  0.00     0.162 A 
ATOM      9  C   UNL     1      36.106 -12.291 -18.930  1.00  0.00     0.008 A 
ATOM     10  C   UNL     1      33.010 -12.807 -21.009  1.00  0.00     0.132 A 
ATOM     11  C   UNL     1      33.004 -11.629 -21.783  1.00  0.00     0.031 A 
ENDROOT
BRANCH  11  12
ATOM     12  C   UNL     1      31.981 -11.432 -22.845  1.00  0.00     0.031 A 
ATOM     13  C   UNL     1      32.216 -11.905 -24.152  1.00  0.00     0.132 A 
ATOM     14  C   UNL     1      30.768 -10.796 -22.534  1.00  0.00    -0.039 A 
ATOM     15  C   UNL     1      31.272 -11.656 -25.193  1.00  0.00     0.039 A 
ATOM     16  C   UNL     1      29.799 -10.642 -23.526  1.00  0.00     0.013 A 
ATOM     17  C   UNL     1      30.462 -10.344 -21.128  1.00  0.00     0.045 C 
ATOM     18  C   UNL     1      30.037 -11.017 -24.867  1.00  0.00    -0.006 A 
ATOM     19  C   UNL     1      31.501 -12.065 -26.538  1.00  0.00     0.072 A 
ATOM     20  C   UNL     1      29.049 -10.808 -25.879  1.00  0.00     0.008 A 
ATOM     21  C   UNL     1      30.458 -12.001 -27.480  1.00  0.00     0.169 A 
ATOM     22  C   UNL     1      29.214 -11.451 -27.125  1.00  0.00     0.162 A 
BRANCH  13  23
ATOM     23  O   UNL     1      33.363 -12.666 -24.406  1.00  0.00    -0.507 OA
ATOM     24  H   UNL     1      33.349 -13.650 -24.644  1.00  0.00     0.293 HD
ENDBRANCH  13  23
BRANCH  19  25
ATOM     25  C   UNL     1      32.842 -12.485 -27.017  1.00  0.00     0.264 C 
ATOM     26  O   UNL     1      33.120 -13.702 -27.190  1.00  0.00    -0.298 OA
ENDBRANCH  19  25
BRANCH  20  27
ATOM     27  C   UNL     1      27.800  -9.944 -25.628  1.00  0.00     0.017 C 
ATOM     28  C   UNL     1      26.555 -10.818 -25.447  1.00  0.00     0.012 C 
ATOM     29  C   UNL     1      27.571  -8.859 -26.699  1.00  0.00     0.012 C 
ENDBRANCH  20  27
BRANCH  21  30
ATOM     30  O   UNL     1      30.700 -12.445 -28.785  1.00  0.00    -0.504 OA
ATOM     31  H   UNL     1      31.030 -13.371 -29.018  1.00  0.00     0.293 HD
ENDBRANCH  21  30
BRANCH  22  32
ATOM     32  O   UNL     1      28.123 -11.541 -27.993  1.00  0.00    -0.504 OA
ATOM     33  H   UNL     1      27.196 -11.827 -27.710  1.00  0.00     0.293 HD
ENDBRANCH  22  32
ENDBRANCH  11  12
BRANCH  10  34
ATOM     34  O   UNL     1      32.112 -13.836 -21.318  1.00  0.00    -0.507 OA
ATOM     35  H   UNL     1      32.216 -14.454 -22.113  1.00  0.00     0.293 HD
ENDBRANCH  10  34
BRANCH   9  36
ATOM     36  C   UNL     1      37.390 -11.435 -18.870  1.00  0.00     0.017 C 
ATOM     37  C   UNL     1      37.128 -10.032 -18.303  1.00  0.00     0.012 C 
ATOM     38  C   UNL     1      38.207 -11.420 -20.179  1.00  0.00     0.012 C 
ENDBRANCH   9  36
BRANCH   6  39
ATOM     39  C   UNL     1      32.671 -14.914 -18.935  1.00  0.00     0.264 C 
ATOM     40  O   UNL     1      32.687 -16.099 -19.363  1.00  0.00    -0.298 OA
ENDBRANCH   6  39
BRANCH   8  41
ATOM     41  O   UNL     1      37.081 -13.667 -17.185  1.00  0.00    -0.504 OA
ATOM     42  H   UNL     1      37.806 -14.352 -17.344  1.00  0.00     0.293 HD
ENDBRANCH   8  41
BRANCH   7  43
ATOM     43  O   UNL     1      34.730 -15.266 -17.133  1.00  0.00    -0.504 OA
ATOM     44  H   UNL     1      34.855 -16.251 -17.322  1.00  0.00     0.293 HD
ENDBRANCH   7  43
TORSDOF 11
ENDMDL
MODEL 2
REMARK VINA RESULT:    -6.219      2.217      9.098
REMARK INTER + INTRA:         -10.775
REMARK INTER:                 -10.081
REMARK INTRA:                  -0.694
REMARK UNBOUND:                -1.647
REMARK SMILES Cc1cc2c(C(C)C)c(O)c(O)c(C=O)c2c(O)c1-c1c(C)cc2c(C(C)C)c(O)c(O)c(C=O)c2c1O
REMARK SMILES IDX 1 1 2 2 3 3 4 4 16 5 13 6 11 7 9 8 5 9 17 10 19 11 20 12
REMARK SMILES IDX 37 13 21 14 36 15 23 16 22 17 24 18 33 19 25 20 31 21 29 22
REMARK SMILES IDX 38 23 34 25 35 26 26 27 27 28 28 29 32 30 30 32 18 34 6 36
REMARK SMILES IDX 7 37 8 38 14 39 15 40 10 41 12 43
REMARK H PARENT 38 24 32 31 30 33 18 35 10 42 12 44
REMARK Flexibility Score: inf
ROOT
ATOM      1  C   UNL     1      32.369 -13.890 -25.530  1.00  0.00     0.045 C 
ATOM      2  C   UNL     1      31.226 -12.921 -25.349  1.00  0.00    -0.039 A 
ATOM      3  C   UNL     1      30.444 -12.567 -26.450  1.00  0.00     0.013 A 
ATOM      4  C   UNL     1      29.365 -11.666 -26.345  1.00  0.00    -0.006 A 
ATOM      5  C   UNL     1      29.008 -11.188 -25.050  1.00  0.00     0.039 A 
ATOM      6  C   UNL     1      27.799 -10.454 -24.892  1.00  0.00     0.072 A 
ATOM      7  C   UNL     1      27.027 -10.118 -26.016  1.00  0.00     0.169 A 
ATOM      8  C   UNL     1      27.466 -10.453 -27.311  1.00  0.00     0.162 A 
ATOM      9  C   UNL     1      28.636 -11.230 -27.498  1.00  0.00     0.008 A 
ATOM     10  C   UNL     1      29.883 -11.445 -23.952  1.00  0.00     0.132 A 
ATOM     11  C   UNL     1      30.970 -12.330 -24.101  1.00  0.00     0.031 A 
ENDROOT
BRANCH  11  12
ATOM     12  C   UNL     1      31.847 -12.647 -22.942  1.00  0.00     0.031 A 
ATOM     13  C   UNL     1      33.101 -12.016 -22.808  1.00  0.00     0.132 A 
ATOM     14  C   UNL     1      31.410 -13.556 -21.965  1.00  0.00    -0.039 A 
ATOM     15  C   UNL     1      33.978 -12.368 -21.739  1.00  0.00     0.039 A 
ATOM     16  C   UNL     1      32.221 -13.826 -20.864  1.00  0.00     0.013 A 
ATOM     17  C   UNL     1      30.043 -14.191 -22.047  1.00  0.00     0.045 C 
ATOM     18  C   UNL     1      33.522 -13.287 -20.745  1.00  0.00    -0.006 A 
ATOM     19  C   UNL     1      35.276 -11.796 -21.604  1.00  0.00     0.072 A 
ATOM     20  C   UNL     1      34.358 -13.611 -19.631  1.00  0.00     0.008 A 
ATOM     21  C   UNL     1      36.014 -11.999 -20.424  1.00  0.00     0.169 A 
ATOM     22  C   UNL     1      35.517 -12.836 -19.410  1.00  0.00     0.162 A 
BRANCH  13  23
ATOM     23  O   UNL     1      33.454 -11.004 -23.708  1.00  0.00    -0.507 OA
ATOM     24  H   UNL     1      32.787 -10.405 -24.178  1.00  0.00     0.293 HD
ENDBRANCH  13  23
BRANCH  19  25
ATOM     25  C   UNL     1      35.929 -11.054 -22.711  1.00  0.00     0.264 C 
ATOM     26  O   UNL     1      36.083  -9.804 -22.655  1.00  0.00    -0.298 OA
ENDBRANCH  19  25
BRANCH  20  27
ATOM     27  C   UNL     1      34.003 -14.745 -18.653  1.00  0.00     0.017 C 
ATOM     28  C   UNL     1      34.443 -14.397 -17.227  1.00  0.00     0.012 C 
ATOM     29  C   UNL     1      34.536 -16.125 -19.083  1.00  0.00     0.012 C 
ENDBRANCH  20  27
BRANCH  21  30
ATOM     30  O   UNL     1      37.271 -11.395 -20.303  1.00  0.00    -0.504 OA
ATOM     31  H   UNL     1      37.966 -11.378 -21.037  1.00  0.00     0.293 HD
ENDBRANCH  21  30
BRANCH  22  32
ATOM     32  O   UNL     1      36.155 -12.905 -18.169  1.00  0.00    -0.504 OA
ATOM     33  H   UNL     1      35.831 -12.428 -17.339  1.00  0.00     0.293 HD
ENDBRANCH  22  32
ENDBRANCH  11  12
BRANCH  10  34
ATOM     34  O   UNL     1      29.699 -10.783 -22.733  1.00  0.00    -0.507 OA
ATOM     35  H   UNL     1      29.081  -9.992 -22.609  1.00  0.00     0.293 HD
ENDBRANCH  10  34
BRANCH   9  36
ATOM     36  C   UNL     1      29.066 -11.536 -28.950  1.00  0.00     0.017 C 
ATOM     37  C   UNL     1      29.487 -10.270 -29.710  1.00  0.00     0.012 C 
ATOM     38  C   UNL     1      28.072 -12.416 -29.736  1.00  0.00     0.012 C 
ENDBRANCH   9  36
BRANCH   6  39
ATOM     39  C   UNL     1      27.234 -10.150 -23.555  1.00  0.00     0.264 C 
ATOM     40  O   UNL     1      27.235  -8.973 -23.104  1.00  0.00    -0.298 OA
ENDBRANCH   6  39
BRANCH   8  41
ATOM     41  O   UNL     1      26.748 -10.028 -28.435  1.00  0.00    -0.504 OA
ATOM     42  H   UNL     1      25.870  -9.529 -28.401  1.00  0.00     0.293 HD
ENDBRANCH   8  41
BRANCH   7  43
ATOM     43  O   UNL     1      25.797  -9.477 -25.812  1.00  0.00    -0.504 OA
ATOM     44  H   UNL     1      25.228  -9.078 -26.545  1.00  0.00     0.293 HD
ENDBRANCH   7  43
TORSDOF 11
ENDMDL
MODEL 3
REMARK VINA RESULT:    -6.190     11.863     14.988
REMARK INTER + INTRA:         -10.731
REMARK INTER:                  -9.473
REMARK INTRA:                  -1.258
REMARK UNBOUND:                -1.647
REMARK SMILES Cc1cc2c(C(C)C)c(O)c(O)c(C=O)c2c(O)c1-c1c(C)cc2c(C(C)C)c(O)c(O)c(C=O)c2c1O
REMARK SMILES IDX 1 1 2 2 3 3 4 4 16 5 13 6 11 7 9 8 5 9 17 10 19 11 20 12
REMARK SMILES IDX 37 13 21 14 36 15 23 16 22 17 24 18 33 19 25 20 31 21 29 22
REMARK SMILES IDX 38 23 34 25 35 26 26 27 27 28 28 29 32 30 30 32 18 34 6 36
REMARK SMILES IDX 7 37 8 38 14 39 15 40 10 41 12 43
REMARK H PARENT 38 24 32 31 30 33 18 35 10 42 12 44
REMARK Flexibility Score: inf
ROOT
ATOM      1  C   UNL     1      30.245  -7.659 -32.030  1.00  0.00     0.045 C 
ATOM      2  C   UNL     1      30.584  -6.688 -33.135  1.00  0.00    -0.039 A 
ATOM      3  C   UNL     1      30.258  -5.339 -32.988  1.00  0.00     0.013 A 
ATOM      4  C   UNL     1      30.547  -4.385 -33.985  1.00  0.00    -0.006 A 
ATOM      5  C   UNL     1      31.287  -4.806 -35.130  1.00  0.00     0.039 A 
ATOM      6  C   UNL     1      31.774  -3.826 -36.038  1.00  0.00     0.072 A 
ATOM      7  C   UNL     1      31.437  -2.473 -35.863  1.00  0.00     0.169 A 
ATOM      8  C   UNL     1      30.574  -2.081 -34.823  1.00  0.00     0.162 A 
ATOM      9  C   UNL     1      30.116  -3.024 -33.869  1.00  0.00     0.008 A 
ATOM     10  C   UNL     1      31.502  -6.202 -35.338  1.00  0.00     0.132 A 
ATOM     11  C   UNL     1      31.174  -7.131 -34.329  1.00  0.00     0.031 A 
ENDROOT
BRANCH  11  12
ATOM     12  C   UNL     1      31.455  -8.579 -34.521  1.00  0.00     0.031 A 
ATOM     13  C   UNL     1      30.423  -9.455 -34.917  1.00  0.00     0.132 A 
ATOM     14  C   UNL     1      32.758  -9.068 -34.333  1.00  0.00    -0.039 A 
ATOM     15  C   UNL     1      30.667 -10.856 -35.032  1.00  0.00     0.039 A 
ATOM     16  C   UNL     1      33.023 -10.420 -34.545  1.00  0.00     0.013 A 
ATOM     17  C   UNL     1      33.895  -8.140 -33.979  1.00  0.00     0.045 C 
ATOM     18  C   UNL     1      31.997 -11.344 -34.848  1.00  0.00    -0.006 A 
ATOM     19  C   UNL     1      29.636 -11.780 -35.371  1.00  0.00     0.072 A 
ATOM     20  C   UNL     1      32.280 -12.735 -35.016  1.00  0.00     0.008 A 
ATOM     21  C   UNL     1      29.962 -13.110 -35.692  1.00  0.00     0.169 A 
ATOM     22  C   UNL     1      31.290 -13.559 -35.593  1.00  0.00     0.162 A 
BRANCH  13  23
ATOM     23  O   UNL     1      29.169  -8.927 -35.244  1.00  0.00    -0.507 OA
ATOM     24  H   UNL     1      28.715  -9.058 -36.139  1.00  0.00     0.293 HD
ENDBRANCH  13  23
BRANCH  19  25
ATOM     25  C   UNL     1      28.199 -11.412 -35.316  1.00  0.00     0.264 C 
ATOM     26  O   UNL     1      27.468 -11.488 -36.340  1.00  0.00    -0.298 OA
ENDBRANCH  19  25
BRANCH  20  27
ATOM     27  C   UNL     1      33.641 -13.339 -34.627  1.00  0.00     0.017 C 
ATOM     28  C   UNL     1      33.882 -13.226 -33.119  1.00  0.00     0.012 C 
ATOM     29  C   UNL     1      34.826 -12.763 -35.428  1.00  0.00     0.012 C 
ENDBRANCH  20  27
BRANCH  21  30
ATOM     30  O   UNL     1      28.934 -13.986 -36.057  1.00  0.00    -0.504 OA
ATOM     31  H   UNL     1      28.321 -13.844 -36.848  1.00  0.00     0.293 HD
ENDBRANCH  21  30
BRANCH  22  32
ATOM     32  O   UNL     1      31.651 -14.820 -36.074  1.00  0.00    -0.504 OA
ATOM     33  H   UNL     1      31.234 -15.258 -36.884  1.00  0.00     0.293 HD
ENDBRANCH  22  32
ENDBRANCH  11  12
BRANCH  10  34
ATOM     34  O   UNL     1      31.995  -6.664 -36.564  1.00  0.00    -0.507 OA
ATOM     35  H   UNL     1      31.881  -7.614 -36.894  1.00  0.00     0.293 HD
ENDBRANCH  10  34
BRANCH   9  36
ATOM     36  C   UNL     1      29.152  -2.521 -32.773  1.00  0.00     0.017 C 
ATOM     37  C   UNL     1      29.849  -2.356 -31.416  1.00  0.00     0.012 C 
ATOM     38  C   UNL     1      27.825  -3.304 -32.686  1.00  0.00     0.012 C 
ENDBRANCH   9  36
BRANCH   6  39
ATOM     39  C   UNL     1      32.758  -4.158 -37.098  1.00  0.00     0.264 C 
ATOM     40  O   UNL     1      33.996  -4.122 -36.864  1.00  0.00    -0.298 OA
ENDBRANCH   6  39
BRANCH   8  41
ATOM     41  O   UNL     1      30.158  -0.749 -34.712  1.00  0.00    -0.504 OA
ATOM     42  H   UNL     1      30.779   0.048 -34.705  1.00  0.00     0.293 HD
ENDBRANCH   8  41
BRANCH   7  43
ATOM     43  O   UNL     1      32.012  -1.528 -36.723  1.00  0.00    -0.504 OA
ATOM     44  H   UNL     1      32.029  -1.603 -37.731  1.00  0.00     0.293 HD
ENDBRANCH   7  43
TORSDOF 11
ENDMDL
MODEL 4
REMARK VINA RESULT:    -6.109     11.994     14.280
REMARK INTER + INTRA:         -10.613
REMARK INTER:                  -9.284
REMARK INTRA:                  -1.329
REMARK UNBOUND:                -1.647
REMARK SMILES Cc1cc2c(C(C)C)c(O)c(O)c(C=O)c2c(O)c1-c1c(C)cc2c(C(C)C)c(O)c(O)c(C=O)c2c1O
REMARK SMILES IDX 1 1 2 2 3 3 4 4 16 5 13 6 11 7 9 8 5 9 17 10 19 11 20 12
REMARK SMILES IDX 37 13 21 14 36 15 23 16 22 17 24 18 33 19 25 20 31 21 29 22
REMARK SMILES IDX 38 23 34 25 35 26 26 27 27 28 28 29 32 30 30 32 18 34 6 36
REMARK SMILES IDX 7 37 8 38 14 39 15 40 10 41 12 43
REMARK H PARENT 38 24 32 31 30 33 18 35 10 42 12 44
REMARK Flexibility Score: inf
ROOT
ATOM      1  C   UNL     1      33.753  -8.273 -33.395  1.00  0.00     0.045 C 
ATOM      2  C   UNL     1      32.686  -9.150 -34.003  1.00  0.00    -0.039 A 
ATOM      3  C   UNL     1      32.950 -10.504 -34.218  1.00  0.00     0.013 A 
ATOM      4  C   UNL     1      31.995 -11.373 -34.784  1.00  0.00    -0.006 A 
ATOM      5  C   UNL     1      30.688 -10.864 -35.046  1.00  0.00     0.039 A 
ATOM      6  C   UNL     1      29.653 -11.769 -35.412  1.00  0.00     0.072 A 
ATOM      7  C   UNL     1      29.944 -13.128 -35.614  1.00  0.00     0.169 A 
ATOM      8  C   UNL     1      31.266 -13.599 -35.511  1.00  0.00     0.162 A 
ATOM      9  C   UNL     1      32.311 -12.735 -35.095  1.00  0.00     0.008 A 
ATOM     10  C   UNL     1      30.463  -9.458 -34.949  1.00  0.00     0.132 A 
ATOM     11  C   UNL     1      31.452  -8.614 -34.404  1.00  0.00     0.031 A 
ENDROOT
BRANCH  11  12
ATOM     12  C   UNL     1      31.194  -7.158 -34.246  1.00  0.00     0.031 A 
ATOM     13  C   UNL     1      31.594  -6.254 -35.251  1.00  0.00     0.132 A 
ATOM     14  C   UNL     1      30.526  -6.688 -33.103  1.00  0.00    -0.039 A 
ATOM     15  C   UNL     1      31.416  -4.849 -35.075  1.00  0.00     0.039 A 
ATOM     16  C   UNL     1      30.258  -5.325 -32.975  1.00  0.00     0.013 A 
ATOM     17  C   UNL     1      30.024  -7.641 -32.047  1.00  0.00     0.045 C 
ATOM     18  C   UNL     1      30.728  -4.380 -33.914  1.00  0.00    -0.006 A 
ATOM     19  C   UNL     1      31.862  -3.901 -36.041  1.00  0.00     0.072 A 
ATOM     20  C   UNL     1      30.484  -2.982 -33.742  1.00  0.00     0.008 A 
ATOM     21  C   UNL     1      31.471  -2.554 -35.936  1.00  0.00     0.169 A 
ATOM     22  C   UNL     1      30.716  -2.118 -34.833  1.00  0.00     0.162 A 
BRANCH  13  23
ATOM     23  O   UNL     1      32.123  -6.754 -36.447  1.00  0.00    -0.507 OA
ATOM     24  H   UNL     1      33.109  -6.931 -36.600  1.00  0.00     0.293 HD
ENDBRANCH  13  23
BRANCH  19  25
ATOM     25  C   UNL     1      32.808  -4.266 -37.125  1.00  0.00     0.264 C 
ATOM     26  O   UNL     1      34.039  -4.408 -36.895  1.00  0.00    -0.298 OA
ENDBRANCH  19  25
BRANCH  20  27
ATOM     27  C   UNL     1      29.937  -2.410 -32.422  1.00  0.00     0.017 C 
ATOM     28  C   UNL     1      28.465  -2.013 -32.563  1.00  0.00     0.012 C 
ATOM     29  C   UNL     1      30.778  -1.251 -31.853  1.00  0.00     0.012 C 
ENDBRANCH  20  27
BRANCH  21  30
ATOM     30  O   UNL     1      31.892  -1.652 -36.919  1.00  0.00    -0.504 OA
ATOM     31  H   UNL     1      32.592  -1.859 -37.618  1.00  0.00     0.293 HD
ENDBRANCH  21  30
BRANCH  22  32
ATOM     32  O   UNL     1      30.176  -0.829 -34.807  1.00  0.00    -0.504 OA
ATOM     33  H   UNL     1      30.602  -0.028 -35.253  1.00  0.00     0.293 HD
ENDBRANCH  22  32
ENDBRANCH  11  12
BRANCH  10  34
ATOM     34  O   UNL     1      29.277  -8.899 -35.439  1.00  0.00    -0.507 OA
ATOM     35  H   UNL     1      28.899  -9.094 -36.357  1.00  0.00     0.293 HD
ENDBRANCH  10  34
BRANCH   9  36
ATOM     36  C   UNL     1      33.739 -13.320 -35.032  1.00  0.00     0.017 C 
ATOM     37  C   UNL     1      34.120 -13.770 -33.614  1.00  0.00     0.012 C 
ATOM     38  C   UNL     1      34.816 -12.441 -35.702  1.00  0.00     0.012 C 
ENDBRANCH   9  36
BRANCH   6  39
ATOM     39  C   UNL     1      28.228 -11.358 -35.447  1.00  0.00     0.264 C 
ATOM     40  O   UNL     1      27.542 -11.493 -36.495  1.00  0.00    -0.298 OA
ENDBRANCH   6  39
BRANCH   8  41
ATOM     41  O   UNL     1      31.570 -14.932 -35.814  1.00  0.00    -0.504 OA
ATOM     42  H   UNL     1      30.883 -15.656 -35.969  1.00  0.00     0.293 HD
ENDBRANCH   8  41
BRANCH   7  43
ATOM     43  O   UNL     1      28.883 -14.003 -35.882  1.00  0.00    -0.504 OA
ATOM     44  H   UNL     1      28.984 -14.922 -36.291  1.00  0.00     0.293 HD
ENDBRANCH   7  43
TORSDOF 11
ENDMDL
MODEL 5
REMARK VINA RESULT:    -6.074      1.131      9.025
REMARK INTER + INTRA:         -10.561
REMARK INTER:                  -8.970
REMARK INTRA:                  -1.592
REMARK UNBOUND:                -1.647
REMARK SMILES Cc1cc2c(C(C)C)c(O)c(O)c(C=O)c2c(O)c1-c1c(C)cc2c(C(C)C)c(O)c(O)c(C=O)c2c1O
REMARK SMILES IDX 1 1 2 2 3 3 4 4 16 5 13 6 11 7 9 8 5 9 17 10 19 11 20 12
REMARK SMILES IDX 37 13 21 14 36 15 23 16 22 17 24 18 33 19 25 20 31 21 29 22
REMARK SMILES IDX 38 23 34 25 35 26 26 27 27 28 28 29 32 30 30 32 18 34 6 36
REMARK SMILES IDX 7 37 8 38 14 39 15 40 10 41 12 43
REMARK H PARENT 38 24 32 31 30 33 18 35 10 42 12 44
REMARK Flexibility Score: inf
ROOT
ATOM      1  C   UNL     1      31.291  -9.858 -21.071  1.00  0.00     0.045 C 
ATOM      2  C   UNL     1      31.579 -10.434 -22.436  1.00  0.00    -0.039 A 
ATOM      3  C   UNL     1      30.558 -10.492 -23.387  1.00  0.00     0.013 A 
ATOM      4  C   UNL     1      30.765 -11.021 -24.678  1.00  0.00    -0.006 A 
ATOM      5  C   UNL     1      32.087 -11.411 -25.044  1.00  0.00     0.039 A 
ATOM      6  C   UNL     1      32.359 -11.743 -26.401  1.00  0.00     0.072 A 
ATOM      7  C   UNL     1      31.315 -11.785 -27.340  1.00  0.00     0.169 A 
ATOM      8  C   UNL     1      29.985 -11.556 -26.940  1.00  0.00     0.162 A 
ATOM      9  C   UNL     1      29.687 -11.170 -25.609  1.00  0.00     0.008 A 
ATOM     10  C   UNL     1      33.094 -11.474 -24.035  1.00  0.00     0.132 A 
ATOM     11  C   UNL     1      32.843 -10.961 -22.746  1.00  0.00     0.031 A 
ENDROOT
BRANCH  11  12
ATOM     12  C   UNL     1      33.912 -10.971 -21.712  1.00  0.00     0.031 A 
ATOM     13  C   UNL     1      34.071 -12.088 -20.866  1.00  0.00     0.132 A 
ATOM     14  C   UNL     1      34.781  -9.873 -21.597  1.00  0.00    -0.039 A 
ATOM     15  C   UNL     1      35.046 -12.075 -19.825  1.00  0.00     0.039 A 
ATOM     16  C   UNL     1      35.801  -9.900 -20.647  1.00  0.00     0.013 A 
ATOM     17  C   UNL     1      34.678  -8.696 -22.535  1.00  0.00     0.045 C 
ATOM     18  C   UNL     1      35.931 -10.959 -19.720  1.00  0.00    -0.006 A 
ATOM     19  C   UNL     1      35.195 -13.160 -18.913  1.00  0.00     0.072 A 
ATOM     20  C   UNL     1      36.955 -10.947 -18.723  1.00  0.00     0.008 A 
ATOM     21  C   UNL     1      36.306 -13.205 -18.051  1.00  0.00     0.169 A 
ATOM     22  C   UNL     1      37.224 -12.141 -18.018  1.00  0.00     0.162 A 
BRANCH  13  23
ATOM     23  O   UNL     1      33.294 -13.230 -21.093  1.00  0.00    -0.507 OA
ATOM     24  H   UNL     1      32.408 -13.225 -21.584  1.00  0.00     0.293 HD
ENDBRANCH  13  23
BRANCH  19  25
ATOM     25  C   UNL     1      34.166 -14.220 -18.774  1.00  0.00     0.264 C 
ATOM     26  O   UNL     1      34.364 -15.383 -19.220  1.00  0.00    -0.298 OA
ENDBRANCH  19  25
BRANCH  20  27
ATOM     27  C   UNL     1      37.794  -9.689 -18.435  1.00  0.00     0.017 C 
ATOM     28  C   UNL     1      36.895  -8.471 -18.205  1.00  0.00     0.012 C 
ATOM     29  C   UNL     1      38.865  -9.401 -19.504  1.00  0.00     0.012 C 
ENDBRANCH  20  27
BRANCH  21  30
ATOM     30  O   UNL     1      36.448 -14.301 -17.192  1.00  0.00    -0.504 OA
ATOM     31  H   UNL     1      37.337 -14.698 -16.920  1.00  0.00     0.293 HD
ENDBRANCH  21  30
BRANCH  22  32
ATOM     32  O   UNL     1      38.416 -12.253 -17.299  1.00  0.00    -0.504 OA
ATOM     33  H   UNL     1      38.576 -11.823 -16.398  1.00  0.00     0.293 HD
ENDBRANCH  22  32
ENDBRANCH  11  12
BRANCH  10  34
ATOM     34  O   UNL     1      34.323 -12.089 -24.302  1.00  0.00    -0.507 OA
ATOM     35  H   UNL     1      34.751 -12.118 -25.218  1.00  0.00     0.293 HD
ENDBRANCH  10  34
BRANCH   9  36
ATOM     36  C   UNL     1      28.202 -10.961 -25.241  1.00  0.00     0.017 C 
ATOM     37  C   UNL     1      27.841  -9.476 -25.101  1.00  0.00     0.012 C 
ATOM     38  C   UNL     1      27.713 -11.821 -24.057  1.00  0.00     0.012 C 
ENDBRANCH   9  36
BRANCH   6  39
ATOM     39  C   UNL     1      33.744 -11.905 -26.906  1.00  0.00     0.264 C 
ATOM     40  O   UNL     1      34.182 -13.038 -27.241  1.00  0.00    -0.298 OA
ENDBRANCH   6  39
BRANCH   8  41
ATOM     41  O   UNL     1      28.935 -11.700 -27.854  1.00  0.00    -0.504 OA
ATOM     42  H   UNL     1      28.695 -12.562 -28.322  1.00  0.00     0.293 HD
ENDBRANCH   8  41
BRANCH   7  43
ATOM     43  O   UNL     1      31.637 -12.024 -28.682  1.00  0.00    -0.504 OA
ATOM     44  H   UNL     1      32.558 -11.909 -29.082  1.00  0.00     0.293 HD
ENDBRANCH   7  43
TORSDOF 11
ENDMDL
MODEL 6
REMARK VINA RESULT:    -6.050      7.670     12.738
REMARK INTER + INTRA:         -10.526
REMARK INTER:                  -9.104
REMARK INTRA:                  -1.422
REMARK UNBOUND:                -1.647
REMARK SMILES Cc1cc2c(C(C)C)c(O)c(O)c(C=O)c2c(O)c1-c1c(C)cc2c(C(C)C)c(O)c(O)c(C=O)c2c1O
REMARK SMILES IDX 1 1 2 2 3 3 4 4 16 5 13 6 11 7 9 8 5 9 17 10 19 11 20 12
REMARK SMILES IDX 37 13 21 14 36 15 23 16 22 17 24 18 33 19 25 20 31 21 29 22
REMARK SMILES IDX 38 23 34 25 35 26 26 27 27 28 28 29 32 30 30 32 18 34 6 36
REMARK SMILES IDX 7 37 8 38 14 39 15 40 10 41 12 43
REMARK H PARENT 38 24 32 31 30 33 18 35 10 42 12 44
REMARK Flexibility Score: inf
ROOT
ATOM      1  C   UNL     1      33.278 -10.264 -29.845  1.00  0.00     0.045 C 
ATOM      2  C   UNL     1      34.172 -10.371 -31.056  1.00  0.00    -0.039 A 
ATOM      3  C   UNL     1      33.772 -11.157 -32.138  1.00  0.00     0.013 A 
ATOM      4  C   UNL     1      34.565 -11.299 -33.296  1.00  0.00    -0.006 A 
ATOM      5  C   UNL     1      35.761 -10.528 -33.394  1.00  0.00     0.039 A 
ATOM      6  C   UNL     1      36.460 -10.490 -34.633  1.00  0.00     0.072 A 
ATOM      7  C   UNL     1      36.032 -11.286 -35.709  1.00  0.00     0.169 A 
ATOM      8  C   UNL     1      34.945 -12.167 -35.557  1.00  0.00     0.162 A 
ATOM      9  C   UNL     1      34.194 -12.189 -34.355  1.00  0.00     0.008 A 
ATOM     10  C   UNL     1      36.231  -9.832 -32.240  1.00  0.00     0.132 A 
ATOM     11  C   UNL     1      35.423  -9.735 -31.089  1.00  0.00     0.031 A 
ENDROOT
BRANCH  11  12
ATOM     12  C   UNL     1      35.886  -8.957 -29.909  1.00  0.00     0.031 A 
ATOM     13  C   UNL     1      35.614  -7.577 -29.817  1.00  0.00     0.132 A 
ATOM     14  C   UNL     1      36.574  -9.608 -28.871  1.00  0.00    -0.039 A 
ATOM     15  C   UNL     1      36.117  -6.810 -28.725  1.00  0.00     0.039 A 
ATOM     16  C   UNL     1      36.978  -8.881 -27.752  1.00  0.00     0.013 A 
ATOM     17  C   UNL     1      36.816 -11.097 -28.910  1.00  0.00     0.045 C 
ATOM     18  C   UNL     1      36.807  -7.481 -27.669  1.00  0.00    -0.006 A 
ATOM     19  C   UNL     1      35.914  -5.403 -28.628  1.00  0.00     0.072 A 
ATOM     20  C   UNL     1      37.270  -6.746 -26.534  1.00  0.00     0.008 A 
ATOM     21  C   UNL     1      36.228  -4.727 -27.436  1.00  0.00     0.169 A 
ATOM     22  C   UNL     1      36.827  -5.416 -26.366  1.00  0.00     0.162 A 
BRANCH  13  23
ATOM     23  O   UNL     1      34.801  -6.977 -30.786  1.00  0.00    -0.507 OA
ATOM     24  H   UNL     1      34.949  -6.044 -31.151  1.00  0.00     0.293 HD
ENDBRANCH  13  23
BRANCH  19  25
ATOM     25  C   UNL     1      35.455  -4.592 -29.784  1.00  0.00     0.264 C 
ATOM     26  O   UNL     1      34.290  -4.111 -29.820  1.00  0.00    -0.298 OA
ENDBRANCH  19  25
BRANCH  20  27
ATOM     27  C   UNL     1      38.194  -7.378 -25.478  1.00  0.00     0.017 C 
ATOM     28  C   UNL     1      37.417  -7.721 -24.203  1.00  0.00     0.012 C 
ATOM     29  C   UNL     1      39.444  -6.534 -25.163  1.00  0.00     0.012 C 
ENDBRANCH  20  27
BRANCH  21  30
ATOM     30  O   UNL     1      35.983  -3.352 -27.355  1.00  0.00    -0.504 OA
ATOM     31  H   UNL     1      36.424  -2.661 -27.947  1.00  0.00     0.293 HD
ENDBRANCH  21  30
BRANCH  22  32
ATOM     32  O   UNL     1      36.982  -4.799 -25.122  1.00  0.00    -0.504 OA
ATOM     33  H   UNL     1      36.768  -5.243 -24.239  1.00  0.00     0.293 HD
ENDBRANCH  22  32
ENDBRANCH  11  12
BRANCH  10  34
ATOM     34  O   UNL     1      37.518  -9.281 -32.225  1.00  0.00    -0.507 OA
ATOM     35  H   UNL     1      38.325  -9.723 -32.645  1.00  0.00     0.293 HD
ENDBRANCH  10  34
BRANCH   9  36
ATOM     36  C   UNL     1      33.032 -13.201 -34.257  1.00  0.00     0.017 C 
ATOM     37  C   UNL     1      33.531 -14.647 -34.123  1.00  0.00     0.012 C 
ATOM     38  C   UNL     1      31.945 -13.028 -35.339  1.00  0.00     0.012 C 
ENDBRANCH   9  36
BRANCH   6  39
ATOM     39  C   UNL     1      37.553  -9.520 -34.888  1.00  0.00     0.264 C 
ATOM     40  O   UNL     1      38.759  -9.885 -34.870  1.00  0.00    -0.298 OA
ENDBRANCH   6  39
BRANCH   8  41
ATOM     41  O   UNL     1      34.584 -13.032 -36.597  1.00  0.00    -0.504 OA
ATOM     42  H   UNL     1      33.819 -12.874 -37.236  1.00  0.00     0.293 HD
ENDBRANCH   8  41
BRANCH   7  43
ATOM     43  O   UNL     1      36.689 -11.150 -36.939  1.00  0.00    -0.504 OA
ATOM     44  H   UNL     1      36.315 -10.658 -37.739  1.00  0.00     0.293 HD
ENDBRANCH   7  43
TORSDOF 11
ENDMDL
MODEL 7
REMARK VINA RESULT:    -6.047      3.306      5.278
REMARK INTER + INTRA:         -10.521
REMARK INTER:                  -9.291
REMARK INTRA:                  -1.230
REMARK UNBOUND:                -1.647
REMARK SMILES Cc1cc2c(C(C)C)c(O)c(O)c(C=O)c2c(O)c1-c1c(C)cc2c(C(C)C)c(O)c(O)c(C=O)c2c1O
REMARK SMILES IDX 1 1 2 2 3 3 4 4 16 5 13 6 11 7 9 8 5 9 17 10 19 11 20 12
REMARK SMILES IDX 37 13 21 14 36 15 23 16 22 17 24 18 33 19 25 20 31 21 29 22
REMARK SMILES IDX 38 23 34 25 35 26 26 27 27 28 28 29 32 30 30 32 18 34 6 36
REMARK SMILES IDX 7 37 8 38 14 39 15 40 10 41 12 43
REMARK H PARENT 38 24 32 31 30 33 18 35 10 42 12 44
REMARK Flexibility Score: inf
ROOT
ATOM      1  C   UNL     1      33.845  -7.748 -21.992  1.00  0.00     0.045 C 
ATOM      2  C   UNL     1      34.539  -8.907 -21.319  1.00  0.00    -0.039 A 
ATOM      3  C   UNL     1      35.930  -8.900 -21.200  1.00  0.00     0.013 A 
ATOM      4  C   UNL     1      36.635  -9.954 -20.584  1.00  0.00    -0.006 A 
ATOM      5  C   UNL     1      35.885 -11.005 -19.977  1.00  0.00     0.039 A 
ATOM      6  C   UNL     1      36.561 -11.961 -19.169  1.00  0.00     0.072 A 
ATOM      7  C   UNL     1      37.962 -11.926 -19.060  1.00  0.00     0.169 A 
ATOM      8  C   UNL     1      38.712 -10.985 -19.789  1.00  0.00     0.162 A 
ATOM      9  C   UNL     1      38.067  -9.986 -20.559  1.00  0.00     0.008 A 
ATOM     10  C   UNL     1      34.479 -11.076 -20.214  1.00  0.00     0.132 A 
ATOM     11  C   UNL     1      33.811 -10.016 -20.859  1.00  0.00     0.031 A 
ENDROOT
BRANCH  11  12
ATOM     12  C   UNL     1      32.337 -10.062 -21.051  1.00  0.00     0.031 A 
ATOM     13  C   UNL     1      31.480  -9.439 -20.119  1.00  0.00     0.132 A 
ATOM     14  C   UNL     1      31.800 -10.704 -22.179  1.00  0.00    -0.039 A 
ATOM     15  C   UNL     1      30.064  -9.541 -20.257  1.00  0.00     0.039 A 
ATOM     16  C   UNL     1      30.419 -10.717 -22.371  1.00  0.00     0.013 A 
ATOM     17  C   UNL     1      32.696 -11.316 -23.227  1.00  0.00     0.045 C 
ATOM     18  C   UNL     1      29.526 -10.189 -21.412  1.00  0.00    -0.006 A 
ATOM     19  C   UNL     1      29.167  -8.978 -19.304  1.00  0.00     0.072 A 
ATOM     20  C   UNL     1      28.112 -10.253 -21.604  1.00  0.00     0.008 A 
ATOM     21  C   UNL     1      27.792  -8.905 -19.590  1.00  0.00     0.169 A 
ATOM     22  C   UNL     1      27.282  -9.468 -20.774  1.00  0.00     0.162 A 
BRANCH  13  23
ATOM     23  O   UNL     1      32.037  -8.678 -19.085  1.00  0.00    -0.507 OA
ATOM     24  H   UNL     1      31.547  -8.439 -18.231  1.00  0.00     0.293 HD
ENDBRANCH  13  23
BRANCH  19  25
ATOM     25  C   UNL     1      29.620  -8.532 -17.963  1.00  0.00     0.264 C 
ATOM     26  O   UNL     1      29.138  -9.035 -16.912  1.00  0.00    -0.298 OA
ENDBRANCH  19  25
BRANCH  20  27
ATOM     27  C   UNL     1      27.481 -11.113 -22.713  1.00  0.00     0.017 C 
ATOM     28  C   UNL     1      26.928 -10.237 -23.841  1.00  0.00     0.012 C 
ATOM     29  C   UNL     1      26.417 -12.103 -22.200  1.00  0.00     0.012 C 
ENDBRANCH  20  27
BRANCH  21  30
ATOM     30  O   UNL     1      26.939  -8.313 -18.653  1.00  0.00    -0.504 OA
ATOM     31  H   UNL     1      26.062  -8.714 -18.349  1.00  0.00     0.293 HD
ENDBRANCH  21  30
BRANCH  22  32
ATOM     32  O   UNL     1      25.954  -9.250 -21.149  1.00  0.00    -0.504 OA
ATOM     33  H   UNL     1      25.208  -9.046 -20.499  1.00  0.00     0.293 HD
ENDBRANCH  22  32
ENDBRANCH  11  12
BRANCH  10  34
ATOM     34  O   UNL     1      33.760 -12.221 -19.851  1.00  0.00    -0.507 OA
ATOM     35  H   UNL     1      33.620 -12.519 -18.894  1.00  0.00     0.293 HD
ENDBRANCH  10  34
BRANCH   9  36
ATOM     36  C   UNL     1      38.959  -9.006 -21.351  1.00  0.00     0.017 C 
ATOM     37  C   UNL     1      38.986  -7.606 -20.721  1.00  0.00     0.012 C 
ATOM     38  C   UNL     1      38.689  -8.986 -22.870  1.00  0.00     0.012 C 
ENDBRANCH   9  36
BRANCH   6  39
ATOM     39  C   UNL     1      35.828 -12.918 -18.305  1.00  0.00     0.264 C 
ATOM     40  O   UNL     1      36.079 -13.000 -17.072  1.00  0.00    -0.298 OA
ENDBRANCH   6  39
BRANCH   8  41
ATOM     41  O   UNL     1      40.111 -11.019 -19.759  1.00  0.00    -0.504 OA
ATOM     42  H   UNL     1      40.661 -11.410 -19.008  1.00  0.00     0.293 HD
ENDBRANCH   8  41
BRANCH   7  43
ATOM     43  O   UNL     1      38.583 -12.824 -18.181  1.00  0.00    -0.504 OA
ATOM     44  H   UNL     1      38.275 -13.773 -18.017  1.00  0.00     0.293 HD
ENDBRANCH   7  43
TORSDOF 11
ENDMDL
MODEL 8
REMARK VINA RESULT:    -6.006      1.863      8.829
REMARK INTER + INTRA:         -10.462
REMARK INTER:                  -9.258
REMARK INTRA:                  -1.204
REMARK UNBOUND:                -1.647
REMARK SMILES Cc1cc2c(C(C)C)c(O)c(O)c(C=O)c2c(O)c1-c1c(C)cc2c(C(C)C)c(O)c(O)c(C=O)c2c1O
REMARK SMILES IDX 1 1 2 2 3 3 4 4 16 5 13 6 11 7 9 8 5 9 17 10 19 11 20 12
REMARK SMILES IDX 37 13 21 14 36 15 23 16 22 17 24 18 33 19 25 20 31 21 29 22
REMARK SMILES IDX 38 23 34 25 35 26 26 27 27 28 28 29 32 30 30 32 18 34 6 36
REMARK SMILES IDX 7 37 8 38 14 39 15 40 10 41 12 43
REMARK H PARENT 38 24 32 31 30 33 18 35 10 42 12 44
REMARK Flexibility Score: inf
ROOT
ATOM      1  C   UNL     1      33.918 -12.134 -24.414  1.00  0.00     0.045 C 
ATOM      2  C   UNL     1      32.545 -11.746 -23.924  1.00  0.00    -0.039 A 
ATOM      3  C   UNL     1      31.476 -11.721 -24.822  1.00  0.00     0.013 A 
ATOM      4  C   UNL     1      30.171 -11.364 -24.425  1.00  0.00    -0.006 A 
ATOM      5  C   UNL     1      29.928 -11.123 -23.040  1.00  0.00     0.039 A 
ATOM      6  C   UNL     1      28.587 -10.975 -22.589  1.00  0.00     0.072 A 
ATOM      7  C   UNL     1      27.529 -10.961 -23.513  1.00  0.00     0.169 A 
ATOM      8  C   UNL     1      27.787 -11.038 -24.894  1.00  0.00     0.162 A 
ATOM      9  C   UNL     1      29.105 -11.241 -25.374  1.00  0.00     0.008 A 
ATOM     10  C   UNL     1      31.040 -11.021 -22.151  1.00  0.00     0.132 A 
ATOM     11  C   UNL     1      32.336 -11.359 -22.591  1.00  0.00     0.031 A 
ENDROOT
BRANCH  11  12
ATOM     12  C   UNL     1      33.486 -11.312 -21.648  1.00  0.00     0.031 A 
ATOM     13  C   UNL     1      33.727 -12.388 -20.770  1.00  0.00     0.132 A 
ATOM     14  C   UNL     1      34.348 -10.203 -21.654  1.00  0.00    -0.039 A 
ATOM     15  C   UNL     1      34.783 -12.319 -19.813  1.00  0.00     0.039 A 
ATOM     16  C   UNL     1      35.442 -10.178 -20.790  1.00  0.00     0.013 A 
ATOM     17  C   UNL     1      34.154  -9.070 -22.632  1.00  0.00     0.045 C 
ATOM     18  C   UNL     1      35.661 -11.192 -19.831  1.00  0.00    -0.006 A 
ATOM     19  C   UNL     1      35.020 -13.361 -18.869  1.00  0.00     0.072 A 
ATOM     20  C   UNL     1      36.762 -11.126 -18.923  1.00  0.00     0.008 A 
ATOM     21  C   UNL     1      36.198 -13.357 -18.100  1.00  0.00     0.169 A 
ATOM     22  C   UNL     1      37.102 -12.284 -18.190  1.00  0.00     0.162 A 
BRANCH  13  23
ATOM     23  O   UNL     1      32.949 -13.546 -20.881  1.00  0.00    -0.507 OA
ATOM     24  H   UNL     1      33.314 -14.486 -20.780  1.00  0.00     0.293 HD
ENDBRANCH  13  23
BRANCH  19  25
ATOM     25  C   UNL     1      34.019 -14.423 -18.599  1.00  0.00     0.264 C 
ATOM     26  O   UNL     1      34.208 -15.608 -18.984  1.00  0.00    -0.298 OA
ENDBRANCH  19  25
BRANCH  20  27
ATOM     27  C   UNL     1      37.606  -9.849 -18.761  1.00  0.00     0.017 C 
ATOM     28  C   UNL     1      36.728  -8.658 -18.364  1.00  0.00     0.012 C 
ATOM     29  C   UNL     1      38.474  -9.520 -19.991  1.00  0.00     0.012 C 
ENDBRANCH  20  27
BRANCH  21  30
ATOM     30  O   UNL     1      36.423 -14.411 -17.208  1.00  0.00    -0.504 OA
ATOM     31  H   UNL     1      37.157 -15.098 -17.314  1.00  0.00     0.293 HD
ENDBRANCH  21  30
BRANCH  22  32
ATOM     32  O   UNL     1      38.350 -12.353 -17.566  1.00  0.00    -0.504 OA
ATOM     33  H   UNL     1      38.480 -12.441 -16.568  1.00  0.00     0.293 HD
ENDBRANCH  22  32
ENDBRANCH  11  12
BRANCH  10  34
ATOM     34  O   UNL     1      30.860 -10.539 -20.849  1.00  0.00    -0.507 OA
ATOM     35  H   UNL     1      30.693  -9.566 -20.627  1.00  0.00     0.293 HD
ENDBRANCH  10  34
BRANCH   9  36
ATOM     36  C   UNL     1      29.310 -11.289 -26.904  1.00  0.00     0.017 C 
ATOM     37  C   UNL     1      30.259 -12.418 -27.328  1.00  0.00     0.012 C 
ATOM     38  C   UNL     1      29.659  -9.928 -27.541  1.00  0.00     0.012 C 
ENDBRANCH   9  36
BRANCH   6  39
ATOM     39  C   UNL     1      28.240 -10.981 -21.147  1.00  0.00     0.264 C 
ATOM     40  O   UNL     1      27.835  -9.933 -20.574  1.00  0.00    -0.298 OA
ENDBRANCH   6  39
BRANCH   8  41
ATOM     41  O   UNL     1      26.741 -10.920 -25.818  1.00  0.00    -0.504 OA
ATOM     42  H   UNL     1      26.146 -11.681 -26.112  1.00  0.00     0.293 HD
ENDBRANCH   8  41
BRANCH   7  43
ATOM     43  O   UNL     1      26.218 -10.907 -23.023  1.00  0.00    -0.504 OA
ATOM     44  H   UNL     1      25.393 -10.800 -23.597  1.00  0.00     0.293 HD
ENDBRANCH   7  43
TORSDOF 11
ENDMDL
MODEL 9
REMARK VINA RESULT:    -5.918      2.105      3.804
REMARK INTER + INTRA:         -10.332
REMARK INTER:                  -8.710
REMARK INTRA:                  -1.622
REMARK UNBOUND:                -1.647
REMARK SMILES Cc1cc2c(C(C)C)c(O)c(O)c(C=O)c2c(O)c1-c1c(C)cc2c(C(C)C)c(O)c(O)c(C=O)c2c1O
REMARK SMILES IDX 1 1 2 2 3 3 4 4 16 5 13 6 11 7 9 8 5 9 17 10 19 11 20 12
REMARK SMILES IDX 37 13 21 14 36 15 23 16 22 17 24 18 33 19 25 20 31 21 29 22
REMARK SMILES IDX 38 23 34 25 35 26 26 27 27 28 28 29 32 30 30 32 18 34 6 36
REMARK SMILES IDX 7 37 8 38 14 39 15 40 10 41 12 43
REMARK H PARENT 38 24 32 31 30 33 18 35 10 42 12 44
REMARK Flexibility Score: inf
ROOT
ATOM      1  C   UNL     1      33.596 -10.147 -25.128  1.00  0.00     0.045 C 
ATOM      2  C   UNL     1      33.277 -11.202 -24.098  1.00  0.00    -0.039 A 
ATOM      3  C   UNL     1      34.145 -11.397 -23.022  1.00  0.00     0.013 A 
ATOM      4  C   UNL     1      33.903 -12.368 -22.029  1.00  0.00    -0.006 A 
ATOM      5  C   UNL     1      32.677 -13.097 -22.082  1.00  0.00     0.039 A 
ATOM      6  C   UNL     1      32.315 -13.921 -20.980  1.00  0.00     0.072 A 
ATOM      7  C   UNL     1      33.204 -14.095 -19.907  1.00  0.00     0.169 A 
ATOM      8  C   UNL     1      34.480 -13.502 -19.933  1.00  0.00     0.162 A 
ATOM      9  C   UNL     1      34.851 -12.631 -20.989  1.00  0.00     0.008 A 
ATOM     10  C   UNL     1      31.859 -12.989 -23.246  1.00  0.00     0.132 A 
ATOM     11  C   UNL     1      32.148 -12.025 -24.233  1.00  0.00     0.031 A 
ENDROOT
BRANCH  11  12
ATOM     12  C   UNL     1      31.260 -11.871 -25.416  1.00  0.00     0.031 A 
ATOM     13  C   UNL     1      30.147 -11.008 -25.360  1.00  0.00     0.132 A 
ATOM     14  C   UNL     1      31.550 -12.568 -26.601  1.00  0.00    -0.039 A 
ATOM     15  C   UNL     1      29.250 -10.910 -26.466  1.00  0.00     0.039 A 
ATOM     16  C   UNL     1      30.733 -12.396 -27.718  1.00  0.00     0.013 A 
ATOM     17  C   UNL     1      32.775 -13.443 -26.711  1.00  0.00     0.045 C 
ATOM     18  C   UNL     1      29.557 -11.615 -27.669  1.00  0.00    -0.006 A 
ATOM     19  C   UNL     1      28.082 -10.095 -26.424  1.00  0.00     0.072 A 
ATOM     20  C   UNL     1      28.706 -11.488 -28.811  1.00  0.00     0.008 A 
ATOM     21  C   UNL     1      27.351  -9.853 -27.602  1.00  0.00     0.169 A 
ATOM     22  C   UNL     1      27.715 -10.483 -28.805  1.00  0.00     0.162 A 
BRANCH  13  23
ATOM     23  O   UNL     1      29.960 -10.210 -24.226  1.00  0.00    -0.507 OA
ATOM     24  H   UNL     1      29.979 -10.562 -23.276  1.00  0.00     0.293 HD
ENDBRANCH  13  23
BRANCH  19  25
ATOM     25  C   UNL     1      27.546  -9.550 -25.152  1.00  0.00     0.264 C 
ATOM     26  O   UNL     1      27.631  -8.322 -24.882  1.00  0.00    -0.298 OA
ENDBRANCH  19  25
BRANCH  20  27
ATOM     27  C   UNL     1      28.875 -12.382 -30.053  1.00  0.00     0.017 C 
ATOM     28  C   UNL     1      29.515 -11.604 -31.207  1.00  0.00     0.012 C 
ATOM     29  C   UNL     1      27.573 -13.075 -30.499  1.00  0.00     0.012 C 
ENDBRANCH  20  27
BRANCH  21  30
ATOM     30  O   UNL     1      26.230  -9.018 -27.540  1.00  0.00    -0.504 OA
ATOM     31  H   UNL     1      25.817  -8.685 -26.680  1.00  0.00     0.293 HD
ENDBRANCH  21  30
BRANCH  22  32
ATOM     32  O   UNL     1      27.109 -10.117 -30.009  1.00  0.00    -0.504 OA
ATOM     33  H   UNL     1      26.492 -10.718 -30.539  1.00  0.00     0.293 HD
ENDBRANCH  22  32
ENDBRANCH  11  12
BRANCH  10  34
ATOM     34  O   UNL     1      30.791 -13.873 -23.441  1.00  0.00    -0.507 OA
ATOM     35  H   UNL     1      30.369 -14.057 -24.342  1.00  0.00     0.293 HD
ENDBRANCH  10  34
BRANCH   9  36
ATOM     36  C   UNL     1      36.277 -12.040 -20.960  1.00  0.00     0.017 C 
ATOM     37  C   UNL     1      36.274 -10.526 -20.708  1.00  0.00     0.012 C 
ATOM     38  C   UNL     1      37.163 -12.457 -22.153  1.00  0.00     0.012 C 
ENDBRANCH   9  36
BRANCH   6  39
ATOM     39  C   UNL     1      30.955 -14.499 -20.846  1.00  0.00     0.264 C 
ATOM     40  O   UNL     1      30.723 -15.692 -21.181  1.00  0.00    -0.298 OA
ENDBRANCH   6  39
BRANCH   8  41
ATOM     41  O   UNL     1      35.403 -13.759 -18.912  1.00  0.00    -0.504 OA
ATOM     42  H   UNL     1      35.474 -14.632 -18.410  1.00  0.00     0.293 HD
ENDBRANCH   8  41
BRANCH   7  43
ATOM     43  O   UNL     1      32.774 -14.838 -18.799  1.00  0.00    -0.504 OA
ATOM     44  H   UNL     1      32.663 -14.466 -17.866  1.00  0.00     0.293 HD
ENDBRANCH   7  43
TORSDOF 11
ENDMDL
