MODEL 1
REMARK VINA RESULT:    -4.131      0.000      0.000
REMARK INTER + INTRA:          -5.033
REMARK INTER:                  -4.855
REMARK INTRA:                  -0.178
REMARK UNBOUND:                -0.178
REMARK SMILES O=C([O-])CCC(=O)[O-]
REMARK SMILES IDX 4 1 2 2 1 3 3 4 5 5 6 6 7 7 8 8
REMARK H PARENT
REMARK Flexibility Score: inf
ROOT
ATOM      1  C   UNL     1     -23.257  36.241   7.369  1.00  0.00     0.059 C 
ENDROOT
BRANCH   1   2
ATOM      2  C   UNL     1     -21.875  35.831   7.772  1.00  0.00     0.042 C 
ATOM      3  O   UNL     1     -21.017  35.548   6.895  1.00  0.00    -0.550 OA
ATOM      4  O   UNL     1     -21.520  35.811   9.116  1.00  0.00    -0.550 OA
ENDBRANCH   1   2
BRANCH   1   5
ATOM      5  C   UNL     1     -23.547  37.670   7.832  1.00  0.00     0.059 C 
BRANCH   5   6
ATOM      6  C   UNL     1     -22.749  38.651   7.034  1.00  0.00     0.042 C 
ATOM      7  O   UNL     1     -22.073  39.541   7.615  1.00  0.00    -0.550 OA
ATOM      8  O   UNL     1     -22.711  38.553   5.648  1.00  0.00    -0.550 OA
ENDBRANCH   5   6
ENDBRANCH   1   5
TORSDOF 3
ENDMDL
MODEL 2
REMARK VINA RESULT:    -4.127      0.050      3.548
REMARK INTER + INTRA:          -5.029
REMARK INTER:                  -4.856
REMARK INTRA:                  -0.172
REMARK UNBOUND:                -0.178
REMARK SMILES O=C([O-])CCC(=O)[O-]
REMARK SMILES IDX 4 1 2 2 1 3 3 4 5 5 6 6 7 7 8 8
REMARK H PARENT
REMARK Flexibility Score: inf
ROOT
ATOM      1  C   UNL     1     -23.542  37.707   7.849  1.00  0.00     0.059 C 
ENDROOT
BRANCH   1   2
ATOM      2  C   UNL     1     -22.757  38.679   7.025  1.00  0.00     0.042 C 
ATOM      3  O   UNL     1     -22.113  39.607   7.582  1.00  0.00    -0.550 OA
ATOM      4  O   UNL     1     -22.695  38.529   5.645  1.00  0.00    -0.550 OA
ENDBRANCH   1   2
BRANCH   1   5
ATOM      5  C   UNL     1     -23.261  36.274   7.397  1.00  0.00     0.059 C 
BRANCH   5   6
ATOM      6  C   UNL     1     -21.886  35.855   7.812  1.00  0.00     0.042 C 
ATOM      7  O   UNL     1     -21.018  35.577   6.942  1.00  0.00    -0.550 OA
ATOM      8  O   UNL     1     -21.547  35.818   9.159  1.00  0.00    -0.550 OA
ENDBRANCH   5   6
ENDBRANCH   1   5
TORSDOF 3
ENDMDL
MODEL 3
REMARK VINA RESULT:    -4.087      0.126      3.415
REMARK INTER + INTRA:          -4.981
REMARK INTER:                  -4.823
REMARK INTRA:                  -0.158
REMARK UNBOUND:                -0.178
REMARK SMILES O=C([O-])CCC(=O)[O-]
REMARK SMILES IDX 4 1 2 2 1 3 3 4 5 5 6 6 7 7 8 8
REMARK H PARENT
REMARK Flexibility Score: inf
ROOT
ATOM      1  C   UNL     1     -23.517  37.709   7.749  1.00  0.00     0.059 C 
ENDROOT
BRANCH   1   2
ATOM      2  C   UNL     1     -22.728  38.619   6.860  1.00  0.00     0.042 C 
ATOM      3  O   UNL     1     -22.743  38.456   5.612  1.00  0.00    -0.550 OA
ATOM      4  O   UNL     1     -22.015  39.679   7.408  1.00  0.00    -0.550 OA
ENDBRANCH   1   2
BRANCH   1   5
ATOM      5  C   UNL     1     -23.281  36.249   7.363  1.00  0.00     0.059 C 
BRANCH   5   6
ATOM      6  C   UNL     1     -21.910  35.815   7.772  1.00  0.00     0.042 C 
ATOM      7  O   UNL     1     -21.062  35.487   6.901  1.00  0.00    -0.550 OA
ATOM      8  O   UNL     1     -21.551  35.819   9.114  1.00  0.00    -0.550 OA
ENDBRANCH   5   6
ENDBRANCH   1   5
TORSDOF 3
ENDMDL
MODEL 4
REMARK VINA RESULT:    -4.076      1.488      2.139
REMARK INTER + INTRA:          -4.968
REMARK INTER:                  -4.832
REMARK INTRA:                  -0.136
REMARK UNBOUND:                -0.178
REMARK SMILES O=C([O-])CCC(=O)[O-]
REMARK SMILES IDX 4 1 2 2 1 3 3 4 5 5 6 6 7 7 8 8
REMARK H PARENT
REMARK Flexibility Score: inf
ROOT
ATOM      1  C   UNL     1     -21.952  35.585   8.093  1.00  0.00     0.059 C 
ENDROOT
BRANCH   1   2
ATOM      2  C   UNL     1     -20.539  36.078   8.070  1.00  0.00     0.042 C 
ATOM      3  O   UNL     1     -19.892  36.198   9.143  1.00  0.00    -0.550 OA
ATOM      4  O   UNL     1     -19.920  36.357   6.857  1.00  0.00    -0.550 OA
ENDBRANCH   1   2
BRANCH   1   5
ATOM      5  C   UNL     1     -22.801  36.349   7.076  1.00  0.00     0.059 C 
BRANCH   5   6
ATOM      6  C   UNL     1     -23.331  37.610   7.681  1.00  0.00     0.042 C 
ATOM      7  O   UNL     1     -24.277  37.567   8.510  1.00  0.00    -0.550 OA
ATOM      8  O   UNL     1     -22.748  38.831   7.365  1.00  0.00    -0.550 OA
ENDBRANCH   5   6
ENDBRANCH   1   5
TORSDOF 3
ENDMDL
MODEL 5
REMARK VINA RESULT:    -4.071      1.273      1.850
REMARK INTER + INTRA:          -4.963
REMARK INTER:                  -4.822
REMARK INTRA:                  -0.141
REMARK UNBOUND:                -0.178
REMARK SMILES O=C([O-])CCC(=O)[O-]
REMARK SMILES IDX 4 1 2 2 1 3 3 4 5 5 6 6 7 7 8 8
REMARK H PARENT
REMARK Flexibility Score: inf
ROOT
ATOM      1  C   UNL     1     -21.796  35.632   7.726  1.00  0.00     0.059 C 
ENDROOT
BRANCH   1   2
ATOM      2  C   UNL     1     -21.169  36.152   8.982  1.00  0.00     0.042 C 
ATOM      3  O   UNL     1     -19.916  36.170   9.105  1.00  0.00    -0.550 OA
ATOM      4  O   UNL     1     -21.968  36.663   9.998  1.00  0.00    -0.550 OA
ENDBRANCH   1   2
BRANCH   1   5
ATOM      5  C   UNL     1     -23.079  36.401   7.411  1.00  0.00     0.059 C 
BRANCH   5   6
ATOM      6  C   UNL     1     -22.761  37.685   6.712  1.00  0.00     0.042 C 
ATOM      7  O   UNL     1     -22.527  37.692   5.475  1.00  0.00    -0.550 OA
ATOM      8  O   UNL     1     -22.772  38.882   7.417  1.00  0.00    -0.550 OA
ENDBRANCH   5   6
ENDBRANCH   1   5
TORSDOF 3
ENDMDL
MODEL 6
REMARK VINA RESULT:    -4.057      1.664      2.053
REMARK INTER + INTRA:          -4.946
REMARK INTER:                  -4.759
REMARK INTRA:                  -0.187
REMARK UNBOUND:                -0.178
REMARK SMILES O=C([O-])CCC(=O)[O-]
REMARK SMILES IDX 4 1 2 2 1 3 3 4 5 5 6 6 7 7 8 8
REMARK H PARENT
REMARK Flexibility Score: inf
ROOT
ATOM      1  C   UNL     1     -21.439  35.851   8.712  1.00  0.00     0.059 C 
ENDROOT
BRANCH   1   2
ATOM      2  C   UNL     1     -20.590  35.889   7.480  1.00  0.00     0.042 C 
ATOM      3  O   UNL     1     -19.391  36.269   7.548  1.00  0.00    -0.550 OA
ATOM      4  O   UNL     1     -21.109  35.458   6.265  1.00  0.00    -0.550 OA
ENDBRANCH   1   2
BRANCH   1   5
ATOM      5  C   UNL     1     -21.685  37.267   9.236  1.00  0.00     0.059 C 
BRANCH   5   6
ATOM      6  C   UNL     1     -22.525  38.043   8.271  1.00  0.00     0.042 C 
ATOM      7  O   UNL     1     -22.105  39.133   7.799  1.00  0.00    -0.550 OA
ATOM      8  O   UNL     1     -23.750  37.538   7.853  1.00  0.00    -0.550 OA
ENDBRANCH   5   6
ENDBRANCH   1   5
TORSDOF 3
ENDMDL
MODEL 7
REMARK VINA RESULT:    -4.047      1.684      3.318
REMARK INTER + INTRA:          -4.935
REMARK INTER:                  -4.747
REMARK INTRA:                  -0.188
REMARK UNBOUND:                -0.178
REMARK SMILES O=C([O-])CCC(=O)[O-]
REMARK SMILES IDX 4 1 2 2 1 3 3 4 5 5 6 6 7 7 8 8
REMARK H PARENT
REMARK Flexibility Score: inf
ROOT
ATOM      1  C   UNL     1     -21.652  37.281   9.254  1.00  0.00     0.059 C 
ENDROOT
BRANCH   1   2
ATOM      2  C   UNL     1     -22.516  38.062   8.313  1.00  0.00     0.042 C 
ATOM      3  O   UNL     1     -22.099  39.142   7.819  1.00  0.00    -0.550 OA
ATOM      4  O   UNL     1     -23.761  37.570   7.942  1.00  0.00    -0.550 OA
ENDBRANCH   1   2
BRANCH   1   5
ATOM      5  C   UNL     1     -21.427  35.865   8.723  1.00  0.00     0.059 C 
BRANCH   5   6
ATOM      6  C   UNL     1     -20.619  35.901   7.464  1.00  0.00     0.042 C 
ATOM      7  O   UNL     1     -19.418  36.281   7.493  1.00  0.00    -0.550 OA
ATOM      8  O   UNL     1     -21.176  35.469   6.267  1.00  0.00    -0.550 OA
ENDBRANCH   5   6
ENDBRANCH   1   5
TORSDOF 3
ENDMDL
MODEL 8
REMARK VINA RESULT:    -4.029      2.142      3.459
REMARK INTER + INTRA:          -4.913
REMARK INTER:                  -4.735
REMARK INTRA:                  -0.178
REMARK UNBOUND:                -0.178
REMARK SMILES O=C([O-])CCC(=O)[O-]
REMARK SMILES IDX 4 1 2 2 1 3 3 4 5 5 6 6 7 7 8 8
REMARK H PARENT
REMARK Flexibility Score: inf
ROOT
ATOM      1  C   UNL     1     -20.964  35.739   6.377  1.00  0.00     0.059 C 
ENDROOT
BRANCH   1   2
ATOM      2  C   UNL     1     -21.247  37.128   5.897  1.00  0.00     0.042 C 
ATOM      3  O   UNL     1     -22.425  37.476   5.621  1.00  0.00    -0.550 OA
ATOM      4  O   UNL     1     -20.215  38.054   5.802  1.00  0.00    -0.550 OA
ENDBRANCH   1   2
BRANCH   1   5
ATOM      5  C   UNL     1     -21.594  35.510   7.752  1.00  0.00     0.059 C 
BRANCH   5   6
ATOM      6  C   UNL     1     -20.859  36.286   8.799  1.00  0.00     0.042 C 
ATOM      7  O   UNL     1     -19.647  36.040   9.038  1.00  0.00    -0.550 OA
ATOM      8  O   UNL     1     -21.498  37.316   9.478  1.00  0.00    -0.550 OA
ENDBRANCH   5   6
ENDBRANCH   1   5
TORSDOF 3
ENDMDL
MODEL 9
REMARK VINA RESULT:    -4.028      1.640      3.501
REMARK INTER + INTRA:          -4.912
REMARK INTER:                  -4.739
REMARK INTRA:                  -0.174
REMARK UNBOUND:                -0.178
REMARK SMILES O=C([O-])CCC(=O)[O-]
REMARK SMILES IDX 4 1 2 2 1 3 3 4 5 5 6 6 7 7 8 8
REMARK H PARENT
REMARK Flexibility Score: inf
ROOT
ATOM      1  C   UNL     1     -21.713  37.305   9.100  1.00  0.00     0.059 C 
ENDROOT
BRANCH   1   2
ATOM      2  C   UNL     1     -22.562  38.089   8.149  1.00  0.00     0.042 C 
ATOM      3  O   UNL     1     -23.714  37.681   7.843  1.00  0.00    -0.550 OA
ATOM      4  O   UNL     1     -22.101  39.297   7.640  1.00  0.00    -0.550 OA
ENDBRANCH   1   2
BRANCH   1   5
ATOM      5  C   UNL     1     -21.486  35.888   8.571  1.00  0.00     0.059 C 
BRANCH   5   6
ATOM      6  C   UNL     1     -20.610  35.917   7.359  1.00  0.00     0.042 C 
ATOM      7  O   UNL     1     -21.054  35.533   6.245  1.00  0.00    -0.550 OA
ATOM      8  O   UNL     1     -19.316  36.415   7.448  1.00  0.00    -0.550 OA
ENDBRANCH   5   6
ENDBRANCH   1   5
TORSDOF 3
ENDMDL
