MODEL 1
REMARK VINA RESULT:    -4.191      0.000      0.000
REMARK INTER + INTRA:          -5.946
REMARK INTER:                  -5.661
REMARK INTRA:                  -0.285
REMARK UNBOUND:                -0.285
REMARK SMILES CCCCCCCC(=O)[O-]
REMARK SMILES IDX 5 1 6 2 7 3 8 4 9 5 10 6 4 7 3 8 2 9 1 10
REMARK H PARENT
REMARK Flexibility Score: inf
ROOT
ATOM      1  C   UNL     1      13.102 -29.685  23.514  1.00  0.00     0.000 C 
ENDROOT
BRANCH   1   2
ATOM      2  C   UNL     1      13.974 -29.885  22.265  1.00  0.00     0.006 C 
BRANCH   2   3
ATOM      3  C   UNL     1      14.473 -31.330  22.130  1.00  0.00     0.053 C 
BRANCH   3   4
ATOM      4  C   UNL     1      13.819 -32.038  20.982  1.00  0.00     0.041 C 
ATOM      5  O   UNL     1      14.232 -33.170  20.617  1.00  0.00    -0.550 OA
ATOM      6  O   UNL     1      12.732 -31.462  20.339  1.00  0.00    -0.550 OA
ENDBRANCH   3   4
ENDBRANCH   2   3
ENDBRANCH   1   2
BRANCH   1   7
ATOM      7  C   UNL     1      11.921 -28.754  23.215  1.00  0.00     0.000 C 
BRANCH   7   8
ATOM      8  C   UNL     1      11.868 -27.593  24.216  1.00  0.00    -0.000 C 
BRANCH   8   9
ATOM      9  C   UNL     1      12.816 -26.464  23.798  1.00  0.00    -0.003 C 
ATOM     10  C   UNL     1      13.695 -26.021  24.964  1.00  0.00     0.004 C 
ENDBRANCH   8   9
ENDBRANCH   7   8
ENDBRANCH   1   7
TORSDOF 6
ENDMDL
MODEL 2
REMARK VINA RESULT:    -4.135      1.118      1.547
REMARK INTER + INTRA:          -5.870
REMARK INTER:                  -5.538
REMARK INTRA:                  -0.332
REMARK UNBOUND:                -0.285
REMARK SMILES CCCCCCCC(=O)[O-]
REMARK SMILES IDX 5 1 6 2 7 3 8 4 9 5 10 6 4 7 3 8 2 9 1 10
REMARK H PARENT
REMARK Flexibility Score: inf
ROOT
ATOM      1  C   UNL     1      14.412 -29.798  22.661  1.00  0.00     0.000 C 
ENDROOT
BRANCH   1   2
ATOM      2  C   UNL     1      14.252 -30.207  21.189  1.00  0.00     0.006 C 
BRANCH   2   3
ATOM      3  C   UNL     1      13.350 -31.437  21.022  1.00  0.00     0.053 C 
BRANCH   3   4
ATOM      4  C   UNL     1      14.145 -32.706  20.966  1.00  0.00     0.041 C 
ATOM      5  O   UNL     1      14.556 -33.244  22.027  1.00  0.00    -0.550 OA
ATOM      6  O   UNL     1      14.401 -33.312  19.743  1.00  0.00    -0.550 OA
ENDBRANCH   3   4
ENDBRANCH   2   3
ENDBRANCH   1   2
BRANCH   1   7
ATOM      7  C   UNL     1      13.079 -29.915  23.410  1.00  0.00     0.000 C 
BRANCH   7   8
ATOM      8  C   UNL     1      12.223 -28.658  23.211  1.00  0.00    -0.000 C 
BRANCH   8   9
ATOM      9  C   UNL     1      12.377 -27.695  24.392  1.00  0.00    -0.003 C 
ATOM     10  C   UNL     1      13.212 -26.477  24.007  1.00  0.00     0.004 C 
ENDBRANCH   8   9
ENDBRANCH   7   8
ENDBRANCH   1   7
TORSDOF 6
ENDMDL
MODEL 3
REMARK VINA RESULT:    -4.097      1.048      1.213
REMARK INTER + INTRA:          -5.820
REMARK INTER:                  -5.588
REMARK INTRA:                  -0.232
REMARK UNBOUND:                -0.285
REMARK SMILES CCCCCCCC(=O)[O-]
REMARK SMILES IDX 5 1 6 2 7 3 8 4 9 5 10 6 4 7 3 8 2 9 1 10
REMARK H PARENT
REMARK Flexibility Score: inf
ROOT
ATOM      1  C   UNL     1      13.348 -29.553  22.753  1.00  0.00     0.000 C 
ENDROOT
BRANCH   1   2
ATOM      2  C   UNL     1      13.565 -30.862  23.526  1.00  0.00     0.006 C 
BRANCH   2   3
ATOM      3  C   UNL     1      14.846 -31.586  23.093  1.00  0.00     0.053 C 
BRANCH   3   4
ATOM      4  C   UNL     1      14.552 -32.732  22.172  1.00  0.00     0.041 C 
ATOM      5  O   UNL     1      14.874 -33.905  22.496  1.00  0.00    -0.550 OA
ATOM      6  O   UNL     1      13.893 -32.507  20.971  1.00  0.00    -0.550 OA
ENDBRANCH   3   4
ENDBRANCH   2   3
ENDBRANCH   1   2
BRANCH   1   7
ATOM      7  C   UNL     1      12.019 -28.896  23.147  1.00  0.00     0.000 C 
BRANCH   7   8
ATOM      8  C   UNL     1      12.223 -27.872  24.271  1.00  0.00    -0.000 C 
BRANCH   8   9
ATOM      9  C   UNL     1      13.158 -26.743  23.823  1.00  0.00    -0.003 C 
ATOM     10  C   UNL     1      13.767 -26.023  25.022  1.00  0.00     0.004 C 
ENDBRANCH   8   9
ENDBRANCH   7   8
ENDBRANCH   1   7
TORSDOF 6
ENDMDL
MODEL 4
REMARK VINA RESULT:    -3.950      1.350      2.275
REMARK INTER + INTRA:          -5.621
REMARK INTER:                  -5.381
REMARK INTRA:                  -0.240
REMARK UNBOUND:                -0.285
REMARK SMILES CCCCCCCC(=O)[O-]
REMARK SMILES IDX 5 1 6 2 7 3 8 4 9 5 10 6 4 7 3 8 2 9 1 10
REMARK H PARENT
REMARK Flexibility Score: inf
ROOT
ATOM      1  C   UNL     1      14.196 -30.194  21.309  1.00  0.00     0.000 C 
ENDROOT
BRANCH   1   2
ATOM      2  C   UNL     1      13.500 -31.561  21.225  1.00  0.00     0.006 C 
BRANCH   2   3
ATOM      3  C   UNL     1      14.372 -32.692  21.788  1.00  0.00     0.053 C 
BRANCH   3   4
ATOM      4  C   UNL     1      14.769 -33.669  20.724  1.00  0.00     0.041 C 
ATOM      5  O   UNL     1      15.579 -34.598  20.986  1.00  0.00    -0.550 OA
ATOM      6  O   UNL     1      14.218 -33.575  19.453  1.00  0.00    -0.550 OA
ENDBRANCH   3   4
ENDBRANCH   2   3
ENDBRANCH   1   2
BRANCH   1   7
ATOM      7  C   UNL     1      14.407 -29.774  22.768  1.00  0.00     0.000 C 
BRANCH   7   8
ATOM      8  C   UNL     1      13.100 -29.872  23.564  1.00  0.00    -0.000 C 
BRANCH   8   9
ATOM      9  C   UNL     1      12.212 -28.648  23.317  1.00  0.00    -0.003 C 
ATOM     10  C   UNL     1      12.432 -27.581  24.385  1.00  0.00     0.004 C 
ENDBRANCH   8   9
ENDBRANCH   7   8
ENDBRANCH   1   7
TORSDOF 6
ENDMDL
MODEL 5
REMARK VINA RESULT:    -3.880      4.423      7.812
REMARK INTER + INTRA:          -5.527
REMARK INTER:                  -5.035
REMARK INTRA:                  -0.492
REMARK UNBOUND:                -0.285
REMARK SMILES CCCCCCCC(=O)[O-]
REMARK SMILES IDX 5 1 6 2 7 3 8 4 9 5 10 6 4 7 3 8 2 9 1 10
REMARK H PARENT
REMARK Flexibility Score: inf
ROOT
ATOM      1  C   UNL     1      16.372 -34.047  19.196  1.00  0.00     0.000 C 
ENDROOT
BRANCH   1   2
ATOM      2  C   UNL     1      15.168 -34.566  19.996  1.00  0.00     0.006 C 
BRANCH   2   3
ATOM      3  C   UNL     1      15.004 -33.838  21.337  1.00  0.00     0.053 C 
BRANCH   3   4
ATOM      4  C   UNL     1      14.605 -32.406  21.146  1.00  0.00     0.041 C 
ATOM      5  O   UNL     1      13.465 -32.119  20.695  1.00  0.00    -0.550 OA
ATOM      6  O   UNL     1      15.481 -31.388  21.498  1.00  0.00    -0.550 OA
ENDBRANCH   3   4
ENDBRANCH   2   3
ENDBRANCH   1   2
BRANCH   1   7
ATOM      7  C   UNL     1      17.492 -35.094  19.147  1.00  0.00     0.000 C 
BRANCH   7   8
ATOM      8  C   UNL     1      16.920 -36.515  19.221  1.00  0.00    -0.000 C 
BRANCH   8   9
ATOM      9  C   UNL     1      17.677 -37.359  20.251  1.00  0.00    -0.003 C 
ATOM     10  C   UNL     1      18.121 -36.512  21.441  1.00  0.00     0.004 C 
ENDBRANCH   8   9
ENDBRANCH   7   8
ENDBRANCH   1   7
TORSDOF 6
ENDMDL
MODEL 6
REMARK VINA RESULT:    -3.866      1.891      2.828
REMARK INTER + INTRA:          -5.508
REMARK INTER:                  -5.209
REMARK INTRA:                  -0.299
REMARK UNBOUND:                -0.285
REMARK SMILES CCCCCCCC(=O)[O-]
REMARK SMILES IDX 5 1 6 2 7 3 8 4 9 5 10 6 4 7 3 8 2 9 1 10
REMARK H PARENT
REMARK Flexibility Score: inf
ROOT
ATOM      1  C   UNL     1      14.810 -30.890  23.149  1.00  0.00     0.000 C 
ENDROOT
BRANCH   1   2
ATOM      2  C   UNL     1      13.940 -32.107  23.501  1.00  0.00     0.006 C 
BRANCH   2   3
ATOM      3  C   UNL     1      14.759 -33.402  23.579  1.00  0.00     0.053 C 
BRANCH   3   4
ATOM      4  C   UNL     1      15.420 -33.722  22.273  1.00  0.00     0.041 C 
ATOM      5  O   UNL     1      14.723 -33.961  21.251  1.00  0.00    -0.550 OA
ATOM      6  O   UNL     1      16.805 -33.722  22.177  1.00  0.00    -0.550 OA
ENDBRANCH   3   4
ENDBRANCH   2   3
ENDBRANCH   1   2
BRANCH   1   7
ATOM      7  C   UNL     1      14.029 -29.886  22.293  1.00  0.00     0.000 C 
BRANCH   7   8
ATOM      8  C   UNL     1      12.577 -29.767  22.770  1.00  0.00    -0.000 C 
BRANCH   8   9
ATOM      9  C   UNL     1      12.444 -28.705  23.866  1.00  0.00    -0.003 C 
ATOM     10  C   UNL     1      11.407 -27.650  23.491  1.00  0.00     0.004 C 
ENDBRANCH   8   9
ENDBRANCH   7   8
ENDBRANCH   1   7
TORSDOF 6
ENDMDL
MODEL 7
REMARK VINA RESULT:    -3.864      6.828      8.857
REMARK INTER + INTRA:          -5.505
REMARK INTER:                  -5.218
REMARK INTRA:                  -0.287
REMARK UNBOUND:                -0.285
REMARK SMILES CCCCCCCC(=O)[O-]
REMARK SMILES IDX 5 1 6 2 7 3 8 4 9 5 10 6 4 7 3 8 2 9 1 10
REMARK H PARENT
REMARK Flexibility Score: inf
ROOT
ATOM      1  C   UNL     1      17.772 -36.760  25.372  1.00  0.00     0.000 C 
ENDROOT
BRANCH   1   2
ATOM      2  C   UNL     1      16.877 -35.512  25.356  1.00  0.00     0.006 C 
BRANCH   2   3
ATOM      3  C   UNL     1      17.331 -34.485  24.310  1.00  0.00     0.053 C 
BRANCH   3   4
ATOM      4  C   UNL     1      16.503 -34.559  23.063  1.00  0.00     0.041 C 
ATOM      5  O   UNL     1      16.943 -35.156  22.044  1.00  0.00    -0.550 OA
ATOM      6  O   UNL     1      15.233 -33.998  23.037  1.00  0.00    -0.550 OA
ENDBRANCH   3   4
ENDBRANCH   2   3
ENDBRANCH   1   2
BRANCH   1   7
ATOM      7  C   UNL     1      17.578 -37.558  26.667  1.00  0.00     0.000 C 
BRANCH   7   8
ATOM      8  C   UNL     1      16.101 -37.911  26.880  1.00  0.00    -0.000 C 
BRANCH   8   9
ATOM      9  C   UNL     1      15.795 -38.125  28.367  1.00  0.00    -0.003 C 
ATOM     10  C   UNL     1      16.994 -37.756  29.236  1.00  0.00     0.004 C 
ENDBRANCH   8   9
ENDBRANCH   7   8
ENDBRANCH   1   7
TORSDOF 6
ENDMDL
MODEL 8
REMARK VINA RESULT:    -3.829      2.841      4.199
REMARK INTER + INTRA:          -5.457
REMARK INTER:                  -5.130
REMARK INTRA:                  -0.327
REMARK UNBOUND:                -0.285
REMARK SMILES CCCCCCCC(=O)[O-]
REMARK SMILES IDX 5 1 6 2 7 3 8 4 9 5 10 6 4 7 3 8 2 9 1 10
REMARK H PARENT
REMARK Flexibility Score: inf
ROOT
ATOM      1  C   UNL     1      15.230 -32.601  23.343  1.00  0.00     0.000 C 
ENDROOT
BRANCH   1   2
ATOM      2  C   UNL     1      15.137 -33.977  22.666  1.00  0.00     0.006 C 
BRANCH   2   3
ATOM      3  C   UNL     1      16.188 -34.153  21.562  1.00  0.00     0.053 C 
BRANCH   3   4
ATOM      4  C   UNL     1      15.570 -34.602  20.272  1.00  0.00     0.041 C 
ATOM      5  O   UNL     1      14.588 -33.979  19.789  1.00  0.00    -0.550 OA
ATOM      6  O   UNL     1      16.101 -35.687  19.588  1.00  0.00    -0.550 OA
ENDBRANCH   3   4
ENDBRANCH   2   3
ENDBRANCH   1   2
BRANCH   1   7
ATOM      7  C   UNL     1      13.848 -32.121  23.801  1.00  0.00     0.000 C 
BRANCH   7   8
ATOM      8  C   UNL     1      13.564 -30.700  23.299  1.00  0.00    -0.000 C 
BRANCH   8   9
ATOM      9  C   UNL     1      12.462 -30.702  22.235  1.00  0.00    -0.003 C 
ATOM     10  C   UNL     1      13.012 -31.111  20.871  1.00  0.00     0.004 C 
ENDBRANCH   8   9
ENDBRANCH   7   8
ENDBRANCH   1   7
TORSDOF 6
ENDMDL
MODEL 9
REMARK VINA RESULT:    -3.808      8.774      9.829
REMARK INTER + INTRA:          -5.429
REMARK INTER:                  -5.110
REMARK INTRA:                  -0.319
REMARK UNBOUND:                -0.285
REMARK SMILES CCCCCCCC(=O)[O-]
REMARK SMILES IDX 5 1 6 2 7 3 8 4 9 5 10 6 4 7 3 8 2 9 1 10
REMARK H PARENT
REMARK Flexibility Score: inf
ROOT
ATOM      1  C   UNL     1      19.875 -26.730  20.747  1.00  0.00     0.000 C 
ENDROOT
BRANCH   1   2
ATOM      2  C   UNL     1      20.449 -25.448  20.124  1.00  0.00     0.006 C 
BRANCH   2   3
ATOM      3  C   UNL     1      21.926 -25.601  19.738  1.00  0.00     0.053 C 
BRANCH   3   4
ATOM      4  C   UNL     1      22.773 -24.520  20.338  1.00  0.00     0.041 C 
ATOM      5  O   UNL     1      23.610 -23.903  19.629  1.00  0.00    -0.550 OA
ATOM      6  O   UNL     1      22.612 -24.173  21.673  1.00  0.00    -0.550 OA
ENDBRANCH   3   4
ENDBRANCH   2   3
ENDBRANCH   1   2
BRANCH   1   7
ATOM      7  C   UNL     1      20.951 -27.817  20.856  1.00  0.00     0.000 C 
BRANCH   7   8
ATOM      8  C   UNL     1      20.319 -29.213  20.913  1.00  0.00    -0.000 C 
BRANCH   8   9
ATOM      9  C   UNL     1      18.798 -29.122  21.074  1.00  0.00    -0.003 C 
ATOM     10  C   UNL     1      18.146 -30.496  20.947  1.00  0.00     0.004 C 
ENDBRANCH   8   9
ENDBRANCH   7   8
ENDBRANCH   1   7
TORSDOF 6
ENDMDL
