MODEL 1
REMARK VINA RESULT:    -3.070      0.000      0.000
REMARK INTER + INTRA:          -5.286
REMARK INTER:                  -4.506
REMARK INTRA:                  -0.779
REMARK UNBOUND:                -0.779
REMARK SMILES O=C([O-])CCCCCCCC(=O)[O-]
REMARK SMILES IDX 7 1 6 2 5 3 4 4 2 5 1 6 3 7 8 8 9 9 10 10 11 11 12 12 13 13
REMARK H PARENT
REMARK Flexibility Score: inf
ROOT
ATOM      1  C   UNL     1       3.530 108.402 181.666  1.00  0.00     0.000 C 
ENDROOT
BRANCH   1   2
ATOM      2  C   UNL     1       3.975 106.963 181.981  1.00  0.00     0.000 C 
BRANCH   2   3
ATOM      3  C   UNL     1       5.360 106.906 182.647  1.00  0.00     0.006 C 
BRANCH   3   4
ATOM      4  C   UNL     1       5.463 107.819 183.876  1.00  0.00     0.053 C 
BRANCH   4   5
ATOM      5  C   UNL     1       6.594 108.784 183.714  1.00  0.00     0.041 C 
ATOM      6  O   UNL     1       6.813 109.323 182.597  1.00  0.00    -0.550 OA
ATOM      7  O   UNL     1       7.379 109.126 184.807  1.00  0.00    -0.550 OA
ENDBRANCH   4   5
ENDBRANCH   3   4
ENDBRANCH   2   3
ENDBRANCH   1   2
BRANCH   1   8
ATOM      8  C   UNL     1       2.205 108.774 182.351  1.00  0.00     0.000 C 
BRANCH   8   9
ATOM      9  C   UNL     1       2.343 109.972 183.300  1.00  0.00     0.006 C 
BRANCH   9  10
ATOM     10  C   UNL     1       3.524 110.859 182.895  1.00  0.00     0.053 C 
BRANCH  10  11
ATOM     11  C   UNL     1       3.825 111.856 183.969  1.00  0.00     0.041 C 
ATOM     12  O   UNL     1       2.903 112.564 184.454  1.00  0.00    -0.550 OA
ATOM     13  O   UNL     1       5.114 111.968 184.472  1.00  0.00    -0.550 OA
ENDBRANCH  10  11
ENDBRANCH   9  10
ENDBRANCH   8   9
ENDBRANCH   1   8
TORSDOF 8
ENDMDL
MODEL 2
REMARK VINA RESULT:    -3.057      4.188      5.490
REMARK INTER + INTRA:          -5.266
REMARK INTER:                  -4.716
REMARK INTRA:                  -0.550
REMARK UNBOUND:                -0.779
REMARK SMILES O=C([O-])CCCCCCCC(=O)[O-]
REMARK SMILES IDX 7 1 6 2 5 3 4 4 2 5 1 6 3 7 8 8 9 9 10 10 11 11 12 12 13 13
REMARK H PARENT
REMARK Flexibility Score: inf
ROOT
ATOM      1  C   UNL     1       4.076 106.005 180.280  1.00  0.00     0.000 C 
ENDROOT
BRANCH   1   2
ATOM      2  C   UNL     1       2.866 105.109 179.970  1.00  0.00     0.000 C 
BRANCH   2   3
ATOM      3  C   UNL     1       2.118 105.545 178.699  1.00  0.00     0.006 C 
BRANCH   3   4
ATOM      4  C   UNL     1       0.895 106.421 179.003  1.00  0.00     0.053 C 
BRANCH   4   5
ATOM      5  C   UNL     1       0.761 107.501 177.977  1.00  0.00     0.041 C 
ATOM      6  O   UNL     1       0.735 107.212 176.752  1.00  0.00    -0.550 OA
ATOM      7  O   UNL     1       0.615 108.824 178.375  1.00  0.00    -0.550 OA
ENDBRANCH   4   5
ENDBRANCH   3   4
ENDBRANCH   2   3
ENDBRANCH   1   2
BRANCH   1   8
ATOM      8  C   UNL     1       4.017 106.609 181.693  1.00  0.00     0.000 C 
BRANCH   8   9
ATOM      9  C   UNL     1       3.838 108.134 181.680  1.00  0.00     0.006 C 
BRANCH   9  10
ATOM     10  C   UNL     1       2.356 108.511 181.763  1.00  0.00     0.053 C 
BRANCH  10  11
ATOM     11  C   UNL     1       2.050 109.156 183.078  1.00  0.00     0.041 C 
ATOM     12  O   UNL     1       2.400 110.346 183.296  1.00  0.00    -0.550 OA
ATOM     13  O   UNL     1       1.335 108.461 184.044  1.00  0.00    -0.550 OA
ENDBRANCH  10  11
ENDBRANCH   9  10
ENDBRANCH   8   9
ENDBRANCH   1   8
TORSDOF 8
ENDMDL
MODEL 3
REMARK VINA RESULT:    -3.053      2.339      5.149
REMARK INTER + INTRA:          -5.260
REMARK INTER:                  -4.710
REMARK INTRA:                  -0.550
REMARK UNBOUND:                -0.779
REMARK SMILES O=C([O-])CCCCCCCC(=O)[O-]
REMARK SMILES IDX 7 1 6 2 5 3 4 4 2 5 1 6 3 7 8 8 9 9 10 10 11 11 12 12 13 13
REMARK H PARENT
REMARK Flexibility Score: inf
ROOT
ATOM      1  C   UNL     1       6.186 110.414 184.906  1.00  0.00     0.000 C 
ENDROOT
BRANCH   1   2
ATOM      2  C   UNL     1       6.739 111.715 184.299  1.00  0.00     0.000 C 
BRANCH   2   3
ATOM      3  C   UNL     1       5.627 112.696 183.893  1.00  0.00     0.006 C 
BRANCH   3   4
ATOM      4  C   UNL     1       4.652 112.991 185.040  1.00  0.00     0.053 C 
BRANCH   4   5
ATOM      5  C   UNL     1       3.239 112.818 184.580  1.00  0.00     0.041 C 
ATOM      6  O   UNL     1       2.393 113.731 184.772  1.00  0.00    -0.550 OA
ATOM      7  O   UNL     1       2.866 111.669 183.895  1.00  0.00    -0.550 OA
ENDBRANCH   4   5
ENDBRANCH   3   4
ENDBRANCH   2   3
ENDBRANCH   1   2
BRANCH   1   8
ATOM      8  C   UNL     1       6.889 109.161 184.359  1.00  0.00     0.000 C 
BRANCH   8   9
ATOM      9  C   UNL     1       5.909 108.147 183.753  1.00  0.00     0.006 C 
BRANCH   9  10
ATOM     10  C   UNL     1       4.822 108.855 182.939  1.00  0.00     0.053 C 
BRANCH  10  11
ATOM     11  C   UNL     1       3.613 107.983 182.807  1.00  0.00     0.041 C 
ATOM     12  O   UNL     1       3.697 106.867 182.230  1.00  0.00    -0.550 OA
ATOM     13  O   UNL     1       2.405 108.380 183.365  1.00  0.00    -0.550 OA
ENDBRANCH  10  11
ENDBRANCH   9  10
ENDBRANCH   8   9
ENDBRANCH   1   8
TORSDOF 8
ENDMDL
MODEL 4
REMARK VINA RESULT:    -3.030      2.340      3.694
REMARK INTER + INTRA:          -5.226
REMARK INTER:                  -4.834
REMARK INTRA:                  -0.392
REMARK UNBOUND:                -0.779
REMARK SMILES O=C([O-])CCCCCCCC(=O)[O-]
REMARK SMILES IDX 7 1 6 2 5 3 4 4 2 5 1 6 3 7 8 8 9 9 10 10 11 11 12 12 13 13
REMARK H PARENT
REMARK Flexibility Score: inf
ROOT
ATOM      1  C   UNL     1       3.797 110.668 182.794  1.00  0.00     0.000 C 
ENDROOT
BRANCH   1   2
ATOM      2  C   UNL     1       2.446 110.076 183.233  1.00  0.00     0.000 C 
BRANCH   2   3
ATOM      3  C   UNL     1       2.134 108.740 182.537  1.00  0.00     0.006 C 
BRANCH   3   4
ATOM      4  C   UNL     1       3.162 108.383 181.455  1.00  0.00     0.053 C 
BRANCH   4   5
ATOM      5  C   UNL     1       3.778 107.050 181.743  1.00  0.00     0.041 C 
ATOM      6  O   UNL     1       3.498 106.054 181.025  1.00  0.00    -0.550 OA
ATOM      7  O   UNL     1       4.698 106.916 182.774  1.00  0.00    -0.550 OA
ENDBRANCH   4   5
ENDBRANCH   3   4
ENDBRANCH   2   3
ENDBRANCH   1   2
BRANCH   1   8
ATOM      8  C   UNL     1       4.261 111.817 183.705  1.00  0.00     0.000 C 
BRANCH   8   9
ATOM      9  C   UNL     1       3.093 112.539 184.392  1.00  0.00     0.006 C 
BRANCH   9  10
ATOM     10  C   UNL     1       3.574 113.811 185.096  1.00  0.00     0.053 C 
BRANCH  10  11
ATOM     11  C   UNL     1       3.902 114.874 184.095  1.00  0.00     0.041 C 
ATOM     12  O   UNL     1       5.101 115.193 183.879  1.00  0.00    -0.550 OA
ATOM     13  O   UNL     1       2.887 115.477 183.364  1.00  0.00    -0.550 OA
ENDBRANCH  10  11
ENDBRANCH   9  10
ENDBRANCH   8   9
ENDBRANCH   1   8
TORSDOF 8
ENDMDL
MODEL 5
REMARK VINA RESULT:    -3.028      2.571      5.443
REMARK INTER + INTRA:          -5.224
REMARK INTER:                  -4.805
REMARK INTRA:                  -0.419
REMARK UNBOUND:                -0.779
REMARK SMILES O=C([O-])CCCCCCCC(=O)[O-]
REMARK SMILES IDX 7 1 6 2 5 3 4 4 2 5 1 6 3 7 8 8 9 9 10 10 11 11 12 12 13 13
REMARK H PARENT
REMARK Flexibility Score: inf
ROOT
ATOM      1  C   UNL     1       3.720 110.633 182.728  1.00  0.00     0.000 C 
ENDROOT
BRANCH   1   2
ATOM      2  C   UNL     1       4.224 111.850 183.522  1.00  0.00     0.000 C 
BRANCH   2   3
ATOM      3  C   UNL     1       3.127 112.480 184.396  1.00  0.00     0.006 C 
BRANCH   3   4
ATOM      4  C   UNL     1       3.586 113.777 185.076  1.00  0.00     0.053 C 
BRANCH   4   5
ATOM      5  C   UNL     1       3.865 114.831 184.052  1.00  0.00     0.041 C 
ATOM      6  O   UNL     1       2.916 115.378 183.430  1.00  0.00    -0.550 OA
ATOM      7  O   UNL     1       5.169 115.246 183.818  1.00  0.00    -0.550 OA
ENDBRANCH   4   5
ENDBRANCH   3   4
ENDBRANCH   2   3
ENDBRANCH   1   2
BRANCH   1   8
ATOM      8  C   UNL     1       2.383 110.092 183.262  1.00  0.00     0.000 C 
BRANCH   8   9
ATOM      9  C   UNL     1       2.035 108.707 182.699  1.00  0.00     0.006 C 
BRANCH   9  10
ATOM     10  C   UNL     1       2.743 108.465 181.363  1.00  0.00     0.053 C 
BRANCH  10  11
ATOM     11  C   UNL     1       3.480 107.163 181.388  1.00  0.00     0.041 C 
ATOM     12  O   UNL     1       4.111 106.812 182.420  1.00  0.00    -0.550 OA
ATOM     13  O   UNL     1       3.429 106.314 180.290  1.00  0.00    -0.550 OA
ENDBRANCH  10  11
ENDBRANCH   9  10
ENDBRANCH   8   9
ENDBRANCH   1   8
TORSDOF 8
ENDMDL
MODEL 6
REMARK VINA RESULT:    -3.017      3.945      5.311
REMARK INTER + INTRA:          -5.208
REMARK INTER:                  -4.467
REMARK INTRA:                  -0.741
REMARK UNBOUND:                -0.779
REMARK SMILES O=C([O-])CCCCCCCC(=O)[O-]
REMARK SMILES IDX 7 1 6 2 5 3 4 4 2 5 1 6 3 7 8 8 9 9 10 10 11 11 12 12 13 13
REMARK H PARENT
REMARK Flexibility Score: inf
ROOT
ATOM      1  C   UNL     1       4.172 105.553 179.718  1.00  0.00     0.000 C 
ENDROOT
BRANCH   1   2
ATOM      2  C   UNL     1       4.716 106.274 180.963  1.00  0.00     0.000 C 
BRANCH   2   3
ATOM      3  C   UNL     1       3.616 107.010 181.746  1.00  0.00     0.006 C 
BRANCH   3   4
ATOM      4  C   UNL     1       3.552 108.506 181.412  1.00  0.00     0.053 C 
BRANCH   4   5
ATOM      5  C   UNL     1       2.863 109.255 182.508  1.00  0.00     0.041 C 
ATOM      6  O   UNL     1       3.427 110.240 183.054  1.00  0.00    -0.550 OA
ATOM      7  O   UNL     1       1.579 108.898 182.896  1.00  0.00    -0.550 OA
ENDBRANCH   4   5
ENDBRANCH   3   4
ENDBRANCH   2   3
ENDBRANCH   1   2
BRANCH   1   8
ATOM      8  C   UNL     1       2.703 105.129 179.877  1.00  0.00     0.000 C 
BRANCH   8   9
ATOM      9  C   UNL     1       1.823 105.585 178.703  1.00  0.00     0.006 C 
BRANCH   9  10
ATOM     10  C   UNL     1       2.206 106.996 178.248  1.00  0.00     0.053 C 
BRANCH  10  11
ATOM     11  C   UNL     1       1.125 107.971 178.593  1.00  0.00     0.041 C 
ATOM     12  O   UNL     1       0.734 108.811 177.741  1.00  0.00    -0.550 OA
ATOM     13  O   UNL     1       0.513 107.918 179.838  1.00  0.00    -0.550 OA
ENDBRANCH  10  11
ENDBRANCH   9  10
ENDBRANCH   8   9
ENDBRANCH   1   8
TORSDOF 8
ENDMDL
MODEL 7
REMARK VINA RESULT:    -3.015      3.898      6.292
REMARK INTER + INTRA:          -5.205
REMARK INTER:                  -4.693
REMARK INTRA:                  -0.511
REMARK UNBOUND:                -0.779
REMARK SMILES O=C([O-])CCCCCCCC(=O)[O-]
REMARK SMILES IDX 7 1 6 2 5 3 4 4 2 5 1 6 3 7 8 8 9 9 10 10 11 11 12 12 13 13
REMARK H PARENT
REMARK Flexibility Score: inf
ROOT
ATOM      1  C   UNL     1       5.990 106.889 181.487  1.00  0.00     0.000 C 
ENDROOT
BRANCH   1   2
ATOM      2  C   UNL     1       4.945 107.034 182.606  1.00  0.00     0.000 C 
BRANCH   2   3
ATOM      3  C   UNL     1       4.378 108.461 182.702  1.00  0.00     0.006 C 
BRANCH   3   4
ATOM      4  C   UNL     1       2.917 108.548 182.244  1.00  0.00     0.053 C 
BRANCH   4   5
ATOM      5  C   UNL     1       2.092 109.262 183.268  1.00  0.00     0.041 C 
ATOM      6  O   UNL     1       1.240 108.631 183.947  1.00  0.00    -0.550 OA
ATOM      7  O   UNL     1       2.298 110.614 183.508  1.00  0.00    -0.550 OA
ENDBRANCH   4   5
ENDBRANCH   3   4
ENDBRANCH   2   3
ENDBRANCH   1   2
BRANCH   1   8
ATOM      8  C   UNL     1       5.561 105.883 180.406  1.00  0.00     0.000 C 
BRANCH   8   9
ATOM      9  C   UNL     1       4.283 106.311 179.670  1.00  0.00     0.006 C 
BRANCH   9  10
ATOM     10  C   UNL     1       3.196 105.239 179.792  1.00  0.00     0.053 C 
BRANCH  10  11
ATOM     11  C   UNL     1       3.015 104.523 178.490  1.00  0.00     0.041 C 
ATOM     12  O   UNL     1       3.939 103.801 178.031  1.00  0.00    -0.550 OA
ATOM     13  O   UNL     1       1.809 104.613 177.809  1.00  0.00    -0.550 OA
ENDBRANCH  10  11
ENDBRANCH   9  10
ENDBRANCH   8   9
ENDBRANCH   1   8
TORSDOF 8
ENDMDL
MODEL 8
REMARK VINA RESULT:    -2.959      4.503      6.344
REMARK INTER + INTRA:          -5.122
REMARK INTER:                  -4.502
REMARK INTRA:                  -0.620
REMARK UNBOUND:                -0.779
REMARK SMILES O=C([O-])CCCCCCCC(=O)[O-]
REMARK SMILES IDX 7 1 6 2 5 3 4 4 2 5 1 6 3 7 8 8 9 9 10 10 11 11 12 12 13 13
REMARK H PARENT
REMARK Flexibility Score: inf
ROOT
ATOM      1  C   UNL     1       2.485 108.442 179.328  1.00  0.00     0.000 C 
ENDROOT
BRANCH   1   2
ATOM      2  C   UNL     1       3.561 108.605 180.415  1.00  0.00     0.000 C 
BRANCH   2   3
ATOM      3  C   UNL     1       3.358 107.640 181.595  1.00  0.00     0.006 C 
BRANCH   3   4
ATOM      4  C   UNL     1       3.530 108.326 182.957  1.00  0.00     0.053 C 
BRANCH   4   5
ATOM      5  C   UNL     1       2.503 109.400 183.132  1.00  0.00     0.041 C 
ATOM      6  O   UNL     1       1.287 109.099 183.253  1.00  0.00    -0.550 OA
ATOM      7  O   UNL     1       2.894 110.730 183.211  1.00  0.00    -0.550 OA
ENDBRANCH   4   5
ENDBRANCH   3   4
ENDBRANCH   2   3
ENDBRANCH   1   2
BRANCH   1   8
ATOM      8  C   UNL     1       1.179 107.843 179.876  1.00  0.00     0.000 C 
BRANCH   8   9
ATOM      9  C   UNL     1       0.673 106.658 179.040  1.00  0.00     0.006 C 
BRANCH   9  10
ATOM     10  C   UNL     1       1.759 105.589 178.892  1.00  0.00     0.053 C 
BRANCH  10  11
ATOM     11  C   UNL     1       1.769 105.040 177.500  1.00  0.00     0.041 C 
ATOM     12  O   UNL     1       2.845 104.631 176.988  1.00  0.00    -0.550 OA
ATOM     13  O   UNL     1       0.583 104.931 176.787  1.00  0.00    -0.550 OA
ENDBRANCH  10  11
ENDBRANCH   9  10
ENDBRANCH   8   9
ENDBRANCH   1   8
TORSDOF 8
ENDMDL
MODEL 9
REMARK VINA RESULT:    -2.929      3.099      4.405
REMARK INTER + INTRA:          -5.077
REMARK INTER:                  -4.612
REMARK INTRA:                  -0.466
REMARK UNBOUND:                -0.779
REMARK SMILES O=C([O-])CCCCCCCC(=O)[O-]
REMARK SMILES IDX 7 1 6 2 5 3 4 4 2 5 1 6 3 7 8 8 9 9 10 10 11 11 12 12 13 13
REMARK H PARENT
REMARK Flexibility Score: inf
ROOT
ATOM      1  C   UNL     1       4.782 111.991 184.275  1.00  0.00     0.000 C 
ENDROOT
BRANCH   1   2
ATOM      2  C   UNL     1       5.261 111.034 183.169  1.00  0.00     0.000 C 
BRANCH   2   3
ATOM      3  C   UNL     1       4.101 110.486 182.320  1.00  0.00     0.006 C 
BRANCH   3   4
ATOM      4  C   UNL     1       3.690 109.065 182.728  1.00  0.00     0.053 C 
BRANCH   4   5
ATOM      5  C   UNL     1       2.218 108.876 182.543  1.00  0.00     0.041 C 
ATOM      6  O   UNL     1       1.764 108.469 181.441  1.00  0.00    -0.550 OA
ATOM      7  O   UNL     1       1.349 109.103 183.602  1.00  0.00    -0.550 OA
ENDBRANCH   4   5
ENDBRANCH   3   4
ENDBRANCH   2   3
ENDBRANCH   1   2
BRANCH   1   8
ATOM      8  C   UNL     1       3.281 112.309 184.171  1.00  0.00     0.000 C 
BRANCH   8   9
ATOM      9  C   UNL     1       2.924 113.686 184.747  1.00  0.00     0.006 C 
BRANCH   9  10
ATOM     10  C   UNL     1       3.982 114.728 184.369  1.00  0.00     0.053 C 
BRANCH  10  11
ATOM     11  C   UNL     1       3.616 115.407 183.087  1.00  0.00     0.041 C 
ATOM     12  O   UNL     1       3.985 114.922 181.985  1.00  0.00    -0.550 OA
ATOM     13  O   UNL     1       2.824 116.548 183.106  1.00  0.00    -0.550 OA
ENDBRANCH  10  11
ENDBRANCH   9  10
ENDBRANCH   8   9
ENDBRANCH   1   8
TORSDOF 8
ENDMDL
