MODEL 1
REMARK VINA RESULT:    -4.480      0.000      0.000
REMARK INTER + INTRA:         -16.151
REMARK INTER:                 -11.289
REMARK INTRA:                  -4.862
REMARK UNBOUND:                -4.862
REMARK SMILES CCCCCCCCCCCCCCCCCCCCCCCCCCCC(=O)[O-]
REMARK SMILES IDX 15 1 16 2 17 3 18 4 19 5 20 6 21 7 22 8 23 9 24 10 25 11
REMARK SMILES IDX 26 12 27 13 28 14 29 15 30 16 14 17 13 18 12 19 11 20 10 21
REMARK SMILES IDX 9 22 8 23 7 24 6 25 5 26 4 27 3 28 2 29 1 30
REMARK H PARENT
REMARK Flexibility Score: inf
ROOT
ATOM      1  C   UNL     1     -16.901  -5.010  32.855  1.00  0.00     0.000 C 
ENDROOT
BRANCH   1   2
ATOM      2  C   UNL     1     -17.547  -3.655  32.518  1.00  0.00     0.000 C 
BRANCH   2   3
ATOM      3  C   UNL     1     -16.538  -2.640  31.947  1.00  0.00     0.000 C 
BRANCH   3   4
ATOM      4  C   UNL     1     -15.309  -3.252  31.244  1.00  0.00     0.000 C 
BRANCH   4   5
ATOM      5  C   UNL     1     -13.960  -3.023  31.958  1.00  0.00     0.000 C 
BRANCH   5   6
ATOM      6  C   UNL     1     -14.065  -2.364  33.345  1.00  0.00     0.000 C 
BRANCH   6   7
ATOM      7  C   UNL     1     -13.933  -3.381  34.491  1.00  0.00     0.000 C 
BRANCH   7   8
ATOM      8  C   UNL     1     -14.556  -2.886  35.810  1.00  0.00     0.000 C 
BRANCH   8   9
ATOM      9  C   UNL     1     -16.089  -2.999  35.899  1.00  0.00     0.000 C 
BRANCH   9  10
ATOM     10  C   UNL     1     -16.761  -1.724  36.435  1.00  0.00     0.000 C 
BRANCH  10  11
ATOM     11  C   UNL     1     -17.393  -0.914  35.293  1.00  0.00     0.000 C 
BRANCH  11  12
ATOM     12  C   UNL     1     -18.340   0.186  35.799  1.00  0.00     0.006 C 
BRANCH  12  13
ATOM     13  C   UNL     1     -17.592   1.396  36.376  1.00  0.00     0.053 C 
BRANCH  13  14
ATOM     14  C   UNL     1     -18.115   1.746  37.733  1.00  0.00     0.041 C 
ATOM     15  O   UNL     1     -19.208   1.264  38.135  1.00  0.00    -0.550 OA
ATOM     16  O   UNL     1     -17.393   2.596  38.561  1.00  0.00    -0.550 OA
ENDBRANCH  13  14
ENDBRANCH  12  13
ENDBRANCH  11  12
ENDBRANCH  10  11
ENDBRANCH   9  10
ENDBRANCH   8   9
ENDBRANCH   7   8
ENDBRANCH   6   7
ENDBRANCH   5   6
ENDBRANCH   4   5
ENDBRANCH   3   4
ENDBRANCH   2   3
ENDBRANCH   1   2
BRANCH   1  17
ATOM     17  C   UNL     1     -17.384  -6.151  31.943  1.00  0.00     0.000 C 
BRANCH  17  18
ATOM     18  C   UNL     1     -16.303  -6.757  31.028  1.00  0.00     0.000 C 
BRANCH  18  19
ATOM     19  C   UNL     1     -15.193  -7.476  31.810  1.00  0.00     0.000 C 
BRANCH  19  20
ATOM     20  C   UNL     1     -13.857  -6.712  31.761  1.00  0.00     0.000 C 
BRANCH  20  21
ATOM     21  C   UNL     1     -12.952  -6.985  32.982  1.00  0.00     0.000 C 
BRANCH  21  22
ATOM     22  C   UNL     1     -12.345  -8.402  32.983  1.00  0.00    -0.000 C 
BRANCH  22  23
ATOM     23  C   UNL     1     -12.597  -9.143  34.309  1.00  0.00    -0.000 C 
BRANCH  23  24
ATOM     24  C   UNL     1     -14.031  -9.694  34.415  1.00  0.00    -0.000 C 
BRANCH  24  25
ATOM     25  C   UNL     1     -14.786  -9.223  35.676  1.00  0.00    -0.000 C 
BRANCH  25  26
ATOM     26  C   UNL     1     -15.797  -8.091  35.411  1.00  0.00    -0.000 C 
BRANCH  26  27
ATOM     27  C   UNL     1     -15.205  -6.700  35.689  1.00  0.00    -0.000 C 
BRANCH  27  28
ATOM     28  C   UNL     1     -15.204  -6.348  37.185  1.00  0.00    -0.000 C 
BRANCH  28  29
ATOM     29  C   UNL     1     -16.616  -6.310  37.790  1.00  0.00    -0.003 C 
ATOM     30  C   UNL     1     -16.571  -5.922  39.266  1.00  0.00     0.004 C 
ENDBRANCH  28  29
ENDBRANCH  27  28
ENDBRANCH  26  27
ENDBRANCH  25  26
ENDBRANCH  24  25
ENDBRANCH  23  24
ENDBRANCH  22  23
ENDBRANCH  21  22
ENDBRANCH  20  21
ENDBRANCH  19  20
ENDBRANCH  18  19
ENDBRANCH  17  18
ENDBRANCH   1  17
TORSDOF 26
ENDMDL
MODEL 2
REMARK VINA RESULT:    -4.428      2.325      6.286
REMARK INTER + INTRA:         -16.020
REMARK INTER:                 -10.787
REMARK INTRA:                  -5.232
REMARK UNBOUND:                -4.862
REMARK SMILES CCCCCCCCCCCCCCCCCCCCCCCCCCCC(=O)[O-]
REMARK SMILES IDX 15 1 16 2 17 3 18 4 19 5 20 6 21 7 22 8 23 9 24 10 25 11
REMARK SMILES IDX 26 12 27 13 28 14 29 15 30 16 14 17 13 18 12 19 11 20 10 21
REMARK SMILES IDX 9 22 8 23 7 24 6 25 5 26 4 27 3 28 2 29 1 30
REMARK H PARENT
REMARK Flexibility Score: inf
ROOT
ATOM      1  C   UNL     1     -13.765  -3.645  34.098  1.00  0.00     0.000 C 
ENDROOT
BRANCH   1   2
ATOM      2  C   UNL     1     -13.020  -3.730  32.754  1.00  0.00     0.000 C 
BRANCH   2   3
ATOM      3  C   UNL     1     -13.027  -5.151  32.159  1.00  0.00     0.000 C 
BRANCH   3   4
ATOM      4  C   UNL     1     -12.926  -6.299  33.185  1.00  0.00     0.000 C 
BRANCH   4   5
ATOM      5  C   UNL     1     -13.103  -7.719  32.606  1.00  0.00     0.000 C 
BRANCH   5   6
ATOM      6  C   UNL     1     -14.565  -8.151  32.390  1.00  0.00     0.000 C 
BRANCH   6   7
ATOM      7  C   UNL     1     -15.363  -8.202  33.704  1.00  0.00     0.000 C 
BRANCH   7   8
ATOM      8  C   UNL     1     -16.634  -7.332  33.671  1.00  0.00     0.000 C 
BRANCH   8   9
ATOM      9  C   UNL     1     -16.769  -6.408  32.447  1.00  0.00     0.000 C 
BRANCH   9  10
ATOM     10  C   UNL     1     -16.848  -4.918  32.817  1.00  0.00     0.000 C 
BRANCH  10  11
ATOM     11  C   UNL     1     -16.533  -4.032  31.603  1.00  0.00     0.000 C 
BRANCH  11  12
ATOM     12  C   UNL     1     -16.609  -2.531  31.927  1.00  0.00     0.006 C 
BRANCH  12  13
ATOM     13  C   UNL     1     -17.572  -1.771  31.005  1.00  0.00     0.053 C 
BRANCH  13  14
ATOM     14  C   UNL     1     -18.985  -1.924  31.471  1.00  0.00     0.041 C 
ATOM     15  O   UNL     1     -19.917  -2.064  30.633  1.00  0.00    -0.550 OA
ATOM     16  O   UNL     1     -19.277  -1.924  32.828  1.00  0.00    -0.550 OA
ENDBRANCH  13  14
ENDBRANCH  12  13
ENDBRANCH  11  12
ENDBRANCH  10  11
ENDBRANCH   9  10
ENDBRANCH   8   9
ENDBRANCH   7   8
ENDBRANCH   6   7
ENDBRANCH   5   6
ENDBRANCH   4   5
ENDBRANCH   3   4
ENDBRANCH   2   3
ENDBRANCH   1   2
BRANCH   1  17
ATOM     17  C   UNL     1     -13.158  -2.606  35.058  1.00  0.00     0.000 C 
BRANCH  17  18
ATOM     18  C   UNL     1     -12.620  -3.179  36.382  1.00  0.00     0.000 C 
BRANCH  18  19
ATOM     19  C   UNL     1     -12.569  -4.715  36.392  1.00  0.00     0.000 C 
BRANCH  19  20
ATOM     20  C   UNL     1     -13.582  -5.325  37.379  1.00  0.00     0.000 C 
BRANCH  20  21
ATOM     21  C   UNL     1     -14.795  -5.979  36.682  1.00  0.00     0.000 C 
BRANCH  21  22
ATOM     22  C   UNL     1     -16.002  -5.030  36.546  1.00  0.00    -0.000 C 
BRANCH  22  23
ATOM     23  C   UNL     1     -16.079  -4.015  37.700  1.00  0.00    -0.000 C 
BRANCH  23  24
ATOM     24  C   UNL     1     -16.379  -2.585  37.213  1.00  0.00    -0.000 C 
BRANCH  24  25
ATOM     25  C   UNL     1     -16.794  -2.509  35.728  1.00  0.00    -0.000 C 
BRANCH  25  26
ATOM     26  C   UNL     1     -16.986  -1.071  35.208  1.00  0.00    -0.000 C 
BRANCH  26  27
ATOM     27  C   UNL     1     -17.913  -0.240  36.110  1.00  0.00    -0.000 C 
BRANCH  27  28
ATOM     28  C   UNL     1     -17.515   1.244  36.157  1.00  0.00    -0.000 C 
BRANCH  28  29
ATOM     29  C   UNL     1     -18.260   2.026  37.249  1.00  0.00    -0.003 C 
ATOM     30  C   UNL     1     -17.352   2.298  38.447  1.00  0.00     0.004 C 
ENDBRANCH  28  29
ENDBRANCH  27  28
ENDBRANCH  26  27
ENDBRANCH  25  26
ENDBRANCH  24  25
ENDBRANCH  23  24
ENDBRANCH  22  23
ENDBRANCH  21  22
ENDBRANCH  20  21
ENDBRANCH  19  20
ENDBRANCH  18  19
ENDBRANCH  17  18
ENDBRANCH   1  17
TORSDOF 26
ENDMDL
MODEL 3
REMARK VINA RESULT:    -4.343     13.978     16.832
REMARK INTER + INTRA:         -15.806
REMARK INTER:                 -10.451
REMARK INTRA:                  -5.355
REMARK UNBOUND:                -4.862
REMARK SMILES CCCCCCCCCCCCCCCCCCCCCCCCCCCC(=O)[O-]
REMARK SMILES IDX 15 1 16 2 17 3 18 4 19 5 20 6 21 7 22 8 23 9 24 10 25 11
REMARK SMILES IDX 26 12 27 13 28 14 29 15 30 16 14 17 13 18 12 19 11 20 10 21
REMARK SMILES IDX 9 22 8 23 7 24 6 25 5 26 4 27 3 28 2 29 1 30
REMARK H PARENT
REMARK Flexibility Score: inf
ROOT
ATOM      1  C   UNL     1     -27.220  -2.366  26.001  1.00  0.00     0.000 C 
ENDROOT
BRANCH   1   2
ATOM      2  C   UNL     1     -27.637  -0.982  26.530  1.00  0.00     0.000 C 
BRANCH   2   3
ATOM      3  C   UNL     1     -27.830   0.052  25.404  1.00  0.00     0.000 C 
BRANCH   3   4
ATOM      4  C   UNL     1     -29.295   0.354  25.026  1.00  0.00     0.000 C 
BRANCH   4   5
ATOM      5  C   UNL     1     -29.627   0.231  23.524  1.00  0.00     0.000 C 
BRANCH   5   6
ATOM      6  C   UNL     1     -30.201  -1.133  23.098  1.00  0.00     0.000 C 
BRANCH   6   7
ATOM      7  C   UNL     1     -29.105  -2.128  22.679  1.00  0.00     0.000 C 
BRANCH   7   8
ATOM      8  C   UNL     1     -27.909  -1.449  21.986  1.00  0.00     0.000 C 
BRANCH   8   9
ATOM      9  C   UNL     1     -26.522  -1.848  22.522  1.00  0.00     0.000 C 
BRANCH   9  10
ATOM     10  C   UNL     1     -25.523  -0.679  22.549  1.00  0.00     0.000 C 
BRANCH  10  11
ATOM     11  C   UNL     1     -24.609  -0.766  23.781  1.00  0.00     0.000 C 
BRANCH  11  12
ATOM     12  C   UNL     1     -23.885   0.557  24.077  1.00  0.00     0.006 C 
BRANCH  12  13
ATOM     13  C   UNL     1     -22.471   0.607  23.483  1.00  0.00     0.053 C 
BRANCH  13  14
ATOM     14  C   UNL     1     -22.370   1.672  22.437  1.00  0.00     0.041 C 
ATOM     15  O   UNL     1     -21.273   1.889  21.858  1.00  0.00    -0.550 OA
ATOM     16  O   UNL     1     -23.489   2.419  22.093  1.00  0.00    -0.550 OA
ENDBRANCH  13  14
ENDBRANCH  12  13
ENDBRANCH  11  12
ENDBRANCH  10  11
ENDBRANCH   9  10
ENDBRANCH   8   9
ENDBRANCH   7   8
ENDBRANCH   6   7
ENDBRANCH   5   6
ENDBRANCH   4   5
ENDBRANCH   3   4
ENDBRANCH   2   3
ENDBRANCH   1   2
BRANCH   1  17
ATOM     17  C   UNL     1     -28.415  -3.310  25.779  1.00  0.00     0.000 C 
BRANCH  17  18
ATOM     18  C   UNL     1     -29.471  -3.301  26.899  1.00  0.00     0.000 C 
BRANCH  18  19
ATOM     19  C   UNL     1     -30.814  -2.704  26.449  1.00  0.00     0.000 C 
BRANCH  19  20
ATOM     20  C   UNL     1     -31.765  -3.772  25.877  1.00  0.00     0.000 C 
BRANCH  20  21
ATOM     21  C   UNL     1     -31.405  -5.207  26.318  1.00  0.00     0.000 C 
BRANCH  21  22
ATOM     22  C   UNL     1     -31.100  -6.148  25.135  1.00  0.00    -0.000 C 
BRANCH  22  23
ATOM     23  C   UNL     1     -31.066  -5.401  23.790  1.00  0.00    -0.000 C 
BRANCH  23  24
ATOM     24  C   UNL     1     -29.880  -5.829  22.905  1.00  0.00    -0.000 C 
BRANCH  24  25
ATOM     25  C   UNL     1     -28.607  -6.187  23.701  1.00  0.00    -0.000 C 
BRANCH  25  26
ATOM     26  C   UNL     1     -27.315  -5.596  23.107  1.00  0.00    -0.000 C 
BRANCH  26  27
ATOM     27  C   UNL     1     -26.122  -6.558  23.226  1.00  0.00    -0.000 C 
BRANCH  27  28
ATOM     28  C   UNL     1     -25.383  -6.419  24.567  1.00  0.00    -0.000 C 
BRANCH  28  29
ATOM     29  C   UNL     1     -25.038  -4.960  24.908  1.00  0.00    -0.003 C 
ATOM     30  C   UNL     1     -23.906  -4.442  24.025  1.00  0.00     0.004 C 
ENDBRANCH  28  29
ENDBRANCH  27  28
ENDBRANCH  26  27
ENDBRANCH  25  26
ENDBRANCH  24  25
ENDBRANCH  23  24
ENDBRANCH  22  23
ENDBRANCH  21  22
ENDBRANCH  20  21
ENDBRANCH  19  20
ENDBRANCH  18  19
ENDBRANCH  17  18
ENDBRANCH   1  17
TORSDOF 26
ENDMDL
MODEL 4
REMARK VINA RESULT:    -4.321      2.580      5.987
REMARK INTER + INTRA:         -15.751
REMARK INTER:                 -10.010
REMARK INTRA:                  -5.741
REMARK UNBOUND:                -4.862
REMARK SMILES CCCCCCCCCCCCCCCCCCCCCCCCCCCC(=O)[O-]
REMARK SMILES IDX 15 1 16 2 17 3 18 4 19 5 20 6 21 7 22 8 23 9 24 10 25 11
REMARK SMILES IDX 26 12 27 13 28 14 29 15 30 16 14 17 13 18 12 19 11 20 10 21
REMARK SMILES IDX 9 22 8 23 7 24 6 25 5 26 4 27 3 28 2 29 1 30
REMARK H PARENT
REMARK Flexibility Score: inf
ROOT
ATOM      1  C   UNL     1     -13.756  -2.548  33.383  1.00  0.00     0.000 C 
ENDROOT
BRANCH   1   2
ATOM      2  C   UNL     1     -13.538  -3.118  34.796  1.00  0.00     0.000 C 
BRANCH   2   3
ATOM      3  C   UNL     1     -14.716  -2.825  35.744  1.00  0.00     0.000 C 
BRANCH   3   4
ATOM      4  C   UNL     1     -15.709  -3.988  35.947  1.00  0.00     0.000 C 
BRANCH   4   5
ATOM      5  C   UNL     1     -15.407  -5.263  35.132  1.00  0.00     0.000 C 
BRANCH   5   6
ATOM      6  C   UNL     1     -15.844  -6.578  35.802  1.00  0.00     0.000 C 
BRANCH   6   7
ATOM      7  C   UNL     1     -14.717  -7.625  35.835  1.00  0.00     0.000 C 
BRANCH   7   8
ATOM      8  C   UNL     1     -13.311  -6.996  35.802  1.00  0.00     0.000 C 
BRANCH   8   9
ATOM      9  C   UNL     1     -12.675  -6.730  37.179  1.00  0.00     0.000 C 
BRANCH   9  10
ATOM     10  C   UNL     1     -12.527  -5.234  37.500  1.00  0.00     0.000 C 
BRANCH  10  11
ATOM     11  C   UNL     1     -13.336  -4.857  38.750  1.00  0.00     0.000 C 
BRANCH  11  12
ATOM     12  C   UNL     1     -14.350  -5.941  39.150  1.00  0.00     0.006 C 
BRANCH  12  13
ATOM     13  C   UNL     1     -15.699  -5.359  39.594  1.00  0.00     0.053 C 
BRANCH  13  14
ATOM     14  C   UNL     1     -16.798  -6.355  39.400  1.00  0.00     0.041 C 
ATOM     15  O   UNL     1     -16.759  -7.465  39.994  1.00  0.00    -0.550 OA
ATOM     16  O   UNL     1     -17.872  -6.056  38.572  1.00  0.00    -0.550 OA
ENDBRANCH  13  14
ENDBRANCH  12  13
ENDBRANCH  11  12
ENDBRANCH  10  11
ENDBRANCH   9  10
ENDBRANCH   8   9
ENDBRANCH   7   8
ENDBRANCH   6   7
ENDBRANCH   5   6
ENDBRANCH   4   5
ENDBRANCH   3   4
ENDBRANCH   2   3
ENDBRANCH   1   2
BRANCH   1  17
ATOM     17  C   UNL     1     -13.356  -3.530  32.268  1.00  0.00     0.000 C 
BRANCH  17  18
ATOM     18  C   UNL     1     -12.761  -4.864  32.757  1.00  0.00     0.000 C 
BRANCH  18  19
ATOM     19  C   UNL     1     -13.031  -6.028  31.791  1.00  0.00     0.000 C 
BRANCH  19  20
ATOM     20  C   UNL     1     -14.322  -6.791  32.144  1.00  0.00     0.000 C 
BRANCH  20  21
ATOM     21  C   UNL     1     -15.448  -6.598  31.106  1.00  0.00     0.000 C 
BRANCH  21  22
ATOM     22  C   UNL     1     -16.698  -5.908  31.687  1.00  0.00    -0.000 C 
BRANCH  22  23
ATOM     23  C   UNL     1     -16.550  -4.376  31.734  1.00  0.00    -0.000 C 
BRANCH  23  24
ATOM     24  C   UNL     1     -17.562  -3.713  32.687  1.00  0.00    -0.000 C 
BRANCH  24  25
ATOM     25  C   UNL     1     -17.356  -2.191  32.850  1.00  0.00    -0.000 C 
BRANCH  25  26
ATOM     26  C   UNL     1     -18.234  -1.559  33.947  1.00  0.00    -0.000 C 
BRANCH  26  27
ATOM     27  C   UNL     1     -17.409  -0.767  34.975  1.00  0.00    -0.000 C 
BRANCH  27  28
ATOM     28  C   UNL     1     -18.284   0.112  35.882  1.00  0.00    -0.000 C 
BRANCH  28  29
ATOM     29  C   UNL     1     -17.882   0.025  37.363  1.00  0.00    -0.003 C 
ATOM     30  C   UNL     1     -17.518  -1.406  37.749  1.00  0.00     0.004 C 
ENDBRANCH  28  29
ENDBRANCH  27  28
ENDBRANCH  26  27
ENDBRANCH  25  26
ENDBRANCH  24  25
ENDBRANCH  23  24
ENDBRANCH  22  23
ENDBRANCH  21  22
ENDBRANCH  20  21
ENDBRANCH  19  20
ENDBRANCH  18  19
ENDBRANCH  17  18
ENDBRANCH   1  17
TORSDOF 26
ENDMDL
MODEL 5
REMARK VINA RESULT:    -4.301      1.682      4.727
REMARK INTER + INTRA:         -15.699
REMARK INTER:                 -11.512
REMARK INTRA:                  -4.187
REMARK UNBOUND:                -4.862
REMARK SMILES CCCCCCCCCCCCCCCCCCCCCCCCCCCC(=O)[O-]
REMARK SMILES IDX 15 1 16 2 17 3 18 4 19 5 20 6 21 7 22 8 23 9 24 10 25 11
REMARK SMILES IDX 26 12 27 13 28 14 29 15 30 16 14 17 13 18 12 19 11 20 10 21
REMARK SMILES IDX 9 22 8 23 7 24 6 25 5 26 4 27 3 28 2 29 1 30
REMARK H PARENT
REMARK Flexibility Score: inf
ROOT
ATOM      1  C   UNL     1     -18.747  -8.311  31.603  1.00  0.00     0.000 C 
ENDROOT
BRANCH   1   2
ATOM      2  C   UNL     1     -18.533  -9.617  32.389  1.00  0.00     0.000 C 
BRANCH   2   3
ATOM      3  C   UNL     1     -18.243  -9.373  33.882  1.00  0.00     0.000 C 
BRANCH   3   4
ATOM      4  C   UNL     1     -16.754  -9.200  34.247  1.00  0.00     0.000 C 
BRANCH   4   5
ATOM      5  C   UNL     1     -16.475  -8.306  35.474  1.00  0.00     0.000 C 
BRANCH   5   6
ATOM      6  C   UNL     1     -15.726  -6.997  35.163  1.00  0.00     0.000 C 
BRANCH   6   7
ATOM      7  C   UNL     1     -15.445  -6.166  36.427  1.00  0.00     0.000 C 
BRANCH   7   8
ATOM      8  C   UNL     1     -16.272  -4.869  36.490  1.00  0.00     0.000 C 
BRANCH   8   9
ATOM      9  C   UNL     1     -15.880  -3.891  37.613  1.00  0.00     0.000 C 
BRANCH   9  10
ATOM     10  C   UNL     1     -16.439  -2.474  37.406  1.00  0.00     0.000 C 
BRANCH  10  11
ATOM     11  C   UNL     1     -16.622  -2.168  35.911  1.00  0.00     0.000 C 
BRANCH  11  12
ATOM     12  C   UNL     1     -17.198  -0.766  35.658  1.00  0.00     0.006 C 
BRANCH  12  13
ATOM     13  C   UNL     1     -17.976  -0.216  36.861  1.00  0.00     0.053 C 
BRANCH  13  14
ATOM     14  C   UNL     1     -17.983   1.280  36.852  1.00  0.00     0.041 C 
ATOM     15  O   UNL     1     -17.644   1.909  35.814  1.00  0.00    -0.550 OA
ATOM     16  O   UNL     1     -18.372   1.983  37.985  1.00  0.00    -0.550 OA
ENDBRANCH  13  14
ENDBRANCH  12  13
ENDBRANCH  11  12
ENDBRANCH  10  11
ENDBRANCH   9  10
ENDBRANCH   8   9
ENDBRANCH   7   8
ENDBRANCH   6   7
ENDBRANCH   5   6
ENDBRANCH   4   5
ENDBRANCH   3   4
ENDBRANCH   2   3
ENDBRANCH   1   2
BRANCH   1  17
ATOM     17  C   UNL     1     -17.482  -7.838  30.866  1.00  0.00     0.000 C 
BRANCH  17  18
ATOM     18  C   UNL     1     -16.672  -6.748  31.593  1.00  0.00     0.000 C 
BRANCH  18  19
ATOM     19  C   UNL     1     -15.211  -6.673  31.120  1.00  0.00     0.000 C 
BRANCH  19  20
ATOM     20  C   UNL     1     -14.315  -7.705  31.831  1.00  0.00     0.000 C 
BRANCH  20  21
ATOM     21  C   UNL     1     -13.058  -7.081  32.474  1.00  0.00     0.000 C 
BRANCH  21  22
ATOM     22  C   UNL     1     -12.999  -5.548  32.332  1.00  0.00    -0.000 C 
BRANCH  22  23
ATOM     23  C   UNL     1     -13.303  -4.827  33.658  1.00  0.00    -0.000 C 
BRANCH  23  24
ATOM     24  C   UNL     1     -14.046  -3.494  33.450  1.00  0.00    -0.000 C 
BRANCH  24  25
ATOM     25  C   UNL     1     -14.055  -3.008  31.985  1.00  0.00    -0.000 C 
BRANCH  25  26
ATOM     26  C   UNL     1     -15.451  -3.023  31.333  1.00  0.00    -0.000 C 
BRANCH  26  27
ATOM     27  C   UNL     1     -16.570  -3.307  32.349  1.00  0.00    -0.000 C 
BRANCH  27  28
ATOM     28  C   UNL     1     -17.627  -2.193  32.388  1.00  0.00    -0.000 C 
BRANCH  28  29
ATOM     29  C   UNL     1     -18.295  -1.957  31.024  1.00  0.00    -0.003 C 
ATOM     30  C   UNL     1     -19.817  -2.002  31.143  1.00  0.00     0.004 C 
ENDBRANCH  28  29
ENDBRANCH  27  28
ENDBRANCH  26  27
ENDBRANCH  25  26
ENDBRANCH  24  25
ENDBRANCH  23  24
ENDBRANCH  22  23
ENDBRANCH  21  22
ENDBRANCH  20  21
ENDBRANCH  19  20
ENDBRANCH  18  19
ENDBRANCH  17  18
ENDBRANCH   1  17
TORSDOF 26
ENDMDL
MODEL 6
REMARK VINA RESULT:    -4.237     13.161     16.061
REMARK INTER + INTRA:         -15.538
REMARK INTER:                 -10.494
REMARK INTRA:                  -5.044
REMARK UNBOUND:                -4.862
REMARK SMILES CCCCCCCCCCCCCCCCCCCCCCCCCCCC(=O)[O-]
REMARK SMILES IDX 15 1 16 2 17 3 18 4 19 5 20 6 21 7 22 8 23 9 24 10 25 11
REMARK SMILES IDX 26 12 27 13 28 14 29 15 30 16 14 17 13 18 12 19 11 20 10 21
REMARK SMILES IDX 9 22 8 23 7 24 6 25 5 26 4 27 3 28 2 29 1 30
REMARK H PARENT
REMARK Flexibility Score: inf
ROOT
ATOM      1  C   UNL     1     -24.625  -5.152  24.381  1.00  0.00     0.000 C 
ENDROOT
BRANCH   1   2
ATOM      2  C   UNL     1     -25.485  -4.037  25.003  1.00  0.00     0.000 C 
BRANCH   2   3
ATOM      3  C   UNL     1     -26.992  -4.244  24.764  1.00  0.00     0.000 C 
BRANCH   3   4
ATOM      4  C   UNL     1     -27.403  -4.484  23.296  1.00  0.00     0.000 C 
BRANCH   4   5
ATOM      5  C   UNL     1     -28.740  -3.839  22.872  1.00  0.00     0.000 C 
BRANCH   5   6
ATOM      6  C   UNL     1     -28.603  -2.617  21.946  1.00  0.00     0.000 C 
BRANCH   6   7
ATOM      7  C   UNL     1     -28.786  -1.287  22.696  1.00  0.00     0.000 C 
BRANCH   7   8
ATOM      8  C   UNL     1     -27.452  -0.658  23.141  1.00  0.00     0.000 C 
BRANCH   8   9
ATOM      9  C   UNL     1     -26.277  -0.844  22.164  1.00  0.00     0.000 C 
BRANCH   9  10
ATOM     10  C   UNL     1     -24.954  -1.191  22.866  1.00  0.00     0.000 C 
BRANCH  10  11
ATOM     11  C   UNL     1     -24.920  -0.617  24.290  1.00  0.00     0.000 C 
BRANCH  11  12
ATOM     12  C   UNL     1     -23.547  -0.036  24.664  1.00  0.00     0.006 C 
BRANCH  12  13
ATOM     13  C   UNL     1     -23.330   1.380  24.114  1.00  0.00     0.053 C 
BRANCH  13  14
ATOM     14  C   UNL     1     -22.437   1.353  22.914  1.00  0.00     0.041 C 
ATOM     15  O   UNL     1     -21.407   0.627  22.906  1.00  0.00    -0.550 OA
ATOM     16  O   UNL     1     -22.744   2.120  21.798  1.00  0.00    -0.550 OA
ENDBRANCH  13  14
ENDBRANCH  12  13
ENDBRANCH  11  12
ENDBRANCH  10  11
ENDBRANCH   9  10
ENDBRANCH   8   9
ENDBRANCH   7   8
ENDBRANCH   6   7
ENDBRANCH   5   6
ENDBRANCH   4   5
ENDBRANCH   3   4
ENDBRANCH   2   3
ENDBRANCH   1   2
BRANCH   1  17
ATOM     17  C   UNL     1     -24.102  -6.160  25.419  1.00  0.00     0.000 C 
BRANCH  17  18
ATOM     18  C   UNL     1     -24.763  -7.550  25.369  1.00  0.00     0.000 C 
BRANCH  18  19
ATOM     19  C   UNL     1     -25.707  -7.720  24.167  1.00  0.00     0.000 C 
BRANCH  19  20
ATOM     20  C   UNL     1     -26.922  -8.605  24.501  1.00  0.00     0.000 C 
BRANCH  20  21
ATOM     21  C   UNL     1     -27.810  -8.024  25.622  1.00  0.00     0.000 C 
BRANCH  21  22
ATOM     22  C   UNL     1     -29.053  -7.283  25.091  1.00  0.00    -0.000 C 
BRANCH  22  23
ATOM     23  C   UNL     1     -29.719  -6.413  26.172  1.00  0.00    -0.000 C 
BRANCH  23  24
ATOM     24  C   UNL     1     -30.904  -5.595  25.627  1.00  0.00    -0.000 C 
BRANCH  24  25
ATOM     25  C   UNL     1     -31.571  -4.686  26.682  1.00  0.00    -0.000 C 
BRANCH  25  26
ATOM     26  C   UNL     1     -31.708  -3.216  26.240  1.00  0.00    -0.000 C 
BRANCH  26  27
ATOM     27  C   UNL     1     -30.379  -2.627  25.743  1.00  0.00    -0.000 C 
BRANCH  27  28
ATOM     28  C   UNL     1     -29.389  -2.356  26.887  1.00  0.00    -0.000 C 
BRANCH  28  29
ATOM     29  C   UNL     1     -28.332  -1.301  26.523  1.00  0.00    -0.003 C 
ATOM     30  C   UNL     1     -27.007  -1.587  27.226  1.00  0.00     0.004 C 
ENDBRANCH  28  29
ENDBRANCH  27  28
ENDBRANCH  26  27
ENDBRANCH  25  26
ENDBRANCH  24  25
ENDBRANCH  23  24
ENDBRANCH  22  23
ENDBRANCH  21  22
ENDBRANCH  20  21
ENDBRANCH  19  20
ENDBRANCH  18  19
ENDBRANCH  17  18
ENDBRANCH   1  17
TORSDOF 26
ENDMDL
MODEL 7
REMARK VINA RESULT:    -4.231     13.886     17.466
REMARK INTER + INTRA:         -15.524
REMARK INTER:                  -9.618
REMARK INTRA:                  -5.906
REMARK UNBOUND:                -4.862
REMARK SMILES CCCCCCCCCCCCCCCCCCCCCCCCCCCC(=O)[O-]
REMARK SMILES IDX 15 1 16 2 17 3 18 4 19 5 20 6 21 7 22 8 23 9 24 10 25 11
REMARK SMILES IDX 26 12 27 13 28 14 29 15 30 16 14 17 13 18 12 19 11 20 10 21
REMARK SMILES IDX 9 22 8 23 7 24 6 25 5 26 4 27 3 28 2 29 1 30
REMARK H PARENT
REMARK Flexibility Score: inf
ROOT
ATOM      1  C   UNL     1     -27.954  -0.611  26.249  1.00  0.00     0.000 C 
ENDROOT
BRANCH   1   2
ATOM      2  C   UNL     1     -28.586  -1.993  26.007  1.00  0.00     0.000 C 
BRANCH   2   3
ATOM      3  C   UNL     1     -29.864  -2.217  26.838  1.00  0.00     0.000 C 
BRANCH   3   4
ATOM      4  C   UNL     1     -31.191  -2.046  26.071  1.00  0.00     0.000 C 
BRANCH   4   5
ATOM      5  C   UNL     1     -32.112  -3.285  26.060  1.00  0.00     0.000 C 
BRANCH   5   6
ATOM      6  C   UNL     1     -31.935  -4.212  24.844  1.00  0.00     0.000 C 
BRANCH   6   7
ATOM      7  C   UNL     1     -31.622  -5.662  25.251  1.00  0.00     0.000 C 
BRANCH   7   8
ATOM      8  C   UNL     1     -30.359  -5.784  26.123  1.00  0.00     0.000 C 
BRANCH   8   9
ATOM      9  C   UNL     1     -29.096  -6.274  25.391  1.00  0.00     0.000 C 
BRANCH   9  10
ATOM     10  C   UNL     1     -28.571  -5.272  24.351  1.00  0.00     0.000 C 
BRANCH  10  11
ATOM     11  C   UNL     1     -27.112  -4.890  24.644  1.00  0.00     0.000 C 
BRANCH  11  12
ATOM     12  C   UNL     1     -26.134  -5.425  23.586  1.00  0.00     0.006 C 
BRANCH  12  13
ATOM     13  C   UNL     1     -24.666  -5.301  24.015  1.00  0.00     0.053 C 
BRANCH  13  14
ATOM     14  C   UNL     1     -24.381  -6.173  25.197  1.00  0.00     0.041 C 
ATOM     15  O   UNL     1     -24.600  -7.413  25.137  1.00  0.00    -0.550 OA
ATOM     16  O   UNL     1     -23.865  -5.622  26.362  1.00  0.00    -0.550 OA
ENDBRANCH  13  14
ENDBRANCH  12  13
ENDBRANCH  11  12
ENDBRANCH  10  11
ENDBRANCH   9  10
ENDBRANCH   8   9
ENDBRANCH   7   8
ENDBRANCH   6   7
ENDBRANCH   5   6
ENDBRANCH   4   5
ENDBRANCH   3   4
ENDBRANCH   2   3
ENDBRANCH   1   2
BRANCH   1  17
ATOM     17  C   UNL     1     -28.020   0.306  25.016  1.00  0.00     0.000 C 
BRANCH  17  18
ATOM     18  C   UNL     1     -29.213   1.280  24.990  1.00  0.00     0.000 C 
BRANCH  18  19
ATOM     19  C   UNL     1     -29.853   1.404  23.598  1.00  0.00     0.000 C 
BRANCH  19  20
ATOM     20  C   UNL     1     -30.880   0.289  23.328  1.00  0.00     0.000 C 
BRANCH  20  21
ATOM     21  C   UNL     1     -30.516  -0.596  22.117  1.00  0.00     0.000 C 
BRANCH  21  22
ATOM     22  C   UNL     1     -30.085  -2.022  22.513  1.00  0.00    -0.000 C 
BRANCH  22  23
ATOM     23  C   UNL     1     -28.566  -2.232  22.370  1.00  0.00    -0.000 C 
BRANCH  23  24
ATOM     24  C   UNL     1     -27.893  -1.131  21.531  1.00  0.00    -0.000 C 
BRANCH  24  25
ATOM     25  C   UNL     1     -26.400  -0.920  21.864  1.00  0.00    -0.000 C 
BRANCH  25  26
ATOM     26  C   UNL     1     -25.915  -1.724  23.085  1.00  0.00    -0.000 C 
BRANCH  26  27
ATOM     27  C   UNL     1     -24.533  -1.265  23.578  1.00  0.00    -0.000 C 
BRANCH  27  28
ATOM     28  C   UNL     1     -24.495  -1.036  25.097  1.00  0.00    -0.000 C 
BRANCH  28  29
ATOM     29  C   UNL     1     -24.690  -2.332  25.900  1.00  0.00    -0.003 C 
ATOM     30  C   UNL     1     -24.700  -2.052  27.401  1.00  0.00     0.004 C 
ENDBRANCH  28  29
ENDBRANCH  27  28
ENDBRANCH  26  27
ENDBRANCH  25  26
ENDBRANCH  24  25
ENDBRANCH  23  24
ENDBRANCH  22  23
ENDBRANCH  21  22
ENDBRANCH  20  21
ENDBRANCH  19  20
ENDBRANCH  18  19
ENDBRANCH  17  18
ENDBRANCH   1  17
TORSDOF 26
ENDMDL
MODEL 8
REMARK VINA RESULT:    -4.212      2.379      6.639
REMARK INTER + INTRA:         -15.475
REMARK INTER:                 -10.534
REMARK INTRA:                  -4.941
REMARK UNBOUND:                -4.862
REMARK SMILES CCCCCCCCCCCCCCCCCCCCCCCCCCCC(=O)[O-]
REMARK SMILES IDX 15 1 16 2 17 3 18 4 19 5 20 6 21 7 22 8 23 9 24 10 25 11
REMARK SMILES IDX 26 12 27 13 28 14 29 15 30 16 14 17 13 18 12 19 11 20 10 21
REMARK SMILES IDX 9 22 8 23 7 24 6 25 5 26 4 27 3 28 2 29 1 30
REMARK H PARENT
REMARK Flexibility Score: inf
ROOT
ATOM      1  C   UNL     1     -15.752  -6.387  35.929  1.00  0.00     0.000 C 
ENDROOT
BRANCH   1   2
ATOM      2  C   UNL     1     -16.154  -7.872  35.881  1.00  0.00     0.000 C 
BRANCH   2   3
ATOM      3  C   UNL     1     -15.080  -8.758  35.223  1.00  0.00     0.000 C 
BRANCH   3   4
ATOM      4  C   UNL     1     -13.678  -8.686  35.864  1.00  0.00     0.000 C 
BRANCH   4   5
ATOM      5  C   UNL     1     -12.665  -7.780  35.134  1.00  0.00     0.000 C 
BRANCH   5   6
ATOM      6  C   UNL     1     -12.676  -7.902  33.599  1.00  0.00     0.000 C 
BRANCH   6   7
ATOM      7  C   UNL     1     -13.065  -6.584  32.907  1.00  0.00     0.000 C 
BRANCH   7   8
ATOM      8  C   UNL     1     -13.892  -6.799  31.625  1.00  0.00     0.000 C 
BRANCH   8   9
ATOM      9  C   UNL     1     -15.227  -7.541  31.818  1.00  0.00     0.000 C 
BRANCH   9  10
ATOM     10  C   UNL     1     -16.436  -6.767  31.269  1.00  0.00     0.000 C 
BRANCH  10  11
ATOM     11  C   UNL     1     -17.342  -6.282  32.410  1.00  0.00     0.000 C 
BRANCH  11  12
ATOM     12  C   UNL     1     -16.949  -4.890  32.930  1.00  0.00     0.006 C 
BRANCH  12  13
ATOM     13  C   UNL     1     -17.565  -3.751  32.107  1.00  0.00     0.053 C 
BRANCH  13  14
ATOM     14  C   UNL     1     -16.527  -2.738  31.740  1.00  0.00     0.041 C 
ATOM     15  O   UNL     1     -15.515  -3.080  31.072  1.00  0.00    -0.550 OA
ATOM     16  O   UNL     1     -16.678  -1.412  32.126  1.00  0.00    -0.550 OA
ENDBRANCH  13  14
ENDBRANCH  12  13
ENDBRANCH  11  12
ENDBRANCH  10  11
ENDBRANCH   9  10
ENDBRANCH   8   9
ENDBRANCH   7   8
ENDBRANCH   6   7
ENDBRANCH   5   6
ENDBRANCH   4   5
ENDBRANCH   3   4
ENDBRANCH   2   3
ENDBRANCH   1   2
BRANCH   1  17
ATOM     17  C   UNL     1     -15.842  -5.784  37.342  1.00  0.00     0.000 C 
BRANCH  17  18
ATOM     18  C   UNL     1     -14.614  -6.033  38.237  1.00  0.00     0.000 C 
BRANCH  18  19
ATOM     19  C   UNL     1     -13.715  -4.794  38.376  1.00  0.00     0.000 C 
BRANCH  19  20
ATOM     20  C   UNL     1     -12.529  -4.822  37.394  1.00  0.00     0.000 C 
BRANCH  20  21
ATOM     21  C   UNL     1     -12.524  -3.633  36.410  1.00  0.00     0.000 C 
BRANCH  21  22
ATOM     22  C   UNL     1     -13.168  -3.967  35.050  1.00  0.00    -0.000 C 
BRANCH  22  23
ATOM     23  C   UNL     1     -14.336  -3.023  34.710  1.00  0.00    -0.000 C 
BRANCH  23  24
ATOM     24  C   UNL     1     -14.941  -2.356  35.960  1.00  0.00    -0.000 C 
BRANCH  24  25
ATOM     25  C   UNL     1     -16.476  -2.208  35.904  1.00  0.00    -0.000 C 
BRANCH  25  26
ATOM     26  C   UNL     1     -17.125  -1.928  37.273  1.00  0.00    -0.000 C 
BRANCH  26  27
ATOM     27  C   UNL     1     -17.780  -0.539  37.338  1.00  0.00    -0.000 C 
BRANCH  27  28
ATOM     28  C   UNL     1     -17.592   0.263  36.041  1.00  0.00    -0.000 C 
BRANCH  28  29
ATOM     29  C   UNL     1     -17.893   1.760  36.216  1.00  0.00    -0.003 C 
ATOM     30  C   UNL     1     -17.913   2.146  37.694  1.00  0.00     0.004 C 
ENDBRANCH  28  29
ENDBRANCH  27  28
ENDBRANCH  26  27
ENDBRANCH  25  26
ENDBRANCH  24  25
ENDBRANCH  23  24
ENDBRANCH  22  23
ENDBRANCH  21  22
ENDBRANCH  20  21
ENDBRANCH  19  20
ENDBRANCH  18  19
ENDBRANCH  17  18
ENDBRANCH   1  17
TORSDOF 26
ENDMDL
MODEL 9
REMARK VINA RESULT:    -4.161      1.547      4.665
REMARK INTER + INTRA:         -15.349
REMARK INTER:                  -9.647
REMARK INTRA:                  -5.702
REMARK UNBOUND:                -4.862
REMARK SMILES CCCCCCCCCCCCCCCCCCCCCCCCCCCC(=O)[O-]
REMARK SMILES IDX 15 1 16 2 17 3 18 4 19 5 20 6 21 7 22 8 23 9 24 10 25 11
REMARK SMILES IDX 26 12 27 13 28 14 29 15 30 16 14 17 13 18 12 19 11 20 10 21
REMARK SMILES IDX 9 22 8 23 7 24 6 25 5 26 4 27 3 28 2 29 1 30
REMARK H PARENT
REMARK Flexibility Score: inf
ROOT
ATOM      1  C   UNL     1     -13.153  -3.799  34.430  1.00  0.00     0.000 C 
ENDROOT
BRANCH   1   2
ATOM      2  C   UNL     1     -12.340  -4.483  35.544  1.00  0.00     0.000 C 
BRANCH   2   3
ATOM      3  C   UNL     1     -12.620  -3.887  36.937  1.00  0.00     0.000 C 
BRANCH   3   4
ATOM      4  C   UNL     1     -12.744  -4.912  38.083  1.00  0.00     0.000 C 
BRANCH   4   5
ATOM      5  C   UNL     1     -12.983  -6.371  37.640  1.00  0.00     0.000 C 
BRANCH   5   6
ATOM      6  C   UNL     1     -14.438  -6.858  37.777  1.00  0.00     0.000 C 
BRANCH   6   7
ATOM      7  C   UNL     1     -15.189  -6.848  36.434  1.00  0.00     0.000 C 
BRANCH   7   8
ATOM      8  C   UNL     1     -15.994  -5.555  36.205  1.00  0.00     0.000 C 
BRANCH   8   9
ATOM      9  C   UNL     1     -16.370  -4.778  37.480  1.00  0.00     0.000 C 
BRANCH   9  10
ATOM     10  C   UNL     1     -16.317  -3.252  37.298  1.00  0.00     0.000 C 
BRANCH  10  11
ATOM     11  C   UNL     1     -16.116  -2.882  35.821  1.00  0.00     0.000 C 
BRANCH  11  12
ATOM     12  C   UNL     1     -16.406  -1.399  35.535  1.00  0.00     0.006 C 
BRANCH  12  13
ATOM     13  C   UNL     1     -17.906  -1.077  35.534  1.00  0.00     0.053 C 
BRANCH  13  14
ATOM     14  C   UNL     1     -18.213   0.033  36.490  1.00  0.00     0.041 C 
ATOM     15  O   UNL     1     -19.109   0.875  36.216  1.00  0.00    -0.550 OA
ATOM     16  O   UNL     1     -17.518   0.133  37.688  1.00  0.00    -0.550 OA
ENDBRANCH  13  14
ENDBRANCH  12  13
ENDBRANCH  11  12
ENDBRANCH  10  11
ENDBRANCH   9  10
ENDBRANCH   8   9
ENDBRANCH   7   8
ENDBRANCH   6   7
ENDBRANCH   5   6
ENDBRANCH   4   5
ENDBRANCH   3   4
ENDBRANCH   2   3
ENDBRANCH   1   2
BRANCH   1  17
ATOM     17  C   UNL     1     -13.291  -4.666  33.166  1.00  0.00     0.000 C 
BRANCH  17  18
ATOM     18  C   UNL     1     -13.063  -6.174  33.382  1.00  0.00     0.000 C 
BRANCH  18  19
ATOM     19  C   UNL     1     -13.107  -6.978  32.072  1.00  0.00     0.000 C 
BRANCH  19  20
ATOM     20  C   UNL     1     -13.380  -8.474  32.316  1.00  0.00     0.000 C 
BRANCH  20  21
ATOM     21  C   UNL     1     -14.338  -8.735  33.498  1.00  0.00     0.000 C 
BRANCH  21  22
ATOM     22  C   UNL     1     -15.685  -9.348  33.066  1.00  0.00    -0.000 C 
BRANCH  22  23
ATOM     23  C   UNL     1     -16.777  -8.280  32.875  1.00  0.00    -0.000 C 
BRANCH  23  24
ATOM     24  C   UNL     1     -16.814  -7.721  31.440  1.00  0.00    -0.000 C 
BRANCH  24  25
ATOM     25  C   UNL     1     -16.526  -6.207  31.354  1.00  0.00    -0.000 C 
BRANCH  25  26
ATOM     26  C   UNL     1     -16.732  -5.458  32.684  1.00  0.00    -0.000 C 
BRANCH  26  27
ATOM     27  C   UNL     1     -17.550  -4.168  32.510  1.00  0.00    -0.000 C 
BRANCH  27  28
ATOM     28  C   UNL     1     -16.685  -2.977  32.067  1.00  0.00    -0.000 C 
BRANCH  28  29
ATOM     29  C   UNL     1     -17.519  -1.798  31.539  1.00  0.00    -0.003 C 
ATOM     30  C   UNL     1     -18.959  -1.877  32.040  1.00  0.00     0.004 C 
ENDBRANCH  28  29
ENDBRANCH  27  28
ENDBRANCH  26  27
ENDBRANCH  25  26
ENDBRANCH  24  25
ENDBRANCH  23  24
ENDBRANCH  22  23
ENDBRANCH  21  22
ENDBRANCH  20  21
ENDBRANCH  19  20
ENDBRANCH  18  19
ENDBRANCH  17  18
ENDBRANCH   1  17
TORSDOF 26
ENDMDL
