MODEL 1
REMARK VINA RESULT:    -3.420      0.000      0.000
REMARK INTER + INTRA:          -5.192
REMARK INTER:                  -5.220
REMARK INTRA:                   0.028
REMARK UNBOUND:                 0.028
REMARK SMILES CC1=CCC[C@H](C)C(=O)C[C@H](C(C)C)C(=O)C1
REMARK SMILES IDX 8 1 9 2 6 3 7 4 5 5 4 6 3 7 2 8 1 9 10 11 11 12 15 13 16 14
REMARK SMILES IDX 17 15 12 17 13 18 14 19
REMARK H PARENT
REMARK Flexibility Score: 70.00
ROOT
ATOM      1  C   UNL     1       7.171  20.706  15.249  1.00  0.00     0.136 C 
ATOM      2  O   UNL     1       6.384  21.598  14.967  1.00  0.00    -0.299 OA
ENDROOT
BRANCH   1   3
ATOM      3  C   UNL     1       8.650  20.938  14.987  1.00  0.00     0.053 C 
ATOM      4  C   UNL     1       9.474  20.950  16.282  1.00  0.00     0.016 C 
BRANCH   3   5
ATOM      5  C   UNL     1       9.204  20.010  13.878  1.00  0.00     0.015 C 
BRANCH   5   6
ATOM      6  C   UNL     1      10.274  18.997  14.329  1.00  0.00     0.028 C 
BRANCH   6   7
ATOM      7  C   UNL     1      10.073  17.670  13.646  1.00  0.00    -0.028 C 
ATOM      8  C   UNL     1       9.119  16.771  13.981  1.00  0.00    -0.070 CG0
ATOM      9  C   UNL     1       9.006  15.517  13.152  1.00  0.00     0.039 C 
ATOM     10  G   UNL     1       8.179  16.962  15.162  1.00  0.00     0.000 G0
ENDBRANCH   6   7
ENDBRANCH   5   6
ENDBRANCH   3   5
ENDBRANCH   1   3
BRANCH   1  11
ATOM     11  C   UNL     1       6.625  19.436  15.863  1.00  0.00     0.087 C 
BRANCH  11  12
ATOM     12  C   UNL     1       6.039  18.476  14.796  1.00  0.00     0.066 C 
BRANCH  12  13
ATOM     13  C   UNL     1       6.734  17.117  14.781  1.00  0.00     0.140 C 
ATOM     14  O   UNL     1       6.067  16.126  14.520  1.00  0.00    -0.299 OA
BRANCH  13  15
ATOM     15  C   UNL     1       8.182  16.931  15.172  1.00  0.00     0.106 CG0
ATOM     16  G   UNL     1       9.100  16.794  13.967  1.00  0.00     0.000 G0
ENDBRANCH  13  15
ENDBRANCH  12  13
BRANCH  12  17
ATOM     17  C   UNL     1       4.481  18.393  14.852  1.00  0.00    -0.006 C 
ATOM     18  C   UNL     1       3.777  18.444  13.486  1.00  0.00     0.008 C 
ATOM     19  C   UNL     1       3.891  19.453  15.795  1.00  0.00     0.008 C 
ENDBRANCH  12  17
ENDBRANCH  11  12
ENDBRANCH   1  11
TORSDOF 1
ENDMDL
MODEL 2
REMARK VINA RESULT:    -3.201      1.984      4.597
REMARK INTER + INTRA:          -4.857
REMARK INTER:                  -4.384
REMARK INTRA:                  -0.473
REMARK UNBOUND:                 0.028
REMARK SMILES CC1=CCC[C@H](C)C(=O)C[C@H](C(C)C)C(=O)C1
REMARK SMILES IDX 8 1 9 2 6 3 7 4 5 5 4 6 3 7 2 8 1 9 10 11 11 12 15 13 16 14
REMARK SMILES IDX 17 15 12 17 13 18 14 19
REMARK H PARENT
REMARK Flexibility Score: 70.00
ROOT
ATOM      1  C   UNL     1       8.673  17.016  14.496  1.00  0.00     0.136 C 
ATOM      2  O   UNL     1       9.579  16.287  14.875  1.00  0.00    -0.299 OA
ENDROOT
BRANCH   1   3
ATOM      3  C   UNL     1       8.238  16.931  13.043  1.00  0.00     0.053 C 
ATOM      4  C   UNL     1       9.423  17.054  12.074  1.00  0.00     0.016 C 
BRANCH   3   5
ATOM      5  C   UNL     1       7.311  15.720  12.776  1.00  0.00     0.015 C 
BRANCH   5   6
ATOM      6  C   UNL     1       6.076  15.611  13.693  1.00  0.00     0.028 C 
BRANCH   6   7
ATOM      7  C   UNL     1       4.947  16.460  13.170  1.00  0.00    -0.028 C 
ATOM      8  C   UNL     1       4.422  17.523  13.822  1.00  0.00    -0.070 CG0
ATOM      9  C   UNL     1       3.340  18.312  13.130  1.00  0.00     0.039 C 
ATOM     10  G   UNL     1       4.860  17.939  15.219  1.00  0.00     0.000 G0
ENDBRANCH   6   7
ENDBRANCH   5   6
ENDBRANCH   3   5
ENDBRANCH   1   3
BRANCH   1  11
ATOM     11  C   UNL     1       8.027  17.940  15.505  1.00  0.00     0.087 C 
BRANCH  11  12
ATOM     12  C   UNL     1       7.257  19.101  14.825  1.00  0.00     0.066 C 
BRANCH  12  13
ATOM     13  C   UNL     1       5.788  19.153  15.234  1.00  0.00     0.140 C 
ATOM     14  O   UNL     1       5.340  20.210  15.657  1.00  0.00    -0.299 OA
BRANCH  13  15
ATOM     15  C   UNL     1       4.892  17.936  15.236  1.00  0.00     0.106 CG0
ATOM     16  G   UNL     1       4.443  17.538  13.837  1.00  0.00     0.000 G0
ENDBRANCH  13  15
ENDBRANCH  12  13
BRANCH  12  17
ATOM     17  C   UNL     1       8.001  20.468  14.946  1.00  0.00    -0.006 C 
ATOM     18  C   UNL     1       8.585  21.011  13.631  1.00  0.00     0.008 C 
ATOM     19  C   UNL     1       9.086  20.428  16.034  1.00  0.00     0.008 C 
ENDBRANCH  12  17
ENDBRANCH  11  12
ENDBRANCH   1  11
TORSDOF 1
ENDMDL
MODEL 3
REMARK VINA RESULT:    -3.175      2.030      2.433
REMARK INTER + INTRA:          -4.818
REMARK INTER:                  -4.583
REMARK INTRA:                  -0.235
REMARK UNBOUND:                 0.028
REMARK SMILES CC1=CCC[C@H](C)C(=O)C[C@H](C(C)C)C(=O)C1
REMARK SMILES IDX 8 1 9 2 6 3 7 4 5 5 4 6 3 7 2 8 1 9 10 11 11 12 15 13 16 14
REMARK SMILES IDX 17 15 12 17 13 18 14 19
REMARK H PARENT
REMARK Flexibility Score: 70.00
ROOT
ATOM      1  C   UNL     1       7.161  19.004  15.740  1.00  0.00     0.136 C 
ATOM      2  O   UNL     1       7.637  18.051  16.342  1.00  0.00    -0.299 OA
ENDROOT
BRANCH   1   3
ATOM      3  C   UNL     1       8.106  19.937  15.002  1.00  0.00     0.053 C 
ATOM      4  C   UNL     1       8.757  20.965  15.939  1.00  0.00     0.016 C 
BRANCH   3   5
ATOM      5  C   UNL     1       9.100  19.170  14.096  1.00  0.00     0.015 C 
BRANCH   5   6
ATOM      6  C   UNL     1       8.532  18.674  12.751  1.00  0.00     0.028 C 
BRANCH   6   7
ATOM      7  C   UNL     1       8.116  17.230  12.849  1.00  0.00    -0.028 C 
ATOM      8  C   UNL     1       6.860  16.777  12.627  1.00  0.00    -0.070 CG0
ATOM      9  C   UNL     1       6.622  15.290  12.698  1.00  0.00     0.039 C 
ATOM     10  G   UNL     1       5.686  17.699  12.333  1.00  0.00     0.000 G0
ENDBRANCH   6   7
ENDBRANCH   5   6
ENDBRANCH   3   5
ENDBRANCH   1   3
BRANCH   1  11
ATOM     11  C   UNL     1       5.659  19.179  15.750  1.00  0.00     0.087 C 
BRANCH  11  12
ATOM     12  C   UNL     1       5.083  19.369  14.323  1.00  0.00     0.066 C 
BRANCH  12  13
ATOM     13  C   UNL     1       4.900  18.049  13.581  1.00  0.00     0.140 C 
ATOM     14  O   UNL     1       4.153  17.209  14.063  1.00  0.00    -0.299 OA
BRANCH  13  15
ATOM     15  C   UNL     1       5.677  17.694  12.333  1.00  0.00     0.106 CG0
ATOM     16  G   UNL     1       6.862  16.784  12.621  1.00  0.00     0.000 G0
ENDBRANCH  13  15
ENDBRANCH  12  13
BRANCH  12  17
ATOM     17  C   UNL     1       3.823  20.291  14.302  1.00  0.00    -0.006 C 
ATOM     18  C   UNL     1       4.113  21.784  14.075  1.00  0.00     0.008 C 
ATOM     19  C   UNL     1       2.960  20.101  15.559  1.00  0.00     0.008 C 
ENDBRANCH  12  17
ENDBRANCH  11  12
ENDBRANCH   1  11
TORSDOF 1
ENDMDL
MODEL 4
REMARK VINA RESULT:    -3.127      5.639      8.275
REMARK INTER + INTRA:          -4.744
REMARK INTER:                  -4.314
REMARK INTRA:                  -0.430
REMARK UNBOUND:                 0.028
REMARK SMILES CC1=CCC[C@H](C)C(=O)C[C@H](C(C)C)C(=O)C1
REMARK SMILES IDX 8 1 9 2 6 3 7 4 5 5 4 6 3 7 2 8 1 9 10 11 11 12 15 13 16 14
REMARK SMILES IDX 17 15 12 17 13 18 14 19
REMARK H PARENT
REMARK Flexibility Score: 70.00
ROOT
ATOM      1  C   UNL     1      15.576  16.138  16.615  1.00  0.00     0.136 C 
ATOM      2  O   UNL     1      15.539  15.425  17.607  1.00  0.00    -0.299 OA
ENDROOT
BRANCH   1   3
ATOM      3  C   UNL     1      16.317  15.631  15.389  1.00  0.00     0.053 C 
ATOM      4  C   UNL     1      17.802  15.370  15.675  1.00  0.00     0.016 C 
BRANCH   3   5
ATOM      5  C   UNL     1      15.577  14.460  14.698  1.00  0.00     0.015 C 
BRANCH   5   6
ATOM      6  C   UNL     1      14.574  14.859  13.597  1.00  0.00     0.028 C 
BRANCH   6   7
ATOM      7  C   UNL     1      13.172  14.905  14.144  1.00  0.00    -0.028 C 
ATOM      8  C   UNL     1      12.383  16.004  14.141  1.00  0.00    -0.070 CG0
ATOM      9  C   UNL     1      10.976  15.866  14.664  1.00  0.00     0.039 C 
ATOM     10  G   UNL     1      12.859  17.366  13.656  1.00  0.00     0.000 G0
ENDBRANCH   6   7
ENDBRANCH   5   6
ENDBRANCH   3   5
ENDBRANCH   1   3
BRANCH   1  11
ATOM     11  C   UNL     1      14.861  17.471  16.663  1.00  0.00     0.087 C 
BRANCH  11  12
ATOM     12  C   UNL     1      14.806  18.155  15.272  1.00  0.00     0.066 C 
BRANCH  12  13
ATOM     13  C   UNL     1      13.386  18.263  14.725  1.00  0.00     0.140 C 
ATOM     14  O   UNL     1      12.619  19.058  15.250  1.00  0.00    -0.299 OA
BRANCH  13  15
ATOM     15  C   UNL     1      12.857  17.364  13.631  1.00  0.00     0.106 CG0
ATOM     16  G   UNL     1      12.367  16.025  14.162  1.00  0.00     0.000 G0
ENDBRANCH  13  15
ENDBRANCH  12  13
BRANCH  12  17
ATOM     17  C   UNL     1      15.609  19.494  15.229  1.00  0.00    -0.006 C 
ATOM     18  C   UNL     1      15.505  20.272  13.907  1.00  0.00     0.008 C 
ATOM     19  C   UNL     1      17.083  19.283  15.608  1.00  0.00     0.008 C 
ENDBRANCH  12  17
ENDBRANCH  11  12
ENDBRANCH   1  11
TORSDOF 1
ENDMDL
MODEL 5
REMARK VINA RESULT:    -3.121      1.876      4.129
REMARK INTER + INTRA:          -4.736
REMARK INTER:                  -4.271
REMARK INTRA:                  -0.465
REMARK UNBOUND:                 0.028
REMARK SMILES CC1=CCC[C@H](C)C(=O)C[C@H](C(C)C)C(=O)C1
REMARK SMILES IDX 8 1 9 2 6 3 7 4 5 5 4 6 3 7 2 8 1 9 10 11 11 12 15 13 16 14
REMARK SMILES IDX 17 15 12 17 13 18 14 19
REMARK H PARENT
REMARK Flexibility Score: 70.00
ROOT
ATOM      1  C   UNL     1       5.980  20.282  12.949  1.00  0.00     0.136 C 
ATOM      2  O   UNL     1       5.230  20.445  11.998  1.00  0.00    -0.299 OA
ENDROOT
BRANCH   1   3
ATOM      3  C   UNL     1       5.593  20.890  14.286  1.00  0.00     0.053 C 
ATOM      4  C   UNL     1       5.569  22.424  14.242  1.00  0.00     0.016 C 
BRANCH   3   5
ATOM      5  C   UNL     1       4.318  20.242  14.879  1.00  0.00     0.015 C 
BRANCH   5   6
ATOM      6  C   UNL     1       4.545  18.976  15.729  1.00  0.00     0.028 C 
BRANCH   6   7
ATOM      7  C   UNL     1       4.454  17.738  14.876  1.00  0.00    -0.028 C 
ATOM      8  C   UNL     1       5.450  16.834  14.729  1.00  0.00    -0.070 CG0
ATOM      9  C   UNL     1       5.175  15.610  13.893  1.00  0.00     0.039 C 
ATOM     10  G   UNL     1       6.829  17.009  15.349  1.00  0.00     0.000 G0
ENDBRANCH   6   7
ENDBRANCH   5   6
ENDBRANCH   3   5
ENDBRANCH   1   3
BRANCH   1  11
ATOM     11  C   UNL     1       7.236  19.465  12.739  1.00  0.00     0.087 C 
BRANCH  11  12
ATOM     12  C   UNL     1       7.915  19.082  14.080  1.00  0.00     0.066 C 
BRANCH  12  13
ATOM     13  C   UNL     1       7.840  17.586  14.372  1.00  0.00     0.140 C 
ATOM     14  O   UNL     1       8.567  16.833  13.739  1.00  0.00    -0.299 OA
BRANCH  13  15
ATOM     15  C   UNL     1       6.839  16.987  15.333  1.00  0.00     0.106 CG0
ATOM     16  G   UNL     1       5.454  16.839  14.719  1.00  0.00     0.000 G0
ENDBRANCH  13  15
ENDBRANCH  12  13
BRANCH  12  17
ATOM     17  C   UNL     1       9.347  19.687  14.223  1.00  0.00    -0.006 C 
ATOM     18  C   UNL     1       9.577  20.521  15.494  1.00  0.00     0.008 C 
ATOM     19  C   UNL     1       9.748  20.494  12.978  1.00  0.00     0.008 C 
ENDBRANCH  12  17
ENDBRANCH  11  12
ENDBRANCH   1  11
TORSDOF 1
ENDMDL
MODEL 6
REMARK VINA RESULT:    -3.086     10.315     12.580
REMARK INTER + INTRA:          -4.682
REMARK INTER:                  -4.390
REMARK INTRA:                  -0.292
REMARK UNBOUND:                 0.028
REMARK SMILES CC1=CCC[C@H](C)C(=O)C[C@H](C(C)C)C(=O)C1
REMARK SMILES IDX 8 1 9 2 6 3 7 4 5 5 4 6 3 7 2 8 1 9 10 11 11 12 15 13 16 14
REMARK SMILES IDX 17 15 12 17 13 18 14 19
REMARK H PARENT
REMARK Flexibility Score: 70.00
ROOT
ATOM      1  C   UNL     1      15.030  26.335  12.840  1.00  0.00     0.136 C 
ATOM      2  O   UNL     1      15.776  26.226  11.878  1.00  0.00    -0.299 OA
ENDROOT
BRANCH   1   3
ATOM      3  C   UNL     1      15.560  25.953  14.212  1.00  0.00     0.053 C 
ATOM      4  C   UNL     1      15.581  24.433  14.424  1.00  0.00     0.016 C 
BRANCH   3   5
ATOM      5  C   UNL     1      16.890  26.670  14.549  1.00  0.00     0.015 C 
BRANCH   5   6
ATOM      6  C   UNL     1      16.758  28.111  15.078  1.00  0.00     0.028 C 
BRANCH   6   7
ATOM      7  C   UNL     1      16.953  29.108  13.966  1.00  0.00    -0.028 C 
ATOM      8  C   UNL     1      16.027  30.015  13.578  1.00  0.00    -0.070 CG0
ATOM      9  C   UNL     1      16.405  30.990  12.492  1.00  0.00     0.039 C 
ATOM     10  G   UNL     1      14.627  30.077  14.171  1.00  0.00     0.000 G0
ENDBRANCH   6   7
ENDBRANCH   5   6
ENDBRANCH   3   5
ENDBRANCH   1   3
BRANCH   1  11
ATOM     11  C   UNL     1      13.633  26.866  12.607  1.00  0.00     0.087 C 
BRANCH  11  12
ATOM     12  C   UNL     1      13.200  27.875  13.702  1.00  0.00     0.066 C 
BRANCH  12  13
ATOM     13  C   UNL     1      13.590  29.311  13.367  1.00  0.00     0.140 C 
ATOM     14  O   UNL     1      13.114  29.825  12.364  1.00  0.00    -0.299 OA
BRANCH  13  15
ATOM     15  C   UNL     1      14.612  30.091  14.162  1.00  0.00     0.106 CG0
ATOM     16  G   UNL     1      16.008  30.007  13.562  1.00  0.00     0.000 G0
ENDBRANCH  13  15
ENDBRANCH  12  13
BRANCH  12  17
ATOM     17  C   UNL     1      11.706  27.702  14.122  1.00  0.00    -0.006 C 
ATOM     18  C   UNL     1      11.444  26.592  15.154  1.00  0.00     0.008 C 
ATOM     19  C   UNL     1      10.792  27.519  12.900  1.00  0.00     0.008 C 
ENDBRANCH  12  17
ENDBRANCH  11  12
ENDBRANCH   1  11
TORSDOF 1
ENDMDL
MODEL 7
REMARK VINA RESULT:    -3.068     10.361     12.237
REMARK INTER + INTRA:          -4.655
REMARK INTER:                  -4.425
REMARK INTRA:                  -0.229
REMARK UNBOUND:                 0.028
REMARK SMILES CC1=CCC[C@H](C)C(=O)C[C@H](C(C)C)C(=O)C1
REMARK SMILES IDX 8 1 9 2 6 3 7 4 5 5 4 6 3 7 2 8 1 9 10 11 11 12 15 13 16 14
REMARK SMILES IDX 17 15 12 17 13 18 14 19
REMARK H PARENT
REMARK Flexibility Score: 70.00
ROOT
ATOM      1  C   UNL     1       5.427  31.540  15.622  1.00  0.00     0.136 C 
ATOM      2  O   UNL     1       5.721  32.630  16.092  1.00  0.00    -0.299 OA
ENDROOT
BRANCH   1   3
ATOM      3  C   UNL     1       6.544  30.652  15.103  1.00  0.00     0.053 C 
ATOM      4  C   UNL     1       7.907  31.359  15.128  1.00  0.00     0.016 C 
BRANCH   3   5
ATOM      5  C   UNL     1       6.533  29.249  15.757  1.00  0.00     0.015 C 
BRANCH   5   6
ATOM      6  C   UNL     1       5.899  28.124  14.915  1.00  0.00     0.028 C 
BRANCH   6   7
ATOM      7  C   UNL     1       4.731  27.510  15.640  1.00  0.00    -0.028 C 
ATOM      8  C   UNL     1       3.458  27.504  15.179  1.00  0.00    -0.070 CG0
ATOM      9  C   UNL     1       2.415  26.785  15.994  1.00  0.00     0.039 C 
ATOM     10  G   UNL     1       3.038  28.205  13.895  1.00  0.00     0.000 G0
ENDBRANCH   6   7
ENDBRANCH   5   6
ENDBRANCH   3   5
ENDBRANCH   1   3
BRANCH   1  11
ATOM     11  C   UNL     1       3.969  31.135  15.610  1.00  0.00     0.087 C 
BRANCH  11  12
ATOM     12  C   UNL     1       3.461  30.823  14.179  1.00  0.00     0.066 C 
BRANCH  12  13
ATOM     13  C   UNL     1       2.526  29.618  14.135  1.00  0.00     0.140 C 
ATOM     14  O   UNL     1       1.341  29.792  14.388  1.00  0.00    -0.299 OA
BRANCH  13  15
ATOM     15  C   UNL     1       3.013  28.208  13.893  1.00  0.00     0.106 CG0
ATOM     16  G   UNL     1       3.462  27.517  15.172  1.00  0.00     0.000 G0
ENDBRANCH  13  15
ENDBRANCH  12  13
BRANCH  12  17
ATOM     17  C   UNL     1       2.906  32.087  13.449  1.00  0.00    -0.006 C 
ATOM     18  C   UNL     1       3.943  32.872  12.628  1.00  0.00     0.008 C 
ATOM     19  C   UNL     1       2.173  33.026  14.420  1.00  0.00     0.008 C 
ENDBRANCH  12  17
ENDBRANCH  11  12
ENDBRANCH   1  11
TORSDOF 1
ENDMDL
MODEL 8
REMARK VINA RESULT:    -3.056      1.479      1.813
REMARK INTER + INTRA:          -4.635
REMARK INTER:                  -4.115
REMARK INTRA:                  -0.520
REMARK UNBOUND:                 0.028
REMARK SMILES CC1=CCC[C@H](C)C(=O)C[C@H](C(C)C)C(=O)C1
REMARK SMILES IDX 8 1 9 2 6 3 7 4 5 5 4 6 3 7 2 8 1 9 10 11 11 12 15 13 16 14
REMARK SMILES IDX 17 15 12 17 13 18 14 19
REMARK H PARENT
REMARK Flexibility Score: 70.00
ROOT
ATOM      1  C   UNL     1       8.782  19.882  15.304  1.00  0.00     0.136 C 
ATOM      2  O   UNL     1       9.460  20.374  16.195  1.00  0.00    -0.299 OA
ENDROOT
BRANCH   1   3
ATOM      3  C   UNL     1       9.396  19.746  13.921  1.00  0.00     0.053 C 
ATOM      4  C   UNL     1       9.755  21.108  13.309  1.00  0.00     0.016 C 
BRANCH   3   5
ATOM      5  C   UNL     1      10.537  18.701  13.884  1.00  0.00     0.015 C 
BRANCH   5   6
ATOM      6  C   UNL     1      10.202  17.324  14.492  1.00  0.00     0.028 C 
BRANCH   6   7
ATOM      7  C   UNL     1       9.510  16.449  13.481  1.00  0.00    -0.028 C 
ATOM      8  C   UNL     1       8.224  16.038  13.574  1.00  0.00    -0.070 CG0
ATOM      9  C   UNL     1       7.659  15.221  12.441  1.00  0.00     0.039 C 
ATOM     10  G   UNL     1       7.340  16.347  14.774  1.00  0.00     0.000 G0
ENDBRANCH   6   7
ENDBRANCH   5   6
ENDBRANCH   3   5
ENDBRANCH   1   3
BRANCH   1  11
ATOM     11  C   UNL     1       7.382  19.417  15.642  1.00  0.00     0.087 C 
BRANCH  11  12
ATOM     12  C   UNL     1       6.625  18.890  14.397  1.00  0.00     0.066 C 
BRANCH  12  13
ATOM     13  C   UNL     1       6.295  17.403  14.493  1.00  0.00     0.140 C 
ATOM     14  O   UNL     1       5.123  17.061  14.412  1.00  0.00    -0.299 OA
BRANCH  13  15
ATOM     15  C   UNL     1       7.337  16.348  14.783  1.00  0.00     0.106 CG0
ATOM     16  G   UNL     1       8.218  16.049  13.579  1.00  0.00     0.000 G0
ENDBRANCH  13  15
ENDBRANCH  12  13
BRANCH  12  17
ATOM     17  C   UNL     1       5.407  19.788  14.009  1.00  0.00    -0.006 C 
ATOM     18  C   UNL     1       5.387  20.260  12.545  1.00  0.00     0.008 C 
ATOM     19  C   UNL     1       5.265  20.989  14.957  1.00  0.00     0.008 C 
ENDBRANCH  12  17
ENDBRANCH  11  12
ENDBRANCH   1  11
TORSDOF 1
ENDMDL
MODEL 9
REMARK VINA RESULT:    -2.981      1.880      4.346
REMARK INTER + INTRA:          -4.522
REMARK INTER:                  -4.319
REMARK INTRA:                  -0.204
REMARK UNBOUND:                 0.028
REMARK SMILES CC1=CCC[C@H](C)C(=O)C[C@H](C(C)C)C(=O)C1
REMARK SMILES IDX 8 1 9 2 6 3 7 4 5 5 4 6 3 7 2 8 1 9 10 11 11 12 15 13 16 14
REMARK SMILES IDX 17 15 12 17 13 18 14 19
REMARK H PARENT
REMARK Flexibility Score: 70.00
ROOT
ATOM      1  C   UNL     1       9.099  19.673  14.252  1.00  0.00     0.136 C 
ATOM      2  O   UNL     1       8.364  20.310  13.512  1.00  0.00    -0.299 OA
ENDROOT
BRANCH   1   3
ATOM      3  C   UNL     1       8.816  19.695  15.745  1.00  0.00     0.053 C 
ATOM      4  C   UNL     1       9.168  21.047  16.382  1.00  0.00     0.016 C 
BRANCH   3   5
ATOM      5  C   UNL     1       7.398  19.173  16.082  1.00  0.00     0.015 C 
BRANCH   5   6
ATOM      6  C   UNL     1       7.200  17.649  15.953  1.00  0.00     0.028 C 
BRANCH   6   7
ATOM      7  C   UNL     1       6.292  17.326  14.796  1.00  0.00    -0.028 C 
ATOM      8  C   UNL     1       6.602  16.473  13.792  1.00  0.00    -0.070 CG0
ATOM      9  C   UNL     1       5.554  16.205  12.743  1.00  0.00     0.039 C 
ATOM     10  G   UNL     1       7.960  15.797  13.668  1.00  0.00     0.000 G0
ENDBRANCH   6   7
ENDBRANCH   5   6
ENDBRANCH   3   5
ENDBRANCH   1   3
BRANCH   1  11
ATOM     11  C   UNL     1      10.230  18.882  13.632  1.00  0.00     0.087 C 
BRANCH  11  12
ATOM     12  C   UNL     1      10.104  17.363  13.914  1.00  0.00     0.066 C 
BRANCH  12  13
ATOM     13  C   UNL     1       9.022  16.695  13.071  1.00  0.00     0.140 C 
ATOM     14  O   UNL     1       8.958  16.971  11.881  1.00  0.00    -0.299 OA
BRANCH  13  15
ATOM     15  C   UNL     1       7.966  15.788  13.660  1.00  0.00     0.106 CG0
ATOM     16  G   UNL     1       6.608  16.466  13.771  1.00  0.00     0.000 G0
ENDBRANCH  13  15
ENDBRANCH  12  13
BRANCH  12  17
ATOM     17  C   UNL     1      11.482  16.629  13.878  1.00  0.00    -0.006 C 
ATOM     18  C   UNL     1      11.730  15.653  15.041  1.00  0.00     0.008 C 
ATOM     19  C   UNL     1      12.650  17.621  13.758  1.00  0.00     0.008 C 
ENDBRANCH  12  17
ENDBRANCH  11  12
ENDBRANCH   1  11
TORSDOF 1
ENDMDL
