MODEL 1
REMARK VINA RESULT:    -4.881      0.000      0.000
REMARK INTER + INTRA:          -7.284
REMARK INTER:                  -6.878
REMARK INTRA:                  -0.405
REMARK UNBOUND:                -0.405
REMARK SMILES CCCCCCCCC(=O)[O-]
REMARK SMILES IDX 6 1 7 2 8 3 9 4 10 5 11 6 5 7 4 8 3 9 2 10 1 11
REMARK H PARENT
REMARK Flexibility Score: inf
ROOT
ATOM      1  C   UNL     1      27.568  11.145  34.766  1.00  0.00     0.000 C 
ENDROOT
BRANCH   1   2
ATOM      2  C   UNL     1      28.400  12.130  33.930  1.00  0.00     0.006 C 
BRANCH   2   3
ATOM      3  C   UNL     1      27.616  12.710  32.745  1.00  0.00     0.053 C 
BRANCH   3   4
ATOM      4  C   UNL     1      28.162  12.190  31.454  1.00  0.00     0.041 C 
ATOM      5  O   UNL     1      28.977  12.879  30.787  1.00  0.00    -0.550 OA
ATOM      6  O   UNL     1      27.732  10.964  30.961  1.00  0.00    -0.550 OA
ENDBRANCH   3   4
ENDBRANCH   2   3
ENDBRANCH   1   2
BRANCH   1   7
ATOM      7  C   UNL     1      26.072  11.187  34.415  1.00  0.00     0.000 C 
BRANCH   7   8
ATOM      8  C   UNL     1      25.218  11.383  35.674  1.00  0.00    -0.000 C 
BRANCH   8   9
ATOM      9  C   UNL     1      24.345  12.637  35.558  1.00  0.00    -0.000 C 
BRANCH   9  10
ATOM     10  C   UNL     1      22.856  12.273  35.562  1.00  0.00    -0.003 C 
ATOM     11  C   UNL     1      22.656  10.769  35.715  1.00  0.00     0.004 C 
ENDBRANCH   9  10
ENDBRANCH   8   9
ENDBRANCH   7   8
ENDBRANCH   1   7
TORSDOF 7
ENDMDL
MODEL 2
REMARK VINA RESULT:    -4.794      3.737      5.737
REMARK INTER + INTRA:          -7.161
REMARK INTER:                  -6.768
REMARK INTRA:                  -0.393
REMARK UNBOUND:                -0.405
REMARK SMILES CCCCCCCCC(=O)[O-]
REMARK SMILES IDX 6 1 7 2 8 3 9 4 10 5 11 6 5 7 4 8 3 9 2 10 1 11
REMARK H PARENT
REMARK Flexibility Score: inf
ROOT
ATOM      1  C   UNL     1      25.003  11.294  35.772  1.00  0.00     0.000 C 
ENDROOT
BRANCH   1   2
ATOM      2  C   UNL     1      23.836  12.294  35.728  1.00  0.00     0.006 C 
BRANCH   2   3
ATOM      3  C   UNL     1      22.471  11.604  35.608  1.00  0.00     0.053 C 
BRANCH   3   4
ATOM      4  C   UNL     1      21.408  12.605  35.281  1.00  0.00     0.041 C 
ATOM      5  O   UNL     1      21.594  13.451  34.368  1.00  0.00    -0.550 OA
ATOM      6  O   UNL     1      20.231  12.634  36.018  1.00  0.00    -0.550 OA
ENDBRANCH   3   4
ENDBRANCH   2   3
ENDBRANCH   1   2
BRANCH   1   7
ATOM      7  C   UNL     1      25.824  11.285  34.473  1.00  0.00     0.000 C 
BRANCH   7   8
ATOM      8  C   UNL     1      27.324  11.180  34.774  1.00  0.00    -0.000 C 
BRANCH   8   9
ATOM      9  C   UNL     1      28.110  12.282  34.054  1.00  0.00    -0.000 C 
BRANCH   9  10
ATOM     10  C   UNL     1      27.248  13.534  33.858  1.00  0.00    -0.003 C 
ATOM     11  C   UNL     1      27.339  14.461  35.066  1.00  0.00     0.004 C 
ENDBRANCH   9  10
ENDBRANCH   8   9
ENDBRANCH   7   8
ENDBRANCH   1   7
TORSDOF 7
ENDMDL
MODEL 3
REMARK VINA RESULT:    -4.756      0.559      1.191
REMARK INTER + INTRA:          -7.108
REMARK INTER:                  -6.710
REMARK INTRA:                  -0.398
REMARK UNBOUND:                -0.405
REMARK SMILES CCCCCCCCC(=O)[O-]
REMARK SMILES IDX 6 1 7 2 8 3 9 4 10 5 11 6 5 7 4 8 3 9 2 10 1 11
REMARK H PARENT
REMARK Flexibility Score: inf
ROOT
ATOM      1  C   UNL     1      27.270  11.102  34.742  1.00  0.00     0.000 C 
ENDROOT
BRANCH   1   2
ATOM      2  C   UNL     1      28.346  11.849  33.937  1.00  0.00     0.006 C 
BRANCH   2   3
ATOM      3  C   UNL     1      27.752  12.716  32.819  1.00  0.00     0.053 C 
BRANCH   3   4
ATOM      4  C   UNL     1      28.173  12.200  31.480  1.00  0.00     0.041 C 
ATOM      5  O   UNL     1      27.816  11.055  31.101  1.00  0.00    -0.550 OA
ATOM      6  O   UNL     1      29.003  12.966  30.670  1.00  0.00    -0.550 OA
ENDBRANCH   3   4
ENDBRANCH   2   3
ENDBRANCH   1   2
BRANCH   1   7
ATOM      7  C   UNL     1      25.854  11.636  34.475  1.00  0.00     0.000 C 
BRANCH   7   8
ATOM      8  C   UNL     1      25.325  12.417  35.684  1.00  0.00    -0.000 C 
BRANCH   8   9
ATOM      9  C   UNL     1      23.796  12.346  35.760  1.00  0.00    -0.000 C 
BRANCH   9  10
ATOM     10  C   UNL     1      23.309  10.894  35.714  1.00  0.00    -0.003 C 
ATOM     11  C   UNL     1      22.002  10.774  34.937  1.00  0.00     0.004 C 
ENDBRANCH   9  10
ENDBRANCH   8   9
ENDBRANCH   7   8
ENDBRANCH   1   7
TORSDOF 7
ENDMDL
MODEL 4
REMARK VINA RESULT:    -4.634      1.419      1.675
REMARK INTER + INTRA:          -6.935
REMARK INTER:                  -6.517
REMARK INTRA:                  -0.418
REMARK UNBOUND:                -0.405
REMARK SMILES CCCCCCCCC(=O)[O-]
REMARK SMILES IDX 6 1 7 2 8 3 9 4 10 5 11 6 5 7 4 8 3 9 2 10 1 11
REMARK H PARENT
REMARK Flexibility Score: inf
ROOT
ATOM      1  C   UNL     1      25.808  13.018  35.561  1.00  0.00     0.000 C 
ENDROOT
BRANCH   1   2
ATOM      2  C   UNL     1      27.024  13.594  34.818  1.00  0.00     0.006 C 
BRANCH   2   3
ATOM      3  C   UNL     1      26.931  13.409  33.298  1.00  0.00     0.053 C 
BRANCH   3   4
ATOM      4  C   UNL     1      28.075  12.583  32.802  1.00  0.00     0.041 C 
ATOM      5  O   UNL     1      28.475  12.703  31.615  1.00  0.00    -0.550 OA
ATOM      6  O   UNL     1      28.668  11.645  33.637  1.00  0.00    -0.550 OA
ENDBRANCH   3   4
ENDBRANCH   2   3
ENDBRANCH   1   2
BRANCH   1   7
ATOM      7  C   UNL     1      25.699  11.491  35.423  1.00  0.00     0.000 C 
BRANCH   7   8
ATOM      8  C   UNL     1      24.256  11.021  35.641  1.00  0.00    -0.000 C 
BRANCH   8   9
ATOM      9  C   UNL     1      23.294  12.213  35.711  1.00  0.00    -0.000 C 
BRANCH   9  10
ATOM     10  C   UNL     1      21.851  11.772  35.441  1.00  0.00    -0.003 C 
ATOM     11  C   UNL     1      21.670  10.281  35.709  1.00  0.00     0.004 C 
ENDBRANCH   9  10
ENDBRANCH   8   9
ENDBRANCH   7   8
ENDBRANCH   1   7
TORSDOF 7
ENDMDL
MODEL 5
REMARK VINA RESULT:    -4.586      2.246      3.225
REMARK INTER + INTRA:          -6.868
REMARK INTER:                  -6.518
REMARK INTRA:                  -0.350
REMARK UNBOUND:                -0.405
REMARK SMILES CCCCCCCCC(=O)[O-]
REMARK SMILES IDX 6 1 7 2 8 3 9 4 10 5 11 6 5 7 4 8 3 9 2 10 1 11
REMARK H PARENT
REMARK Flexibility Score: inf
ROOT
ATOM      1  C   UNL     1      25.124  12.174  36.062  1.00  0.00     0.000 C 
ENDROOT
BRANCH   1   2
ATOM      2  C   UNL     1      26.061  11.389  35.131  1.00  0.00     0.006 C 
BRANCH   2   3
ATOM      3  C   UNL     1      27.464  12.005  35.047  1.00  0.00     0.053 C 
BRANCH   3   4
ATOM      4  C   UNL     1      27.396  13.378  34.458  1.00  0.00     0.041 C 
ATOM      5  O   UNL     1      27.138  13.531  33.236  1.00  0.00    -0.550 OA
ATOM      6  O   UNL     1      27.666  14.488  35.249  1.00  0.00    -0.550 OA
ENDBRANCH   3   4
ENDBRANCH   2   3
ENDBRANCH   1   2
BRANCH   1   7
ATOM      7  C   UNL     1      23.684  12.248  35.529  1.00  0.00     0.000 C 
BRANCH   7   8
ATOM      8  C   UNL     1      22.966  10.904  35.702  1.00  0.00    -0.000 C 
BRANCH   8   9
ATOM      9  C   UNL     1      21.445  11.078  35.625  1.00  0.00    -0.000 C 
BRANCH   9  10
ATOM     10  C   UNL     1      21.063  12.560  35.552  1.00  0.00    -0.003 C 
ATOM     11  C   UNL     1      19.631  12.785  36.026  1.00  0.00     0.004 C 
ENDBRANCH   9  10
ENDBRANCH   8   9
ENDBRANCH   7   8
ENDBRANCH   1   7
TORSDOF 7
ENDMDL
MODEL 6
REMARK VINA RESULT:    -4.540      4.136      6.059
REMARK INTER + INTRA:          -6.803
REMARK INTER:                  -6.361
REMARK INTRA:                  -0.442
REMARK UNBOUND:                -0.405
REMARK SMILES CCCCCCCCC(=O)[O-]
REMARK SMILES IDX 6 1 7 2 8 3 9 4 10 5 11 6 5 7 4 8 3 9 2 10 1 11
REMARK H PARENT
REMARK Flexibility Score: inf
ROOT
ATOM      1  C   UNL     1      24.379  12.506  35.795  1.00  0.00     0.000 C 
ENDROOT
BRANCH   1   2
ATOM      2  C   UNL     1      22.948  12.500  35.233  1.00  0.00     0.006 C 
BRANCH   2   3
ATOM      3  C   UNL     1      22.481  11.098  34.822  1.00  0.00     0.053 C 
BRANCH   3   4
ATOM      4  C   UNL     1      21.215  10.741  35.532  1.00  0.00     0.041 C 
ATOM      5  O   UNL     1      20.967   9.541  35.823  1.00  0.00    -0.550 OA
ATOM      6  O   UNL     1      20.284  11.728  35.832  1.00  0.00    -0.550 OA
ENDBRANCH   3   4
ENDBRANCH   2   3
ENDBRANCH   1   2
BRANCH   1   7
ATOM      7  C   UNL     1      25.092  11.157  35.615  1.00  0.00     0.000 C 
BRANCH   7   8
ATOM      8  C   UNL     1      26.214  11.264  34.575  1.00  0.00    -0.000 C 
BRANCH   8   9
ATOM      9  C   UNL     1      27.446  11.961  35.163  1.00  0.00    -0.000 C 
BRANCH   9  10
ATOM     10  C   UNL     1      27.824  13.197  34.341  1.00  0.00    -0.003 C 
ATOM     11  C   UNL     1      27.387  14.480  35.041  1.00  0.00     0.004 C 
ENDBRANCH   9  10
ENDBRANCH   8   9
ENDBRANCH   7   8
ENDBRANCH   1   7
TORSDOF 7
ENDMDL
MODEL 7
REMARK VINA RESULT:    -4.489      2.079      3.426
REMARK INTER + INTRA:          -6.731
REMARK INTER:                  -6.328
REMARK INTRA:                  -0.403
REMARK UNBOUND:                -0.405
REMARK SMILES CCCCCCCCC(=O)[O-]
REMARK SMILES IDX 6 1 7 2 8 3 9 4 10 5 11 6 5 7 4 8 3 9 2 10 1 11
REMARK H PARENT
REMARK Flexibility Score: inf
ROOT
ATOM      1  C   UNL     1      23.785  11.894  35.923  1.00  0.00     0.000 C 
ENDROOT
BRANCH   1   2
ATOM      2  C   UNL     1      25.231  11.470  35.623  1.00  0.00     0.006 C 
BRANCH   2   3
ATOM      3  C   UNL     1      25.601  11.634  34.143  1.00  0.00     0.053 C 
BRANCH   3   4
ATOM      4  C   UNL     1      27.057  11.365  33.935  1.00  0.00     0.041 C 
ATOM      5  O   UNL     1      27.780  11.010  34.903  1.00  0.00    -0.550 OA
ATOM      6  O   UNL     1      27.627  11.553  32.683  1.00  0.00    -0.550 OA
ENDBRANCH   3   4
ENDBRANCH   2   3
ENDBRANCH   1   2
BRANCH   1   7
ATOM      7  C   UNL     1      22.771  10.770  35.657  1.00  0.00     0.000 C 
BRANCH   7   8
ATOM      8  C   UNL     1      21.421  11.343  35.210  1.00  0.00    -0.000 C 
BRANCH   8   9
ATOM      9  C   UNL     1      21.520  12.851  34.953  1.00  0.00    -0.000 C 
BRANCH   9  10
ATOM     10  C   UNL     1      20.221  13.563  35.345  1.00  0.00    -0.003 C 
ATOM     11  C   UNL     1      19.341  12.668  36.212  1.00  0.00     0.004 C 
ENDBRANCH   9  10
ENDBRANCH   8   9
ENDBRANCH   7   8
ENDBRANCH   1   7
TORSDOF 7
ENDMDL
MODEL 8
REMARK VINA RESULT:    -4.404      2.978      5.385
REMARK INTER + INTRA:          -6.612
REMARK INTER:                  -6.202
REMARK INTRA:                  -0.409
REMARK UNBOUND:                -0.405
REMARK SMILES CCCCCCCCC(=O)[O-]
REMARK SMILES IDX 6 1 7 2 8 3 9 4 10 5 11 6 5 7 4 8 3 9 2 10 1 11
REMARK H PARENT
REMARK Flexibility Score: inf
ROOT
ATOM      1  C   UNL     1      24.486  12.618  36.242  1.00  0.00     0.000 C 
ENDROOT
BRANCH   1   2
ATOM      2  C   UNL     1      23.439  11.631  35.700  1.00  0.00     0.006 C 
BRANCH   2   3
ATOM      3  C   UNL     1      22.088  12.301  35.415  1.00  0.00     0.053 C 
BRANCH   3   4
ATOM      4  C   UNL     1      22.012  12.733  33.985  1.00  0.00     0.041 C 
ATOM      5  O   UNL     1      22.829  12.281  33.142  1.00  0.00    -0.550 OA
ATOM      6  O   UNL     1      21.068  13.674  33.593  1.00  0.00    -0.550 OA
ENDBRANCH   3   4
ENDBRANCH   2   3
ENDBRANCH   1   2
BRANCH   1   7
ATOM      7  C   UNL     1      25.756  12.667  35.379  1.00  0.00     0.000 C 
BRANCH   7   8
ATOM      8  C   UNL     1      26.220  11.254  35.005  1.00  0.00    -0.000 C 
BRANCH   8   9
ATOM      9  C   UNL     1      27.727  11.223  34.728  1.00  0.00    -0.000 C 
BRANCH   9  10
ATOM     10  C   UNL     1      28.182  12.502  34.018  1.00  0.00    -0.003 C 
ATOM     11  C   UNL     1      28.124  12.342  32.502  1.00  0.00     0.004 C 
ENDBRANCH   9  10
ENDBRANCH   8   9
ENDBRANCH   7   8
ENDBRANCH   1   7
TORSDOF 7
ENDMDL
MODEL 9
REMARK VINA RESULT:    -4.402      3.494      5.540
REMARK INTER + INTRA:          -6.608
REMARK INTER:                  -6.115
REMARK INTRA:                  -0.493
REMARK UNBOUND:                -0.405
REMARK SMILES CCCCCCCCC(=O)[O-]
REMARK SMILES IDX 6 1 7 2 8 3 9 4 10 5 11 6 5 7 4 8 3 9 2 10 1 11
REMARK H PARENT
REMARK Flexibility Score: inf
ROOT
ATOM      1  C   UNL     1      26.067  10.917  35.207  1.00  0.00     0.000 C 
ENDROOT
BRANCH   1   2
ATOM      2  C   UNL     1      24.806  11.534  34.580  1.00  0.00     0.006 C 
BRANCH   2   3
ATOM      3  C   UNL     1      23.943  12.283  35.604  1.00  0.00     0.053 C 
BRANCH   3   4
ATOM      4  C   UNL     1      22.550  11.738  35.611  1.00  0.00     0.041 C 
ATOM      5  O   UNL     1      21.565  12.514  35.501  1.00  0.00    -0.550 OA
ATOM      6  O   UNL     1      22.338  10.377  35.789  1.00  0.00    -0.550 OA
ENDBRANCH   3   4
ENDBRANCH   2   3
ENDBRANCH   1   2
BRANCH   1   7
ATOM      7  C   UNL     1      27.353  11.321  34.469  1.00  0.00     0.000 C 
BRANCH   7   8
ATOM      8  C   UNL     1      27.618  12.825  34.611  1.00  0.00    -0.000 C 
BRANCH   8   9
ATOM      9  C   UNL     1      27.625  13.516  33.243  1.00  0.00    -0.000 C 
BRANCH   9  10
ATOM     10  C   UNL     1      27.455  12.497  32.111  1.00  0.00    -0.003 C 
ATOM     11  C   UNL     1      28.571  12.626  31.079  1.00  0.00     0.004 C 
ENDBRANCH   9  10
ENDBRANCH   8   9
ENDBRANCH   7   8
ENDBRANCH   1   7
TORSDOF 7
ENDMDL
