MODEL 1
REMARK VINA RESULT:    -4.280      0.000      0.000
REMARK INTER + INTRA:          -8.865
REMARK INTER:                  -6.657
REMARK INTRA:                  -2.208
REMARK UNBOUND:                -2.208
REMARK SMILES COc1cc(CNC(=O)CCCCC=CC(C)C)ccc1O
REMARK SMILES IDX 11 1 12 2 13 3 14 4 15 5 16 6 17 7 18 8 10 9 8 10 9 11 7 12
REMARK SMILES IDX 6 14 5 15 4 16 19 17 3 18 20 19 21 20 2 21 1 22 22 23
REMARK H PARENT 7 13 22 24
REMARK Flexibility Score: inf
ROOT
ATOM      1  C   UNL     1     114.187 116.118 116.350  1.00  0.00     0.010 C 
ENDROOT
BRANCH   1   2
ATOM      2  C   UNL     1     113.143 115.525 117.308  1.00  0.00     0.005 C 
BRANCH   2   3
ATOM      3  C   UNL     1     113.718 115.239 118.704  1.00  0.00     0.027 C 
BRANCH   3   4
ATOM      4  C   UNL     1     115.220 115.236 118.676  1.00  0.00    -0.031 C 
ATOM      5  C   UNL     1     115.936 114.535 119.573  1.00  0.00    -0.028 C 
BRANCH   5   6
ATOM      6  C   UNL     1     117.448 114.504 119.569  1.00  0.00     0.005 C 
ATOM      7  C   UNL     1     117.979 113.067 119.645  1.00  0.00     0.012 C 
ATOM      8  C   UNL     1     118.019 115.244 118.355  1.00  0.00     0.012 C 
ENDBRANCH   5   6
ENDBRANCH   3   4
ENDBRANCH   2   3
ENDBRANCH   1   2
BRANCH   1   9
ATOM      9  C   UNL     1     113.887 117.577 115.982  1.00  0.00     0.100 C 
BRANCH   9  10
ATOM     10  C   UNL     1     114.652 118.509 116.871  1.00  0.00     0.220 C 
ATOM     11  O   UNL     1     115.702 119.057 116.440  1.00  0.00    -0.275 OA
ATOM     12  N   UNL     1     114.166 118.808 118.188  1.00  0.00    -0.352 N 
ATOM     13  H   UNL     1     113.262 118.392 118.501  1.00  0.00     0.163 HD
BRANCH  12  14
ATOM     14  C   UNL     1     114.883 119.690 119.107  1.00  0.00     0.151 C 
BRANCH  14  15
ATOM     15  C   UNL     1     115.764 118.886 120.025  1.00  0.00    -0.025 A 
ATOM     16  C   UNL     1     117.153 118.863 119.824  1.00  0.00     0.056 A 
ATOM     17  C   UNL     1     115.211 118.178 121.103  1.00  0.00     0.009 A 
ATOM     18  C   UNL     1     117.992 118.134 120.691  1.00  0.00     0.160 A 
ATOM     19  C   UNL     1     116.037 117.453 121.964  1.00  0.00     0.050 A 
ATOM     20  C   UNL     1     117.419 117.427 121.765  1.00  0.00     0.157 A 
BRANCH  18  21
ATOM     21  O   UNL     1     119.385 118.092 120.517  1.00  0.00    -0.493 OA
ATOM     22  C   UNL     1     120.046 118.200 119.261  1.00  0.00     0.278 C 
ENDBRANCH  18  21
BRANCH  20  23
ATOM     23  O   UNL     1     118.212 116.692 122.647  1.00  0.00    -0.504 OA
ATOM     24  H   UNL     1     118.743 117.130 123.391  1.00  0.00     0.293 HD
ENDBRANCH  20  23
ENDBRANCH  14  15
ENDBRANCH  12  14
ENDBRANCH   9  10
ENDBRANCH   1   9
TORSDOF 10
ENDMDL
MODEL 2
REMARK VINA RESULT:    -4.161      2.210      4.012
REMARK INTER + INTRA:          -8.679
REMARK INTER:                  -6.662
REMARK INTRA:                  -2.017
REMARK UNBOUND:                -2.208
REMARK SMILES COc1cc(CNC(=O)CCCCC=CC(C)C)ccc1O
REMARK SMILES IDX 11 1 12 2 13 3 14 4 15 5 16 6 17 7 18 8 10 9 8 10 9 11 7 12
REMARK SMILES IDX 6 14 5 15 4 16 19 17 3 18 20 19 21 20 2 21 1 22 22 23
REMARK H PARENT 7 13 22 24
REMARK Flexibility Score: inf
ROOT
ATOM      1  C   UNL     1     114.641 120.000 118.320  1.00  0.00     0.010 C 
ENDROOT
BRANCH   1   2
ATOM      2  C   UNL     1     115.801 119.554 117.418  1.00  0.00     0.005 C 
BRANCH   2   3
ATOM      3  C   UNL     1     115.658 118.099 116.948  1.00  0.00     0.027 C 
BRANCH   3   4
ATOM      4  C   UNL     1     114.525 117.413 117.659  1.00  0.00    -0.031 C 
ATOM      5  C   UNL     1     114.708 116.252 118.312  1.00  0.00    -0.028 C 
BRANCH   5   6
ATOM      6  C   UNL     1     113.592 115.539 119.043  1.00  0.00     0.005 C 
ATOM      7  C   UNL     1     112.929 114.478 118.157  1.00  0.00     0.012 C 
ATOM      8  C   UNL     1     114.087 114.932 120.361  1.00  0.00     0.012 C 
ENDBRANCH   5   6
ENDBRANCH   3   4
ENDBRANCH   2   3
ENDBRANCH   1   2
BRANCH   1   9
ATOM      9  C   UNL     1     115.111 120.426 119.718  1.00  0.00     0.100 C 
BRANCH   9  10
ATOM     10  C   UNL     1     115.527 119.229 120.517  1.00  0.00     0.220 C 
ATOM     11  O   UNL     1     114.645 118.471 121.006  1.00  0.00    -0.275 OA
ATOM     12  N   UNL     1     116.918 118.926 120.688  1.00  0.00    -0.352 N 
ATOM     13  H   UNL     1     117.630 119.532 120.223  1.00  0.00     0.163 HD
BRANCH  12  14
ATOM     14  C   UNL     1     117.382 117.788 121.478  1.00  0.00     0.151 C 
BRANCH  14  15
ATOM     15  C   UNL     1     117.793 116.656 120.575  1.00  0.00    -0.025 A 
ATOM     16  C   UNL     1     118.303 116.927 119.295  1.00  0.00     0.056 A 
ATOM     17  C   UNL     1     117.698 115.326 121.011  1.00  0.00     0.009 A 
ATOM     18  C   UNL     1     118.714 115.878 118.449  1.00  0.00     0.160 A 
ATOM     19  C   UNL     1     118.102 114.282 120.177  1.00  0.00     0.050 A 
ATOM     20  C   UNL     1     118.608 114.549 118.902  1.00  0.00     0.157 A 
BRANCH  18  21
ATOM     21  O   UNL     1     119.230 116.116 117.164  1.00  0.00    -0.493 OA
ATOM     22  C   UNL     1     120.239 117.074 116.864  1.00  0.00     0.278 C 
ENDBRANCH  18  21
BRANCH  20  23
ATOM     23  O   UNL     1     119.003 113.480 118.098  1.00  0.00    -0.504 OA
ATOM     24  H   UNL     1     118.760 113.423 117.116  1.00  0.00     0.293 HD
ENDBRANCH  20  23
ENDBRANCH  14  15
ENDBRANCH  12  14
ENDBRANCH   9  10
ENDBRANCH   1   9
TORSDOF 10
ENDMDL
MODEL 3
REMARK VINA RESULT:    -4.151      2.243      4.950
REMARK INTER + INTRA:          -8.664
REMARK INTER:                  -6.649
REMARK INTRA:                  -2.015
REMARK UNBOUND:                -2.208
REMARK SMILES COc1cc(CNC(=O)CCCCC=CC(C)C)ccc1O
REMARK SMILES IDX 11 1 12 2 13 3 14 4 15 5 16 6 17 7 18 8 10 9 8 10 9 11 7 12
REMARK SMILES IDX 6 14 5 15 4 16 19 17 3 18 20 19 21 20 2 21 1 22 22 23
REMARK H PARENT 7 13 22 24
REMARK Flexibility Score: inf
ROOT
ATOM      1  C   UNL     1     115.533 119.665 119.798  1.00  0.00     0.010 C 
ENDROOT
BRANCH   1   2
ATOM      2  C   UNL     1     114.916 119.321 118.434  1.00  0.00     0.005 C 
BRANCH   2   3
ATOM      3  C   UNL     1     115.784 118.349 117.622  1.00  0.00     0.027 C 
BRANCH   3   4
ATOM      4  C   UNL     1     117.011 117.951 118.394  1.00  0.00    -0.031 C 
ATOM      5  C   UNL     1     118.245 118.255 117.953  1.00  0.00    -0.028 C 
BRANCH   5   6
ATOM      6  C   UNL     1     119.499 117.876 118.708  1.00  0.00     0.005 C 
ATOM      7  C   UNL     1     120.730 118.597 118.147  1.00  0.00     0.012 C 
ATOM      8  C   UNL     1     119.344 118.129 120.212  1.00  0.00     0.012 C 
ENDBRANCH   5   6
ENDBRANCH   3   4
ENDBRANCH   2   3
ENDBRANCH   1   2
BRANCH   1   9
ATOM      9  C   UNL     1     114.720 119.099 120.971  1.00  0.00     0.100 C 
BRANCH   9  10
ATOM     10  C   UNL     1     115.244 117.753 121.369  1.00  0.00     0.220 C 
ATOM     11  O   UNL     1     116.212 117.677 122.173  1.00  0.00    -0.275 OA
ATOM     12  N   UNL     1     114.619 116.562 120.872  1.00  0.00    -0.352 N 
ATOM     13  H   UNL     1     113.780 116.649 120.256  1.00  0.00     0.163 HD
BRANCH  12  14
ATOM     14  C   UNL     1     115.101 115.224 121.206  1.00  0.00     0.151 C 
BRANCH  14  15
ATOM     15  C   UNL     1     116.177 114.798 120.243  1.00  0.00    -0.025 A 
ATOM     16  C   UNL     1     115.837 114.400 118.941  1.00  0.00     0.056 A 
ATOM     17  C   UNL     1     117.526 114.822 120.627  1.00  0.00     0.009 A 
ATOM     18  C   UNL     1     116.836 114.022 118.022  1.00  0.00     0.160 A 
ATOM     19  C   UNL     1     118.520 114.447 119.721  1.00  0.00     0.050 A 
ATOM     20  C   UNL     1     118.184 114.049 118.425  1.00  0.00     0.157 A 
BRANCH  18  21
ATOM     21  O   UNL     1     116.528 113.620 116.711  1.00  0.00    -0.493 OA
ATOM     22  C   UNL     1     115.291 113.880 116.057  1.00  0.00     0.278 C 
ENDBRANCH  18  21
BRANCH  20  23
ATOM     23  O   UNL     1     119.206 113.682 117.548  1.00  0.00    -0.504 OA
ATOM     24  H   UNL     1     119.027 113.168 116.694  1.00  0.00     0.293 HD
ENDBRANCH  20  23
ENDBRANCH  14  15
ENDBRANCH  12  14
ENDBRANCH   9  10
ENDBRANCH   1   9
TORSDOF 10
ENDMDL
MODEL 4
REMARK VINA RESULT:    -4.136      2.418      4.707
REMARK INTER + INTRA:          -8.641
REMARK INTER:                  -6.304
REMARK INTRA:                  -2.337
REMARK UNBOUND:                -2.208
REMARK SMILES COc1cc(CNC(=O)CCCCC=CC(C)C)ccc1O
REMARK SMILES IDX 11 1 12 2 13 3 14 4 15 5 16 6 17 7 18 8 10 9 8 10 9 11 7 12
REMARK SMILES IDX 6 14 5 15 4 16 19 17 3 18 20 19 21 20 2 21 1 22 22 23
REMARK H PARENT 7 13 22 24
REMARK Flexibility Score: inf
ROOT
ATOM      1  C   UNL     1     114.900 114.549 121.856  1.00  0.00     0.010 C 
ENDROOT
BRANCH   1   2
ATOM      2  C   UNL     1     114.098 115.214 120.727  1.00  0.00     0.005 C 
BRANCH   2   3
ATOM      3  C   UNL     1     114.734 115.000 119.346  1.00  0.00     0.027 C 
BRANCH   3   4
ATOM      4  C   UNL     1     114.893 116.305 118.618  1.00  0.00    -0.031 C 
ATOM      5  C   UNL     1     114.844 117.481 119.270  1.00  0.00    -0.028 C 
BRANCH   5   6
ATOM      6  C   UNL     1     115.007 118.812 118.571  1.00  0.00     0.005 C 
ATOM      7  C   UNL     1     115.249 119.946 119.574  1.00  0.00     0.012 C 
ATOM      8  C   UNL     1     116.119 118.756 117.516  1.00  0.00     0.012 C 
ENDBRANCH   5   6
ENDBRANCH   3   4
ENDBRANCH   2   3
ENDBRANCH   1   2
BRANCH   1   9
ATOM      9  C   UNL     1     115.157 115.498 123.034  1.00  0.00     0.100 C 
BRANCH   9  10
ATOM     10  C   UNL     1     115.909 116.710 122.575  1.00  0.00     0.220 C 
ATOM     11  O   UNL     1     115.401 117.853 122.734  1.00  0.00    -0.275 OA
ATOM     12  N   UNL     1     117.215 116.571 121.999  1.00  0.00    -0.352 N 
ATOM     13  H   UNL     1     117.642 115.621 121.934  1.00  0.00     0.163 HD
BRANCH  12  14
ATOM     14  C   UNL     1     117.983 117.715 121.512  1.00  0.00     0.151 C 
BRANCH  14  15
ATOM     15  C   UNL     1     118.541 117.427 120.144  1.00  0.00    -0.025 A 
ATOM     16  C   UNL     1     119.288 118.406 119.470  1.00  0.00     0.056 A 
ATOM     17  C   UNL     1     118.345 116.175 119.543  1.00  0.00     0.009 A 
ATOM     18  C   UNL     1     119.837 118.142 118.199  1.00  0.00     0.160 A 
ATOM     19  C   UNL     1     118.885 115.907 118.283  1.00  0.00     0.050 A 
ATOM     20  C   UNL     1     119.628 116.881 117.610  1.00  0.00     0.157 A 
BRANCH  18  21
ATOM     21  O   UNL     1     120.591 119.100 117.500  1.00  0.00    -0.493 OA
ATOM     22  C   UNL     1     121.973 119.358 117.720  1.00  0.00     0.278 C 
ENDBRANCH  18  21
BRANCH  20  23
ATOM     23  O   UNL     1     120.152 116.576 116.354  1.00  0.00    -0.504 OA
ATOM     24  H   UNL     1     119.590 116.606 115.511  1.00  0.00     0.293 HD
ENDBRANCH  20  23
ENDBRANCH  14  15
ENDBRANCH  12  14
ENDBRANCH   9  10
ENDBRANCH   1   9
TORSDOF 10
ENDMDL
MODEL 5
REMARK VINA RESULT:    -4.117      2.492      5.182
REMARK INTER + INTRA:          -8.611
REMARK INTER:                  -6.622
REMARK INTRA:                  -1.989
REMARK UNBOUND:                -2.208
REMARK SMILES COc1cc(CNC(=O)CCCCC=CC(C)C)ccc1O
REMARK SMILES IDX 11 1 12 2 13 3 14 4 15 5 16 6 17 7 18 8 10 9 8 10 9 11 7 12
REMARK SMILES IDX 6 14 5 15 4 16 19 17 3 18 20 19 21 20 2 21 1 22 22 23
REMARK H PARENT 7 13 22 24
REMARK Flexibility Score: inf
ROOT
ATOM      1  C   UNL     1     115.662 117.637 122.548  1.00  0.00     0.010 C 
ENDROOT
BRANCH   1   2
ATOM      2  C   UNL     1     117.041 117.116 122.116  1.00  0.00     0.005 C 
BRANCH   2   3
ATOM      3  C   UNL     1     118.045 118.250 121.856  1.00  0.00     0.027 C 
BRANCH   3   4
ATOM      4  C   UNL     1     118.469 118.273 120.414  1.00  0.00    -0.031 C 
ATOM      5  C   UNL     1     118.913 117.164 119.797  1.00  0.00    -0.028 C 
BRANCH   5   6
ATOM      6  C   UNL     1     119.340 117.151 118.346  1.00  0.00     0.005 C 
ATOM      7  C   UNL     1     118.131 117.222 117.406  1.00  0.00     0.012 C 
ATOM      8  C   UNL     1     120.342 118.273 118.049  1.00  0.00     0.012 C 
ENDBRANCH   5   6
ENDBRANCH   3   4
ENDBRANCH   2   3
ENDBRANCH   1   2
BRANCH   1   9
ATOM      9  C   UNL     1     114.903 118.318 121.400  1.00  0.00     0.100 C 
BRANCH   9  10
ATOM     10  C   UNL     1     114.796 117.395 120.224  1.00  0.00     0.220 C 
ATOM     11  O   UNL     1     115.094 117.817 119.074  1.00  0.00    -0.275 OA
ATOM     12  N   UNL     1     114.397 116.030 120.415  1.00  0.00    -0.352 N 
ATOM     13  H   UNL     1     114.215 115.686 121.384  1.00  0.00     0.163 HD
BRANCH  12  14
ATOM     14  C   UNL     1     114.252 115.093 119.304  1.00  0.00     0.151 C 
BRANCH  14  15
ATOM     15  C   UNL     1     115.581 114.479 118.957  1.00  0.00    -0.025 A 
ATOM     16  C   UNL     1     115.916 114.239 117.615  1.00  0.00     0.056 A 
ATOM     17  C   UNL     1     116.507 114.167 119.965  1.00  0.00     0.009 A 
ATOM     18  C   UNL     1     117.168 113.688 117.275  1.00  0.00     0.160 A 
ATOM     19  C   UNL     1     117.747 113.619 119.634  1.00  0.00     0.050 A 
ATOM     20  C   UNL     1     118.082 113.379 118.299  1.00  0.00     0.157 A 
BRANCH  18  21
ATOM     21  O   UNL     1     117.533 113.438 115.942  1.00  0.00    -0.493 OA
ATOM     22  C   UNL     1     117.171 112.272 115.210  1.00  0.00     0.278 C 
ENDBRANCH  18  21
BRANCH  20  23
ATOM     23  O   UNL     1     119.332 112.831 118.008  1.00  0.00    -0.504 OA
ATOM     24  H   UNL     1     119.938 112.453 118.726  1.00  0.00     0.293 HD
ENDBRANCH  20  23
ENDBRANCH  14  15
ENDBRANCH  12  14
ENDBRANCH   9  10
ENDBRANCH   1   9
TORSDOF 10
ENDMDL
MODEL 6
REMARK VINA RESULT:    -4.009      2.313      4.600
REMARK INTER + INTRA:          -8.443
REMARK INTER:                  -6.569
REMARK INTRA:                  -1.874
REMARK UNBOUND:                -2.208
REMARK SMILES COc1cc(CNC(=O)CCCCC=CC(C)C)ccc1O
REMARK SMILES IDX 11 1 12 2 13 3 14 4 15 5 16 6 17 7 18 8 10 9 8 10 9 11 7 12
REMARK SMILES IDX 6 14 5 15 4 16 19 17 3 18 20 19 21 20 2 21 1 22 22 23
REMARK H PARENT 7 13 22 24
REMARK Flexibility Score: inf
ROOT
ATOM      1  C   UNL     1     117.411 113.286 119.595  1.00  0.00     0.010 C 
ENDROOT
BRANCH   1   2
ATOM      2  C   UNL     1     118.501 114.054 120.358  1.00  0.00     0.005 C 
BRANCH   2   3
ATOM      3  C   UNL     1     117.962 115.318 121.043  1.00  0.00     0.027 C 
BRANCH   3   4
ATOM      4  C   UNL     1     118.382 116.554 120.298  1.00  0.00    -0.031 C 
ATOM      5  C   UNL     1     119.180 116.484 119.218  1.00  0.00    -0.028 C 
BRANCH   5   6
ATOM      6  C   UNL     1     119.615 117.706 118.440  1.00  0.00     0.005 C 
ATOM      7  C   UNL     1     118.427 118.623 118.129  1.00  0.00     0.012 C 
ATOM      8  C   UNL     1     120.727 118.466 119.172  1.00  0.00     0.012 C 
ENDBRANCH   5   6
ENDBRANCH   3   4
ENDBRANCH   2   3
ENDBRANCH   1   2
BRANCH   1   9
ATOM      9  C   UNL     1     117.639 113.290 118.078  1.00  0.00     0.100 C 
BRANCH   9  10
ATOM     10  C   UNL     1     116.690 114.235 117.408  1.00  0.00     0.220 C 
ATOM     11  O   UNL     1     116.697 114.336 116.151  1.00  0.00    -0.275 OA
ATOM     12  N   UNL     1     115.751 114.986 118.190  1.00  0.00    -0.352 N 
ATOM     13  H   UNL     1     115.721 114.840 119.224  1.00  0.00     0.163 HD
BRANCH  12  14
ATOM     14  C   UNL     1     114.818 115.940 117.594  1.00  0.00     0.151 C 
BRANCH  14  15
ATOM     15  C   UNL     1     114.808 117.224 118.380  1.00  0.00    -0.025 A 
ATOM     16  C   UNL     1     114.736 117.190 119.781  1.00  0.00     0.056 A 
ATOM     17  C   UNL     1     114.896 118.461 117.724  1.00  0.00     0.009 A 
ATOM     18  C   UNL     1     114.750 118.384 120.530  1.00  0.00     0.160 A 
ATOM     19  C   UNL     1     114.909 119.647 118.460  1.00  0.00     0.050 A 
ATOM     20  C   UNL     1     114.836 119.616 119.855  1.00  0.00     0.157 A 
BRANCH  18  21
ATOM     21  O   UNL     1     114.681 118.383 121.934  1.00  0.00    -0.493 OA
ATOM     22  C   UNL     1     115.638 117.767 122.788  1.00  0.00     0.278 C 
ENDBRANCH  18  21
BRANCH  20  23
ATOM     23  O   UNL     1     114.852 120.822 120.557  1.00  0.00    -0.504 OA
ATOM     24  H   UNL     1     114.461 121.675 120.175  1.00  0.00     0.293 HD
ENDBRANCH  20  23
ENDBRANCH  14  15
ENDBRANCH  12  14
ENDBRANCH   9  10
ENDBRANCH   1   9
TORSDOF 10
ENDMDL
MODEL 7
REMARK VINA RESULT:    -3.980      2.173      3.818
REMARK INTER + INTRA:          -8.398
REMARK INTER:                  -6.652
REMARK INTRA:                  -1.746
REMARK UNBOUND:                -2.208
REMARK SMILES COc1cc(CNC(=O)CCCCC=CC(C)C)ccc1O
REMARK SMILES IDX 11 1 12 2 13 3 14 4 15 5 16 6 17 7 18 8 10 9 8 10 9 11 7 12
REMARK SMILES IDX 6 14 5 15 4 16 19 17 3 18 20 19 21 20 2 21 1 22 22 23
REMARK H PARENT 7 13 22 24
REMARK Flexibility Score: inf
ROOT
ATOM      1  C   UNL     1     116.140 119.318 116.432  1.00  0.00     0.010 C 
ENDROOT
BRANCH   1   2
ATOM      2  C   UNL     1     116.108 119.865 117.868  1.00  0.00     0.005 C 
BRANCH   2   3
ATOM      3  C   UNL     1     114.955 119.280 118.696  1.00  0.00     0.027 C 
BRANCH   3   4
ATOM      4  C   UNL     1     115.067 117.785 118.794  1.00  0.00    -0.031 C 
ATOM      5  C   UNL     1     114.183 117.061 119.505  1.00  0.00    -0.028 C 
BRANCH   5   6
ATOM      6  C   UNL     1     114.262 115.555 119.619  1.00  0.00     0.005 C 
ATOM      7  C   UNL     1     112.867 114.926 119.702  1.00  0.00     0.012 C 
ATOM      8  C   UNL     1     115.077 114.951 118.470  1.00  0.00     0.012 C 
ENDBRANCH   5   6
ENDBRANCH   3   4
ENDBRANCH   2   3
ENDBRANCH   1   2
BRANCH   1   9
ATOM      9  C   UNL     1     117.566 119.208 115.875  1.00  0.00     0.100 C 
BRANCH   9  10
ATOM     10  C   UNL     1     118.413 118.357 116.771  1.00  0.00     0.220 C 
ATOM     11  O   UNL     1     118.604 117.146 116.479  1.00  0.00    -0.275 OA
ATOM     12  N   UNL     1     119.038 118.931 117.928  1.00  0.00    -0.352 N 
ATOM     13  H   UNL     1     118.917 119.950 118.116  1.00  0.00     0.163 HD
BRANCH  12  14
ATOM     14  C   UNL     1     119.854 118.144 118.850  1.00  0.00     0.151 C 
BRANCH  14  15
ATOM     15  C   UNL     1     118.977 117.358 119.787  1.00  0.00    -0.025 A 
ATOM     16  C   UNL     1     118.925 115.958 119.693  1.00  0.00     0.056 A 
ATOM     17  C   UNL     1     118.228 118.010 120.778  1.00  0.00     0.009 A 
ATOM     18  C   UNL     1     118.127 115.208 120.580  1.00  0.00     0.160 A 
ATOM     19  C   UNL     1     117.434 117.273 121.658  1.00  0.00     0.050 A 
ATOM     20  C   UNL     1     117.380 115.880 121.565  1.00  0.00     0.157 A 
BRANCH  18  21
ATOM     21  O   UNL     1     118.054 113.807 120.512  1.00  0.00    -0.493 OA
ATOM     22  C   UNL     1     118.172 113.049 119.312  1.00  0.00     0.278 C 
ENDBRANCH  18  21
BRANCH  20  23
ATOM     23  O   UNL     1     116.576 115.177 122.464  1.00  0.00    -0.504 OA
ATOM     24  H   UNL     1     115.571 115.300 122.500  1.00  0.00     0.293 HD
ENDBRANCH  20  23
ENDBRANCH  14  15
ENDBRANCH  12  14
ENDBRANCH   9  10
ENDBRANCH   1   9
TORSDOF 10
ENDMDL
MODEL 8
REMARK VINA RESULT:    -3.924      2.045      4.717
REMARK INTER + INTRA:          -8.310
REMARK INTER:                  -6.166
REMARK INTRA:                  -2.144
REMARK UNBOUND:                -2.208
REMARK SMILES COc1cc(CNC(=O)CCCCC=CC(C)C)ccc1O
REMARK SMILES IDX 11 1 12 2 13 3 14 4 15 5 16 6 17 7 18 8 10 9 8 10 9 11 7 12
REMARK SMILES IDX 6 14 5 15 4 16 19 17 3 18 20 19 21 20 2 21 1 22 22 23
REMARK H PARENT 7 13 22 24
REMARK Flexibility Score: inf
ROOT
ATOM      1  C   UNL     1     118.515 113.337 118.409  1.00  0.00     0.010 C 
ENDROOT
BRANCH   1   2
ATOM      2  C   UNL     1     117.278 113.278 117.500  1.00  0.00     0.005 C 
BRANCH   2   3
ATOM      3  C   UNL     1     117.001 114.613 116.792  1.00  0.00     0.027 C 
BRANCH   3   4
ATOM      4  C   UNL     1     115.708 115.215 117.266  1.00  0.00    -0.031 C 
ATOM      5  C   UNL     1     115.085 114.758 118.367  1.00  0.00    -0.028 C 
BRANCH   5   6
ATOM      6  C   UNL     1     113.787 115.345 118.876  1.00  0.00     0.005 C 
ATOM      7  C   UNL     1     112.578 114.747 118.146  1.00  0.00     0.012 C 
ATOM      8  C   UNL     1     113.658 115.179 120.394  1.00  0.00     0.012 C 
ENDBRANCH   5   6
ENDBRANCH   3   4
ENDBRANCH   2   3
ENDBRANCH   1   2
BRANCH   1   9
ATOM      9  C   UNL     1     118.148 113.367 119.899  1.00  0.00     0.100 C 
BRANCH   9  10
ATOM     10  C   UNL     1     118.151 114.775 120.410  1.00  0.00     0.220 C 
ATOM     11  O   UNL     1     117.767 115.009 121.588  1.00  0.00    -0.275 OA
ATOM     12  N   UNL     1     118.627 115.842 119.578  1.00  0.00    -0.352 N 
ATOM     13  H   UNL     1     118.998 115.617 118.629  1.00  0.00     0.163 HD
BRANCH  12  14
ATOM     14  C   UNL     1     118.630 117.236 120.014  1.00  0.00     0.151 C 
BRANCH  14  15
ATOM     15  C   UNL     1     117.405 117.947 119.505  1.00  0.00    -0.025 A 
ATOM     16  C   UNL     1     117.369 118.432 118.188  1.00  0.00     0.056 A 
ATOM     17  C   UNL     1     116.280 118.108 120.329  1.00  0.00     0.009 A 
ATOM     18  C   UNL     1     116.220 119.078 117.691  1.00  0.00     0.160 A 
ATOM     19  C   UNL     1     115.139 118.748 119.843  1.00  0.00     0.050 A 
ATOM     20  C   UNL     1     115.102 119.233 118.533  1.00  0.00     0.157 A 
BRANCH  18  21
ATOM     21  O   UNL     1     116.153 119.573 116.378  1.00  0.00    -0.493 OA
ATOM     22  C   UNL     1     116.526 120.892 115.992  1.00  0.00     0.278 C 
ENDBRANCH  18  21
BRANCH  20  23
ATOM     23  O   UNL     1     113.943 119.866 118.083  1.00  0.00    -0.504 OA
ATOM     24  H   UNL     1     113.697 120.807 118.366  1.00  0.00     0.293 HD
ENDBRANCH  20  23
ENDBRANCH  14  15
ENDBRANCH  12  14
ENDBRANCH   9  10
ENDBRANCH   1   9
TORSDOF 10
ENDMDL
MODEL 9
REMARK VINA RESULT:    -3.923      1.564      3.798
REMARK INTER + INTRA:          -8.310
REMARK INTER:                  -6.272
REMARK INTRA:                  -2.038
REMARK UNBOUND:                -2.208
REMARK SMILES COc1cc(CNC(=O)CCCCC=CC(C)C)ccc1O
REMARK SMILES IDX 11 1 12 2 13 3 14 4 15 5 16 6 17 7 18 8 10 9 8 10 9 11 7 12
REMARK SMILES IDX 6 14 5 15 4 16 19 17 3 18 20 19 21 20 2 21 1 22 22 23
REMARK H PARENT 7 13 22 24
REMARK Flexibility Score: inf
ROOT
ATOM      1  C   UNL     1     114.191 119.777 116.709  1.00  0.00     0.010 C 
ENDROOT
BRANCH   1   2
ATOM      2  C   UNL     1     115.430 120.046 117.577  1.00  0.00     0.005 C 
BRANCH   2   3
ATOM      3  C   UNL     1     115.130 119.945 119.080  1.00  0.00     0.027 C 
BRANCH   3   4
ATOM      4  C   UNL     1     116.179 119.131 119.784  1.00  0.00    -0.031 C 
ATOM      5  C   UNL     1     117.335 118.805 119.179  1.00  0.00    -0.028 C 
BRANCH   5   6
ATOM      6  C   UNL     1     118.415 117.994 119.860  1.00  0.00     0.005 C 
ATOM      7  C   UNL     1     119.767 118.159 119.157  1.00  0.00     0.012 C 
ATOM      8  C   UNL     1     118.517 118.340 121.350  1.00  0.00     0.012 C 
ENDBRANCH   5   6
ENDBRANCH   3   4
ENDBRANCH   2   3
ENDBRANCH   1   2
BRANCH   1   9
ATOM      9  C   UNL     1     114.472 118.783 115.574  1.00  0.00     0.100 C 
BRANCH   9  10
ATOM     10  C   UNL     1     114.462 117.378 116.094  1.00  0.00     0.220 C 
ATOM     11  O   UNL     1     115.210 116.513 115.562  1.00  0.00    -0.275 OA
ATOM     12  N   UNL     1     113.639 117.033 117.217  1.00  0.00    -0.352 N 
ATOM     13  H   UNL     1     113.075 117.779 117.680  1.00  0.00     0.163 HD
BRANCH  12  14
ATOM     14  C   UNL     1     113.570 115.675 117.751  1.00  0.00     0.151 C 
BRANCH  14  15
ATOM     15  C   UNL     1     114.532 115.512 118.897  1.00  0.00    -0.025 A 
ATOM     16  C   UNL     1     115.778 114.900 118.686  1.00  0.00     0.056 A 
ATOM     17  C   UNL     1     114.207 115.991 120.174  1.00  0.00     0.009 A 
ATOM     18  C   UNL     1     116.699 114.763 119.745  1.00  0.00     0.160 A 
ATOM     19  C   UNL     1     115.114 115.857 121.227  1.00  0.00     0.050 A 
ATOM     20  C   UNL     1     116.354 115.248 121.020  1.00  0.00     0.157 A 
BRANCH  18  21
ATOM     21  O   UNL     1     117.954 114.158 119.566  1.00  0.00    -0.493 OA
ATOM     22  C   UNL     1     118.164 112.755 119.445  1.00  0.00     0.278 C 
ENDBRANCH  18  21
BRANCH  20  23
ATOM     23  O   UNL     1     117.234 115.133 122.097  1.00  0.00    -0.504 OA
ATOM     24  H   UNL     1     116.939 114.788 123.003  1.00  0.00     0.293 HD
ENDBRANCH  20  23
ENDBRANCH  14  15
ENDBRANCH  12  14
ENDBRANCH   9  10
ENDBRANCH   1   9
TORSDOF 10
ENDMDL
