MODEL 1
REMARK VINA RESULT:    -4.266      0.000      0.000
REMARK INTER + INTRA:          -4.506
REMARK INTER:                  -5.264
REMARK INTRA:                   0.758
REMARK UNBOUND:                 0.758
REMARK SMILES CC1=CC=CC(C)(C)CC1=O
REMARK SMILES IDX 1 1 2 2 3 3 10 4 11 5 9 6 4 8 5 9 6 10 7 11 8 12
REMARK H PARENT
REMARK Flexibility Score: 80.00
ROOT
ATOM      1  C   UNL     1       3.291  17.004  -6.114  1.00  0.00     0.048 C 
ATOM      2  C   UNL     1       3.891  15.822  -6.838  1.00  0.00    -0.008 C 
ATOM      3  C   UNL     1       4.181  15.972  -8.148  1.00  0.00     0.007 C 
ENDROOT
BRANCH   2   4
ATOM      4  C   UNL     1       4.044  14.563  -6.066  1.00  0.00     0.159 C 
ATOM      5  O   UNL     1       3.502  14.476  -4.930  1.00  0.00    -0.295 OA
BRANCH   4   6
ATOM      6  C   UNL     1       4.822  13.382  -6.557  1.00  0.00     0.091 CG0
ATOM      7  G   UNL     1       4.296  12.819  -7.897  1.00  0.00     0.000 G0
ENDBRANCH   4   6
ENDBRANCH   2   4
BRANCH   3   8
ATOM      8  C   UNL     1       4.743  15.001  -9.115  1.00  0.00    -0.003 C 
ATOM      9  C   UNL     1       4.792  13.664  -9.038  1.00  0.00    -0.020 C 
BRANCH   9  10
ATOM     10  C   UNL     1       4.295  12.813  -7.895  1.00  0.00    -0.010 CG0
ATOM     11  C   UNL     1       4.869  11.388  -8.066  1.00  0.00     0.016 C 
ATOM     12  C   UNL     1       2.753  12.714  -7.942  1.00  0.00     0.016 C 
ATOM     13  G   UNL     1       4.814  13.383  -6.556  1.00  0.00     0.000 G0
ENDBRANCH   9  10
ENDBRANCH   3   8
TORSDOF 0
ENDMDL
MODEL 2
REMARK VINA RESULT:    -4.081      1.590      2.491
REMARK INTER + INTRA:          -4.278
REMARK INTER:                  -5.037
REMARK INTRA:                   0.759
REMARK UNBOUND:                 0.758
REMARK SMILES CC1=CC=CC(C)(C)CC1=O
REMARK SMILES IDX 1 1 2 2 3 3 10 4 11 5 9 6 4 8 5 9 6 10 7 11 8 12
REMARK H PARENT
REMARK Flexibility Score: 80.00
ROOT
ATOM      1  C   UNL     1       3.731  16.959  -6.312  1.00  0.00     0.048 C 
ATOM      2  C   UNL     1       3.487  15.559  -6.820  1.00  0.00    -0.008 C 
ATOM      3  C   UNL     1       2.858  14.694  -5.995  1.00  0.00     0.007 C 
ENDROOT
BRANCH   2   4
ATOM      4  C   UNL     1       4.028  15.223  -8.162  1.00  0.00     0.159 C 
ATOM      5  O   UNL     1       4.801  16.042  -8.729  1.00  0.00    -0.295 OA
BRANCH   4   6
ATOM      6  C   UNL     1       3.695  13.960  -8.893  1.00  0.00     0.091 CG0
ATOM      7  G   UNL     1       4.079  12.682  -8.113  1.00  0.00     0.000 G0
ENDBRANCH   4   6
ENDBRANCH   2   4
BRANCH   3   8
ATOM      8  C   UNL     1       2.508  13.269  -6.199  1.00  0.00    -0.003 C 
ATOM      9  C   UNL     1       3.010  12.393  -7.079  1.00  0.00    -0.020 C 
BRANCH   9  10
ATOM     10  C   UNL     1       4.065  12.674  -8.122  1.00  0.00    -0.010 CG0
ATOM     11  C   UNL     1       4.082  11.498  -9.124  1.00  0.00     0.016 C 
ATOM     12  C   UNL     1       5.458  12.752  -7.455  1.00  0.00     0.016 C 
ATOM     13  G   UNL     1       3.703  13.961  -8.896  1.00  0.00     0.000 G0
ENDBRANCH   9  10
ENDBRANCH   3   8
TORSDOF 0
ENDMDL
MODEL 3
REMARK VINA RESULT:    -4.070      1.275      1.433
REMARK INTER + INTRA:          -4.264
REMARK INTER:                  -5.018
REMARK INTRA:                   0.755
REMARK UNBOUND:                 0.758
REMARK SMILES CC1=CC=CC(C)(C)CC1=O
REMARK SMILES IDX 1 1 2 2 3 3 10 4 11 5 9 6 4 8 5 9 6 10 7 11 8 12
REMARK H PARENT
REMARK Flexibility Score: 80.00
ROOT
ATOM      1  C   UNL     1       3.668  16.616  -5.905  1.00  0.00     0.048 C 
ATOM      2  C   UNL     1       3.704  15.511  -6.934  1.00  0.00    -0.008 C 
ATOM      3  C   UNL     1       2.663  15.420  -7.790  1.00  0.00     0.007 C 
ENDROOT
BRANCH   2   4
ATOM      4  C   UNL     1       4.847  14.567  -6.871  1.00  0.00     0.159 C 
ATOM      5  O   UNL     1       5.617  14.609  -5.873  1.00  0.00    -0.295 OA
BRANCH   4   6
ATOM      6  C   UNL     1       5.149  13.564  -7.941  1.00  0.00     0.091 CG0
ATOM      7  G   UNL     1       3.984  12.584  -8.206  1.00  0.00     0.000 G0
ENDBRANCH   4   6
ENDBRANCH   2   4
BRANCH   3   8
ATOM      8  C   UNL     1       2.406  14.442  -8.873  1.00  0.00    -0.003 C 
ATOM      9  C   UNL     1       2.943  13.229  -9.061  1.00  0.00    -0.020 C 
BRANCH   9  10
ATOM     10  C   UNL     1       3.991  12.568  -8.198  1.00  0.00    -0.010 CG0
ATOM     11  C   UNL     1       4.567  11.361  -8.972  1.00  0.00     0.016 C 
ATOM     12  C   UNL     1       3.346  12.037  -6.898  1.00  0.00     0.016 C 
ATOM     13  G   UNL     1       5.144  13.560  -7.927  1.00  0.00     0.000 G0
ENDBRANCH   9  10
ENDBRANCH   3   8
TORSDOF 0
ENDMDL
MODEL 4
REMARK VINA RESULT:    -3.932      1.770      3.839
REMARK INTER + INTRA:          -4.094
REMARK INTER:                  -4.863
REMARK INTRA:                   0.769
REMARK UNBOUND:                 0.758
REMARK SMILES CC1=CC=CC(C)(C)CC1=O
REMARK SMILES IDX 1 1 2 2 3 3 10 4 11 5 9 6 4 8 5 9 6 10 7 11 8 12
REMARK H PARENT
REMARK Flexibility Score: 80.00
ROOT
ATOM      1  C   UNL     1       4.494  11.106  -9.115  1.00  0.00     0.048 C 
ATOM      2  C   UNL     1       4.249  12.147  -8.050  1.00  0.00    -0.008 C 
ATOM      3  C   UNL     1       3.140  12.014  -7.289  1.00  0.00     0.007 C 
ENDROOT
BRANCH   2   4
ATOM      4  C   UNL     1       5.208  13.277  -7.975  1.00  0.00     0.159 C 
ATOM      5  O   UNL     1       6.046  13.427  -8.906  1.00  0.00    -0.295 OA
BRANCH   4   6
ATOM      6  C   UNL     1       5.248  14.252  -6.839  1.00  0.00     0.091 CG0
ATOM      7  G   UNL     1       3.925  15.030  -6.655  1.00  0.00     0.000 G0
ENDBRANCH   4   6
ENDBRANCH   2   4
BRANCH   3   8
ATOM      8  C   UNL     1       2.624  12.877  -6.201  1.00  0.00    -0.003 C 
ATOM      9  C   UNL     1       2.927  14.150  -5.917  1.00  0.00    -0.020 C 
BRANCH   9  10
ATOM     10  C   UNL     1       3.920  15.021  -6.650  1.00  0.00    -0.010 CG0
ATOM     11  C   UNL     1       4.201  16.270  -5.784  1.00  0.00     0.016 C 
ATOM     12  C   UNL     1       3.315  15.498  -7.991  1.00  0.00     0.016 C 
ATOM     13  G   UNL     1       5.248  14.255  -6.836  1.00  0.00     0.000 G0
ENDBRANCH   9  10
ENDBRANCH   3   8
TORSDOF 0
ENDMDL
MODEL 5
REMARK VINA RESULT:    -3.731      1.457      3.493
REMARK INTER + INTRA:          -3.846
REMARK INTER:                  -4.602
REMARK INTRA:                   0.756
REMARK UNBOUND:                 0.758
REMARK SMILES CC1=CC=CC(C)(C)CC1=O
REMARK SMILES IDX 1 1 2 2 3 3 10 4 11 5 9 6 4 8 5 9 6 10 7 11 8 12
REMARK H PARENT
REMARK Flexibility Score: 80.00
ROOT
ATOM      1  C   UNL     1       4.065  11.362  -8.588  1.00  0.00     0.048 C 
ATOM      2  C   UNL     1       3.906  12.844  -8.345  1.00  0.00    -0.008 C 
ATOM      3  C   UNL     1       4.620  13.686  -9.125  1.00  0.00     0.007 C 
ENDROOT
BRANCH   2   4
ATOM      4  C   UNL     1       3.034  13.255  -7.216  1.00  0.00     0.159 C 
ATOM      5  O   UNL     1       2.639  12.376  -6.402  1.00  0.00    -0.295 OA
BRANCH   4   6
ATOM      6  C   UNL     1       2.581  14.665  -6.993  1.00  0.00     0.091 CG0
ATOM      7  G   UNL     1       3.749  15.657  -6.793  1.00  0.00     0.000 G0
ENDBRANCH   4   6
ENDBRANCH   2   4
BRANCH   3   8
ATOM      8  C   UNL     1       4.693  15.165  -9.108  1.00  0.00    -0.003 C 
ATOM      9  C   UNL     1       4.348  16.017  -8.134  1.00  0.00    -0.020 C 
BRANCH   9  10
ATOM     10  C   UNL     1       3.756  15.655  -6.793  1.00  0.00    -0.010 CG0
ATOM     11  C   UNL     1       3.187  16.940  -6.150  1.00  0.00     0.016 C 
ATOM     12  C   UNL     1       4.860  15.104  -5.861  1.00  0.00     0.016 C 
ATOM     13  G   UNL     1       2.591  14.658  -6.989  1.00  0.00     0.000 G0
ENDBRANCH   9  10
ENDBRANCH   3   8
TORSDOF 0
ENDMDL
MODEL 6
REMARK VINA RESULT:    -3.193      1.579      2.159
REMARK INTER + INTRA:          -3.182
REMARK INTER:                  -4.188
REMARK INTRA:                   1.005
REMARK UNBOUND:                 0.758
REMARK SMILES CC1=CC=CC(C)(C)CC1=O
REMARK SMILES IDX 1 1 2 2 3 3 10 4 11 5 9 6 4 8 5 9 6 10 7 11 8 12
REMARK H PARENT
REMARK Flexibility Score: 80.00
ROOT
ATOM      1  C   UNL     1       3.670  16.444  -6.195  1.00  0.00     0.048 C 
ATOM      2  C   UNL     1       4.002  15.130  -6.859  1.00  0.00    -0.008 C 
ATOM      3  C   UNL     1       5.193  14.564  -6.565  1.00  0.00     0.007 C 
ENDROOT
BRANCH   2   4
ATOM      4  C   UNL     1       3.023  14.602  -7.842  1.00  0.00     0.159 C 
ATOM      5  O   UNL     1       1.856  15.082  -7.856  1.00  0.00    -0.295 OA
BRANCH   4   6
ATOM      6  C   UNL     1       3.339  13.513  -8.820  1.00  0.00     0.091 CG0
ATOM      7  G   UNL     1       3.791  12.199  -8.145  1.00  0.00     0.000 G0
ENDBRANCH   4   6
ENDBRANCH   2   4
BRANCH   3   8
ATOM      8  C   UNL     1       5.801  13.311  -7.071  1.00  0.00    -0.003 C 
ATOM      9  C   UNL     1       5.230  12.310  -7.754  1.00  0.00    -0.020 C 
BRANCH   9  10
ATOM     10  C   UNL     1       3.777  12.212  -8.154  1.00  0.00    -0.010 CG0
ATOM     11  C   UNL     1       2.936  11.989  -6.876  1.00  0.00     0.016 C 
ATOM     12  C   UNL     1       3.567  10.993  -9.081  1.00  0.00     0.016 C 
ATOM     13  G   UNL     1       3.324  13.539  -8.803  1.00  0.00     0.000 G0
ENDBRANCH   9  10
ENDBRANCH   3   8
TORSDOF 0
ENDMDL
MODEL 7
REMARK VINA RESULT:    -3.088      1.460      2.482
REMARK INTER + INTRA:          -3.052
REMARK INTER:                  -4.120
REMARK INTRA:                   1.068
REMARK UNBOUND:                 0.758
REMARK SMILES CC1=CC=CC(C)(C)CC1=O
REMARK SMILES IDX 1 1 2 2 3 3 10 4 11 5 9 6 4 8 5 9 6 10 7 11 8 12
REMARK H PARENT
REMARK Flexibility Score: 80.00
ROOT
ATOM      1  C   UNL     1       1.635  15.537  -5.275  1.00  0.00     0.048 C 
ATOM      2  C   UNL     1       2.624  14.768  -6.119  1.00  0.00    -0.008 C 
ATOM      3  C   UNL     1       2.301  13.503  -6.464  1.00  0.00     0.007 C 
ENDROOT
BRANCH   2   4
ATOM      4  C   UNL     1       3.908  15.441  -6.437  1.00  0.00     0.159 C 
ATOM      5  O   UNL     1       3.995  16.690  -6.283  1.00  0.00    -0.295 OA
BRANCH   4   6
ATOM      6  C   UNL     1       5.116  14.718  -6.947  1.00  0.00     0.091 CG0
ATOM      7  G   UNL     1       4.871  13.994  -8.290  1.00  0.00     0.000 G0
ENDBRANCH   4   6
ENDBRANCH   2   4
BRANCH   3   8
ATOM      8  C   UNL     1       3.066  12.507  -7.249  1.00  0.00    -0.003 C 
ATOM      9  C   UNL     1       4.158  12.685  -8.005  1.00  0.00    -0.020 C 
BRANCH   9  10
ATOM     10  C   UNL     1       4.867  13.993  -8.264  1.00  0.00    -0.010 CG0
ATOM     11  C   UNL     1       3.943  14.884  -9.125  1.00  0.00     0.016 C 
ATOM     12  C   UNL     1       6.166  13.740  -9.062  1.00  0.00     0.016 C 
ATOM     13  G   UNL     1       5.124  14.719  -6.924  1.00  0.00     0.000 G0
ENDBRANCH   9  10
ENDBRANCH   3   8
TORSDOF 0
ENDMDL
MODEL 8
REMARK VINA RESULT:    -2.746      1.433      2.857
REMARK INTER + INTRA:          -2.630
REMARK INTER:                  -3.389
REMARK INTRA:                   0.759
REMARK UNBOUND:                 0.758
REMARK SMILES CC1=CC=CC(C)(C)CC1=O
REMARK SMILES IDX 1 1 2 2 3 3 10 4 11 5 9 6 4 8 5 9 6 10 7 11 8 12
REMARK H PARENT
REMARK Flexibility Score: 80.00
ROOT
ATOM      1  C   UNL     1       6.422  12.661  -5.040  1.00  0.00     0.048 C 
ATOM      2  C   UNL     1       5.476  12.792  -6.209  1.00  0.00    -0.008 C 
ATOM      3  C   UNL     1       5.948  12.477  -7.435  1.00  0.00     0.007 C 
ENDROOT
BRANCH   2   4
ATOM      4  C   UNL     1       4.121  13.330  -5.926  1.00  0.00     0.159 C 
ATOM      5  O   UNL     1       3.885  13.813  -4.785  1.00  0.00    -0.295 OA
BRANCH   4   6
ATOM      6  C   UNL     1       3.005  13.323  -6.923  1.00  0.00     0.091 CG0
ATOM      7  G   UNL     1       3.342  14.085  -8.224  1.00  0.00     0.000 G0
ENDBRANCH   4   6
ENDBRANCH   2   4
BRANCH   3   8
ATOM      8  C   UNL     1       5.278  12.529  -8.755  1.00  0.00    -0.003 C 
ATOM      9  C   UNL     1       4.182  13.208  -9.119  1.00  0.00    -0.020 C 
BRANCH   9  10
ATOM     10  C   UNL     1       3.332  14.084  -8.231  1.00  0.00    -0.010 CG0
ATOM     11  C   UNL     1       2.003  14.375  -8.964  1.00  0.00     0.016 C 
ATOM     12  C   UNL     1       4.045  15.434  -7.983  1.00  0.00     0.016 C 
ATOM     13  G   UNL     1       3.005  13.335  -6.920  1.00  0.00     0.000 G0
ENDBRANCH   9  10
ENDBRANCH   3   8
TORSDOF 0
ENDMDL
MODEL 9
REMARK VINA RESULT:    -1.791      2.040      3.662
REMARK INTER + INTRA:          -1.452
REMARK INTER:                  -2.499
REMARK INTRA:                   1.047
REMARK UNBOUND:                 0.758
REMARK SMILES CC1=CC=CC(C)(C)CC1=O
REMARK SMILES IDX 1 1 2 2 3 3 10 4 11 5 9 6 4 8 5 9 6 10 7 11 8 12
REMARK H PARENT
REMARK Flexibility Score: 80.00
ROOT
ATOM      1  C   UNL     1       2.638  11.271  -6.557  1.00  0.00     0.048 C 
ATOM      2  C   UNL     1       2.949  12.724  -6.827  1.00  0.00    -0.008 C 
ATOM      3  C   UNL     1       3.015  13.557  -5.766  1.00  0.00     0.007 C 
ENDROOT
BRANCH   2   4
ATOM      4  C   UNL     1       3.083  13.135  -8.247  1.00  0.00     0.159 C 
ATOM      5  O   UNL     1       3.255  12.244  -9.124  1.00  0.00    -0.295 OA
BRANCH   4   6
ATOM      6  C   UNL     1       3.036  14.560  -8.703  1.00  0.00     0.091 CG0
ATOM      7  G   UNL     1       4.143  15.438  -8.076  1.00  0.00     0.000 G0
ENDBRANCH   4   6
ENDBRANCH   2   4
BRANCH   3   8
ATOM      8  C   UNL     1       3.271  15.016  -5.716  1.00  0.00    -0.003 C 
ATOM      9  C   UNL     1       3.738  15.824  -6.676  1.00  0.00    -0.020 C 
BRANCH   9  10
ATOM     10  C   UNL     1       4.153  15.417  -8.070  1.00  0.00    -0.010 CG0
ATOM     11  C   UNL     1       5.436  14.562  -7.963  1.00  0.00     0.016 C 
ATOM     12  C   UNL     1       4.484  16.671  -8.910  1.00  0.00     0.016 C 
ATOM     13  G   UNL     1       3.047  14.548  -8.709  1.00  0.00     0.000 G0
ENDBRANCH   9  10
ENDBRANCH   3   8
TORSDOF 0
ENDMDL
