MODEL 1
REMARK VINA RESULT:    -2.218      0.000      0.000
REMARK INTER + INTRA:          -2.218
REMARK INTER:                  -2.218
REMARK INTRA:                   0.000
REMARK UNBOUND:                 0.000
REMARK SMILES c1cc[nH]c1
REMARK SMILES IDX 1 1 5 2 4 3 3 4 2 5
REMARK H PARENT 4 6
REMARK Flexibility Score: inf
ROOT
ATOM      1  C   UNL     1     140.803 137.789 136.232  1.00  0.00     0.019 A 
ATOM      2  C   UNL     1     140.063 137.779 137.396  1.00  0.00     0.082 A 
ATOM      3  N   UNL     1     139.139 138.755 137.362  1.00  0.00    -0.368 N 
ATOM      4  C   UNL     1     139.280 139.392 136.185  1.00  0.00     0.082 A 
ATOM      5  C   UNL     1     140.303 138.818 135.458  1.00  0.00     0.019 A 
ATOM      6  H   UNL     1     138.443 138.978 138.107  1.00  0.00     0.165 HD
ENDROOT
TORSDOF 0
ENDMDL
MODEL 2
REMARK VINA RESULT:    -2.217      5.633      6.169
REMARK INTER + INTRA:          -2.217
REMARK INTER:                  -2.217
REMARK INTRA:                   0.000
REMARK UNBOUND:                 0.000
REMARK SMILES c1cc[nH]c1
REMARK SMILES IDX 1 1 5 2 4 3 3 4 2 5
REMARK H PARENT 4 6
REMARK Flexibility Score: inf
ROOT
ATOM      1  C   UNL     1     138.839 132.331 135.436  1.00  0.00     0.019 A 
ATOM      2  C   UNL     1     139.423 133.330 136.189  1.00  0.00     0.082 A 
ATOM      3  N   UNL     1     138.781 133.455 137.364  1.00  0.00    -0.368 N 
ATOM      4  C   UNL     1     137.790 132.546 137.372  1.00  0.00     0.082 A 
ATOM      5  C   UNL     1     137.796 131.830 136.192  1.00  0.00     0.019 A 
ATOM      6  H   UNL     1     139.009 134.131 138.126  1.00  0.00     0.165 HD
ENDROOT
TORSDOF 0
ENDMDL
MODEL 3
REMARK VINA RESULT:    -2.214      0.087      1.624
REMARK INTER + INTRA:          -2.214
REMARK INTER:                  -2.214
REMARK INTRA:                   0.000
REMARK UNBOUND:                 0.000
REMARK SMILES c1cc[nH]c1
REMARK SMILES IDX 1 1 5 2 4 3 3 4 2 5
REMARK H PARENT 4 6
REMARK Flexibility Score: inf
ROOT
ATOM      1  C   UNL     1     140.259 138.855 135.493  1.00  0.00     0.019 A 
ATOM      2  C   UNL     1     139.259 139.377 136.287  1.00  0.00     0.082 A 
ATOM      3  N   UNL     1     139.160 138.670 137.426  1.00  0.00    -0.368 N 
ATOM      4  C   UNL     1     140.088 137.698 137.370  1.00  0.00     0.082 A 
ATOM      5  C   UNL     1     140.790 137.784 136.185  1.00  0.00     0.019 A 
ATOM      6  H   UNL     1     138.489 138.842 138.207  1.00  0.00     0.165 HD
ENDROOT
TORSDOF 0
ENDMDL
MODEL 4
REMARK VINA RESULT:    -2.208      8.278      8.551
REMARK INTER + INTRA:          -2.208
REMARK INTER:                  -2.208
REMARK INTRA:                   0.000
REMARK UNBOUND:                 0.000
REMARK SMILES c1cc[nH]c1
REMARK SMILES IDX 1 1 5 2 4 3 3 4 2 5
REMARK H PARENT 4 6
REMARK Flexibility Score: inf
ROOT
ATOM      1  C   UNL     1     132.312 133.846 135.443  1.00  0.00     0.019 A 
ATOM      2  C   UNL     1     133.282 133.222 136.201  1.00  0.00     0.082 A 
ATOM      3  N   UNL     1     133.447 133.876 137.365  1.00  0.00    -0.368 N 
ATOM      4  C   UNL     1     132.591 134.914 137.360  1.00  0.00     0.082 A 
ATOM      5  C   UNL     1     131.871 134.925 136.183  1.00  0.00     0.019 A 
ATOM      6  H   UNL     1     134.113 133.625 138.128  1.00  0.00     0.165 HD
ENDROOT
TORSDOF 0
ENDMDL
MODEL 5
REMARK VINA RESULT:    -2.207      5.577      6.062
REMARK INTER + INTRA:          -2.207
REMARK INTER:                  -2.207
REMARK INTRA:                   0.000
REMARK UNBOUND:                 0.000
REMARK SMILES c1cc[nH]c1
REMARK SMILES IDX 1 1 5 2 4 3 3 4 2 5
REMARK H PARENT 4 6
REMARK Flexibility Score: inf
ROOT
ATOM      1  C   UNL     1     134.922 140.772 136.240  1.00  0.00     0.019 A 
ATOM      2  C   UNL     1     134.899 140.057 137.420  1.00  0.00     0.082 A 
ATOM      3  N   UNL     1     133.868 139.193 137.414  1.00  0.00    -0.368 N 
ATOM      4  C   UNL     1     133.230 139.347 136.240  1.00  0.00     0.082 A 
ATOM      5  C   UNL     1     133.857 140.318 135.486  1.00  0.00     0.019 A 
ATOM      6  H   UNL     1     133.611 138.528 138.177  1.00  0.00     0.165 HD
ENDROOT
TORSDOF 0
ENDMDL
MODEL 6
REMARK VINA RESULT:    -2.207      5.628      6.101
REMARK INTER + INTRA:          -2.207
REMARK INTER:                  -2.207
REMARK INTRA:                   0.000
REMARK UNBOUND:                 0.000
REMARK SMILES c1cc[nH]c1
REMARK SMILES IDX 1 1 5 2 4 3 3 4 2 5
REMARK H PARENT 4 6
REMARK Flexibility Score: inf
ROOT
ATOM      1  C   UNL     1     137.763 131.839 136.209  1.00  0.00     0.019 A 
ATOM      2  C   UNL     1     137.723 132.573 137.377  1.00  0.00     0.082 A 
ATOM      3  N   UNL     1     138.712 133.484 137.381  1.00  0.00    -0.368 N 
ATOM      4  C   UNL     1     139.386 133.341 136.226  1.00  0.00     0.082 A 
ATOM      5  C   UNL     1     138.824 132.330 135.474  1.00  0.00     0.019 A 
ATOM      6  H   UNL     1     138.918 134.173 138.138  1.00  0.00     0.165 HD
ENDROOT
TORSDOF 0
ENDMDL
MODEL 7
REMARK VINA RESULT:    -2.114      8.326      8.714
REMARK INTER + INTRA:          -2.114
REMARK INTER:                  -2.114
REMARK INTRA:                   0.000
REMARK UNBOUND:                 0.000
REMARK SMILES c1cc[nH]c1
REMARK SMILES IDX 1 1 5 2 4 3 3 4 2 5
REMARK H PARENT 4 6
REMARK Flexibility Score: inf
ROOT
ATOM      1  C   UNL     1     132.611 134.879 137.365  1.00  0.00     0.019 A 
ATOM      2  C   UNL     1     131.855 134.892 136.210  1.00  0.00     0.082 A 
ATOM      3  N   UNL     1     132.220 133.874 135.411  1.00  0.00    -0.368 N 
ATOM      4  C   UNL     1     133.204 133.208 136.043  1.00  0.00     0.082 A 
ATOM      5  C   UNL     1     133.471 133.804 137.259  1.00  0.00     0.019 A 
ATOM      6  H   UNL     1     131.817 133.643 134.476  1.00  0.00     0.165 HD
ENDROOT
TORSDOF 0
ENDMDL
MODEL 8
REMARK VINA RESULT:    -2.103     18.205     19.124
REMARK INTER + INTRA:          -2.103
REMARK INTER:                  -2.103
REMARK INTRA:                   0.000
REMARK UNBOUND:                 0.000
REMARK SMILES c1cc[nH]c1
REMARK SMILES IDX 1 1 5 2 4 3 3 4 2 5
REMARK H PARENT 4 6
REMARK Flexibility Score: inf
ROOT
ATOM      1  C   UNL     1     129.440 128.142 147.933  1.00  0.00     0.019 A 
ATOM      2  C   UNL     1     130.481 127.695 147.146  1.00  0.00     0.082 A 
ATOM      3  N   UNL     1     130.692 126.385 147.365  1.00  0.00    -0.368 N 
ATOM      4  C   UNL     1     129.796 125.987 148.286  1.00  0.00     0.082 A 
ATOM      5  C   UNL     1     129.002 127.052 148.660  1.00  0.00     0.019 A 
ATOM      6  H   UNL     1     131.416 125.788 146.906  1.00  0.00     0.165 HD
ENDROOT
TORSDOF 0
ENDMDL
MODEL 9
REMARK VINA RESULT:    -2.032      4.897      5.885
REMARK INTER + INTRA:          -2.032
REMARK INTER:                  -2.032
REMARK INTRA:                   0.000
REMARK UNBOUND:                 0.000
REMARK SMILES c1cc[nH]c1
REMARK SMILES IDX 1 1 5 2 4 3 3 4 2 5
REMARK H PARENT 4 6
REMARK Flexibility Score: inf
ROOT
ATOM      1  C   UNL     1     133.754 140.164 135.576  1.00  0.00     0.019 A 
ATOM      2  C   UNL     1     134.257 139.679 134.386  1.00  0.00     0.082 A 
ATOM      3  N   UNL     1     135.575 139.932 134.306  1.00  0.00    -0.368 N 
ATOM      4  C   UNL     1     135.923 140.575 135.435  1.00  0.00     0.082 A 
ATOM      5  C   UNL     1     134.819 140.735 136.246  1.00  0.00     0.019 A 
ATOM      6  H   UNL     1     136.209 139.677 133.517  1.00  0.00     0.165 HD
ENDROOT
TORSDOF 0
ENDMDL
