MODEL 1
REMARK VINA RESULT:    -3.874      0.000      0.000
REMARK INTER + INTRA:          -4.286
REMARK INTER:                  -4.100
REMARK INTRA:                  -0.186
REMARK UNBOUND:                -0.186
REMARK SMILES C=C1CC[C@]2(C(C)C)C[C@H]12
REMARK SMILES IDX 5 1 4 2 3 3 2 4 1 5 10 6 9 7 6 8 7 9 8 10
REMARK H PARENT
REMARK Flexibility Score: inf
ROOT
ATOM      1  C   UNL     1     139.757 138.247 135.409  1.00  0.00    -0.020 C 
ATOM      2  C   UNL     1     139.946 138.101 133.890  1.00  0.00     0.012 C 
ATOM      3  C   UNL     1     140.109 136.609 133.589  1.00  0.00     0.031 C 
ATOM      4  C   UNL     1     140.075 135.940 134.922  1.00  0.00    -0.074 C 
ATOM      5  C   UNL     1     140.237 134.623 135.085  1.00  0.00     0.008 C 
ATOM      6  C   UNL     1     139.868 136.875 136.058  1.00  0.00     0.021 C 
ATOM      7  C   UNL     1     140.975 137.904 136.269  1.00  0.00     0.016 C 
ENDROOT
BRANCH   1   8
ATOM      8  C   UNL     1     138.775 139.333 135.944  1.00  0.00    -0.011 C 
ATOM      9  C   UNL     1     137.679 138.672 136.788  1.00  0.00     0.008 C 
ATOM     10  C   UNL     1     138.149 140.252 134.882  1.00  0.00     0.008 C 
ENDBRANCH   1   8
TORSDOF 1
ENDMDL
MODEL 2
REMARK VINA RESULT:    -3.873      3.659      5.646
REMARK INTER + INTRA:          -4.285
REMARK INTER:                  -4.141
REMARK INTRA:                  -0.145
REMARK UNBOUND:                -0.186
REMARK SMILES C=C1CC[C@]2(C(C)C)C[C@H]12
REMARK SMILES IDX 5 1 4 2 3 3 2 4 1 5 10 6 9 7 6 8 7 9 8 10
REMARK H PARENT
REMARK Flexibility Score: inf
ROOT
ATOM      1  C   UNL     1     138.302 132.808 135.415  1.00  0.00    -0.020 C 
ATOM      2  C   UNL     1     138.116 132.631 133.899  1.00  0.00     0.012 C 
ATOM      3  C   UNL     1     136.614 132.508 133.631  1.00  0.00     0.031 C 
ATOM      4  C   UNL     1     135.977 132.551 134.979  1.00  0.00    -0.074 C 
ATOM      5  C   UNL     1     134.661 132.421 135.172  1.00  0.00     0.008 C 
ATOM      6  C   UNL     1     136.943 132.727 136.095  1.00  0.00     0.021 C 
ATOM      7  C   UNL     1     137.948 131.594 136.275  1.00  0.00     0.016 C 
ENDROOT
BRANCH   1   8
ATOM      8  C   UNL     1     139.425 133.758 135.929  1.00  0.00    -0.011 C 
ATOM      9  C   UNL     1     138.830 134.787 136.899  1.00  0.00     0.008 C 
ATOM     10  C   UNL     1     140.254 134.466 134.844  1.00  0.00     0.008 C 
ENDBRANCH   1   8
TORSDOF 1
ENDMDL
MODEL 3
REMARK VINA RESULT:    -3.870      6.551      7.989
REMARK INTER + INTRA:          -4.282
REMARK INTER:                  -4.153
REMARK INTRA:                  -0.129
REMARK UNBOUND:                -0.186
REMARK SMILES C=C1CC[C@]2(C(C)C)C[C@H]12
REMARK SMILES IDX 5 1 4 2 3 3 2 4 1 5 10 6 9 7 6 8 7 9 8 10
REMARK H PARENT
REMARK Flexibility Score: inf
ROOT
ATOM      1  C   UNL     1     132.796 134.337 135.400  1.00  0.00    -0.020 C 
ATOM      2  C   UNL     1     132.659 134.523 133.879  1.00  0.00     0.012 C 
ATOM      3  C   UNL     1     132.554 136.025 133.609  1.00  0.00     0.031 C 
ATOM      4  C   UNL     1     132.568 136.663 134.956  1.00  0.00    -0.074 C 
ATOM      5  C   UNL     1     132.443 137.980 135.146  1.00  0.00     0.008 C 
ATOM      6  C   UNL     1     132.709 135.696 136.077  1.00  0.00     0.021 C 
ATOM      7  C   UNL     1     131.564 134.700 136.230  1.00  0.00     0.016 C 
ENDROOT
BRANCH   1   8
ATOM      8  C   UNL     1     133.725 133.207 135.939  1.00  0.00    -0.011 C 
ATOM      9  C   UNL     1     134.705 133.787 136.966  1.00  0.00     0.008 C 
ATOM     10  C   UNL     1     134.485 132.399 134.873  1.00  0.00     0.008 C 
ENDBRANCH   1   8
TORSDOF 1
ENDMDL
MODEL 4
REMARK VINA RESULT:    -3.848      3.749      5.609
REMARK INTER + INTRA:          -4.259
REMARK INTER:                  -4.046
REMARK INTRA:                  -0.214
REMARK UNBOUND:                -0.186
REMARK SMILES C=C1CC[C@]2(C(C)C)C[C@H]12
REMARK SMILES IDX 5 1 4 2 3 3 2 4 1 5 10 6 9 7 6 8 7 9 8 10
REMARK H PARENT
REMARK Flexibility Score: inf
ROOT
ATOM      1  C   UNL     1     134.422 139.753 135.468  1.00  0.00    -0.020 C 
ATOM      2  C   UNL     1     134.518 139.935 133.944  1.00  0.00     0.012 C 
ATOM      3  C   UNL     1     135.994 140.145 133.599  1.00  0.00     0.031 C 
ATOM      4  C   UNL     1     136.702 140.145 134.911  1.00  0.00    -0.074 C 
ATOM      5  C   UNL     1     138.017 140.352 135.035  1.00  0.00     0.008 C 
ATOM      6  C   UNL     1     135.807 139.916 136.076  1.00  0.00     0.021 C 
ATOM      7  C   UNL     1     134.748 140.989 136.308  1.00  0.00     0.016 C 
ENDROOT
BRANCH   1   8
ATOM      8  C   UNL     1     133.386 138.740 136.041  1.00  0.00    -0.011 C 
ATOM      9  C   UNL     1     134.116 137.616 136.786  1.00  0.00     0.008 C 
ATOM     10  C   UNL     1     132.393 138.149 135.025  1.00  0.00     0.008 C 
ENDBRANCH   1   8
TORSDOF 1
ENDMDL
MODEL 5
REMARK VINA RESULT:    -3.808      0.720      3.972
REMARK INTER + INTRA:          -4.217
REMARK INTER:                  -3.946
REMARK INTRA:                  -0.271
REMARK UNBOUND:                -0.186
REMARK SMILES C=C1CC[C@]2(C(C)C)C[C@H]12
REMARK SMILES IDX 5 1 4 2 3 3 2 4 1 5 10 6 9 7 6 8 7 9 8 10
REMARK H PARENT
REMARK Flexibility Score: inf
ROOT
ATOM      1  C   UNL     1     140.046 136.882 135.538  1.00  0.00    -0.020 C 
ATOM      2  C   UNL     1     138.671 136.635 136.181  1.00  0.00     0.012 C 
ATOM      3  C   UNL     1     137.869 137.932 136.061  1.00  0.00     0.031 C 
ATOM      4  C   UNL     1     138.800 138.905 135.421  1.00  0.00    -0.074 C 
ATOM      5  C   UNL     1     138.480 140.182 135.188  1.00  0.00     0.008 C 
ATOM      6  C   UNL     1     140.129 138.332 135.084  1.00  0.00     0.021 C 
ATOM      7  C   UNL     1     140.960 137.863 136.274  1.00  0.00     0.016 C 
ENDROOT
BRANCH   1   8
ATOM      8  C   UNL     1     140.719 135.729 134.734  1.00  0.00    -0.011 C 
ATOM      9  C   UNL     1     140.629 136.021 133.231  1.00  0.00     0.008 C 
ATOM     10  C   UNL     1     140.201 134.312 135.034  1.00  0.00     0.008 C 
ENDBRANCH   1   8
TORSDOF 1
ENDMDL
MODEL 6
REMARK VINA RESULT:    -3.797      3.983      6.034
REMARK INTER + INTRA:          -4.205
REMARK INTER:                  -3.936
REMARK INTRA:                  -0.269
REMARK UNBOUND:                -0.186
REMARK SMILES C=C1CC[C@]2(C(C)C)C[C@H]12
REMARK SMILES IDX 5 1 4 2 3 3 2 4 1 5 10 6 9 7 6 8 7 9 8 10
REMARK H PARENT
REMARK Flexibility Score: inf
ROOT
ATOM      1  C   UNL     1     136.865 132.624 135.540  1.00  0.00    -0.020 C 
ATOM      2  C   UNL     1     136.611 133.994 136.190  1.00  0.00     0.012 C 
ATOM      3  C   UNL     1     137.906 134.802 136.078  1.00  0.00     0.031 C 
ATOM      4  C   UNL     1     138.884 133.878 135.436  1.00  0.00    -0.074 C 
ATOM      5  C   UNL     1     140.161 134.203 135.209  1.00  0.00     0.008 C 
ATOM      6  C   UNL     1     138.316 132.548 135.090  1.00  0.00     0.021 C 
ATOM      7  C   UNL     1     137.847 131.709 136.275  1.00  0.00     0.016 C 
ENDROOT
BRANCH   1   8
ATOM      8  C   UNL     1     135.716 131.951 134.729  1.00  0.00    -0.011 C 
ATOM      9  C   UNL     1     136.015 132.046 133.228  1.00  0.00     0.008 C 
ATOM     10  C   UNL     1     134.297 132.466 135.024  1.00  0.00     0.008 C 
ENDBRANCH   1   8
TORSDOF 1
ENDMDL
MODEL 7
REMARK VINA RESULT:    -3.794      3.420      5.570
REMARK INTER + INTRA:          -4.202
REMARK INTER:                  -3.929
REMARK INTRA:                  -0.273
REMARK UNBOUND:                -0.186
REMARK SMILES C=C1CC[C@]2(C(C)C)C[C@H]12
REMARK SMILES IDX 5 1 4 2 3 3 2 4 1 5 10 6 9 7 6 8 7 9 8 10
REMARK H PARENT
REMARK Flexibility Score: inf
ROOT
ATOM      1  C   UNL     1     135.814 139.991 135.546  1.00  0.00    -0.020 C 
ATOM      2  C   UNL     1     136.041 138.597 136.154  1.00  0.00     0.012 C 
ATOM      3  C   UNL     1     134.732 137.817 136.012  1.00  0.00     0.031 C 
ATOM      4  C   UNL     1     133.774 138.778 135.394  1.00  0.00    -0.074 C 
ATOM      5  C   UNL     1     132.492 138.483 135.152  1.00  0.00     0.008 C 
ATOM      6  C   UNL     1     134.367 140.107 135.092  1.00  0.00     0.021 C 
ATOM      7  C   UNL     1     134.846 140.900 136.304  1.00  0.00     0.016 C 
ENDROOT
BRANCH   1   8
ATOM      8  C   UNL     1     136.979 140.668 134.762  1.00  0.00    -0.011 C 
ATOM      9  C   UNL     1     136.697 140.604 133.256  1.00  0.00     0.008 C 
ATOM     10  C   UNL     1     138.390 140.135 135.063  1.00  0.00     0.008 C 
ENDBRANCH   1   8
TORSDOF 1
ENDMDL
MODEL 8
REMARK VINA RESULT:    -3.767      2.367      3.960
REMARK INTER + INTRA:          -4.173
REMARK INTER:                  -3.884
REMARK INTRA:                  -0.289
REMARK UNBOUND:                -0.186
REMARK SMILES C=C1CC[C@]2(C(C)C)C[C@H]12
REMARK SMILES IDX 5 1 4 2 3 3 2 4 1 5 10 6 9 7 6 8 7 9 8 10
REMARK H PARENT
REMARK Flexibility Score: inf
ROOT
ATOM      1  C   UNL     1     136.366 139.963 134.891  1.00  0.00    -0.020 C 
ATOM      2  C   UNL     1     136.328 138.482 134.479  1.00  0.00     0.012 C 
ATOM      3  C   UNL     1     137.749 137.931 134.616  1.00  0.00     0.031 C 
ATOM      4  C   UNL     1     138.577 139.097 135.036  1.00  0.00    -0.074 C 
ATOM      5  C   UNL     1     139.900 139.031 135.215  1.00  0.00     0.008 C 
ATOM      6  C   UNL     1     137.800 140.352 135.216  1.00  0.00     0.021 C 
ATOM      7  C   UNL     1     137.135 140.896 133.955  1.00  0.00     0.016 C 
ENDROOT
BRANCH   1   8
ATOM      8  C   UNL     1     135.155 140.558 135.671  1.00  0.00    -0.011 C 
ATOM      9  C   UNL     1     135.267 140.196 137.157  1.00  0.00     0.008 C 
ATOM     10  C   UNL     1     133.762 140.184 135.135  1.00  0.00     0.008 C 
ENDBRANCH   1   8
TORSDOF 1
ENDMDL
MODEL 9
REMARK VINA RESULT:    -3.753      1.921      3.341
REMARK INTER + INTRA:          -4.158
REMARK INTER:                  -3.887
REMARK INTRA:                  -0.271
REMARK UNBOUND:                -0.186
REMARK SMILES C=C1CC[C@]2(C(C)C)C[C@H]12
REMARK SMILES IDX 5 1 4 2 3 3 2 4 1 5 10 6 9 7 6 8 7 9 8 10
REMARK H PARENT
REMARK Flexibility Score: inf
ROOT
ATOM      1  C   UNL     1     137.394 138.876 135.797  1.00  0.00    -0.020 C 
ATOM      2  C   UNL     1     137.514 138.967 137.327  1.00  0.00     0.012 C 
ATOM      3  C   UNL     1     138.962 138.638 137.695  1.00  0.00     0.031 C 
ATOM      4  C   UNL     1     139.624 138.307 136.400  1.00  0.00    -0.074 C 
ATOM      5  C   UNL     1     140.899 137.914 136.308  1.00  0.00     0.008 C 
ATOM      6  C   UNL     1     138.729 138.429 135.220  1.00  0.00     0.021 C 
ATOM      7  C   UNL     1     137.539 137.475 135.200  1.00  0.00     0.016 C 
ENDROOT
BRANCH   1   8
ATOM      8  C   UNL     1     136.474 139.890 135.053  1.00  0.00    -0.011 C 
ATOM      9  C   UNL     1     137.331 140.934 134.327  1.00  0.00     0.008 C 
ATOM     10  C   UNL     1     135.405 140.583 135.914  1.00  0.00     0.008 C 
ENDBRANCH   1   8
TORSDOF 1
ENDMDL
