MODEL 1
REMARK VINA RESULT:    -5.264      0.000      0.000
REMARK INTER + INTRA:          -5.968
REMARK INTER:                  -5.726
REMARK INTRA:                  -0.242
REMARK UNBOUND:                -0.242
REMARK SMILES CC(=O)[C@H]1CC[C@H]2[C@@H]3CC=C4C[C@H](O)CC[C@]4(C)[C@@H]3CC[C@@]12C
REMARK SMILES IDX 4 1 5 2 6 3 7 4 22 5 21 6 20 7 19 8 8 9 9 10 10 11 11 12
REMARK SMILES IDX 17 13 16 14 15 15 13 16 12 17 18 18 23 19 2 20 1 21 3 22
REMARK SMILES IDX 14 23
REMARK H PARENT 14 24
REMARK Flexibility Score: inf
ROOT
ATOM      1  C   UNL     1     140.174 130.467 139.572  1.00  0.00     0.062 C 
ATOM      2  C   UNL     1     139.182 129.457 140.162  1.00  0.00     0.012 C 
ATOM      3  C   UNL     1     139.459 129.397 141.662  1.00  0.00     0.005 C 
ATOM      4  C   UNL     1     140.617 130.369 141.935  1.00  0.00    -0.001 C 
ATOM      5  C   UNL     1     141.360 130.511 140.584  1.00  0.00    -0.020 C 
ATOM      6  C   UNL     1     142.344 129.323 140.379  1.00  0.00     0.008 C 
ATOM      7  C   UNL     1     143.266 129.076 141.577  1.00  0.00     0.005 C 
ATOM      8  C   UNL     1     142.470 128.783 142.872  1.00  0.00     0.003 C 
ATOM      9  C   UNL     1     141.473 129.945 143.168  1.00  0.00     0.000 C 
ATOM     10  C   UNL     1     142.126 131.172 143.877  1.00  0.00     0.031 C 
ATOM     11  C   UNL     1     143.541 130.977 144.363  1.00  0.00    -0.027 C 
ATOM     12  C   UNL     1     144.121 129.770 144.512  1.00  0.00    -0.065 C 
ATOM     13  C   UNL     1     143.376 128.498 144.131  1.00  0.00    -0.008 C 
ATOM     14  C   UNL     1     144.412 127.366 143.845  1.00  0.00     0.014 C 
ATOM     15  C   UNL     1     145.405 127.115 145.000  1.00  0.00     0.033 C 
ATOM     16  C   UNL     1     145.840 128.405 145.744  1.00  0.00     0.118 C 
ATOM     17  C   UNL     1     145.572 129.692 144.941  1.00  0.00     0.063 C 
ATOM     18  C   UNL     1     142.483 128.056 145.324  1.00  0.00     0.016 C 
ATOM     19  C   UNL     1     142.106 131.863 140.465  1.00  0.00     0.012 C 
ENDROOT
BRANCH   1  20
ATOM     20  C   UNL     1     140.505 130.188 138.109  1.00  0.00     0.133 C 
ATOM     21  C   UNL     1     140.165 128.869 137.474  1.00  0.00     0.088 C 
ATOM     22  O   UNL     1     140.951 131.069 137.392  1.00  0.00    -0.300 OA
ENDBRANCH   1  20
BRANCH  16  23
ATOM     23  O   UNL     1     147.191 128.331 146.121  1.00  0.00    -0.393 OA
ATOM     24  H   UNL     1     147.307 128.892 146.933  1.00  0.00     0.210 HD
ENDBRANCH  16  23
TORSDOF 2
ENDMDL
MODEL 2
REMARK VINA RESULT:    -5.218     18.011     20.317
REMARK INTER + INTRA:          -5.918
REMARK INTER:                  -5.677
REMARK INTRA:                  -0.241
REMARK UNBOUND:                -0.242
REMARK SMILES CC(=O)[C@H]1CC[C@H]2[C@@H]3CC=C4C[C@H](O)CC[C@]4(C)[C@@H]3CC[C@@]12C
REMARK SMILES IDX 4 1 5 2 6 3 7 4 22 5 21 6 20 7 19 8 8 9 9 10 10 11 11 12
REMARK SMILES IDX 17 13 16 14 15 15 13 16 12 17 18 18 23 19 2 20 1 21 3 22
REMARK SMILES IDX 14 23
REMARK H PARENT 14 24
REMARK Flexibility Score: inf
ROOT
ATOM      1  C   UNL     1     130.944 144.442 131.609  1.00  0.00     0.062 C 
ATOM      2  C   UNL     1     130.507 143.011 131.273  1.00  0.00     0.012 C 
ATOM      3  C   UNL     1     129.466 142.615 132.317  1.00  0.00     0.005 C 
ATOM      4  C   UNL     1     129.308 143.817 133.260  1.00  0.00    -0.001 C 
ATOM      5  C   UNL     1     130.627 144.618 133.126  1.00  0.00    -0.020 C 
ATOM      6  C   UNL     1     131.733 143.996 134.028  1.00  0.00     0.008 C 
ATOM      7  C   UNL     1     131.287 143.763 135.474  1.00  0.00     0.005 C 
ATOM      8  C   UNL     1     130.058 142.826 135.558  1.00  0.00     0.003 C 
ATOM      9  C   UNL     1     128.886 143.393 134.700  1.00  0.00     0.000 C 
ATOM     10  C   UNL     1     128.057 144.504 135.418  1.00  0.00     0.031 C 
ATOM     11  C   UNL     1     128.359 144.710 136.881  1.00  0.00    -0.027 C 
ATOM     12  C   UNL     1     129.023 143.817 137.641  1.00  0.00    -0.065 C 
ATOM     13  C   UNL     1     129.573 142.535 137.031  1.00  0.00    -0.008 C 
ATOM     14  C   UNL     1     130.740 142.006 137.923  1.00  0.00     0.014 C 
ATOM     15  C   UNL     1     130.360 141.808 139.406  1.00  0.00     0.033 C 
ATOM     16  C   UNL     1     129.384 142.884 139.951  1.00  0.00     0.118 C 
ATOM     17  C   UNL     1     129.333 144.157 139.085  1.00  0.00     0.063 C 
ATOM     18  C   UNL     1     128.450 141.461 137.006  1.00  0.00     0.016 C 
ATOM     19  C   UNL     1     130.436 146.119 133.455  1.00  0.00     0.012 C 
ENDROOT
BRANCH   1  20
ATOM     20  C   UNL     1     132.363 144.753 131.144  1.00  0.00     0.133 C 
ATOM     21  C   UNL     1     133.318 143.654 130.774  1.00  0.00     0.088 C 
ATOM     22  O   UNL     1     132.718 145.906 130.955  1.00  0.00    -0.300 OA
ENDBRANCH   1  20
BRANCH  16  23
ATOM     23  O   UNL     1     129.690 143.205 141.284  1.00  0.00    -0.393 OA
ATOM     24  H   UNL     1     129.243 142.534 141.864  1.00  0.00     0.210 HD
ENDBRANCH  16  23
TORSDOF 2
ENDMDL
MODEL 3
REMARK VINA RESULT:    -5.133     18.568     20.428
REMARK INTER + INTRA:          -5.826
REMARK INTER:                  -5.585
REMARK INTRA:                  -0.241
REMARK UNBOUND:                -0.242
REMARK SMILES CC(=O)[C@H]1CC[C@H]2[C@@H]3CC=C4C[C@H](O)CC[C@]4(C)[C@@H]3CC[C@@]12C
REMARK SMILES IDX 4 1 5 2 6 3 7 4 22 5 21 6 20 7 19 8 8 9 9 10 10 11 11 12
REMARK SMILES IDX 17 13 16 14 15 15 13 16 12 17 18 18 23 19 2 20 1 21 3 22
REMARK SMILES IDX 14 23
REMARK H PARENT 14 24
REMARK Flexibility Score: inf
ROOT
ATOM      1  C   UNL     1     132.842 141.477 129.377  1.00  0.00     0.062 C 
ATOM      2  C   UNL     1     131.416 140.937 129.220  1.00  0.00     0.012 C 
ATOM      3  C   UNL     1     130.486 141.965 129.858  1.00  0.00     0.005 C 
ATOM      4  C   UNL     1     131.378 143.096 130.391  1.00  0.00    -0.001 C 
ATOM      5  C   UNL     1     132.775 142.457 130.589  1.00  0.00    -0.020 C 
ATOM      6  C   UNL     1     132.837 141.703 131.950  1.00  0.00     0.008 C 
ATOM      7  C   UNL     1     132.359 142.543 133.139  1.00  0.00     0.005 C 
ATOM      8  C   UNL     1     130.899 143.025 132.958  1.00  0.00     0.003 C 
ATOM      9  C   UNL     1     130.753 143.819 131.624  1.00  0.00     0.000 C 
ATOM     10  C   UNL     1     131.208 145.308 131.722  1.00  0.00     0.031 C 
ATOM     11  C   UNL     1     131.506 145.817 133.110  1.00  0.00    -0.027 C 
ATOM     12  C   UNL     1     131.103 145.197 134.236  1.00  0.00    -0.065 C 
ATOM     13  C   UNL     1     130.351 143.875 134.168  1.00  0.00    -0.008 C 
ATOM     14  C   UNL     1     130.524 143.119 135.523  1.00  0.00     0.014 C 
ATOM     15  C   UNL     1     130.111 143.942 136.762  1.00  0.00     0.033 C 
ATOM     16  C   UNL     1     130.460 145.450 136.656  1.00  0.00     0.118 C 
ATOM     17  C   UNL     1     131.519 145.758 135.581  1.00  0.00     0.063 C 
ATOM     18  C   UNL     1     128.838 144.162 133.958  1.00  0.00     0.016 C 
ATOM     19  C   UNL     1     133.915 143.499 130.490  1.00  0.00     0.012 C 
ENDROOT
BRANCH   1  20
ATOM     20  C   UNL     1     133.893 140.373 129.421  1.00  0.00     0.133 C 
ATOM     21  C   UNL     1     133.505 138.940 129.653  1.00  0.00     0.088 C 
ATOM     22  O   UNL     1     135.060 140.613 129.155  1.00  0.00    -0.300 OA
ENDBRANCH   1  20
BRANCH  16  23
ATOM     23  O   UNL     1     130.860 145.957 137.904  1.00  0.00    -0.393 OA
ATOM     24  H   UNL     1     131.076 145.182 138.487  1.00  0.00     0.210 HD
ENDBRANCH  16  23
TORSDOF 2
ENDMDL
MODEL 4
REMARK VINA RESULT:    -5.091      2.013      3.171
REMARK INTER + INTRA:          -5.780
REMARK INTER:                  -5.542
REMARK INTRA:                  -0.238
REMARK UNBOUND:                -0.242
REMARK SMILES CC(=O)[C@H]1CC[C@H]2[C@@H]3CC=C4C[C@H](O)CC[C@]4(C)[C@@H]3CC[C@@]12C
REMARK SMILES IDX 4 1 5 2 6 3 7 4 22 5 21 6 20 7 19 8 8 9 9 10 10 11 11 12
REMARK SMILES IDX 17 13 16 14 15 15 13 16 12 17 18 18 23 19 2 20 1 21 3 22
REMARK SMILES IDX 14 23
REMARK H PARENT 14 24
REMARK Flexibility Score: inf
ROOT
ATOM      1  C   UNL     1     138.337 129.044 140.058  1.00  0.00     0.062 C 
ATOM      2  C   UNL     1     137.774 130.377 140.568  1.00  0.00     0.012 C 
ATOM      3  C   UNL     1     138.974 131.279 140.848  1.00  0.00     0.005 C 
ATOM      4  C   UNL     1     140.229 130.462 140.506  1.00  0.00    -0.001 C 
ATOM      5  C   UNL     1     139.794 128.979 140.611  1.00  0.00    -0.020 C 
ATOM      6  C   UNL     1     139.833 128.507 142.094  1.00  0.00     0.008 C 
ATOM      7  C   UNL     1     141.153 128.824 142.804  1.00  0.00     0.005 C 
ATOM      8  C   UNL     1     141.461 130.340 142.806  1.00  0.00     0.003 C 
ATOM      9  C   UNL     1     141.469 130.893 141.349  1.00  0.00     0.000 C 
ATOM     10  C   UNL     1     142.808 130.647 140.587  1.00  0.00     0.031 C 
ATOM     11  C   UNL     1     143.953 130.122 141.418  1.00  0.00    -0.027 C 
ATOM     12  C   UNL     1     143.983 130.170 142.764  1.00  0.00    -0.065 C 
ATOM     13  C   UNL     1     142.800 130.721 143.548  1.00  0.00    -0.008 C 
ATOM     14  C   UNL     1     142.835 130.142 144.998  1.00  0.00     0.014 C 
ATOM     15  C   UNL     1     144.167 130.383 145.741  1.00  0.00     0.033 C 
ATOM     16  C   UNL     1     145.419 130.287 144.828  1.00  0.00     0.118 C 
ATOM     17  C   UNL     1     145.152 129.550 143.502  1.00  0.00     0.063 C 
ATOM     18  C   UNL     1     142.924 132.268 143.635  1.00  0.00     0.016 C 
ATOM     19  C   UNL     1     140.656 128.052 139.720  1.00  0.00     0.012 C 
ENDROOT
BRANCH   1  20
ATOM     20  C   UNL     1     137.418 127.862 140.352  1.00  0.00     0.133 C 
ATOM     21  C   UNL     1     136.252 127.999 141.289  1.00  0.00     0.088 C 
ATOM     22  O   UNL     1     137.543 126.811 139.745  1.00  0.00    -0.300 OA
ENDBRANCH   1  20
BRANCH  16  23
ATOM     23  O   UNL     1     146.491 129.695 145.515  1.00  0.00    -0.393 OA
ATOM     24  H   UNL     1     146.113 129.195 146.287  1.00  0.00     0.210 HD
ENDBRANCH  16  23
TORSDOF 2
ENDMDL
MODEL 5
REMARK VINA RESULT:    -5.021      2.116      6.769
REMARK INTER + INTRA:          -5.703
REMARK INTER:                  -5.465
REMARK INTRA:                  -0.239
REMARK UNBOUND:                -0.242
REMARK SMILES CC(=O)[C@H]1CC[C@H]2[C@@H]3CC=C4C[C@H](O)CC[C@]4(C)[C@@H]3CC[C@@]12C
REMARK SMILES IDX 4 1 5 2 6 3 7 4 22 5 21 6 20 7 19 8 8 9 9 10 10 11 11 12
REMARK SMILES IDX 17 13 16 14 15 15 13 16 12 17 18 18 23 19 2 20 1 21 3 22
REMARK SMILES IDX 14 23
REMARK H PARENT 14 24
REMARK Flexibility Score: inf
ROOT
ATOM      1  C   UNL     1     144.524 129.975 143.635  1.00  0.00     0.062 C 
ATOM      2  C   UNL     1     145.128 129.025 142.593  1.00  0.00     0.012 C 
ATOM      3  C   UNL     1     144.268 129.149 141.338  1.00  0.00     0.005 C 
ATOM      4  C   UNL     1     143.163 130.167 141.659  1.00  0.00    -0.001 C 
ATOM      5  C   UNL     1     143.037 130.160 143.203  1.00  0.00    -0.020 C 
ATOM      6  C   UNL     1     142.144 128.973 143.668  1.00  0.00     0.008 C 
ATOM      7  C   UNL     1     140.804 128.888 142.930  1.00  0.00     0.005 C 
ATOM      8  C   UNL     1     140.992 128.737 141.401  1.00  0.00     0.003 C 
ATOM      9  C   UNL     1     141.858 129.908 140.846  1.00  0.00     0.000 C 
ATOM     10  C   UNL     1     141.056 131.222 140.592  1.00  0.00     0.031 C 
ATOM     11  C   UNL     1     139.555 131.111 140.707  1.00  0.00    -0.027 C 
ATOM     12  C   UNL     1     138.888 129.940 140.684  1.00  0.00    -0.065 C 
ATOM     13  C   UNL     1     139.640 128.620 140.598  1.00  0.00    -0.008 C 
ATOM     14  C   UNL     1     138.736 127.480 141.163  1.00  0.00     0.014 C 
ATOM     15  C   UNL     1     137.348 127.385 140.494  1.00  0.00     0.033 C 
ATOM     16  C   UNL     1     136.735 128.763 140.127  1.00  0.00     0.118 C 
ATOM     17  C   UNL     1     137.385 129.940 140.878  1.00  0.00     0.063 C 
ATOM     18  C   UNL     1     139.948 128.307 139.107  1.00  0.00     0.016 C 
ATOM     19  C   UNL     1     142.491 131.501 143.751  1.00  0.00     0.012 C 
ENDROOT
BRANCH   1  20
ATOM     20  C   UNL     1     144.792 129.529 145.069  1.00  0.00     0.133 C 
ATOM     21  C   UNL     1     145.309 128.151 145.370  1.00  0.00     0.088 C 
ATOM     22  O   UNL     1     144.700 130.320 145.994  1.00  0.00    -0.300 OA
ENDBRANCH   1  20
BRANCH  16  23
ATOM     23  O   UNL     1     135.344 128.758 140.326  1.00  0.00    -0.393 OA
ATOM     24  H   UNL     1     134.956 129.467 139.748  1.00  0.00     0.210 HD
ENDBRANCH  16  23
TORSDOF 2
ENDMDL
MODEL 6
REMARK VINA RESULT:    -5.021     16.346     19.625
REMARK INTER + INTRA:          -5.703
REMARK INTER:                  -5.462
REMARK INTRA:                  -0.241
REMARK UNBOUND:                -0.242
REMARK SMILES CC(=O)[C@H]1CC[C@H]2[C@@H]3CC=C4C[C@H](O)CC[C@]4(C)[C@@H]3CC[C@@]12C
REMARK SMILES IDX 4 1 5 2 6 3 7 4 22 5 21 6 20 7 19 8 8 9 9 10 10 11 11 12
REMARK SMILES IDX 17 13 16 14 15 15 13 16 12 17 18 18 23 19 2 20 1 21 3 22
REMARK SMILES IDX 14 23
REMARK H PARENT 14 24
REMARK Flexibility Score: inf
ROOT
ATOM      1  C   UNL     1     129.280 139.610 137.777  1.00  0.00     0.062 C 
ATOM      2  C   UNL     1     127.895 139.605 137.118  1.00  0.00     0.012 C 
ATOM      3  C   UNL     1     128.127 139.680 135.611  1.00  0.00     0.005 C 
ATOM      4  C   UNL     1     129.648 139.735 135.402  1.00  0.00    -0.001 C 
ATOM      5  C   UNL     1     130.225 140.279 136.733  1.00  0.00    -0.020 C 
ATOM      6  C   UNL     1     130.127 141.832 136.772  1.00  0.00     0.008 C 
ATOM      7  C   UNL     1     130.690 142.514 135.521  1.00  0.00     0.005 C 
ATOM      8  C   UNL     1     129.969 142.049 134.232  1.00  0.00     0.003 C 
ATOM      9  C   UNL     1     130.044 140.498 134.101  1.00  0.00     0.000 C 
ATOM     10  C   UNL     1     131.390 139.979 133.505  1.00  0.00     0.031 C 
ATOM     11  C   UNL     1     132.315 141.033 132.949  1.00  0.00    -0.027 C 
ATOM     12  C   UNL     1     131.925 142.287 132.649  1.00  0.00    -0.065 C 
ATOM     13  C   UNL     1     130.497 142.742 132.917  1.00  0.00    -0.008 C 
ATOM     14  C   UNL     1     130.471 144.298 133.040  1.00  0.00     0.014 C 
ATOM     15  C   UNL     1     131.081 145.036 131.829  1.00  0.00     0.033 C 
ATOM     16  C   UNL     1     132.313 144.319 131.215  1.00  0.00     0.118 C 
ATOM     17  C   UNL     1     132.954 143.287 132.162  1.00  0.00     0.063 C 
ATOM     18  C   UNL     1     129.599 142.330 131.717  1.00  0.00     0.016 C 
ATOM     19  C   UNL     1     131.684 139.819 136.970  1.00  0.00     0.012 C 
ENDROOT
BRANCH   1  20
ATOM     20  C   UNL     1     129.263 140.189 139.188  1.00  0.00     0.133 C 
ATOM     21  C   UNL     1     128.091 140.987 139.685  1.00  0.00     0.088 C 
ATOM     22  O   UNL     1     130.151 139.923 139.982  1.00  0.00    -0.300 OA
ENDBRANCH   1  20
BRANCH  16  23
ATOM     23  O   UNL     1     133.268 145.254 130.782  1.00  0.00    -0.393 OA
ATOM     24  H   UNL     1     134.139 145.003 131.191  1.00  0.00     0.210 HD
ENDBRANCH  16  23
TORSDOF 2
ENDMDL
MODEL 7
REMARK VINA RESULT:    -5.019     17.317     20.244
REMARK INTER + INTRA:          -5.702
REMARK INTER:                  -5.471
REMARK INTRA:                  -0.231
REMARK UNBOUND:                -0.242
REMARK SMILES CC(=O)[C@H]1CC[C@H]2[C@@H]3CC=C4C[C@H](O)CC[C@]4(C)[C@@H]3CC[C@@]12C
REMARK SMILES IDX 4 1 5 2 6 3 7 4 22 5 21 6 20 7 19 8 8 9 9 10 10 11 11 12
REMARK SMILES IDX 17 13 16 14 15 15 13 16 12 17 18 18 23 19 2 20 1 21 3 22
REMARK SMILES IDX 14 23
REMARK H PARENT 14 24
REMARK Flexibility Score: inf
ROOT
ATOM      1  C   UNL     1     129.613 144.884 133.811  1.00  0.00     0.062 C 
ATOM      2  C   UNL     1     130.416 146.125 133.402  1.00  0.00     0.012 C 
ATOM      3  C   UNL     1     131.165 145.758 132.123  1.00  0.00     0.005 C 
ATOM      4  C   UNL     1     130.798 144.302 131.799  1.00  0.00    -0.001 C 
ATOM      5  C   UNL     1     130.353 143.683 133.147  1.00  0.00    -0.020 C 
ATOM      6  C   UNL     1     131.594 143.235 133.974  1.00  0.00     0.008 C 
ATOM      7  C   UNL     1     132.579 142.369 133.182  1.00  0.00     0.005 C 
ATOM      8  C   UNL     1     133.114 143.100 131.926  1.00  0.00     0.003 C 
ATOM      9  C   UNL     1     131.929 143.560 131.023  1.00  0.00     0.000 C 
ATOM     10  C   UNL     1     131.365 142.436 130.099  1.00  0.00     0.031 C 
ATOM     11  C   UNL     1     132.167 141.159 130.049  1.00  0.00    -0.027 C 
ATOM     12  C   UNL     1     133.444 141.061 130.468  1.00  0.00    -0.065 C 
ATOM     13  C   UNL     1     134.151 142.258 131.089  1.00  0.00    -0.008 C 
ATOM     14  C   UNL     1     135.327 141.749 131.980  1.00  0.00     0.014 C 
ATOM     15  C   UNL     1     136.320 140.822 131.246  1.00  0.00     0.033 C 
ATOM     16  C   UNL     1     135.648 139.873 130.219  1.00  0.00     0.118 C 
ATOM     17  C   UNL     1     134.132 139.712 130.437  1.00  0.00     0.063 C 
ATOM     18  C   UNL     1     134.744 143.141 129.955  1.00  0.00     0.016 C 
ATOM     19  C   UNL     1     129.372 142.501 132.952  1.00  0.00     0.012 C 
ENDROOT
BRANCH   1  20
ATOM     20  C   UNL     1     129.358 144.813 135.314  1.00  0.00     0.133 C 
ATOM     21  C   UNL     1     130.219 145.571 136.284  1.00  0.00     0.088 C 
ATOM     22  O   UNL     1     128.380 144.229 135.752  1.00  0.00    -0.300 OA
ENDBRANCH   1  20
BRANCH  16  23
ATOM     23  O   UNL     1     136.283 138.619 130.210  1.00  0.00    -0.393 OA
ATOM     24  H   UNL     1     135.703 137.987 130.713  1.00  0.00     0.210 HD
ENDBRANCH  16  23
TORSDOF 2
ENDMDL
MODEL 8
REMARK VINA RESULT:    -4.966     18.349     19.959
REMARK INTER + INTRA:          -5.644
REMARK INTER:                  -5.401
REMARK INTRA:                  -0.242
REMARK UNBOUND:                -0.242
REMARK SMILES CC(=O)[C@H]1CC[C@H]2[C@@H]3CC=C4C[C@H](O)CC[C@]4(C)[C@@H]3CC[C@@]12C
REMARK SMILES IDX 4 1 5 2 6 3 7 4 22 5 21 6 20 7 19 8 8 9 9 10 10 11 11 12
REMARK SMILES IDX 17 13 16 14 15 15 13 16 12 17 18 18 23 19 2 20 1 21 3 22
REMARK SMILES IDX 14 23
REMARK H PARENT 14 24
REMARK Flexibility Score: inf
ROOT
ATOM      1  C   UNL     1     132.013 143.497 131.397  1.00  0.00     0.062 C 
ATOM      2  C   UNL     1     130.975 144.594 131.133  1.00  0.00     0.012 C 
ATOM      3  C   UNL     1     130.873 145.417 132.415  1.00  0.00     0.005 C 
ATOM      4  C   UNL     1     131.848 144.789 133.421  1.00  0.00    -0.001 C 
ATOM      5  C   UNL     1     132.040 143.326 132.947  1.00  0.00    -0.020 C 
ATOM      6  C   UNL     1     130.869 142.434 133.454  1.00  0.00     0.008 C 
ATOM      7  C   UNL     1     130.596 142.575 134.955  1.00  0.00     0.005 C 
ATOM      8  C   UNL     1     130.254 144.033 135.348  1.00  0.00     0.003 C 
ATOM      9  C   UNL     1     131.396 144.995 134.900  1.00  0.00     0.000 C 
ATOM     10  C   UNL     1     132.607 145.039 135.882  1.00  0.00     0.031 C 
ATOM     11  C   UNL     1     132.413 144.335 137.201  1.00  0.00    -0.027 C 
ATOM     12  C   UNL     1     131.208 143.980 137.689  1.00  0.00    -0.065 C 
ATOM     13  C   UNL     1     129.941 144.225 136.882  1.00  0.00    -0.008 C 
ATOM     14  C   UNL     1     128.829 143.242 137.366  1.00  0.00     0.014 C 
ATOM     15  C   UNL     1     128.553 143.301 138.885  1.00  0.00     0.033 C 
ATOM     16  C   UNL     1     129.826 143.529 139.743  1.00  0.00     0.118 C 
ATOM     17  C   UNL     1     131.133 143.212 138.994  1.00  0.00     0.063 C 
ATOM     18  C   UNL     1     129.452 145.679 137.134  1.00  0.00     0.016 C 
ATOM     19  C   UNL     1     133.402 142.741 133.391  1.00  0.00     0.012 C 
ENDROOT
BRANCH   1  20
ATOM     20  C   UNL     1     131.783 142.247 130.553  1.00  0.00     0.133 C 
ATOM     21  C   UNL     1     130.481 142.024 129.838  1.00  0.00     0.088 C 
ATOM     22  O   UNL     1     132.690 141.457 130.350  1.00  0.00    -0.300 OA
ENDBRANCH   1  20
BRANCH  16  23
ATOM     23  O   UNL     1     129.754 142.801 140.942  1.00  0.00    -0.393 OA
ATOM     24  H   UNL     1     130.064 141.876 140.750  1.00  0.00     0.210 HD
ENDBRANCH  16  23
TORSDOF 2
ENDMDL
MODEL 9
REMARK VINA RESULT:    -4.891     18.409     19.852
REMARK INTER + INTRA:          -5.562
REMARK INTER:                  -5.320
REMARK INTRA:                  -0.241
REMARK UNBOUND:                -0.242
REMARK SMILES CC(=O)[C@H]1CC[C@H]2[C@@H]3CC=C4C[C@H](O)CC[C@]4(C)[C@@H]3CC[C@@]12C
REMARK SMILES IDX 4 1 5 2 6 3 7 4 22 5 21 6 20 7 19 8 8 9 9 10 10 11 11 12
REMARK SMILES IDX 17 13 16 14 15 15 13 16 12 17 18 18 23 19 2 20 1 21 3 22
REMARK SMILES IDX 14 23
REMARK H PARENT 14 24
REMARK Flexibility Score: inf
ROOT
ATOM      1  C   UNL     1     133.144 142.413 130.332  1.00  0.00     0.062 C 
ATOM      2  C   UNL     1     132.955 140.892 130.366  1.00  0.00     0.012 C 
ATOM      3  C   UNL     1     131.633 140.631 131.083  1.00  0.00     0.005 C 
ATOM      4  C   UNL     1     131.062 142.004 131.470  1.00  0.00    -0.001 C 
ATOM      5  C   UNL     1     132.284 142.956 131.515  1.00  0.00    -0.020 C 
ATOM      6  C   UNL     1     133.022 142.827 132.879  1.00  0.00     0.008 C 
ATOM      7  C   UNL     1     132.094 142.941 134.092  1.00  0.00     0.005 C 
ATOM      8  C   UNL     1     130.984 141.863 134.077  1.00  0.00     0.003 C 
ATOM      9  C   UNL     1     130.172 141.942 132.749  1.00  0.00     0.000 C 
ATOM     10  C   UNL     1     129.068 143.044 132.747  1.00  0.00     0.031 C 
ATOM     11  C   UNL     1     128.800 143.711 134.074  1.00  0.00    -0.027 C 
ATOM     12  C   UNL     1     129.197 143.206 135.258  1.00  0.00    -0.065 C 
ATOM     13  C   UNL     1     130.015 141.924 135.321  1.00  0.00    -0.008 C 
ATOM     14  C   UNL     1     130.807 141.889 136.665  1.00  0.00     0.014 C 
ATOM     15  C   UNL     1     129.926 142.059 137.921  1.00  0.00     0.033 C 
ATOM     16  C   UNL     1     128.749 143.053 137.730  1.00  0.00     0.118 C 
ATOM     17  C   UNL     1     128.935 143.995 136.525  1.00  0.00     0.063 C 
ATOM     18  C   UNL     1     129.051 140.704 135.289  1.00  0.00     0.016 C 
ATOM     19  C   UNL     1     131.887 144.429 131.247  1.00  0.00     0.012 C 
ENDROOT
BRANCH   1  20
ATOM     20  C   UNL     1     134.611 142.827 130.279  1.00  0.00     0.133 C 
ATOM     21  C   UNL     1     135.707 141.839 130.558  1.00  0.00     0.088 C 
ATOM     22  O   UNL     1     134.930 143.942 129.898  1.00  0.00    -0.300 OA
ENDBRANCH   1  20
BRANCH  16  23
ATOM     23  O   UNL     1     128.526 143.792 138.904  1.00  0.00    -0.393 OA
ATOM     24  H   UNL     1     129.242 144.478 138.967  1.00  0.00     0.210 HD
ENDBRANCH  16  23
TORSDOF 2
ENDMDL
