MODEL 1
REMARK VINA RESULT:    -4.284      0.000      0.000
REMARK INTER + INTRA:          -4.675
REMARK INTER:                  -4.660
REMARK INTRA:                  -0.015
REMARK UNBOUND:                -0.015
REMARK SMILES OCc1ccco1
REMARK SMILES IDX 2 1 3 2 5 3 6 4 4 5 7 6 1 7
REMARK H PARENT 1 8
REMARK Flexibility Score: inf
ROOT
ATOM      1  C   UNL     1       6.440  -1.129  31.284  1.00  0.00     0.231 C 
ENDROOT
BRANCH   1   2
ATOM      2  C   UNL     1       7.587  -1.983  31.722  1.00  0.00     0.129 A 
ATOM      3  C   UNL     1       8.970  -3.669  31.982  1.00  0.00     0.042 A 
ATOM      4  C   UNL     1       9.332  -2.601  32.778  1.00  0.00     0.195 A 
ATOM      5  C   UNL     1       7.839  -3.273  31.301  1.00  0.00     0.048 A 
ATOM      6  O   UNL     1       8.487  -1.611  32.603  1.00  0.00    -0.467 OA
ENDBRANCH   1   2
BRANCH   1   7
ATOM      7  O   UNL     1       6.914   0.019  30.637  1.00  0.00    -0.388 OA
ATOM      8  H   UNL     1       6.160   0.664  30.613  1.00  0.00     0.211 HD
ENDBRANCH   1   7
TORSDOF 2
ENDMDL
MODEL 2
REMARK VINA RESULT:    -4.170      1.610      1.917
REMARK INTER + INTRA:          -4.551
REMARK INTER:                  -4.535
REMARK INTRA:                  -0.016
REMARK UNBOUND:                -0.015
REMARK SMILES OCc1ccco1
REMARK SMILES IDX 2 1 3 2 5 3 6 4 4 5 7 6 1 7
REMARK H PARENT 1 8
REMARK Flexibility Score: inf
ROOT
ATOM      1  C   UNL     1       6.630  -2.795  30.914  1.00  0.00     0.231 C 
ENDROOT
BRANCH   1   2
ATOM      2  C   UNL     1       7.849  -2.598  31.757  1.00  0.00     0.129 A 
ATOM      3  C   UNL     1       9.734  -2.933  32.834  1.00  0.00     0.042 A 
ATOM      4  C   UNL     1       9.239  -1.668  33.079  1.00  0.00     0.195 A 
ATOM      5  C   UNL     1       8.835  -3.539  31.983  1.00  0.00     0.048 A 
ATOM      6  O   UNL     1       8.113  -1.499  32.425  1.00  0.00    -0.467 OA
ENDBRANCH   1   2
BRANCH   1   7
ATOM      7  O   UNL     1       6.371  -4.162  30.755  1.00  0.00    -0.388 OA
ATOM      8  H   UNL     1       7.213  -4.576  30.433  1.00  0.00     0.211 HD
ENDBRANCH   1   7
TORSDOF 2
ENDMDL
MODEL 3
REMARK VINA RESULT:    -4.061      2.731      4.000
REMARK INTER + INTRA:          -4.433
REMARK INTER:                  -4.414
REMARK INTRA:                  -0.019
REMARK UNBOUND:                -0.015
REMARK SMILES OCc1ccco1
REMARK SMILES IDX 2 1 3 2 5 3 6 4 4 5 7 6 1 7
REMARK H PARENT 1 8
REMARK Flexibility Score: inf
ROOT
ATOM      1  C   UNL     1       6.124  -1.033  31.019  1.00  0.00     0.231 C 
ENDROOT
BRANCH   1   2
ATOM      2  C   UNL     1       5.689  -1.771  29.793  1.00  0.00     0.129 A 
ATOM      3  C   UNL     1       5.353  -3.344  28.298  1.00  0.00     0.042 A 
ATOM      4  C   UNL     1       4.875  -2.126  27.855  1.00  0.00     0.195 A 
ATOM      5  C   UNL     1       5.884  -3.115  29.549  1.00  0.00     0.048 A 
ATOM      6  O   UNL     1       5.093  -1.207  28.768  1.00  0.00    -0.467 OA
ENDBRANCH   1   2
BRANCH   1   7
ATOM      7  O   UNL     1       6.752   0.167  30.661  1.00  0.00    -0.388 OA
ATOM      8  H   UNL     1       6.041   0.858  30.618  1.00  0.00     0.211 HD
ENDBRANCH   1   7
TORSDOF 2
ENDMDL
MODEL 4
REMARK VINA RESULT:    -4.009     19.568     20.333
REMARK INTER + INTRA:          -4.376
REMARK INTER:                  -4.360
REMARK INTRA:                  -0.016
REMARK UNBOUND:                -0.015
REMARK SMILES OCc1ccco1
REMARK SMILES IDX 2 1 3 2 5 3 6 4 4 5 7 6 1 7
REMARK H PARENT 1 8
REMARK Flexibility Score: inf
ROOT
ATOM      1  C   UNL     1      17.452 -13.622  19.792  1.00  0.00     0.231 C 
ENDROOT
BRANCH   1   2
ATOM      2  C   UNL     1      17.773 -13.155  18.409  1.00  0.00     0.129 A 
ATOM      3  C   UNL     1      17.718 -12.829  16.237  1.00  0.00     0.042 A 
ATOM      4  C   UNL     1      18.825 -12.229  16.803  1.00  0.00     0.195 A 
ATOM      5  C   UNL     1      17.038 -13.432  17.273  1.00  0.00     0.048 A 
ATOM      6  O   UNL     1      18.832 -12.444  18.099  1.00  0.00    -0.467 OA
ENDBRANCH   1   2
BRANCH   1   7
ATOM      7  O   UNL     1      16.279 -14.387  19.783  1.00  0.00    -0.388 OA
ATOM      8  H   UNL     1      16.223 -14.833  20.668  1.00  0.00     0.211 HD
ENDBRANCH   1   7
TORSDOF 2
ENDMDL
MODEL 5
REMARK VINA RESULT:    -3.991      8.758      9.574
REMARK INTER + INTRA:          -4.356
REMARK INTER:                  -4.342
REMARK INTRA:                  -0.014
REMARK UNBOUND:                -0.015
REMARK SMILES OCc1ccco1
REMARK SMILES IDX 2 1 3 2 5 3 6 4 4 5 7 6 1 7
REMARK H PARENT 1 8
REMARK Flexibility Score: inf
ROOT
ATOM      1  C   UNL     1       7.081  -6.501  25.749  1.00  0.00     0.231 C 
ENDROOT
BRANCH   1   2
ATOM      2  C   UNL     1       6.989  -6.852  24.298  1.00  0.00     0.129 A 
ATOM      3  C   UNL     1       6.986  -7.960  22.402  1.00  0.00     0.042 A 
ATOM      4  C   UNL     1       6.812  -6.608  22.188  1.00  0.00     0.195 A 
ATOM      5  C   UNL     1       7.106  -8.120  23.766  1.00  0.00     0.048 A 
ATOM      6  O   UNL     1       6.821  -5.972  23.338  1.00  0.00    -0.467 OA
ENDBRANCH   1   2
BRANCH   1   7
ATOM      7  O   UNL     1       8.414  -6.556  26.174  1.00  0.00    -0.388 OA
ATOM      8  H   UNL     1       8.421  -7.071  27.022  1.00  0.00     0.211 HD
ENDBRANCH   1   7
TORSDOF 2
ENDMDL
MODEL 6
REMARK VINA RESULT:    -3.906      3.113      3.852
REMARK INTER + INTRA:          -4.264
REMARK INTER:                  -4.248
REMARK INTRA:                  -0.015
REMARK UNBOUND:                -0.015
REMARK SMILES OCc1ccco1
REMARK SMILES IDX 2 1 3 2 5 3 6 4 4 5 7 6 1 7
REMARK H PARENT 1 8
REMARK Flexibility Score: inf
ROOT
ATOM      1  C   UNL     1       4.875  -2.374  27.625  1.00  0.00     0.231 C 
ENDROOT
BRANCH   1   2
ATOM      2  C   UNL     1       5.492  -2.397  28.986  1.00  0.00     0.129 A 
ATOM      3  C   UNL     1       6.414  -3.071  30.862  1.00  0.00     0.042 A 
ATOM      4  C   UNL     1       6.172  -1.712  30.887  1.00  0.00     0.195 A 
ATOM      5  C   UNL     1       5.972  -3.517  29.636  1.00  0.00     0.048 A 
ATOM      6  O   UNL     1       5.618  -1.340  29.755  1.00  0.00    -0.467 OA
ENDBRANCH   1   2
BRANCH   1   7
ATOM      7  O   UNL     1       5.250  -3.516  26.906  1.00  0.00    -0.388 OA
ATOM      8  H   UNL     1       5.137  -4.288  27.520  1.00  0.00     0.211 HD
ENDBRANCH   1   7
TORSDOF 2
ENDMDL
MODEL 7
REMARK VINA RESULT:    -3.877     19.760     20.370
REMARK INTER + INTRA:          -4.232
REMARK INTER:                  -4.216
REMARK INTRA:                  -0.016
REMARK UNBOUND:                -0.015
REMARK SMILES OCc1ccco1
REMARK SMILES IDX 2 1 3 2 5 3 6 4 4 5 7 6 1 7
REMARK H PARENT 1 8
REMARK Flexibility Score: inf
ROOT
ATOM      1  C   UNL     1      17.622 -12.688  17.298  1.00  0.00     0.231 C 
ENDROOT
BRANCH   1   2
ATOM      2  C   UNL     1      18.238 -13.259  18.535  1.00  0.00     0.129 A 
ATOM      3  C   UNL     1      18.588 -13.878  20.613  1.00  0.00     0.042 A 
ATOM      4  C   UNL     1      19.685 -14.151  19.821  1.00  0.00     0.195 A 
ATOM      5  C   UNL     1      17.652 -13.297  19.785  1.00  0.00     0.048 A 
ATOM      6  O   UNL     1      19.447 -13.768  18.587  1.00  0.00    -0.467 OA
ENDBRANCH   1   2
BRANCH   1   7
ATOM      7  O   UNL     1      17.622 -13.644  16.275  1.00  0.00    -0.388 OA
ATOM      8  H   UNL     1      17.323 -14.498  16.684  1.00  0.00     0.211 HD
ENDBRANCH   1   7
TORSDOF 2
ENDMDL
MODEL 8
REMARK VINA RESULT:    -3.844     19.337     20.160
REMARK INTER + INTRA:          -4.196
REMARK INTER:                  -4.178
REMARK INTRA:                  -0.019
REMARK UNBOUND:                -0.015
REMARK SMILES OCc1ccco1
REMARK SMILES IDX 2 1 3 2 5 3 6 4 4 5 7 6 1 7
REMARK H PARENT 1 8
REMARK Flexibility Score: inf
ROOT
ATOM      1  C   UNL     1      18.071 -13.521  20.114  1.00  0.00     0.231 C 
ENDROOT
BRANCH   1   2
ATOM      2  C   UNL     1      17.911 -13.287  18.646  1.00  0.00     0.129 A 
ATOM      3  C   UNL     1      18.232 -12.618  16.579  1.00  0.00     0.042 A 
ATOM      4  C   UNL     1      17.033 -13.290  16.704  1.00  0.00     0.195 A 
ATOM      5  C   UNL     1      18.800 -12.611  17.835  1.00  0.00     0.048 A 
ATOM      6  O   UNL     1      16.868 -13.675  17.949  1.00  0.00    -0.467 OA
ENDBRANCH   1   2
BRANCH   1   7
ATOM      7  O   UNL     1      16.873 -13.231  20.781  1.00  0.00    -0.388 OA
ATOM      8  H   UNL     1      16.210 -12.990  20.082  1.00  0.00     0.211 HD
ENDBRANCH   1   7
TORSDOF 2
ENDMDL
MODEL 9
REMARK VINA RESULT:    -3.773      1.246      2.538
REMARK INTER + INTRA:          -4.119
REMARK INTER:                  -4.103
REMARK INTRA:                  -0.016
REMARK UNBOUND:                -0.015
REMARK SMILES OCc1ccco1
REMARK SMILES IDX 2 1 3 2 5 3 6 4 4 5 7 6 1 7
REMARK H PARENT 1 8
REMARK Flexibility Score: inf
ROOT
ATOM      1  C   UNL     1       9.817  -1.198  33.285  1.00  0.00     0.231 C 
ENDROOT
BRANCH   1   2
ATOM      2  C   UNL     1       8.750  -1.896  32.504  1.00  0.00     0.129 A 
ATOM      3  C   UNL     1       7.641  -3.384  31.329  1.00  0.00     0.042 A 
ATOM      4  C   UNL     1       6.914  -2.220  31.471  1.00  0.00     0.195 A 
ATOM      5  C   UNL     1       8.831  -3.176  31.993  1.00  0.00     0.048 A 
ATOM      6  O   UNL     1       7.603  -1.350  32.174  1.00  0.00    -0.467 OA
ENDBRANCH   1   2
BRANCH   1   7
ATOM      7  O   UNL     1      10.306  -0.104  32.560  1.00  0.00    -0.388 OA
ATOM      8  H   UNL     1       9.926   0.711  32.983  1.00  0.00     0.211 HD
ENDBRANCH   1   7
TORSDOF 2
ENDMDL
