MODEL 1
REMARK VINA RESULT:    -4.226      0.000      0.000
REMARK INTER + INTRA:          -5.150
REMARK INTER:                  -5.214
REMARK INTRA:                   0.064
REMARK UNBOUND:                 0.064
REMARK SMILES [NH3+][C@H](Cc1ccc(O)cc1)C(=O)[O-]
REMARK SMILES IDX 3 1 2 2 1 3 11 7 12 8 13 9 4 10 5 11 10 12 6 13 9 14 7 15
REMARK SMILES IDX 8 16
REMARK H PARENT 1 4 1 5 1 6 8 17
REMARK Flexibility Score: inf
ROOT
ATOM      1  C   UNL     1      22.476  28.212  30.437  1.00  0.00     0.107 C 
ENDROOT
BRANCH   1   2
ATOM      2  C   UNL     1      21.604  29.282  31.125  1.00  0.00     0.232 C 
BRANCH   2   3
ATOM      3  N   UNL     1      22.119  30.626  30.837  1.00  0.00    -0.350 N 
ATOM      4  H   UNL     1      22.669  30.993  31.647  1.00  0.00     0.345 HD
ATOM      5  H   UNL     1      22.733  30.596  29.989  1.00  0.00     0.345 HD
ATOM      6  H   UNL     1      21.323  31.276  30.641  1.00  0.00     0.345 HD
ENDBRANCH   2   3
BRANCH   2   7
ATOM      7  C   UNL     1      20.168  29.172  30.682  1.00  0.00     0.099 C 
ATOM      8  O   UNL     1      19.541  30.197  30.305  1.00  0.00    -0.544 OA
ATOM      9  O   UNL     1      19.519  27.943  30.705  1.00  0.00    -0.544 OA
ENDBRANCH   2   7
ENDBRANCH   1   2
BRANCH   1  10
ATOM     10  C   UNL     1      22.946  28.664  29.076  1.00  0.00    -0.041 A 
ATOM     11  C   UNL     1      22.083  28.606  27.970  1.00  0.00     0.008 A 
ATOM     12  C   UNL     1      24.267  29.104  28.895  1.00  0.00     0.008 A 
ATOM     13  C   UNL     1      22.531  28.997  26.704  1.00  0.00     0.046 A 
ATOM     14  C   UNL     1      24.712  29.496  27.629  1.00  0.00     0.046 A 
ATOM     15  C   UNL     1      23.847  29.444  26.531  1.00  0.00     0.115 A 
BRANCH  15  16
ATOM     16  O   UNL     1      24.305  29.837  25.275  1.00  0.00    -0.508 OA
ATOM     17  H   UNL     1      24.969  29.276  24.754  1.00  0.00     0.293 HD
ENDBRANCH  15  16
ENDBRANCH   1  10
TORSDOF 5
ENDMDL
MODEL 2
REMARK VINA RESULT:    -4.177      2.876      5.178
REMARK INTER + INTRA:          -5.090
REMARK INTER:                  -4.857
REMARK INTRA:                  -0.233
REMARK UNBOUND:                 0.064
REMARK SMILES [NH3+][C@H](Cc1ccc(O)cc1)C(=O)[O-]
REMARK SMILES IDX 3 1 2 2 1 3 11 7 12 8 13 9 4 10 5 11 10 12 6 13 9 14 7 15
REMARK SMILES IDX 8 16
REMARK H PARENT 1 4 1 5 1 6 8 17
REMARK Flexibility Score: inf
ROOT
ATOM      1  C   UNL     1      22.363  27.057  26.429  1.00  0.00     0.107 C 
ENDROOT
BRANCH   1   2
ATOM      2  C   UNL     1      23.623  27.234  25.558  1.00  0.00     0.232 C 
BRANCH   2   3
ATOM      3  N   UNL     1      23.843  26.046  24.726  1.00  0.00    -0.350 N 
ATOM      4  H   UNL     1      24.857  25.940  24.491  1.00  0.00     0.345 HD
ATOM      5  H   UNL     1      23.516  25.191  25.235  1.00  0.00     0.345 HD
ATOM      6  H   UNL     1      23.294  26.127  23.839  1.00  0.00     0.345 HD
ENDBRANCH   2   3
BRANCH   2   7
ATOM      7  C   UNL     1      23.510  28.460  24.689  1.00  0.00     0.099 C 
ATOM      8  O   UNL     1      23.023  28.372  23.531  1.00  0.00    -0.544 OA
ATOM      9  O   UNL     1      23.958  29.692  25.152  1.00  0.00    -0.544 OA
ENDBRANCH   2   7
ENDBRANCH   1   2
BRANCH   1  10
ATOM     10  C   UNL     1      22.409  27.924  27.662  1.00  0.00    -0.041 A 
ATOM     11  C   UNL     1      21.264  28.619  28.087  1.00  0.00     0.008 A 
ATOM     12  C   UNL     1      23.611  28.080  28.372  1.00  0.00     0.008 A 
ATOM     13  C   UNL     1      21.319  29.445  29.214  1.00  0.00     0.046 A 
ATOM     14  C   UNL     1      23.662  28.906  29.499  1.00  0.00     0.046 A 
ATOM     15  C   UNL     1      22.518  29.590  29.923  1.00  0.00     0.115 A 
BRANCH  15  16
ATOM     16  O   UNL     1      22.584  30.410  31.048  1.00  0.00    -0.508 OA
ATOM     17  H   UNL     1      22.222  30.108  31.944  1.00  0.00     0.293 HD
ENDBRANCH  15  16
ENDBRANCH   1  10
TORSDOF 5
ENDMDL
MODEL 3
REMARK VINA RESULT:    -4.143      1.908      2.400
REMARK INTER + INTRA:          -5.048
REMARK INTER:                  -4.865
REMARK INTRA:                  -0.182
REMARK UNBOUND:                 0.064
REMARK SMILES [NH3+][C@H](Cc1ccc(O)cc1)C(=O)[O-]
REMARK SMILES IDX 3 1 2 2 1 3 11 7 12 8 13 9 4 10 5 11 10 12 6 13 9 14 7 15
REMARK SMILES IDX 8 16
REMARK H PARENT 1 4 1 5 1 6 8 17
REMARK Flexibility Score: inf
ROOT
ATOM      1  C   UNL     1      20.655  29.702  27.837  1.00  0.00     0.107 C 
ENDROOT
BRANCH   1   2
ATOM      2  C   UNL     1      20.482  30.874  28.824  1.00  0.00     0.232 C 
BRANCH   2   3
ATOM      3  N   UNL     1      20.972  32.122  28.227  1.00  0.00    -0.350 N 
ATOM      4  H   UNL     1      20.179  32.680  27.833  1.00  0.00     0.345 HD
ATOM      5  H   UNL     1      21.467  32.692  28.953  1.00  0.00     0.345 HD
ATOM      6  H   UNL     1      21.651  31.907  27.462  1.00  0.00     0.345 HD
ENDBRANCH   2   3
BRANCH   2   7
ATOM      7  C   UNL     1      19.040  31.026  29.232  1.00  0.00     0.099 C 
ATOM      8  O   UNL     1      18.329  31.931  28.720  1.00  0.00    -0.544 OA
ATOM      9  O   UNL     1      18.490  30.183  30.190  1.00  0.00    -0.544 OA
ENDBRANCH   2   7
ENDBRANCH   1   2
BRANCH   1  10
ATOM     10  C   UNL     1      22.110  29.384  27.595  1.00  0.00    -0.041 A 
ATOM     11  C   UNL     1      22.637  29.408  26.293  1.00  0.00     0.008 A 
ATOM     12  C   UNL     1      22.941  29.016  28.667  1.00  0.00     0.008 A 
ATOM     13  C   UNL     1      23.979  29.084  26.070  1.00  0.00     0.046 A 
ATOM     14  C   UNL     1      24.282  28.694  28.440  1.00  0.00     0.046 A 
ATOM     15  C   UNL     1      24.805  28.726  27.143  1.00  0.00     0.115 A 
BRANCH  15  16
ATOM     16  O   UNL     1      26.144  28.402  26.933  1.00  0.00    -0.508 OA
ATOM     17  H   UNL     1      26.491  27.462  27.084  1.00  0.00     0.293 HD
ENDBRANCH  15  16
ENDBRANCH   1  10
TORSDOF 5
ENDMDL
MODEL 4
REMARK VINA RESULT:    -4.130      1.911      2.712
REMARK INTER + INTRA:          -5.031
REMARK INTER:                  -4.843
REMARK INTRA:                  -0.188
REMARK UNBOUND:                 0.064
REMARK SMILES [NH3+][C@H](Cc1ccc(O)cc1)C(=O)[O-]
REMARK SMILES IDX 3 1 2 2 1 3 11 7 12 8 13 9 4 10 5 11 10 12 6 13 9 14 7 15
REMARK SMILES IDX 8 16
REMARK H PARENT 1 4 1 5 1 6 8 17
REMARK Flexibility Score: inf
ROOT
ATOM      1  C   UNL     1      20.676  29.672  27.811  1.00  0.00     0.107 C 
ENDROOT
BRANCH   1   2
ATOM      2  C   UNL     1      20.538  30.862  28.782  1.00  0.00     0.232 C 
BRANCH   2   3
ATOM      3  N   UNL     1      20.971  32.105  28.133  1.00  0.00    -0.350 N 
ATOM      4  H   UNL     1      20.380  32.311  27.295  1.00  0.00     0.345 HD
ATOM      5  H   UNL     1      20.899  32.902  28.809  1.00  0.00     0.345 HD
ATOM      6  H   UNL     1      21.970  32.020  27.834  1.00  0.00     0.345 HD
ENDBRANCH   2   3
BRANCH   2   7
ATOM      7  C   UNL     1      19.119  30.999  29.268  1.00  0.00     0.099 C 
ATOM      8  O   UNL     1      18.641  30.157  30.073  1.00  0.00    -0.544 OA
ATOM      9  O   UNL     1      18.321  32.044  28.816  1.00  0.00    -0.544 OA
ENDBRANCH   2   7
ENDBRANCH   1   2
BRANCH   1  10
ATOM     10  C   UNL     1      22.121  29.296  27.588  1.00  0.00    -0.041 A 
ATOM     11  C   UNL     1      22.964  29.033  28.679  1.00  0.00     0.008 A 
ATOM     12  C   UNL     1      22.645  29.250  26.285  1.00  0.00     0.008 A 
ATOM     13  C   UNL     1      24.310  28.714  28.469  1.00  0.00     0.046 A 
ATOM     14  C   UNL     1      23.990  28.929  26.079  1.00  0.00     0.046 A 
ATOM     15  C   UNL     1      24.826  28.661  27.168  1.00  0.00     0.115 A 
BRANCH  15  16
ATOM     16  O   UNL     1      26.164  28.344  26.947  1.00  0.00    -0.508 OA
ATOM     17  H   UNL     1      26.518  27.407  27.098  1.00  0.00     0.293 HD
ENDBRANCH  15  16
ENDBRANCH   1  10
TORSDOF 5
ENDMDL
MODEL 5
REMARK VINA RESULT:    -3.947      1.785      2.431
REMARK INTER + INTRA:          -4.805
REMARK INTER:                  -4.566
REMARK INTRA:                  -0.240
REMARK UNBOUND:                 0.064
REMARK SMILES [NH3+][C@H](Cc1ccc(O)cc1)C(=O)[O-]
REMARK SMILES IDX 3 1 2 2 1 3 11 7 12 8 13 9 4 10 5 11 10 12 6 13 9 14 7 15
REMARK SMILES IDX 8 16
REMARK H PARENT 1 4 1 5 1 6 8 17
REMARK Flexibility Score: inf
ROOT
ATOM      1  C   UNL     1      23.567  29.025  29.072  1.00  0.00     0.107 C 
ENDROOT
BRANCH   1   2
ATOM      2  C   UNL     1      22.259  28.662  29.803  1.00  0.00     0.232 C 
BRANCH   2   3
ATOM      3  N   UNL     1      22.551  28.096  31.125  1.00  0.00    -0.350 N 
ATOM      4  H   UNL     1      22.351  28.793  31.879  1.00  0.00     0.345 HD
ATOM      5  H   UNL     1      21.965  27.242  31.283  1.00  0.00     0.345 HD
ATOM      6  H   UNL     1      23.557  27.816  31.177  1.00  0.00     0.345 HD
ENDBRANCH   2   3
BRANCH   2   7
ATOM      7  C   UNL     1      21.367  29.869  29.943  1.00  0.00     0.099 C 
ATOM      8  O   UNL     1      20.637  30.231  28.983  1.00  0.00    -0.544 OA
ATOM      9  O   UNL     1      21.359  30.602  31.124  1.00  0.00    -0.544 OA
ENDBRANCH   2   7
ENDBRANCH   1   2
BRANCH   1  10
ATOM     10  C   UNL     1      23.523  28.631  27.616  1.00  0.00    -0.041 A 
ATOM     11  C   UNL     1      24.130  29.439  26.641  1.00  0.00     0.008 A 
ATOM     12  C   UNL     1      22.833  27.473  27.219  1.00  0.00     0.008 A 
ATOM     13  C   UNL     1      24.061  29.085  25.290  1.00  0.00     0.046 A 
ATOM     14  C   UNL     1      22.766  27.122  25.867  1.00  0.00     0.046 A 
ATOM     15  C   UNL     1      23.379  27.926  24.900  1.00  0.00     0.115 A 
BRANCH  15  16
ATOM     16  O   UNL     1      23.304  27.563  23.556  1.00  0.00    -0.508 OA
ATOM     17  H   UNL     1      22.432  27.611  23.043  1.00  0.00     0.293 HD
ENDBRANCH  15  16
ENDBRANCH   1  10
TORSDOF 5
ENDMDL
MODEL 6
REMARK VINA RESULT:    -3.903      3.866      5.133
REMARK INTER + INTRA:          -4.752
REMARK INTER:                  -4.536
REMARK INTRA:                  -0.216
REMARK UNBOUND:                 0.064
REMARK SMILES [NH3+][C@H](Cc1ccc(O)cc1)C(=O)[O-]
REMARK SMILES IDX 3 1 2 2 1 3 11 7 12 8 13 9 4 10 5 11 10 12 6 13 9 14 7 15
REMARK SMILES IDX 8 16
REMARK H PARENT 1 4 1 5 1 6 8 17
REMARK Flexibility Score: inf
ROOT
ATOM      1  C   UNL     1      24.024  28.963  25.566  1.00  0.00     0.107 C 
ENDROOT
BRANCH   1   2
ATOM      2  C   UNL     1      24.434  28.314  26.904  1.00  0.00     0.232 C 
BRANCH   2   3
ATOM      3  N   UNL     1      25.894  28.327  27.053  1.00  0.00    -0.350 N 
ATOM      4  H   UNL     1      26.248  29.307  27.144  1.00  0.00     0.345 HD
ATOM      5  H   UNL     1      26.169  27.782  27.904  1.00  0.00     0.345 HD
ATOM      6  H   UNL     1      26.340  27.878  26.220  1.00  0.00     0.345 HD
ENDBRANCH   2   3
BRANCH   2   7
ATOM      7  C   UNL     1      23.789  29.023  28.066  1.00  0.00     0.099 C 
ATOM      8  O   UNL     1      24.387  29.100  29.172  1.00  0.00    -0.544 OA
ATOM      9  O   UNL     1      22.522  29.580  27.932  1.00  0.00    -0.544 OA
ENDBRANCH   2   7
ENDBRANCH   1   2
BRANCH   1  10
ATOM     10  C   UNL     1      23.467  27.947  24.599  1.00  0.00    -0.041 A 
ATOM     11  C   UNL     1      23.349  26.599  24.973  1.00  0.00     0.008 A 
ATOM     12  C   UNL     1      23.102  28.336  23.300  1.00  0.00     0.008 A 
ATOM     13  C   UNL     1      22.859  25.656  24.064  1.00  0.00     0.046 A 
ATOM     14  C   UNL     1      22.612  27.391  22.393  1.00  0.00     0.046 A 
ATOM     15  C   UNL     1      22.489  26.050  22.771  1.00  0.00     0.115 A 
BRANCH  15  16
ATOM     16  O   UNL     1      21.999  25.119  21.858  1.00  0.00    -0.508 OA
ATOM     17  H   UNL     1      22.610  24.447  21.408  1.00  0.00     0.293 HD
ENDBRANCH  15  16
ENDBRANCH   1  10
TORSDOF 5
ENDMDL
MODEL 7
REMARK VINA RESULT:    -3.871      2.153      4.992
REMARK INTER + INTRA:          -4.712
REMARK INTER:                  -4.644
REMARK INTRA:                  -0.068
REMARK UNBOUND:                 0.064
REMARK SMILES [NH3+][C@H](Cc1ccc(O)cc1)C(=O)[O-]
REMARK SMILES IDX 3 1 2 2 1 3 11 7 12 8 13 9 4 10 5 11 10 12 6 13 9 14 7 15
REMARK SMILES IDX 8 16
REMARK H PARENT 1 4 1 5 1 6 8 17
REMARK Flexibility Score: inf
ROOT
ATOM      1  C   UNL     1      23.866  27.964  28.125  1.00  0.00     0.107 C 
ENDROOT
BRANCH   1   2
ATOM      2  C   UNL     1      24.585  28.677  26.962  1.00  0.00     0.232 C 
BRANCH   2   3
ATOM      3  N   UNL     1      26.022  28.385  26.991  1.00  0.00    -0.350 N 
ATOM      4  H   UNL     1      26.278  27.870  27.865  1.00  0.00     0.345 HD
ATOM      5  H   UNL     1      26.284  27.804  26.160  1.00  0.00     0.345 HD
ATOM      6  H   UNL     1      26.567  29.277  26.949  1.00  0.00     0.345 HD
ENDBRANCH   2   3
BRANCH   2   7
ATOM      7  C   UNL     1      24.000  28.267  25.635  1.00  0.00     0.099 C 
ATOM      8  O   UNL     1      23.869  29.113  24.712  1.00  0.00    -0.544 OA
ATOM      9  O   UNL     1      23.583  26.957  25.428  1.00  0.00    -0.544 OA
ENDBRANCH   2   7
ENDBRANCH   1   2
BRANCH   1  10
ATOM     10  C   UNL     1      22.666  28.743  28.604  1.00  0.00    -0.041 A 
ATOM     11  C   UNL     1      22.690  29.395  29.847  1.00  0.00     0.008 A 
ATOM     12  C   UNL     1      21.496  28.784  27.827  1.00  0.00     0.008 A 
ATOM     13  C   UNL     1      21.564  30.091  30.299  1.00  0.00     0.046 A 
ATOM     14  C   UNL     1      20.373  29.482  28.282  1.00  0.00     0.046 A 
ATOM     15  C   UNL     1      20.403  30.136  29.518  1.00  0.00     0.115 A 
BRANCH  15  16
ATOM     16  O   UNL     1      19.276  30.827  29.958  1.00  0.00    -0.508 OA
ATOM     17  H   UNL     1      18.572  30.379  30.532  1.00  0.00     0.293 HD
ENDBRANCH  15  16
ENDBRANCH   1  10
TORSDOF 5
ENDMDL
MODEL 8
REMARK VINA RESULT:    -3.868      2.961      3.815
REMARK INTER + INTRA:          -4.708
REMARK INTER:                  -4.513
REMARK INTRA:                  -0.195
REMARK UNBOUND:                 0.064
REMARK SMILES [NH3+][C@H](Cc1ccc(O)cc1)C(=O)[O-]
REMARK SMILES IDX 3 1 2 2 1 3 11 7 12 8 13 9 4 10 5 11 10 12 6 13 9 14 7 15
REMARK SMILES IDX 8 16
REMARK H PARENT 1 4 1 5 1 6 8 17
REMARK Flexibility Score: inf
ROOT
ATOM      1  C   UNL     1      20.810  29.959  27.746  1.00  0.00     0.107 C 
ENDROOT
BRANCH   1   2
ATOM      2  C   UNL     1      19.999  29.869  26.438  1.00  0.00     0.232 C 
BRANCH   2   3
ATOM      3  N   UNL     1      19.051  28.750  26.499  1.00  0.00    -0.350 N 
ATOM      4  H   UNL     1      18.672  28.534  25.548  1.00  0.00     0.345 HD
ATOM      5  H   UNL     1      19.529  27.900  26.880  1.00  0.00     0.345 HD
ATOM      6  H   UNL     1      18.258  28.991  27.136  1.00  0.00     0.345 HD
ENDBRANCH   2   3
BRANCH   2   7
ATOM      7  C   UNL     1      19.263  31.156  26.171  1.00  0.00     0.099 C 
ATOM      8  O   UNL     1      18.750  31.370  25.040  1.00  0.00    -0.544 OA
ATOM      9  O   UNL     1      19.162  32.124  27.163  1.00  0.00    -0.544 OA
ENDBRANCH   2   7
ENDBRANCH   1   2
BRANCH   1  10
ATOM     10  C   UNL     1      22.237  29.507  27.552  1.00  0.00    -0.041 A 
ATOM     11  C   UNL     1      23.010  29.099  28.651  1.00  0.00     0.008 A 
ATOM     12  C   UNL     1      22.818  29.534  26.273  1.00  0.00     0.008 A 
ATOM     13  C   UNL     1      24.341  28.709  28.470  1.00  0.00     0.046 A 
ATOM     14  C   UNL     1      24.149  29.142  26.096  1.00  0.00     0.046 A 
ATOM     15  C   UNL     1      24.913  28.730  27.192  1.00  0.00     0.115 A 
BRANCH  15  16
ATOM     16  O   UNL     1      26.238  28.343  27.000  1.00  0.00    -0.508 OA
ATOM     17  H   UNL     1      26.829  28.800  26.316  1.00  0.00     0.293 HD
ENDBRANCH  15  16
ENDBRANCH   1  10
TORSDOF 5
ENDMDL
MODEL 9
REMARK VINA RESULT:    -3.799     12.383     14.835
REMARK INTER + INTRA:          -4.623
REMARK INTER:                  -4.386
REMARK INTRA:                  -0.236
REMARK UNBOUND:                 0.064
REMARK SMILES [NH3+][C@H](Cc1ccc(O)cc1)C(=O)[O-]
REMARK SMILES IDX 3 1 2 2 1 3 11 7 12 8 13 9 4 10 5 11 10 12 6 13 9 14 7 15
REMARK SMILES IDX 8 16
REMARK H PARENT 1 4 1 5 1 6 8 17
REMARK Flexibility Score: inf
ROOT
ATOM      1  C   UNL     1      29.173  29.897  17.129  1.00  0.00     0.107 C 
ENDROOT
BRANCH   1   2
ATOM      2  C   UNL     1      29.380  30.786  18.373  1.00  0.00     0.232 C 
BRANCH   2   3
ATOM      3  N   UNL     1      28.105  31.372  18.802  1.00  0.00    -0.350 N 
ATOM      4  H   UNL     1      28.256  32.314  19.231  1.00  0.00     0.345 HD
ATOM      5  H   UNL     1      27.463  31.466  17.981  1.00  0.00     0.345 HD
ATOM      6  H   UNL     1      27.646  30.747  19.505  1.00  0.00     0.345 HD
ENDBRANCH   2   3
BRANCH   2   7
ATOM      7  C   UNL     1      29.993  29.998  19.501  1.00  0.00     0.099 C 
ATOM      8  O   UNL     1      30.735  30.570  20.343  1.00  0.00    -0.544 OA
ATOM      9  O   UNL     1      29.761  28.631  19.610  1.00  0.00    -0.544 OA
ENDBRANCH   2   7
ENDBRANCH   1   2
BRANCH   1  10
ATOM     10  C   UNL     1      30.401  29.865  16.253  1.00  0.00    -0.041 A 
ATOM     11  C   UNL     1      31.226  28.730  16.227  1.00  0.00     0.008 A 
ATOM     12  C   UNL     1      30.753  30.991  15.490  1.00  0.00     0.008 A 
ATOM     13  C   UNL     1      32.380  28.715  15.436  1.00  0.00     0.046 A 
ATOM     14  C   UNL     1      31.906  30.973  14.700  1.00  0.00     0.046 A 
ATOM     15  C   UNL     1      32.722  29.837  14.670  1.00  0.00     0.115 A 
BRANCH  15  16
ATOM     16  O   UNL     1      33.869  29.834  13.878  1.00  0.00    -0.508 OA
ATOM     17  H   UNL     1      34.280  30.695  13.539  1.00  0.00     0.293 HD
ENDBRANCH  15  16
ENDBRANCH   1  10
TORSDOF 5
ENDMDL
