MODEL 1
REMARK VINA RESULT:    -5.176      0.000      0.000
REMARK INTER + INTRA:          -5.945
REMARK INTER:                  -6.386
REMARK INTRA:                   0.441
REMARK UNBOUND:                 0.441
REMARK SMILES O=c1c(O)c(-c2cc(O)c(O)c(O)c2)oc2cc(O)cc(O)c12
REMARK SMILES IDX 5 1 3 2 2 3 1 4 23 5 21 6 20 7 18 8 17 9 16 10 15 11 6 12
REMARK SMILES IDX 7 13 8 14 14 15 10 16 12 17 9 18 11 20 13 22 4 24 22 26
REMARK SMILES IDX 19 28
REMARK H PARENT 9 19 11 21 13 23 4 25 22 27 19 29
REMARK Flexibility Score: inf
ROOT
ATOM      1  C   UNL     1      18.769  25.758  53.355  1.00  0.00     0.180 A 
ATOM      2  C   UNL     1      17.439  25.307  53.410  1.00  0.00     0.208 A 
ATOM      3  C   UNL     1      17.144  24.004  52.980  1.00  0.00     0.238 A 
ATOM      4  O   UNL     1      15.965  23.581  53.101  1.00  0.00    -0.285 OA
ATOM      5  C   UNL     1      18.172  23.186  52.450  1.00  0.00     0.111 A 
ATOM      6  C   UNL     1      17.979  21.865  51.943  1.00  0.00     0.134 A 
ATOM      7  C   UNL     1      19.088  21.111  51.541  1.00  0.00     0.093 A 
ATOM      8  C   UNL     1      20.375  21.652  51.567  1.00  0.00     0.123 A 
ATOM      9  C   UNL     1      20.567  22.959  52.007  1.00  0.00     0.094 A 
ATOM     10  C   UNL     1      19.485  23.724  52.451  1.00  0.00     0.146 A 
ATOM     11  O   UNL     1      19.717  24.957  52.883  1.00  0.00    -0.452 OA
ENDROOT
BRANCH   1  12
ATOM     12  C   UNL     1      19.160  27.114  53.804  1.00  0.00     0.029 A 
ATOM     13  C   UNL     1      20.517  27.461  53.844  1.00  0.00     0.062 A 
ATOM     14  C   UNL     1      20.919  28.726  54.282  1.00  0.00     0.162 A 
ATOM     15  C   UNL     1      18.206  28.042  54.248  1.00  0.00     0.062 A 
ATOM     16  C   UNL     1      19.960  29.666  54.704  1.00  0.00     0.200 A 
ATOM     17  C   UNL     1      18.588  29.312  54.693  1.00  0.00     0.162 A 
BRANCH  14  18
ATOM     18  O   UNL     1      22.279  29.032  54.289  1.00  0.00    -0.504 OA
ATOM     19  H   UNL     1      22.995  28.317  54.250  1.00  0.00     0.293 HD
ENDBRANCH  14  18
BRANCH  16  20
ATOM     20  O   UNL     1      20.401  30.923  55.125  1.00  0.00    -0.502 OA
ATOM     21  H   UNL     1      21.142  31.444  54.678  1.00  0.00     0.293 HD
ENDBRANCH  16  20
BRANCH  17  22
ATOM     22  O   UNL     1      17.581  30.181  55.118  1.00  0.00    -0.504 OA
ATOM     23  H   UNL     1      17.430  31.103  54.737  1.00  0.00     0.293 HD
ENDBRANCH  17  22
ENDBRANCH   1  12
BRANCH   2  24
ATOM     24  O   UNL     1      16.427  26.157  53.866  1.00  0.00    -0.502 OA
ATOM     25  H   UNL     1      16.610  26.936  54.487  1.00  0.00     0.293 HD
ENDBRANCH   2  24
BRANCH   6  26
ATOM     26  O   UNL     1      16.727  21.260  51.790  1.00  0.00    -0.507 OA
ATOM     27  H   UNL     1      16.040  21.519  51.100  1.00  0.00     0.293 HD
ENDBRANCH   6  26
BRANCH   8  28
ATOM     28  O   UNL     1      21.471  20.900  51.148  1.00  0.00    -0.508 OA
ATOM     29  H   UNL     1      22.170  21.284  50.523  1.00  0.00     0.293 HD
ENDBRANCH   8  28
TORSDOF 7
ENDMDL
MODEL 2
REMARK VINA RESULT:    -4.956      1.285      2.746
REMARK INTER + INTRA:          -5.674
REMARK INTER:                  -5.901
REMARK INTRA:                   0.228
REMARK UNBOUND:                 0.441
REMARK SMILES O=c1c(O)c(-c2cc(O)c(O)c(O)c2)oc2cc(O)cc(O)c12
REMARK SMILES IDX 5 1 3 2 2 3 1 4 23 5 21 6 20 7 18 8 17 9 16 10 15 11 6 12
REMARK SMILES IDX 7 13 8 14 14 15 10 16 12 17 9 18 11 20 13 22 4 24 22 26
REMARK SMILES IDX 19 28
REMARK H PARENT 9 19 11 21 13 23 4 25 22 27 19 29
REMARK Flexibility Score: inf
ROOT
ATOM      1  C   UNL     1      19.624  25.534  52.818  1.00  0.00     0.180 A 
ATOM      2  C   UNL     1      20.490  25.043  51.826  1.00  0.00     0.208 A 
ATOM      3  C   UNL     1      20.280  23.752  51.316  1.00  0.00     0.238 A 
ATOM      4  O   UNL     1      21.013  23.347  50.377  1.00  0.00    -0.285 OA
ATOM      5  C   UNL     1      19.240  22.947  51.843  1.00  0.00     0.111 A 
ATOM      6  C   UNL     1      18.964  21.606  51.433  1.00  0.00     0.134 A 
ATOM      7  C   UNL     1      17.843  20.944  51.949  1.00  0.00     0.093 A 
ATOM      8  C   UNL     1      17.026  21.549  52.907  1.00  0.00     0.123 A 
ATOM      9  C   UNL     1      17.319  22.835  53.354  1.00  0.00     0.094 A 
ATOM     10  C   UNL     1      18.408  23.536  52.830  1.00  0.00     0.146 A 
ATOM     11  O   UNL     1      18.637  24.768  53.269  1.00  0.00    -0.452 OA
ENDROOT
BRANCH   1  12
ATOM     12  C   UNL     1      19.773  26.890  53.393  1.00  0.00     0.029 A 
ATOM     13  C   UNL     1      21.056  27.419  53.585  1.00  0.00     0.062 A 
ATOM     14  C   UNL     1      21.229  28.688  54.144  1.00  0.00     0.162 A 
ATOM     15  C   UNL     1      18.659  27.636  53.808  1.00  0.00     0.062 A 
ATOM     16  C   UNL     1      20.111  29.447  54.538  1.00  0.00     0.200 A 
ATOM     17  C   UNL     1      18.812  28.907  54.374  1.00  0.00     0.162 A 
BRANCH  14  18
ATOM     18  O   UNL     1      22.525  29.180  54.300  1.00  0.00    -0.504 OA
ATOM     19  H   UNL     1      23.343  28.595  54.184  1.00  0.00     0.293 HD
ENDBRANCH  14  18
BRANCH  16  20
ATOM     20  O   UNL     1      20.327  30.715  55.084  1.00  0.00    -0.502 OA
ATOM     21  H   UNL     1      21.162  30.985  55.582  1.00  0.00     0.293 HD
ENDBRANCH  16  20
BRANCH  17  22
ATOM     22  O   UNL     1      17.656  29.589  54.760  1.00  0.00    -0.504 OA
ATOM     23  H   UNL     1      16.889  29.165  55.260  1.00  0.00     0.293 HD
ENDBRANCH  17  22
ENDBRANCH   1  12
BRANCH   2  24
ATOM     24  O   UNL     1      21.557  25.825  51.374  1.00  0.00    -0.502 OA
ATOM     25  H   UNL     1      21.731  26.760  51.723  1.00  0.00     0.293 HD
ENDBRANCH   2  24
BRANCH   6  26
ATOM     26  O   UNL     1      19.766  20.877  50.550  1.00  0.00    -0.507 OA
ATOM     27  H   UNL     1      19.657  19.896  50.346  1.00  0.00     0.293 HD
ENDBRANCH   6  26
BRANCH   8  28
ATOM     28  O   UNL     1      15.923  20.875  53.427  1.00  0.00    -0.508 OA
ATOM     29  H   UNL     1      14.979  21.215  53.287  1.00  0.00     0.293 HD
ENDBRANCH   8  28
TORSDOF 7
ENDMDL
MODEL 3
REMARK VINA RESULT:    -4.915      1.327      3.243
REMARK INTER + INTRA:          -5.624
REMARK INTER:                  -5.812
REMARK INTRA:                   0.189
REMARK UNBOUND:                 0.441
REMARK SMILES O=c1c(O)c(-c2cc(O)c(O)c(O)c2)oc2cc(O)cc(O)c12
REMARK SMILES IDX 5 1 3 2 2 3 1 4 23 5 21 6 20 7 18 8 17 9 16 10 15 11 6 12
REMARK SMILES IDX 7 13 8 14 14 15 10 16 12 17 9 18 11 20 13 22 4 24 22 26
REMARK SMILES IDX 19 28
REMARK H PARENT 9 19 11 21 13 23 4 25 22 27 19 29
REMARK Flexibility Score: inf
ROOT
ATOM      1  C   UNL     1      19.614  25.514  52.888  1.00  0.00     0.180 A 
ATOM      2  C   UNL     1      20.408  25.036  51.831  1.00  0.00     0.208 A 
ATOM      3  C   UNL     1      20.149  23.759  51.309  1.00  0.00     0.238 A 
ATOM      4  O   UNL     1      20.814  23.366  50.316  1.00  0.00    -0.285 OA
ATOM      5  C   UNL     1      19.135  22.953  51.885  1.00  0.00     0.111 A 
ATOM      6  C   UNL     1      18.816  21.626  51.466  1.00  0.00     0.134 A 
ATOM      7  C   UNL     1      17.723  20.965  52.040  1.00  0.00     0.093 A 
ATOM      8  C   UNL     1      16.978  21.558  53.061  1.00  0.00     0.123 A 
ATOM      9  C   UNL     1      17.316  22.830  53.516  1.00  0.00     0.094 A 
ATOM     10  C   UNL     1      18.377  23.530  52.937  1.00  0.00     0.146 A 
ATOM     11  O   UNL     1      18.649  24.749  53.386  1.00  0.00    -0.452 OA
ENDROOT
BRANCH   1  12
ATOM     12  C   UNL     1      19.818  26.855  53.481  1.00  0.00     0.029 A 
ATOM     13  C   UNL     1      18.706  27.605  53.886  1.00  0.00     0.062 A 
ATOM     14  C   UNL     1      18.864  28.882  54.431  1.00  0.00     0.162 A 
ATOM     15  C   UNL     1      21.097  27.420  53.591  1.00  0.00     0.062 A 
ATOM     16  C   UNL     1      20.150  29.439  54.564  1.00  0.00     0.200 A 
ATOM     17  C   UNL     1      21.277  28.699  54.130  1.00  0.00     0.162 A 
BRANCH  14  18
ATOM     18  O   UNL     1      17.729  29.584  54.837  1.00  0.00    -0.504 OA
ATOM     19  H   UNL     1      17.025  29.899  54.180  1.00  0.00     0.293 HD
ENDBRANCH  14  18
BRANCH  16  20
ATOM     20  O   UNL     1      20.267  30.715  55.124  1.00  0.00    -0.502 OA
ATOM     21  H   UNL     1      19.600  31.116  55.767  1.00  0.00     0.293 HD
ENDBRANCH  16  20
BRANCH  17  22
ATOM     22  O   UNL     1      22.581  29.193  54.209  1.00  0.00    -0.504 OA
ATOM     23  H   UNL     1      23.345  28.869  53.636  1.00  0.00     0.293 HD
ENDBRANCH  17  22
ENDBRANCH   1  12
BRANCH   2  24
ATOM     24  O   UNL     1      21.453  25.815  51.327  1.00  0.00    -0.502 OA
ATOM     25  H   UNL     1      21.967  25.561  50.492  1.00  0.00     0.293 HD
ENDBRANCH   2  24
BRANCH   6  26
ATOM     26  O   UNL     1      19.549  20.907  50.516  1.00  0.00    -0.507 OA
ATOM     27  H   UNL     1      20.552  20.802  50.519  1.00  0.00     0.293 HD
ENDBRANCH   6  26
BRANCH   8  28
ATOM     28  O   UNL     1      15.903  20.885  53.639  1.00  0.00    -0.508 OA
ATOM     29  H   UNL     1      16.039  20.067  54.220  1.00  0.00     0.293 HD
ENDBRANCH   8  28
TORSDOF 7
ENDMDL
MODEL 4
REMARK VINA RESULT:    -4.761      1.497      6.733
REMARK INTER + INTRA:          -5.434
REMARK INTER:                  -5.105
REMARK INTRA:                  -0.328
REMARK UNBOUND:                 0.441
REMARK SMILES O=c1c(O)c(-c2cc(O)c(O)c(O)c2)oc2cc(O)cc(O)c12
REMARK SMILES IDX 5 1 3 2 2 3 1 4 23 5 21 6 20 7 18 8 17 9 16 10 15 11 6 12
REMARK SMILES IDX 7 13 8 14 14 15 10 16 12 17 9 18 11 20 13 22 4 24 22 26
REMARK SMILES IDX 19 28
REMARK H PARENT 9 19 11 21 13 23 4 25 22 27 19 29
REMARK Flexibility Score: inf
ROOT
ATOM      1  C   UNL     1      19.058  25.584  53.137  1.00  0.00     0.180 A 
ATOM      2  C   UNL     1      17.662  25.716  53.241  1.00  0.00     0.208 A 
ATOM      3  C   UNL     1      17.126  26.918  53.727  1.00  0.00     0.238 A 
ATOM      4  O   UNL     1      15.876  27.057  53.747  1.00  0.00    -0.285 OA
ATOM      5  C   UNL     1      17.992  27.954  54.155  1.00  0.00     0.111 A 
ATOM      6  C   UNL     1      17.559  29.199  54.707  1.00  0.00     0.134 A 
ATOM      7  C   UNL     1      18.504  30.191  54.997  1.00  0.00     0.093 A 
ATOM      8  C   UNL     1      19.869  29.961  54.816  1.00  0.00     0.123 A 
ATOM      9  C   UNL     1      20.305  28.730  54.331  1.00  0.00     0.094 A 
ATOM     10  C   UNL     1      19.385  27.734  53.996  1.00  0.00     0.146 A 
ATOM     11  O   UNL     1      19.843  26.585  53.516  1.00  0.00    -0.452 OA
ENDROOT
BRANCH   1  12
ATOM     12  C   UNL     1      19.696  24.352  52.621  1.00  0.00     0.029 A 
ATOM     13  C   UNL     1      20.109  24.299  51.283  1.00  0.00     0.062 A 
ATOM     14  C   UNL     1      20.697  23.143  50.762  1.00  0.00     0.162 A 
ATOM     15  C   UNL     1      19.844  23.211  53.426  1.00  0.00     0.062 A 
ATOM     16  C   UNL     1      20.867  22.007  51.575  1.00  0.00     0.200 A 
ATOM     17  C   UNL     1      20.426  22.044  52.920  1.00  0.00     0.162 A 
BRANCH  14  18
ATOM     18  O   UNL     1      21.108  23.143  49.429  1.00  0.00    -0.504 OA
ATOM     19  H   UNL     1      20.635  23.687  48.717  1.00  0.00     0.293 HD
ENDBRANCH  14  18
BRANCH  16  20
ATOM     20  O   UNL     1      21.469  20.875  51.018  1.00  0.00    -0.502 OA
ATOM     21  H   UNL     1      21.061  19.952  51.029  1.00  0.00     0.293 HD
ENDBRANCH  16  20
BRANCH  17  22
ATOM     22  O   UNL     1      20.541  20.950  53.782  1.00  0.00    -0.504 OA
ATOM     23  H   UNL     1      19.822  20.254  53.911  1.00  0.00     0.293 HD
ENDBRANCH  17  22
ENDBRANCH   1  12
BRANCH   2  24
ATOM     24  O   UNL     1      16.827  24.653  52.885  1.00  0.00    -0.502 OA
ATOM     25  H   UNL     1      17.172  23.707  52.764  1.00  0.00     0.293 HD
ENDBRANCH   2  24
BRANCH   6  26
ATOM     26  O   UNL     1      16.228  29.500  55.010  1.00  0.00    -0.507 OA
ATOM     27  H   UNL     1      15.427  28.994  54.665  1.00  0.00     0.293 HD
ENDBRANCH   6  26
BRANCH   8  28
ATOM     28  O   UNL     1      20.803  30.948  55.125  1.00  0.00    -0.508 OA
ATOM     29  H   UNL     1      20.626  31.639  55.843  1.00  0.00     0.293 HD
ENDBRANCH   8  28
TORSDOF 7
ENDMDL
MODEL 5
REMARK VINA RESULT:    -4.252     19.196     21.516
REMARK INTER + INTRA:          -4.805
REMARK INTER:                  -5.184
REMARK INTRA:                   0.379
REMARK UNBOUND:                 0.441
REMARK SMILES O=c1c(O)c(-c2cc(O)c(O)c(O)c2)oc2cc(O)cc(O)c12
REMARK SMILES IDX 5 1 3 2 2 3 1 4 23 5 21 6 20 7 18 8 17 9 16 10 15 11 6 12
REMARK SMILES IDX 7 13 8 14 14 15 10 16 12 17 9 18 11 20 13 22 4 24 22 26
REMARK SMILES IDX 19 28
REMARK H PARENT 9 19 11 21 13 23 4 25 22 27 19 29
REMARK Flexibility Score: inf
ROOT
ATOM      1  C   UNL     1      33.542  25.150  37.628  1.00  0.00     0.180 A 
ATOM      2  C   UNL     1      34.748  24.497  37.324  1.00  0.00     0.208 A 
ATOM      3  C   UNL     1      35.060  23.299  37.986  1.00  0.00     0.238 A 
ATOM      4  O   UNL     1      36.106  22.682  37.656  1.00  0.00    -0.285 OA
ATOM      5  C   UNL     1      34.189  22.797  38.984  1.00  0.00     0.111 A 
ATOM      6  C   UNL     1      34.426  21.616  39.751  1.00  0.00     0.134 A 
ATOM      7  C   UNL     1      33.442  21.158  40.636  1.00  0.00     0.093 A 
ATOM      8  C   UNL     1      32.258  21.872  40.828  1.00  0.00     0.123 A 
ATOM      9  C   UNL     1      32.041  23.055  40.127  1.00  0.00     0.094 A 
ATOM     10  C   UNL     1      32.987  23.518  39.208  1.00  0.00     0.146 A 
ATOM     11  O   UNL     1      32.728  24.638  38.545  1.00  0.00    -0.452 OA
ENDROOT
BRANCH   1  12
ATOM     12  C   UNL     1      33.137  26.409  36.962  1.00  0.00     0.029 A 
ATOM     13  C   UNL     1      31.790  26.793  36.975  1.00  0.00     0.062 A 
ATOM     14  C   UNL     1      31.375  27.966  36.338  1.00  0.00     0.162 A 
ATOM     15  C   UNL     1      34.064  27.198  36.264  1.00  0.00     0.062 A 
ATOM     16  C   UNL     1      32.308  28.770  35.658  1.00  0.00     0.200 A 
ATOM     17  C   UNL     1      33.667  28.373  35.616  1.00  0.00     0.162 A 
BRANCH  14  18
ATOM     18  O   UNL     1      30.026  28.316  36.392  1.00  0.00    -0.504 OA
ATOM     19  H   UNL     1      29.706  29.263  36.225  1.00  0.00     0.293 HD
ENDBRANCH  14  18
BRANCH  16  20
ATOM     20  O   UNL     1      31.855  29.940  35.042  1.00  0.00    -0.502 OA
ATOM     21  H   UNL     1      32.453  30.601  34.569  1.00  0.00     0.293 HD
ENDBRANCH  16  20
BRANCH  17  22
ATOM     22  O   UNL     1      34.648  29.106  34.943  1.00  0.00    -0.504 OA
ATOM     23  H   UNL     1      34.966  30.020  35.228  1.00  0.00     0.293 HD
ENDBRANCH  17  22
ENDBRANCH   1  12
BRANCH   2  24
ATOM     24  O   UNL     1      35.631  25.050  36.392  1.00  0.00    -0.502 OA
ATOM     25  H   UNL     1      36.062  25.957  36.522  1.00  0.00     0.293 HD
ENDBRANCH   2  24
BRANCH   6  26
ATOM     26  O   UNL     1      35.612  20.876  39.701  1.00  0.00    -0.507 OA
ATOM     27  H   UNL     1      36.515  21.246  39.450  1.00  0.00     0.293 HD
ENDBRANCH   6  26
BRANCH   8  28
ATOM     28  O   UNL     1      31.292  21.418  41.725  1.00  0.00    -0.508 OA
ATOM     29  H   UNL     1      30.303  21.512  41.531  1.00  0.00     0.293 HD
ENDBRANCH   8  28
TORSDOF 7
ENDMDL
MODEL 6
REMARK VINA RESULT:    -2.860      1.262      7.493
REMARK INTER + INTRA:          -3.088
REMARK INTER:                  -3.529
REMARK INTRA:                   0.441
REMARK UNBOUND:                 0.441
REMARK SMILES O=c1c(O)c(-c2cc(O)c(O)c(O)c2)oc2cc(O)cc(O)c12
REMARK SMILES IDX 5 1 3 2 2 3 1 4 23 5 21 6 20 7 18 8 17 9 16 10 15 11 6 12
REMARK SMILES IDX 7 13 8 14 14 15 10 16 12 17 9 18 11 20 13 22 4 24 22 26
REMARK SMILES IDX 19 28
REMARK H PARENT 9 19 11 21 13 23 4 25 22 27 19 29
REMARK Flexibility Score: inf
ROOT
ATOM      1  C   UNL     1      19.306  26.008  52.891  1.00  0.00     0.180 A 
ATOM      2  C   UNL     1      20.584  26.548  53.119  1.00  0.00     0.208 A 
ATOM      3  C   UNL     1      20.693  27.808  53.728  1.00  0.00     0.238 A 
ATOM      4  O   UNL     1      21.839  28.252  53.996  1.00  0.00    -0.285 OA
ATOM      5  C   UNL     1      19.522  28.538  54.051  1.00  0.00     0.111 A 
ATOM      6  C   UNL     1      19.514  29.844  54.631  1.00  0.00     0.134 A 
ATOM      7  C   UNL     1      18.296  30.424  55.006  1.00  0.00     0.093 A 
ATOM      8  C   UNL     1      17.083  29.774  54.764  1.00  0.00     0.123 A 
ATOM      9  C   UNL     1      17.078  28.525  54.149  1.00  0.00     0.094 A 
ATOM     10  C   UNL     1      18.279  27.903  53.798  1.00  0.00     0.146 A 
ATOM     11  O   UNL     1      18.228  26.702  53.236  1.00  0.00    -0.452 OA
ENDROOT
BRANCH   1  12
ATOM     12  C   UNL     1      19.112  24.680  52.267  1.00  0.00     0.029 A 
ATOM     13  C   UNL     1      17.820  24.148  52.167  1.00  0.00     0.062 A 
ATOM     14  C   UNL     1      17.606  22.888  51.601  1.00  0.00     0.162 A 
ATOM     15  C   UNL     1      20.201  23.912  51.827  1.00  0.00     0.062 A 
ATOM     16  C   UNL     1      18.696  22.128  51.137  1.00  0.00     0.200 A 
ATOM     17  C   UNL     1      20.008  22.646  51.261  1.00  0.00     0.162 A 
BRANCH  14  18
ATOM     18  O   UNL     1      16.300  22.408  51.507  1.00  0.00    -0.504 OA
ATOM     19  H   UNL     1      15.695  22.325  52.315  1.00  0.00     0.293 HD
ENDBRANCH  14  18
BRANCH  16  20
ATOM     20  O   UNL     1      18.439  20.877  50.568  1.00  0.00    -0.502 OA
ATOM     21  H   UNL     1      17.775  20.212  50.935  1.00  0.00     0.293 HD
ENDBRANCH  16  20
BRANCH  17  22
ATOM     22  O   UNL     1      21.140  21.942  50.844  1.00  0.00    -0.504 OA
ATOM     23  H   UNL     1      21.428  21.055  51.228  1.00  0.00     0.293 HD
ENDBRANCH  17  22
ENDBRANCH   1  12
BRANCH   2  24
ATOM     24  O   UNL     1      21.725  25.845  52.722  1.00  0.00    -0.502 OA
ATOM     25  H   UNL     1      22.538  25.746  53.319  1.00  0.00     0.293 HD
ENDBRANCH   2  24
BRANCH   6  26
ATOM     26  O   UNL     1      20.661  30.618  54.834  1.00  0.00    -0.507 OA
ATOM     27  H   UNL     1      21.602  30.319  54.635  1.00  0.00     0.293 HD
ENDBRANCH   6  26
BRANCH   8  28
ATOM     28  O   UNL     1      15.875  30.368  55.125  1.00  0.00    -0.508 OA
ATOM     29  H   UNL     1      15.282  30.821  54.440  1.00  0.00     0.293 HD
ENDBRANCH   8  28
TORSDOF 7
ENDMDL
