MODEL 1
REMARK VINA RESULT:    -5.185      0.000      0.000
REMARK INTER + INTRA:          -5.655
REMARK INTER:                  -6.094
REMARK INTRA:                   0.439
REMARK UNBOUND:                 0.439
REMARK SMILES O=c1c(O)c(-c2ccc(O)cc2)oc2cc(O)cc(O)c12
REMARK SMILES IDX 5 1 3 2 2 3 1 4 21 5 19 6 18 7 16 8 15 9 14 10 13 11 6 12
REMARK SMILES IDX 7 13 8 14 9 15 12 16 11 17 10 18 4 20 20 22 17 24
REMARK H PARENT 10 19 4 21 20 23 17 25
REMARK Flexibility Score: inf
ROOT
ATOM      1  C   UNL     1       8.840  -2.653  19.505  1.00  0.00     0.180 A 
ATOM      2  C   UNL     1       8.235  -1.385  19.442  1.00  0.00     0.208 A 
ATOM      3  C   UNL     1       9.042  -0.254  19.245  1.00  0.00     0.238 A 
ATOM      4  O   UNL     1       8.500   0.882  19.244  1.00  0.00    -0.285 OA
ATOM      5  C   UNL     1      10.442  -0.405  19.098  1.00  0.00     0.111 A 
ATOM      6  C   UNL     1      11.351   0.669  18.854  1.00  0.00     0.134 A 
ATOM      7  C   UNL     1      12.729   0.421  18.856  1.00  0.00     0.093 A 
ATOM      8  C   UNL     1      13.228  -0.869  19.027  1.00  0.00     0.123 A 
ATOM      9  C   UNL     1      12.346  -1.937  19.206  1.00  0.00     0.094 A 
ATOM     10  C   UNL     1      10.967  -1.714  19.246  1.00  0.00     0.146 A 
ATOM     11  O   UNL     1      10.163  -2.754  19.430  1.00  0.00    -0.452 OA
ENDROOT
BRANCH   1  12
ATOM     12  C   UNL     1       8.054  -3.894  19.685  1.00  0.00     0.021 A 
ATOM     13  C   UNL     1       6.658  -3.908  19.517  1.00  0.00     0.016 A 
ATOM     14  C   UNL     1       5.939  -5.098  19.669  1.00  0.00     0.047 A 
ATOM     15  C   UNL     1       6.604  -6.289  19.976  1.00  0.00     0.115 A 
ATOM     16  C   UNL     1       8.719  -5.098  19.973  1.00  0.00     0.016 A 
ATOM     17  C   UNL     1       7.997  -6.287  20.125  1.00  0.00     0.047 A 
BRANCH  15  18
ATOM     18  O   UNL     1       5.875  -7.466  20.125  1.00  0.00    -0.508 OA
ATOM     19  H   UNL     1       6.168  -8.330  19.684  1.00  0.00     0.293 HD
ENDBRANCH  15  18
ENDBRANCH   1  12
BRANCH   2  20
ATOM     20  O   UNL     1       6.853  -1.259  19.612  1.00  0.00    -0.502 OA
ATOM     21  H   UNL     1       6.446  -0.732  20.376  1.00  0.00     0.293 HD
ENDBRANCH   2  20
BRANCH   6  22
ATOM     22  O   UNL     1      10.953   1.981  18.580  1.00  0.00    -0.507 OA
ATOM     23  H   UNL     1      10.445   2.268  17.757  1.00  0.00     0.293 HD
ENDBRANCH   6  22
BRANCH   8  24
ATOM     24  O   UNL     1      14.605  -1.083  19.007  1.00  0.00    -0.508 OA
ATOM     25  H   UNL     1      15.224  -0.611  19.656  1.00  0.00     0.293 HD
ENDBRANCH   8  24
TORSDOF 5
ENDMDL
MODEL 2
REMARK VINA RESULT:    -5.071      3.266      3.819
REMARK INTER + INTRA:          -5.521
REMARK INTER:                  -5.359
REMARK INTRA:                  -0.161
REMARK UNBOUND:                 0.439
REMARK SMILES O=c1c(O)c(-c2ccc(O)cc2)oc2cc(O)cc(O)c12
REMARK SMILES IDX 5 1 3 2 2 3 1 4 21 5 19 6 18 7 16 8 15 9 14 10 13 11 6 12
REMARK SMILES IDX 7 13 8 14 9 15 12 16 11 17 10 18 4 20 20 22 17 24
REMARK H PARENT 10 19 4 21 20 23 17 25
REMARK Flexibility Score: inf
ROOT
ATOM      1  C   UNL     1      10.187  -1.406  16.947  1.00  0.00     0.180 A 
ATOM      2  C   UNL     1       9.513  -0.267  17.421  1.00  0.00     0.208 A 
ATOM      3  C   UNL     1      10.157   0.571  18.343  1.00  0.00     0.238 A 
ATOM      4  O   UNL     1       9.527   1.558  18.805  1.00  0.00    -0.285 OA
ATOM      5  C   UNL     1      11.473   0.270  18.769  1.00  0.00     0.111 A 
ATOM      6  C   UNL     1      12.237   1.073  19.670  1.00  0.00     0.134 A 
ATOM      7  C   UNL     1      13.478   0.611  20.123  1.00  0.00     0.093 A 
ATOM      8  C   UNL     1      14.014  -0.589  19.658  1.00  0.00     0.123 A 
ATOM      9  C   UNL     1      13.303  -1.353  18.731  1.00  0.00     0.094 A 
ATOM     10  C   UNL     1      12.044  -0.936  18.289  1.00  0.00     0.146 A 
ATOM     11  O   UNL     1      11.396  -1.696  17.415  1.00  0.00    -0.452 OA
ENDROOT
BRANCH   1  12
ATOM     12  C   UNL     1       9.584  -2.324  15.954  1.00  0.00     0.021 A 
ATOM     13  C   UNL     1      10.105  -2.442  14.653  1.00  0.00     0.016 A 
ATOM     14  C   UNL     1       9.533  -3.334  13.740  1.00  0.00     0.047 A 
ATOM     15  C   UNL     1       8.445  -4.127  14.117  1.00  0.00     0.115 A 
ATOM     16  C   UNL     1       8.504  -3.139  16.333  1.00  0.00     0.016 A 
ATOM     17  C   UNL     1       7.932  -4.029  15.418  1.00  0.00     0.047 A 
BRANCH  15  18
ATOM     18  O   UNL     1       7.884  -5.009  13.197  1.00  0.00    -0.508 OA
ATOM     19  H   UNL     1       7.367  -4.677  12.392  1.00  0.00     0.293 HD
ENDBRANCH  15  18
ENDBRANCH   1  12
BRANCH   2  20
ATOM     20  O   UNL     1       8.205  -0.003  17.004  1.00  0.00    -0.502 OA
ATOM     21  H   UNL     1       7.932   0.887  16.603  1.00  0.00     0.293 HD
ENDBRANCH   2  20
BRANCH   6  22
ATOM     22  O   UNL     1      11.835   2.332  20.125  1.00  0.00    -0.507 OA
ATOM     23  H   UNL     1      12.196   3.210  19.782  1.00  0.00     0.293 HD
ENDBRANCH   6  22
BRANCH   8  24
ATOM     24  O   UNL     1      15.260  -1.010  20.118  1.00  0.00    -0.508 OA
ATOM     25  H   UNL     1      15.555  -0.850  21.074  1.00  0.00     0.293 HD
ENDBRANCH   8  24
TORSDOF 5
ENDMDL
MODEL 3
REMARK VINA RESULT:    -5.058      2.910      6.118
REMARK INTER + INTRA:          -5.506
REMARK INTER:                  -6.001
REMARK INTRA:                   0.495
REMARK UNBOUND:                 0.439
REMARK SMILES O=c1c(O)c(-c2ccc(O)cc2)oc2cc(O)cc(O)c12
REMARK SMILES IDX 5 1 3 2 2 3 1 4 21 5 19 6 18 7 16 8 15 9 14 10 13 11 6 12
REMARK SMILES IDX 7 13 8 14 9 15 12 16 11 17 10 18 4 20 20 22 17 24
REMARK H PARENT 10 19 4 21 20 23 17 25
REMARK Flexibility Score: inf
ROOT
ATOM      1  C   UNL     1      11.206  -0.840  19.130  1.00  0.00     0.180 A 
ATOM      2  C   UNL     1      10.167  -1.784  19.044  1.00  0.00     0.208 A 
ATOM      3  C   UNL     1       8.869  -1.342  18.747  1.00  0.00     0.238 A 
ATOM      4  O   UNL     1       7.934  -2.186  18.726  1.00  0.00    -0.285 OA
ATOM      5  C   UNL     1       8.626   0.034  18.526  1.00  0.00     0.111 A 
ATOM      6  C   UNL     1       7.356   0.588  18.179  1.00  0.00     0.134 A 
ATOM      7  C   UNL     1       7.205   1.978  18.112  1.00  0.00     0.093 A 
ATOM      8  C   UNL     1       8.288   2.832  18.313  1.00  0.00     0.123 A 
ATOM      9  C   UNL     1       9.548   2.299  18.593  1.00  0.00     0.094 A 
ATOM     10  C   UNL     1       9.722   0.917  18.703  1.00  0.00     0.146 A 
ATOM     11  O   UNL     1      10.934   0.452  18.981  1.00  0.00    -0.452 OA
ENDROOT
BRANCH   1  12
ATOM     12  C   UNL     1      12.606  -1.231  19.413  1.00  0.00     0.021 A 
ATOM     13  C   UNL     1      12.943  -2.554  19.752  1.00  0.00     0.016 A 
ATOM     14  C   UNL     1      14.275  -2.905  19.991  1.00  0.00     0.047 A 
ATOM     15  C   UNL     1      15.287  -1.946  19.882  1.00  0.00     0.115 A 
ATOM     16  C   UNL     1      13.629  -0.278  19.284  1.00  0.00     0.016 A 
ATOM     17  C   UNL     1      14.961  -0.631  19.526  1.00  0.00     0.047 A 
BRANCH  15  18
ATOM     18  O   UNL     1      16.609  -2.310  20.125  1.00  0.00    -0.508 OA
ATOM     19  H   UNL     1      17.358  -2.030  19.503  1.00  0.00     0.293 HD
ENDBRANCH  15  18
ENDBRANCH   1  12
BRANCH   2  20
ATOM     20  O   UNL     1      10.426  -3.135  19.289  1.00  0.00    -0.502 OA
ATOM     21  H   UNL     1      10.471  -3.824  18.546  1.00  0.00     0.293 HD
ENDBRANCH   2  20
BRANCH   6  22
ATOM     22  O   UNL     1       6.229  -0.178  17.869  1.00  0.00    -0.507 OA
ATOM     23  H   UNL     1       6.252  -1.066  17.390  1.00  0.00     0.293 HD
ENDBRANCH   6  22
BRANCH   8  24
ATOM     24  O   UNL     1       8.105   4.210  18.222  1.00  0.00    -0.508 OA
ATOM     25  H   UNL     1       8.842   4.823  17.893  1.00  0.00     0.293 HD
ENDBRANCH   8  24
TORSDOF 5
ENDMDL
MODEL 4
REMARK VINA RESULT:    -4.901      3.514      5.050
REMARK INTER + INTRA:          -5.322
REMARK INTER:                  -5.377
REMARK INTRA:                   0.055
REMARK UNBOUND:                 0.439
REMARK SMILES O=c1c(O)c(-c2ccc(O)cc2)oc2cc(O)cc(O)c12
REMARK SMILES IDX 5 1 3 2 2 3 1 4 21 5 19 6 18 7 16 8 15 9 14 10 13 11 6 12
REMARK SMILES IDX 7 13 8 14 9 15 12 16 11 17 10 18 4 20 20 22 17 24
REMARK H PARENT 10 19 4 21 20 23 17 25
REMARK Flexibility Score: inf
ROOT
ATOM      1  C   UNL     1       9.629  -1.008  16.813  1.00  0.00     0.180 A 
ATOM      2  C   UNL     1      10.964  -0.747  17.172  1.00  0.00     0.208 A 
ATOM      3  C   UNL     1      11.238   0.315  18.049  1.00  0.00     0.238 A 
ATOM      4  O   UNL     1      12.438   0.578  18.322  1.00  0.00    -0.285 OA
ATOM      5  C   UNL     1      10.175   1.092  18.568  1.00  0.00     0.111 A 
ATOM      6  C   UNL     1      10.334   2.166  19.495  1.00  0.00     0.134 A 
ATOM      7  C   UNL     1       9.227   2.949  19.841  1.00  0.00     0.093 A 
ATOM      8  C   UNL     1       7.956   2.659  19.347  1.00  0.00     0.123 A 
ATOM      9  C   UNL     1       7.778   1.574  18.486  1.00  0.00     0.094 A 
ATOM     10  C   UNL     1       8.871   0.796  18.094  1.00  0.00     0.146 A 
ATOM     11  O   UNL     1       8.661  -0.220  17.266  1.00  0.00    -0.452 OA
ENDROOT
BRANCH   1  12
ATOM     12  C   UNL     1       9.259  -2.125  15.915  1.00  0.00     0.021 A 
ATOM     13  C   UNL     1       8.244  -3.036  16.258  1.00  0.00     0.016 A 
ATOM     14  C   UNL     1       7.895  -4.068  15.382  1.00  0.00     0.047 A 
ATOM     15  C   UNL     1       8.543  -4.197  14.150  1.00  0.00     0.115 A 
ATOM     16  C   UNL     1       9.891  -2.246  14.666  1.00  0.00     0.016 A 
ATOM     17  C   UNL     1       9.541  -3.280  13.792  1.00  0.00     0.047 A 
BRANCH  15  18
ATOM     18  O   UNL     1       8.186  -5.231  13.288  1.00  0.00    -0.508 OA
ATOM     19  H   UNL     1       8.874  -5.880  12.926  1.00  0.00     0.293 HD
ENDBRANCH  15  18
ENDBRANCH   1  12
BRANCH   2  20
ATOM     20  O   UNL     1      11.999  -1.513  16.629  1.00  0.00    -0.502 OA
ATOM     21  H   UNL     1      11.828  -2.288  15.998  1.00  0.00     0.293 HD
ENDBRANCH   2  20
BRANCH   6  22
ATOM     22  O   UNL     1      11.543   2.485  20.120  1.00  0.00    -0.507 OA
ATOM     23  H   UNL     1      12.304   1.838  20.265  1.00  0.00     0.293 HD
ENDBRANCH   6  22
BRANCH   8  24
ATOM     24  O   UNL     1       6.873   3.449  19.725  1.00  0.00    -0.508 OA
ATOM     25  H   UNL     1       6.917   4.461  19.689  1.00  0.00     0.293 HD
ENDBRANCH   8  24
TORSDOF 5
ENDMDL
MODEL 5
REMARK VINA RESULT:    -4.851      3.040      5.838
REMARK INTER + INTRA:          -5.263
REMARK INTER:                  -5.302
REMARK INTRA:                   0.039
REMARK UNBOUND:                 0.439
REMARK SMILES O=c1c(O)c(-c2ccc(O)cc2)oc2cc(O)cc(O)c12
REMARK SMILES IDX 5 1 3 2 2 3 1 4 21 5 19 6 18 7 16 8 15 9 14 10 13 11 6 12
REMARK SMILES IDX 7 13 8 14 9 15 12 16 11 17 10 18 4 20 20 22 17 24
REMARK H PARENT 10 19 4 21 20 23 17 25
REMARK Flexibility Score: inf
ROOT
ATOM      1  C   UNL     1      10.319   0.274  19.108  1.00  0.00     0.180 A 
ATOM      2  C   UNL     1       9.750  -1.006  18.986  1.00  0.00     0.208 A 
ATOM      3  C   UNL     1      10.591  -2.130  19.008  1.00  0.00     0.238 A 
ATOM      4  O   UNL     1      10.082  -3.269  18.843  1.00  0.00    -0.285 OA
ATOM      5  C   UNL     1      11.988  -1.961  19.167  1.00  0.00     0.111 A 
ATOM      6  C   UNL     1      12.930  -3.032  19.244  1.00  0.00     0.134 A 
ATOM      7  C   UNL     1      14.300  -2.745  19.271  1.00  0.00     0.093 A 
ATOM      8  C   UNL     1      14.760  -1.429  19.291  1.00  0.00     0.123 A 
ATOM      9  C   UNL     1      13.846  -0.374  19.277  1.00  0.00     0.094 A 
ATOM     10  C   UNL     1      12.474  -0.629  19.213  1.00  0.00     0.146 A 
ATOM     11  O   UNL     1      11.638   0.402  19.191  1.00  0.00    -0.452 OA
ENDROOT
BRANCH   1  12
ATOM     12  C   UNL     1       9.495   1.505  19.119  1.00  0.00     0.021 A 
ATOM     13  C   UNL     1       9.643   2.476  20.125  1.00  0.00     0.016 A 
ATOM     14  C   UNL     1       8.871   3.642  20.101  1.00  0.00     0.047 A 
ATOM     15  C   UNL     1       7.953   3.858  19.068  1.00  0.00     0.115 A 
ATOM     16  C   UNL     1       8.587   1.738  18.072  1.00  0.00     0.016 A 
ATOM     17  C   UNL     1       7.815   2.904  18.051  1.00  0.00     0.047 A 
BRANCH  15  18
ATOM     18  O   UNL     1       7.190   5.023  19.058  1.00  0.00    -0.508 OA
ATOM     19  H   UNL     1       6.724   5.344  18.216  1.00  0.00     0.293 HD
ENDBRANCH  15  18
ENDBRANCH   1  12
BRANCH   2  20
ATOM     20  O   UNL     1       8.371  -1.147  18.807  1.00  0.00    -0.502 OA
ATOM     21  H   UNL     1       7.881  -0.736  18.021  1.00  0.00     0.293 HD
ENDBRANCH   2  20
BRANCH   6  22
ATOM     22  O   UNL     1      12.573  -4.381  19.323  1.00  0.00    -0.507 OA
ATOM     23  H   UNL     1      13.211  -5.133  19.532  1.00  0.00     0.293 HD
ENDBRANCH   6  22
BRANCH   8  24
ATOM     24  O   UNL     1      16.130  -1.180  19.335  1.00  0.00    -0.508 OA
ATOM     25  H   UNL     1      16.604  -0.973  20.206  1.00  0.00     0.293 HD
ENDBRANCH   8  24
TORSDOF 5
ENDMDL
MODEL 6
REMARK VINA RESULT:    -4.828      1.662      3.640
REMARK INTER + INTRA:          -5.236
REMARK INTER:                  -5.658
REMARK INTRA:                   0.422
REMARK UNBOUND:                 0.439
REMARK SMILES O=c1c(O)c(-c2ccc(O)cc2)oc2cc(O)cc(O)c12
REMARK SMILES IDX 5 1 3 2 2 3 1 4 21 5 19 6 18 7 16 8 15 9 14 10 13 11 6 12
REMARK SMILES IDX 7 13 8 14 9 15 12 16 11 17 10 18 4 20 20 22 17 24
REMARK H PARENT 10 19 4 21 20 23 17 25
REMARK Flexibility Score: inf
ROOT
ATOM      1  C   UNL     1       8.468  -2.135  19.795  1.00  0.00     0.180 A 
ATOM      2  C   UNL     1       9.843  -1.937  19.573  1.00  0.00     0.208 A 
ATOM      3  C   UNL     1      10.348  -0.628  19.551  1.00  0.00     0.238 A 
ATOM      4  O   UNL     1      11.568  -0.456  19.297  1.00  0.00    -0.285 OA
ATOM      5  C   UNL     1       9.476   0.466  19.766  1.00  0.00     0.111 A 
ATOM      6  C   UNL     1       9.887   1.834  19.805  1.00  0.00     0.134 A 
ATOM      7  C   UNL     1       8.920   2.842  19.895  1.00  0.00     0.093 A 
ATOM      8  C   UNL     1       7.566   2.534  20.013  1.00  0.00     0.123 A 
ATOM      9  C   UNL     1       7.158   1.199  20.037  1.00  0.00     0.094 A 
ATOM     10  C   UNL     1       8.096   0.171  19.912  1.00  0.00     0.146 A 
ATOM     11  O   UNL     1       7.666  -1.085  19.928  1.00  0.00    -0.452 OA
ENDROOT
BRANCH   1  12
ATOM     12  C   UNL     1       7.866  -3.487  19.858  1.00  0.00     0.021 A 
ATOM     13  C   UNL     1       8.659  -4.634  20.035  1.00  0.00     0.016 A 
ATOM     14  C   UNL     1       8.066  -5.898  20.116  1.00  0.00     0.047 A 
ATOM     15  C   UNL     1       6.676  -6.030  20.034  1.00  0.00     0.115 A 
ATOM     16  C   UNL     1       6.469  -3.624  19.797  1.00  0.00     0.016 A 
ATOM     17  C   UNL     1       5.878  -4.889  19.877  1.00  0.00     0.047 A 
BRANCH  15  18
ATOM     18  O   UNL     1       6.099  -7.295  20.114  1.00  0.00    -0.508 OA
ATOM     19  H   UNL     1       6.537  -8.105  19.690  1.00  0.00     0.293 HD
ENDBRANCH  15  18
ENDBRANCH   1  12
BRANCH   2  20
ATOM     20  O   UNL     1      10.680  -3.032  19.341  1.00  0.00    -0.502 OA
ATOM     21  H   UNL     1      10.401  -3.817  18.763  1.00  0.00     0.293 HD
ENDBRANCH   2  20
BRANCH   6  22
ATOM     22  O   UNL     1      11.221   2.248  19.786  1.00  0.00    -0.507 OA
ATOM     23  H   UNL     1      12.017   1.627  19.787  1.00  0.00     0.293 HD
ENDBRANCH   6  22
BRANCH   8  24
ATOM     24  O   UNL     1       6.632   3.563  20.117  1.00  0.00    -0.508 OA
ATOM     25  H   UNL     1       6.648   4.359  19.491  1.00  0.00     0.293 HD
ENDBRANCH   8  24
TORSDOF 5
ENDMDL
MODEL 7
REMARK VINA RESULT:    -4.755      1.497      6.256
REMARK INTER + INTRA:          -5.150
REMARK INTER:                  -5.300
REMARK INTRA:                   0.150
REMARK UNBOUND:                 0.439
REMARK SMILES O=c1c(O)c(-c2ccc(O)cc2)oc2cc(O)cc(O)c12
REMARK SMILES IDX 5 1 3 2 2 3 1 4 21 5 19 6 18 7 16 8 15 9 14 10 13 11 6 12
REMARK SMILES IDX 7 13 8 14 9 15 12 16 11 17 10 18 4 20 20 22 17 24
REMARK H PARENT 10 19 4 21 20 23 17 25
REMARK Flexibility Score: inf
ROOT
ATOM      1  C   UNL     1      10.836  -1.619  19.011  1.00  0.00     0.180 A 
ATOM      2  C   UNL     1      10.268  -0.528  18.330  1.00  0.00     0.208 A 
ATOM      3  C   UNL     1       8.884  -0.517  18.096  1.00  0.00     0.238 A 
ATOM      4  O   UNL     1       8.391   0.436  17.437  1.00  0.00    -0.285 OA
ATOM      5  C   UNL     1       8.083  -1.588  18.558  1.00  0.00     0.111 A 
ATOM      6  C   UNL     1       6.665  -1.661  18.412  1.00  0.00     0.134 A 
ATOM      7  C   UNL     1       5.991  -2.828  18.792  1.00  0.00     0.093 A 
ATOM      8  C   UNL     1       6.672  -3.897  19.373  1.00  0.00     0.123 A 
ATOM      9  C   UNL     1       8.051  -3.813  19.576  1.00  0.00     0.094 A 
ATOM     10  C   UNL     1       8.756  -2.676  19.173  1.00  0.00     0.146 A 
ATOM     11  O   UNL     1      10.068  -2.639  19.375  1.00  0.00    -0.452 OA
ENDROOT
BRANCH   1  12
ATOM     12  C   UNL     1      12.283  -1.690  19.317  1.00  0.00     0.021 A 
ATOM     13  C   UNL     1      13.023  -2.864  19.092  1.00  0.00     0.016 A 
ATOM     14  C   UNL     1      14.394  -2.901  19.366  1.00  0.00     0.047 A 
ATOM     15  C   UNL     1      15.045  -1.764  19.855  1.00  0.00     0.115 A 
ATOM     16  C   UNL     1      12.947  -0.545  19.788  1.00  0.00     0.016 A 
ATOM     17  C   UNL     1      14.318  -0.583  20.063  1.00  0.00     0.047 A 
BRANCH  15  18
ATOM     18  O   UNL     1      16.410  -1.814  20.125  1.00  0.00    -0.508 OA
ATOM     19  H   UNL     1      16.803  -2.520  20.738  1.00  0.00     0.293 HD
ENDBRANCH  15  18
ENDBRANCH   1  12
BRANCH   2  20
ATOM     20  O   UNL     1      11.082   0.508  17.862  1.00  0.00    -0.502 OA
ATOM     21  H   UNL     1      11.983   0.719  18.275  1.00  0.00     0.293 HD
ENDBRANCH   2  20
BRANCH   6  22
ATOM     22  O   UNL     1       5.875  -0.615  17.927  1.00  0.00    -0.507 OA
ATOM     23  H   UNL     1       4.967  -0.365  18.288  1.00  0.00     0.293 HD
ENDBRANCH   6  22
BRANCH   8  24
ATOM     24  O   UNL     1       5.967  -5.037  19.754  1.00  0.00    -0.508 OA
ATOM     25  H   UNL     1       6.030  -5.410  20.694  1.00  0.00     0.293 HD
ENDBRANCH   8  24
TORSDOF 5
ENDMDL
MODEL 8
REMARK VINA RESULT:    -4.314     10.300     13.015
REMARK INTER + INTRA:          -4.632
REMARK INTER:                  -4.366
REMARK INTRA:                  -0.266
REMARK UNBOUND:                 0.439
REMARK SMILES O=c1c(O)c(-c2ccc(O)cc2)oc2cc(O)cc(O)c12
REMARK SMILES IDX 5 1 3 2 2 3 1 4 21 5 19 6 18 7 16 8 15 9 14 10 13 11 6 12
REMARK SMILES IDX 7 13 8 14 9 15 12 16 11 17 10 18 4 20 20 22 17 24
REMARK H PARENT 10 19 4 21 20 23 17 25
REMARK Flexibility Score: inf
ROOT
ATOM      1  C   UNL     1      19.788  -6.240  18.612  1.00  0.00     0.180 A 
ATOM      2  C   UNL     1      18.700  -6.769  19.329  1.00  0.00     0.208 A 
ATOM      3  C   UNL     1      18.399  -8.134  19.202  1.00  0.00     0.238 A 
ATOM      4  O   UNL     1      17.392  -8.589  19.804  1.00  0.00    -0.285 OA
ATOM      5  C   UNL     1      19.198  -8.957  18.372  1.00  0.00     0.111 A 
ATOM      6  C   UNL     1      19.008 -10.362  18.201  1.00  0.00     0.134 A 
ATOM      7  C   UNL     1      19.776 -11.052  17.255  1.00  0.00     0.093 A 
ATOM      8  C   UNL     1      20.769 -10.404  16.522  1.00  0.00     0.123 A 
ATOM      9  C   UNL     1      21.004  -9.043  16.725  1.00  0.00     0.094 A 
ATOM     10  C   UNL     1      20.229  -8.320  17.635  1.00  0.00     0.146 A 
ATOM     11  O   UNL     1      20.477  -7.025  17.791  1.00  0.00    -0.452 OA
ENDROOT
BRANCH   1  12
ATOM     12  C   UNL     1      20.182  -4.817  18.714  1.00  0.00     0.021 A 
ATOM     13  C   UNL     1      19.522  -3.819  17.976  1.00  0.00     0.016 A 
ATOM     14  C   UNL     1      19.896  -2.478  18.107  1.00  0.00     0.047 A 
ATOM     15  C   UNL     1      20.923  -2.116  18.984  1.00  0.00     0.115 A 
ATOM     16  C   UNL     1      21.199  -4.444  19.609  1.00  0.00     0.016 A 
ATOM     17  C   UNL     1      21.572  -3.102  19.738  1.00  0.00     0.047 A 
BRANCH  15  18
ATOM     18  O   UNL     1      21.286  -0.776  19.103  1.00  0.00    -0.508 OA
ATOM     19  H   UNL     1      21.624  -0.246  18.308  1.00  0.00     0.293 HD
ENDBRANCH  15  18
ENDBRANCH   1  12
BRANCH   2  20
ATOM     20  O   UNL     1      17.912  -5.933  20.125  1.00  0.00    -0.502 OA
ATOM     21  H   UNL     1      17.508  -5.072  19.775  1.00  0.00     0.293 HD
ENDBRANCH   2  20
BRANCH   6  22
ATOM     22  O   UNL     1      18.106 -11.124  18.948  1.00  0.00    -0.507 OA
ATOM     23  H   UNL     1      18.083 -12.133  18.968  1.00  0.00     0.293 HD
ENDBRANCH   6  22
BRANCH   8  24
ATOM     24  O   UNL     1      21.526 -11.125  15.601  1.00  0.00    -0.508 OA
ATOM     25  H   UNL     1      22.336 -10.720  15.148  1.00  0.00     0.293 HD
ENDBRANCH   8  24
TORSDOF 5
ENDMDL
MODEL 9
REMARK VINA RESULT:    -4.004      3.599      6.151
REMARK INTER + INTRA:          -4.267
REMARK INTER:                  -4.096
REMARK INTRA:                  -0.171
REMARK UNBOUND:                 0.439
REMARK SMILES O=c1c(O)c(-c2ccc(O)cc2)oc2cc(O)cc(O)c12
REMARK SMILES IDX 5 1 3 2 2 3 1 4 21 5 19 6 18 7 16 8 15 9 14 10 13 11 6 12
REMARK SMILES IDX 7 13 8 14 9 15 12 16 11 17 10 18 4 20 20 22 17 24
REMARK H PARENT 10 19 4 21 20 23 17 25
REMARK Flexibility Score: inf
ROOT
ATOM      1  C   UNL     1       8.954   1.426  18.563  1.00  0.00     0.180 A 
ATOM      2  C   UNL     1       8.447   0.369  17.786  1.00  0.00     0.208 A 
ATOM      3  C   UNL     1       9.278  -0.725  17.499  1.00  0.00     0.238 A 
ATOM      4  O   UNL     1       8.836  -1.641  16.757  1.00  0.00    -0.285 OA
ATOM      5  C   UNL     1      10.600  -0.756  18.003  1.00  0.00     0.111 A 
ATOM      6  C   UNL     1      11.516  -1.834  17.807  1.00  0.00     0.134 A 
ATOM      7  C   UNL     1      12.841  -1.701  18.240  1.00  0.00     0.093 A 
ATOM      8  C   UNL     1      13.266  -0.560  18.920  1.00  0.00     0.123 A 
ATOM      9  C   UNL     1      12.363   0.475  19.170  1.00  0.00     0.094 A 
ATOM     10  C   UNL     1      11.044   0.386  18.717  1.00  0.00     0.146 A 
ATOM     11  O   UNL     1      10.219   1.397  18.966  1.00  0.00    -0.452 OA
ENDROOT
BRANCH   1  12
ATOM     12  C   UNL     1       8.131   2.601  18.929  1.00  0.00     0.021 A 
ATOM     13  C   UNL     1       7.013   2.478  19.772  1.00  0.00     0.016 A 
ATOM     14  C   UNL     1       6.265   3.606  20.124  1.00  0.00     0.047 A 
ATOM     15  C   UNL     1       6.630   4.870  19.651  1.00  0.00     0.115 A 
ATOM     16  C   UNL     1       8.506   3.876  18.474  1.00  0.00     0.016 A 
ATOM     17  C   UNL     1       7.755   5.003  18.826  1.00  0.00     0.047 A 
BRANCH  15  18
ATOM     18  O   UNL     1       5.875   5.984  20.008  1.00  0.00    -0.508 OA
ATOM     19  H   UNL     1       5.005   6.207  19.539  1.00  0.00     0.293 HD
ENDBRANCH  15  18
ENDBRANCH   1  12
BRANCH   2  20
ATOM     20  O   UNL     1       7.146   0.433  17.280  1.00  0.00    -0.502 OA
ATOM     21  H   UNL     1       6.357   0.003  17.751  1.00  0.00     0.293 HD
ENDBRANCH   2  20
BRANCH   6  22
ATOM     22  O   UNL     1      11.171  -3.055  17.221  1.00  0.00    -0.507 OA
ATOM     23  H   UNL     1      11.166  -3.236  16.229  1.00  0.00     0.293 HD
ENDBRANCH   6  22
BRANCH   8  24
ATOM     24  O   UNL     1      14.587  -0.468  19.351  1.00  0.00    -0.508 OA
ATOM     25  H   UNL     1      14.824  -0.463  20.337  1.00  0.00     0.293 HD
ENDBRANCH   8  24
TORSDOF 5
ENDMDL
