MODEL 1
REMARK VINA RESULT:    -3.149      0.000      0.000
REMARK INTER + INTRA:          -3.730
REMARK INTER:                  -3.702
REMARK INTRA:                  -0.029
REMARK UNBOUND:                -0.029
REMARK SMILES CCCCC(=O)[O-]
REMARK SMILES IDX 4 1 5 2 6 3 7 4 3 5 2 6 1 7
REMARK H PARENT
REMARK Flexibility Score: inf
ROOT
ATOM      1  C   UNL     1       7.620   8.737  33.454  1.00  0.00     0.053 C 
ENDROOT
BRANCH   1   2
ATOM      2  C   UNL     1       7.509   7.273  33.744  1.00  0.00     0.041 C 
ATOM      3  O   UNL     1       8.483   6.650  34.242  1.00  0.00    -0.550 OA
ATOM      4  O   UNL     1       6.314   6.606  33.508  1.00  0.00    -0.550 OA
ENDBRANCH   1   2
BRANCH   1   5
ATOM      5  C   UNL     1       6.361   9.473  33.921  1.00  0.00     0.006 C 
BRANCH   5   6
ATOM      6  C   UNL     1       6.017  10.628  32.975  1.00  0.00    -0.003 C 
ATOM      7  C   UNL     1       5.083  11.631  33.645  1.00  0.00     0.004 C 
ENDBRANCH   5   6
ENDBRANCH   1   5
TORSDOF 3
ENDMDL
MODEL 2
REMARK VINA RESULT:    -3.125      0.097      1.227
REMARK INTER + INTRA:          -3.702
REMARK INTER:                  -3.673
REMARK INTRA:                  -0.029
REMARK UNBOUND:                -0.029
REMARK SMILES CCCCC(=O)[O-]
REMARK SMILES IDX 4 1 5 2 6 3 7 4 3 5 2 6 1 7
REMARK H PARENT
REMARK Flexibility Score: inf
ROOT
ATOM      1  C   UNL     1       7.557   8.674  33.401  1.00  0.00     0.053 C 
ENDROOT
BRANCH   1   2
ATOM      2  C   UNL     1       7.410   7.240  33.798  1.00  0.00     0.041 C 
ATOM      3  O   UNL     1       6.348   6.616  33.538  1.00  0.00    -0.550 OA
ATOM      4  O   UNL     1       8.464   6.577  34.415  1.00  0.00    -0.550 OA
ENDBRANCH   1   2
BRANCH   1   5
ATOM      5  C   UNL     1       6.379   9.500  33.925  1.00  0.00     0.006 C 
BRANCH   5   6
ATOM      6  C   UNL     1       6.021  10.627  32.952  1.00  0.00    -0.003 C 
ATOM      7  C   UNL     1       5.100  11.651  33.608  1.00  0.00     0.004 C 
ENDBRANCH   5   6
ENDBRANCH   1   5
TORSDOF 3
ENDMDL
MODEL 3
REMARK VINA RESULT:    -3.033      1.079      1.824
REMARK INTER + INTRA:          -3.594
REMARK INTER:                  -3.560
REMARK INTRA:                  -0.034
REMARK UNBOUND:                -0.029
REMARK SMILES CCCCC(=O)[O-]
REMARK SMILES IDX 4 1 5 2 6 3 7 4 3 5 2 6 1 7
REMARK H PARENT
REMARK Flexibility Score: inf
ROOT
ATOM      1  C   UNL     1       6.012   9.342  33.887  1.00  0.00     0.053 C 
ENDROOT
BRANCH   1   2
ATOM      2  C   UNL     1       7.055   8.337  33.515  1.00  0.00     0.041 C 
ATOM      3  O   UNL     1       6.743   7.126  33.366  1.00  0.00    -0.550 OA
ATOM      4  O   UNL     1       8.363   8.743  33.285  1.00  0.00    -0.550 OA
ENDBRANCH   1   2
BRANCH   1   5
ATOM      5  C   UNL     1       6.085  10.559  32.960  1.00  0.00     0.006 C 
BRANCH   5   6
ATOM      6  C   UNL     1       5.124  11.660  33.421  1.00  0.00    -0.003 C 
ATOM      7  C   UNL     1       4.955  11.643  34.937  1.00  0.00     0.004 C 
ENDBRANCH   5   6
ENDBRANCH   1   5
TORSDOF 3
ENDMDL
MODEL 4
REMARK VINA RESULT:    -2.879      2.565      3.893
REMARK INTER + INTRA:          -3.412
REMARK INTER:                  -3.312
REMARK INTRA:                  -0.100
REMARK UNBOUND:                -0.029
REMARK SMILES CCCCC(=O)[O-]
REMARK SMILES IDX 4 1 5 2 6 3 7 4 3 5 2 6 1 7
REMARK H PARENT
REMARK Flexibility Score: inf
ROOT
ATOM      1  C   UNL     1       6.697   9.553  33.145  1.00  0.00     0.053 C 
ENDROOT
BRANCH   1   2
ATOM      2  C   UNL     1       5.622  10.406  33.741  1.00  0.00     0.041 C 
ATOM      3  O   UNL     1       5.123  10.108  34.858  1.00  0.00    -0.550 OA
ATOM      4  O   UNL     1       5.204  11.557  33.086  1.00  0.00    -0.550 OA
ENDBRANCH   1   2
BRANCH   1   5
ATOM      5  C   UNL     1       7.385   8.722  34.232  1.00  0.00     0.006 C 
BRANCH   5   6
ATOM      6  C   UNL     1       7.467   7.247  33.826  1.00  0.00    -0.003 C 
ATOM      7  C   UNL     1       6.080   6.673  33.551  1.00  0.00     0.004 C 
ENDBRANCH   5   6
ENDBRANCH   1   5
TORSDOF 3
ENDMDL
MODEL 5
REMARK VINA RESULT:    -2.762      2.247      3.665
REMARK INTER + INTRA:          -3.275
REMARK INTER:                  -3.211
REMARK INTRA:                  -0.064
REMARK UNBOUND:                -0.029
REMARK SMILES CCCCC(=O)[O-]
REMARK SMILES IDX 4 1 5 2 6 3 7 4 3 5 2 6 1 7
REMARK H PARENT
REMARK Flexibility Score: inf
ROOT
ATOM      1  C   UNL     1       7.762   8.637  33.420  1.00  0.00     0.053 C 
ENDROOT
BRANCH   1   2
ATOM      2  C   UNL     1       6.656   9.547  33.852  1.00  0.00     0.041 C 
ATOM      3  O   UNL     1       6.313   9.598  35.062  1.00  0.00    -0.550 OA
ATOM      4  O   UNL     1       6.036  10.376  32.925  1.00  0.00    -0.550 OA
ENDBRANCH   1   2
BRANCH   1   5
ATOM      5  C   UNL     1       7.475   7.198  33.862  1.00  0.00     0.006 C 
BRANCH   5   6
ATOM      6  C   UNL     1       6.140   6.705  33.297  1.00  0.00    -0.003 C 
ATOM      7  C   UNL     1       5.584   5.549  34.123  1.00  0.00     0.004 C 
ENDBRANCH   5   6
ENDBRANCH   1   5
TORSDOF 3
ENDMDL
MODEL 6
REMARK VINA RESULT:    -2.735      2.131      4.050
REMARK INTER + INTRA:          -3.243
REMARK INTER:                  -3.142
REMARK INTRA:                  -0.101
REMARK UNBOUND:                -0.029
REMARK SMILES CCCCC(=O)[O-]
REMARK SMILES IDX 4 1 5 2 6 3 7 4 3 5 2 6 1 7
REMARK H PARENT
REMARK Flexibility Score: inf
ROOT
ATOM      1  C   UNL     1       5.986   8.082  34.121  1.00  0.00     0.053 C 
ENDROOT
BRANCH   1   2
ATOM      2  C   UNL     1       6.845   9.071  33.399  1.00  0.00     0.041 C 
ATOM      3  O   UNL     1       6.339  10.122  32.925  1.00  0.00    -0.550 OA
ATOM      4  O   UNL     1       8.213   8.856  33.289  1.00  0.00    -0.550 OA
ENDBRANCH   1   2
BRANCH   1   5
ATOM      5  C   UNL     1       6.404   6.651  33.770  1.00  0.00     0.006 C 
BRANCH   5   6
ATOM      6  C   UNL     1       6.796   5.869  35.028  1.00  0.00    -0.003 C 
ATOM      7  C   UNL     1       8.292   5.987  35.307  1.00  0.00     0.004 C 
ENDBRANCH   5   6
ENDBRANCH   1   5
TORSDOF 3
ENDMDL
MODEL 7
REMARK VINA RESULT:    -2.717      1.822      2.557
REMARK INTER + INTRA:          -3.223
REMARK INTER:                  -3.146
REMARK INTRA:                  -0.077
REMARK UNBOUND:                -0.029
REMARK SMILES CCCCC(=O)[O-]
REMARK SMILES IDX 4 1 5 2 6 3 7 4 3 5 2 6 1 7
REMARK H PARENT
REMARK Flexibility Score: inf
ROOT
ATOM      1  C   UNL     1       6.322   7.059  34.456  1.00  0.00     0.053 C 
ENDROOT
BRANCH   1   2
ATOM      2  C   UNL     1       5.774   5.775  33.917  1.00  0.00     0.041 C 
ATOM      3  O   UNL     1       5.823   4.725  34.609  1.00  0.00    -0.550 OA
ATOM      4  O   UNL     1       5.166   5.749  32.668  1.00  0.00    -0.550 OA
ENDBRANCH   1   2
BRANCH   1   5
ATOM      5  C   UNL     1       7.751   7.285  33.954  1.00  0.00     0.006 C 
BRANCH   5   6
ATOM      6  C   UNL     1       7.899   8.673  33.324  1.00  0.00    -0.003 C 
ATOM      7  C   UNL     1       6.580   9.441  33.365  1.00  0.00     0.004 C 
ENDBRANCH   5   6
ENDBRANCH   1   5
TORSDOF 3
ENDMDL
MODEL 8
REMARK VINA RESULT:    -2.677      1.874      2.666
REMARK INTER + INTRA:          -3.175
REMARK INTER:                  -3.134
REMARK INTRA:                  -0.041
REMARK UNBOUND:                -0.029
REMARK SMILES CCCCC(=O)[O-]
REMARK SMILES IDX 4 1 5 2 6 3 7 4 3 5 2 6 1 7
REMARK H PARENT
REMARK Flexibility Score: inf
ROOT
ATOM      1  C   UNL     1       7.510   7.079  35.279  1.00  0.00     0.053 C 
ENDROOT
BRANCH   1   2
ATOM      2  C   UNL     1       8.303   5.870  35.661  1.00  0.00     0.041 C 
ATOM      3  O   UNL     1       9.419   5.648  35.122  1.00  0.00    -0.550 OA
ATOM      4  O   UNL     1       7.832   5.012  36.648  1.00  0.00    -0.550 OA
ENDBRANCH   1   2
BRANCH   1   5
ATOM      5  C   UNL     1       7.543   7.284  33.762  1.00  0.00     0.006 C 
BRANCH   5   6
ATOM      6  C   UNL     1       7.860   8.742  33.411  1.00  0.00    -0.003 C 
ATOM      7  C   UNL     1       6.583   9.563  33.261  1.00  0.00     0.004 C 
ENDBRANCH   5   6
ENDBRANCH   1   5
TORSDOF 3
ENDMDL
