MODEL 1
REMARK VINA RESULT:    -3.815      0.000      0.000
REMARK INTER + INTRA:         -10.106
REMARK INTER:                  -7.383
REMARK INTRA:                  -2.723
REMARK UNBOUND:                -2.723
REMARK SMILES CCCCCCCCCCCCCCCCCC(=O)[O-]
REMARK SMILES IDX 10 1 11 2 12 3 13 4 14 5 15 6 16 7 17 8 18 9 19 10 20 11
REMARK SMILES IDX 9 12 8 13 7 14 6 15 5 16 4 17 3 18 2 19 1 20
REMARK H PARENT
REMARK Flexibility Score: inf
ROOT
ATOM      1  C   UNL     1      -6.811  16.653  -9.010  1.00  0.00     0.000 C 
ENDROOT
BRANCH   1   2
ATOM      2  C   UNL     1      -5.515  16.520  -9.828  1.00  0.00     0.000 C 
BRANCH   2   3
ATOM      3  C   UNL     1      -4.954  17.840 -10.396  1.00  0.00     0.000 C 
BRANCH   3   4
ATOM      4  C   UNL     1      -5.363  18.152 -11.848  1.00  0.00     0.000 C 
BRANCH   4   5
ATOM      5  C   UNL     1      -6.365  19.312 -11.948  1.00  0.00     0.000 C 
BRANCH   5   6
ATOM      6  C   UNL     1      -7.804  18.784 -12.053  1.00  0.00     0.000 C 
BRANCH   6   7
ATOM      7  C   UNL     1      -8.714  19.307 -10.925  1.00  0.00     0.006 C 
BRANCH   7   8
ATOM      8  C   UNL     1     -10.196  18.933 -11.084  1.00  0.00     0.053 C 
BRANCH   8   9
ATOM      9  C   UNL     1     -10.375  17.503 -11.494  1.00  0.00     0.041 C 
ATOM     10  O   UNL     1     -10.801  17.222 -12.645  1.00  0.00    -0.550 OA
ATOM     11  O   UNL     1     -10.038  16.481 -10.616  1.00  0.00    -0.550 OA
ENDBRANCH   8   9
ENDBRANCH   7   8
ENDBRANCH   6   7
ENDBRANCH   5   6
ENDBRANCH   4   5
ENDBRANCH   3   4
ENDBRANCH   2   3
ENDBRANCH   1   2
BRANCH   1  12
ATOM     12  C   UNL     1      -6.562  17.130  -7.568  1.00  0.00     0.000 C 
BRANCH  12  13
ATOM     13  C   UNL     1      -5.426  16.359  -6.872  1.00  0.00    -0.000 C 
BRANCH  13  14
ATOM     14  C   UNL     1      -4.648  17.155  -5.803  1.00  0.00    -0.000 C 
BRANCH  14  15
ATOM     15  C   UNL     1      -4.027  18.475  -6.295  1.00  0.00    -0.000 C 
BRANCH  15  16
ATOM     16  C   UNL     1      -4.455  19.686  -5.454  1.00  0.00    -0.000 C 
BRANCH  16  17
ATOM     17  C   UNL     1      -5.056  20.786  -6.344  1.00  0.00    -0.000 C 
BRANCH  17  18
ATOM     18  C   UNL     1      -4.909  20.482  -7.843  1.00  0.00    -0.000 C 
BRANCH  18  19
ATOM     19  C   UNL     1      -6.144  20.900  -8.655  1.00  0.00    -0.003 C 
ATOM     20  C   UNL     1      -7.416  20.776  -7.821  1.00  0.00     0.004 C 
ENDBRANCH  18  19
ENDBRANCH  17  18
ENDBRANCH  16  17
ENDBRANCH  15  16
ENDBRANCH  14  15
ENDBRANCH  13  14
ENDBRANCH  12  13
ENDBRANCH   1  12
TORSDOF 16
ENDMDL
MODEL 2
REMARK VINA RESULT:    -3.761      0.861      3.025
REMARK INTER + INTRA:         -10.001
REMARK INTER:                  -7.334
REMARK INTRA:                  -2.668
REMARK UNBOUND:                -2.723
REMARK SMILES CCCCCCCCCCCCCCCCCC(=O)[O-]
REMARK SMILES IDX 10 1 11 2 12 3 13 4 14 5 15 6 16 7 17 8 18 9 19 10 20 11
REMARK SMILES IDX 9 12 8 13 7 14 6 15 5 16 4 17 3 18 2 19 1 20
REMARK H PARENT
REMARK Flexibility Score: inf
ROOT
ATOM      1  C   UNL     1      -6.499  20.592  -8.498  1.00  0.00     0.000 C 
ENDROOT
BRANCH   1   2
ATOM      2  C   UNL     1      -5.224  20.437  -9.345  1.00  0.00     0.000 C 
BRANCH   2   3
ATOM      3  C   UNL     1      -5.425  20.559 -10.869  1.00  0.00     0.000 C 
BRANCH   3   4
ATOM      4  C   UNL     1      -6.890  20.512 -11.341  1.00  0.00     0.000 C 
BRANCH   4   5
ATOM      5  C   UNL     1      -7.119  19.500 -12.474  1.00  0.00     0.000 C 
BRANCH   5   6
ATOM      6  C   UNL     1      -8.358  18.636 -12.193  1.00  0.00     0.000 C 
BRANCH   6   7
ATOM      7  C   UNL     1      -9.182  19.146 -10.996  1.00  0.00     0.006 C 
BRANCH   7   8
ATOM      8  C   UNL     1     -10.694  18.903 -11.121  1.00  0.00     0.053 C 
BRANCH   8   9
ATOM      9  C   UNL     1     -11.015  17.455 -11.336  1.00  0.00     0.041 C 
ATOM     10  O   UNL     1     -10.488  16.574 -10.607  1.00  0.00    -0.550 OA
ATOM     11  O   UNL     1     -11.922  17.083 -12.320  1.00  0.00    -0.550 OA
ENDBRANCH   8   9
ENDBRANCH   7   8
ENDBRANCH   6   7
ENDBRANCH   5   6
ENDBRANCH   4   5
ENDBRANCH   3   4
ENDBRANCH   2   3
ENDBRANCH   1   2
BRANCH   1  12
ATOM     12  C   UNL     1      -6.207  20.690  -6.991  1.00  0.00     0.000 C 
BRANCH  12  13
ATOM     13  C   UNL     1      -4.703  20.642  -6.669  1.00  0.00    -0.000 C 
BRANCH  13  14
ATOM     14  C   UNL     1      -4.271  19.522  -5.699  1.00  0.00    -0.000 C 
BRANCH  14  15
ATOM     15  C   UNL     1      -3.907  18.185  -6.367  1.00  0.00    -0.000 C 
BRANCH  15  16
ATOM     16  C   UNL     1      -4.817  17.029  -5.927  1.00  0.00    -0.000 C 
BRANCH  16  17
ATOM     17  C   UNL     1      -5.434  16.323  -7.143  1.00  0.00    -0.000 C 
BRANCH  17  18
ATOM     18  C   UNL     1      -6.729  16.996  -7.626  1.00  0.00    -0.000 C 
BRANCH  18  19
ATOM     19  C   UNL     1      -6.869  16.979  -9.155  1.00  0.00    -0.003 C 
ATOM     20  C   UNL     1      -5.525  16.712  -9.826  1.00  0.00     0.004 C 
ENDBRANCH  18  19
ENDBRANCH  17  18
ENDBRANCH  16  17
ENDBRANCH  15  16
ENDBRANCH  14  15
ENDBRANCH  13  14
ENDBRANCH  12  13
ENDBRANCH   1  12
TORSDOF 16
ENDMDL
MODEL 3
REMARK VINA RESULT:    -3.578      1.777      6.359
REMARK INTER + INTRA:          -9.647
REMARK INTER:                  -7.706
REMARK INTRA:                  -1.941
REMARK UNBOUND:                -2.723
REMARK SMILES CCCCCCCCCCCCCCCCCC(=O)[O-]
REMARK SMILES IDX 10 1 11 2 12 3 13 4 14 5 15 6 16 7 17 8 18 9 19 10 20 11
REMARK SMILES IDX 9 12 8 13 7 14 6 15 5 16 4 17 3 18 2 19 1 20
REMARK H PARENT
REMARK Flexibility Score: inf
ROOT
ATOM      1  C   UNL     1      -7.324  20.430  -8.376  1.00  0.00     0.000 C 
ENDROOT
BRANCH   1   2
ATOM      2  C   UNL     1      -6.120  20.315  -7.426  1.00  0.00     0.000 C 
BRANCH   2   3
ATOM      3  C   UNL     1      -4.764  20.043  -8.109  1.00  0.00     0.000 C 
BRANCH   3   4
ATOM      4  C   UNL     1      -3.924  18.922  -7.470  1.00  0.00     0.000 C 
BRANCH   4   5
ATOM      5  C   UNL     1      -4.327  18.630  -6.017  1.00  0.00     0.000 C 
BRANCH   5   6
ATOM      6  C   UNL     1      -4.721  17.156  -5.844  1.00  0.00     0.000 C 
BRANCH   6   7
ATOM      7  C   UNL     1      -5.093  16.477  -7.176  1.00  0.00     0.006 C 
BRANCH   7   8
ATOM      8  C   UNL     1      -6.562  16.660  -7.589  1.00  0.00     0.053 C 
BRANCH   8   9
ATOM      9  C   UNL     1      -6.734  16.642  -9.077  1.00  0.00     0.041 C 
ATOM     10  O   UNL     1      -7.888  16.623  -9.581  1.00  0.00    -0.550 OA
ATOM     11  O   UNL     1      -5.620  16.681  -9.907  1.00  0.00    -0.550 OA
ENDBRANCH   8   9
ENDBRANCH   7   8
ENDBRANCH   6   7
ENDBRANCH   5   6
ENDBRANCH   4   5
ENDBRANCH   3   4
ENDBRANCH   2   3
ENDBRANCH   1   2
BRANCH   1  12
ATOM     12  C   UNL     1      -6.961  20.129  -9.841  1.00  0.00     0.000 C 
BRANCH  12  13
ATOM     13  C   UNL     1      -8.196  19.858 -10.719  1.00  0.00    -0.000 C 
BRANCH  13  14
ATOM     14  C   UNL     1      -9.525  20.428 -10.182  1.00  0.00    -0.000 C 
BRANCH  14  15
ATOM     15  C   UNL     1     -10.439  21.065 -11.243  1.00  0.00    -0.000 C 
BRANCH  15  16
ATOM     16  C   UNL     1     -11.765  20.311 -11.421  1.00  0.00    -0.000 C 
BRANCH  16  17
ATOM     17  C   UNL     1     -11.965  19.892 -12.886  1.00  0.00    -0.000 C 
BRANCH  17  18
ATOM     18  C   UNL     1     -11.451  18.472 -13.172  1.00  0.00    -0.000 C 
BRANCH  18  19
ATOM     19  C   UNL     1     -11.688  17.511 -11.997  1.00  0.00    -0.003 C 
ATOM     20  C   UNL     1     -10.484  16.599 -11.784  1.00  0.00     0.004 C 
ENDBRANCH  18  19
ENDBRANCH  17  18
ENDBRANCH  16  17
ENDBRANCH  15  16
ENDBRANCH  14  15
ENDBRANCH  13  14
ENDBRANCH  12  13
ENDBRANCH   1  12
TORSDOF 16
ENDMDL
MODEL 4
REMARK VINA RESULT:    -3.558      1.013      3.412
REMARK INTER + INTRA:          -9.608
REMARK INTER:                  -7.136
REMARK INTRA:                  -2.472
REMARK UNBOUND:                -2.723
REMARK SMILES CCCCCCCCCCCCCCCCCC(=O)[O-]
REMARK SMILES IDX 10 1 11 2 12 3 13 4 14 5 15 6 16 7 17 8 18 9 19 10 20 11
REMARK SMILES IDX 9 12 8 13 7 14 6 15 5 16 4 17 3 18 2 19 1 20
REMARK H PARENT
REMARK Flexibility Score: inf
ROOT
ATOM      1  C   UNL     1      -6.047  19.079 -11.746  1.00  0.00     0.000 C 
ENDROOT
BRANCH   1   2
ATOM      2  C   UNL     1      -6.318  20.521 -11.285  1.00  0.00     0.000 C 
BRANCH   2   3
ATOM      3  C   UNL     1      -6.516  20.703  -9.766  1.00  0.00     0.000 C 
BRANCH   3   4
ATOM      4  C   UNL     1      -7.932  20.387  -9.250  1.00  0.00     0.000 C 
BRANCH   4   5
ATOM      5  C   UNL     1      -9.033  21.059 -10.084  1.00  0.00     0.000 C 
BRANCH   5   6
ATOM      6  C   UNL     1     -10.103  20.038 -10.499  1.00  0.00     0.000 C 
BRANCH   6   7
ATOM      7  C   UNL     1      -9.921  19.538 -11.945  1.00  0.00     0.006 C 
BRANCH   7   8
ATOM      8  C   UNL     1      -9.502  18.063 -12.055  1.00  0.00     0.053 C 
BRANCH   8   9
ATOM      9  C   UNL     1     -10.534  17.141 -11.483  1.00  0.00     0.041 C 
ATOM     10  O   UNL     1     -10.254  16.409 -10.498  1.00  0.00    -0.550 OA
ATOM     11  O   UNL     1     -11.816  17.115 -12.018  1.00  0.00    -0.550 OA
ENDBRANCH   8   9
ENDBRANCH   7   8
ENDBRANCH   6   7
ENDBRANCH   5   6
ENDBRANCH   4   5
ENDBRANCH   3   4
ENDBRANCH   2   3
ENDBRANCH   1   2
BRANCH   1  12
ATOM     12  C   UNL     1      -4.831  18.447 -11.048  1.00  0.00     0.000 C 
BRANCH  12  13
ATOM     13  C   UNL     1      -5.180  17.147 -10.299  1.00  0.00    -0.000 C 
BRANCH  13  14
ATOM     14  C   UNL     1      -6.656  17.008  -9.873  1.00  0.00    -0.000 C 
BRANCH  14  15
ATOM     15  C   UNL     1      -6.884  16.284  -8.534  1.00  0.00    -0.000 C 
BRANCH  15  16
ATOM     16  C   UNL     1      -6.598  17.174  -7.316  1.00  0.00    -0.000 C 
BRANCH  16  17
ATOM     17  C   UNL     1      -5.310  16.732  -6.605  1.00  0.00    -0.000 C 
BRANCH  17  18
ATOM     18  C   UNL     1      -4.171  17.753  -6.755  1.00  0.00    -0.000 C 
BRANCH  18  19
ATOM     19  C   UNL     1      -4.307  18.938  -5.788  1.00  0.00    -0.003 C 
ATOM     20  C   UNL     1      -4.905  20.153  -6.492  1.00  0.00     0.004 C 
ENDBRANCH  18  19
ENDBRANCH  17  18
ENDBRANCH  16  17
ENDBRANCH  15  16
ENDBRANCH  14  15
ENDBRANCH  13  14
ENDBRANCH  12  13
ENDBRANCH   1  12
TORSDOF 16
ENDMDL
MODEL 5
REMARK VINA RESULT:    -3.554      1.198      3.142
REMARK INTER + INTRA:          -9.601
REMARK INTER:                  -7.264
REMARK INTRA:                  -2.337
REMARK UNBOUND:                -2.723
REMARK SMILES CCCCCCCCCCCCCCCCCC(=O)[O-]
REMARK SMILES IDX 10 1 11 2 12 3 13 4 14 5 15 6 16 7 17 8 18 9 19 10 20 11
REMARK SMILES IDX 9 12 8 13 7 14 6 15 5 16 4 17 3 18 2 19 1 20
REMARK H PARENT
REMARK Flexibility Score: inf
ROOT
ATOM      1  C   UNL     1      -7.435  20.370  -8.833  1.00  0.00     0.000 C 
ENDROOT
BRANCH   1   2
ATOM      2  C   UNL     1      -6.892  20.246 -10.267  1.00  0.00     0.000 C 
BRANCH   2   3
ATOM      3  C   UNL     1      -7.602  19.203 -11.154  1.00  0.00     0.000 C 
BRANCH   3   4
ATOM      4  C   UNL     1      -7.227  19.250 -12.646  1.00  0.00     0.000 C 
BRANCH   4   5
ATOM      5  C   UNL     1      -8.311  19.909 -13.513  1.00  0.00     0.000 C 
BRANCH   5   6
ATOM      6  C   UNL     1      -9.589  19.058 -13.531  1.00  0.00     0.000 C 
BRANCH   6   7
ATOM      7  C   UNL     1     -10.764  19.729 -12.796  1.00  0.00     0.006 C 
BRANCH   7   8
ATOM      8  C   UNL     1     -11.162  19.043 -11.480  1.00  0.00     0.053 C 
BRANCH   8   9
ATOM      9  C   UNL     1     -11.257  17.555 -11.628  1.00  0.00     0.041 C 
ATOM     10  O   UNL     1     -10.518  16.802 -10.941  1.00  0.00    -0.550 OA
ATOM     11  O   UNL     1     -12.184  17.000 -12.500  1.00  0.00    -0.550 OA
ENDBRANCH   8   9
ENDBRANCH   7   8
ENDBRANCH   6   7
ENDBRANCH   5   6
ENDBRANCH   4   5
ENDBRANCH   3   4
ENDBRANCH   2   3
ENDBRANCH   1   2
BRANCH   1  12
ATOM     12  C   UNL     1      -6.320  20.473  -7.778  1.00  0.00     0.000 C 
BRANCH  12  13
ATOM     13  C   UNL     1      -4.925  20.162  -8.351  1.00  0.00    -0.000 C 
BRANCH  13  14
ATOM     14  C   UNL     1      -4.031  19.272  -7.463  1.00  0.00    -0.000 C 
BRANCH  14  15
ATOM     15  C   UNL     1      -4.608  18.946  -6.074  1.00  0.00    -0.000 C 
BRANCH  15  16
ATOM     16  C   UNL     1      -4.586  17.444  -5.755  1.00  0.00    -0.000 C 
BRANCH  16  17
ATOM     17  C   UNL     1      -5.031  16.619  -6.972  1.00  0.00    -0.000 C 
BRANCH  17  18
ATOM     18  C   UNL     1      -6.538  16.738  -7.250  1.00  0.00    -0.000 C 
BRANCH  18  19
ATOM     19  C   UNL     1      -6.873  16.625  -8.745  1.00  0.00    -0.003 C 
ATOM     20  C   UNL     1      -5.605  16.598  -9.591  1.00  0.00     0.004 C 
ENDBRANCH  18  19
ENDBRANCH  17  18
ENDBRANCH  16  17
ENDBRANCH  15  16
ENDBRANCH  14  15
ENDBRANCH  13  14
ENDBRANCH  12  13
ENDBRANCH   1  12
TORSDOF 16
ENDMDL
MODEL 6
REMARK VINA RESULT:    -3.503      1.163      2.213
REMARK INTER + INTRA:          -9.502
REMARK INTER:                  -7.509
REMARK INTRA:                  -1.994
REMARK UNBOUND:                -2.723
REMARK SMILES CCCCCCCCCCCCCCCCCC(=O)[O-]
REMARK SMILES IDX 10 1 11 2 12 3 13 4 14 5 15 6 16 7 17 8 18 9 19 10 20 11
REMARK SMILES IDX 9 12 8 13 7 14 6 15 5 16 4 17 3 18 2 19 1 20
REMARK H PARENT
REMARK Flexibility Score: inf
ROOT
ATOM      1  C   UNL     1      -6.999  17.376  -9.783  1.00  0.00     0.000 C 
ENDROOT
BRANCH   1   2
ATOM      2  C   UNL     1      -7.615  18.355 -10.799  1.00  0.00     0.000 C 
BRANCH   2   3
ATOM      3  C   UNL     1      -6.648  18.877 -11.881  1.00  0.00     0.000 C 
BRANCH   3   4
ATOM      4  C   UNL     1      -7.273  19.845 -12.902  1.00  0.00     0.000 C 
BRANCH   4   5
ATOM      5  C   UNL     1      -8.679  19.416 -13.347  1.00  0.00     0.000 C 
BRANCH   5   6
ATOM      6  C   UNL     1      -9.722  20.476 -12.963  1.00  0.00     0.000 C 
BRANCH   6   7
ATOM      7  C   UNL     1     -11.049  19.861 -12.480  1.00  0.00     0.006 C 
BRANCH   7   8
ATOM      8  C   UNL     1     -10.930  19.038 -11.187  1.00  0.00     0.053 C 
BRANCH   8   9
ATOM      9  C   UNL     1     -11.225  17.587 -11.415  1.00  0.00     0.041 C 
ATOM     10  O   UNL     1     -10.710  16.712 -10.670  1.00  0.00    -0.550 OA
ATOM     11  O   UNL     1     -12.094  17.205 -12.428  1.00  0.00    -0.550 OA
ENDBRANCH   8   9
ENDBRANCH   7   8
ENDBRANCH   6   7
ENDBRANCH   5   6
ENDBRANCH   4   5
ENDBRANCH   3   4
ENDBRANCH   2   3
ENDBRANCH   1   2
BRANCH   1  12
ATOM     12  C   UNL     1      -5.497  17.142 -10.014  1.00  0.00     0.000 C 
BRANCH  12  13
ATOM     13  C   UNL     1      -4.813  16.435  -8.829  1.00  0.00    -0.000 C 
BRANCH  13  14
ATOM     14  C   UNL     1      -5.677  16.292  -7.559  1.00  0.00    -0.000 C 
BRANCH  14  15
ATOM     15  C   UNL     1      -5.012  16.776  -6.259  1.00  0.00    -0.000 C 
BRANCH  15  16
ATOM     16  C   UNL     1      -4.003  17.910  -6.489  1.00  0.00    -0.000 C 
BRANCH  16  17
ATOM     17  C   UNL     1      -4.286  19.095  -5.553  1.00  0.00    -0.000 C 
BRANCH  17  18
ATOM     18  C   UNL     1      -4.736  20.354  -6.310  1.00  0.00    -0.000 C 
BRANCH  18  19
ATOM     19  C   UNL     1      -5.845  20.064  -7.333  1.00  0.00    -0.003 C 
ATOM     20  C   UNL     1      -5.503  20.658  -8.696  1.00  0.00     0.004 C 
ENDBRANCH  18  19
ENDBRANCH  17  18
ENDBRANCH  16  17
ENDBRANCH  15  16
ENDBRANCH  14  15
ENDBRANCH  13  14
ENDBRANCH  12  13
ENDBRANCH   1  12
TORSDOF 16
ENDMDL
MODEL 7
REMARK VINA RESULT:    -3.453      2.054      6.006
REMARK INTER + INTRA:          -9.405
REMARK INTER:                  -7.346
REMARK INTRA:                  -2.059
REMARK UNBOUND:                -2.723
REMARK SMILES CCCCCCCCCCCCCCCCCC(=O)[O-]
REMARK SMILES IDX 10 1 11 2 12 3 13 4 14 5 15 6 16 7 17 8 18 9 19 10 20 11
REMARK SMILES IDX 9 12 8 13 7 14 6 15 5 16 4 17 3 18 2 19 1 20
REMARK H PARENT
REMARK Flexibility Score: inf
ROOT
ATOM      1  C   UNL     1      -6.588  17.525  -9.936  1.00  0.00     0.000 C 
ENDROOT
BRANCH   1   2
ATOM      2  C   UNL     1      -6.978  16.549  -8.813  1.00  0.00     0.000 C 
BRANCH   2   3
ATOM      3  C   UNL     1      -6.652  17.024  -7.383  1.00  0.00     0.000 C 
BRANCH   3   4
ATOM      4  C   UNL     1      -5.333  16.485  -6.799  1.00  0.00     0.000 C 
BRANCH   4   5
ATOM      5  C   UNL     1      -4.185  17.502  -6.882  1.00  0.00     0.000 C 
BRANCH   5   6
ATOM      6  C   UNL     1      -4.285  18.534  -5.750  1.00  0.00     0.000 C 
BRANCH   6   7
ATOM      7  C   UNL     1      -4.295  19.986  -6.265  1.00  0.00     0.006 C 
BRANCH   7   8
ATOM      8  C   UNL     1      -5.698  20.597  -6.406  1.00  0.00     0.053 C 
BRANCH   8   9
ATOM      9  C   UNL     1      -6.189  20.557  -7.821  1.00  0.00     0.041 C 
ATOM     10  O   UNL     1      -5.369  20.576  -8.777  1.00  0.00    -0.550 OA
ATOM     11  O   UNL     1      -7.549  20.464  -8.083  1.00  0.00    -0.550 OA
ENDBRANCH   8   9
ENDBRANCH   7   8
ENDBRANCH   6   7
ENDBRANCH   5   6
ENDBRANCH   4   5
ENDBRANCH   3   4
ENDBRANCH   2   3
ENDBRANCH   1   2
BRANCH   1  12
ATOM     12  C   UNL     1      -5.162  17.290 -10.464  1.00  0.00     0.000 C 
BRANCH  12  13
ATOM     13  C   UNL     1      -4.905  17.975 -11.818  1.00  0.00    -0.000 C 
BRANCH  13  14
ATOM     14  C   UNL     1      -5.651  19.308 -12.034  1.00  0.00    -0.000 C 
BRANCH  14  15
ATOM     15  C   UNL     1      -6.580  19.345 -13.260  1.00  0.00    -0.000 C 
BRANCH  15  16
ATOM     16  C   UNL     1      -7.993  19.846 -12.925  1.00  0.00    -0.000 C 
BRANCH  16  17
ATOM     17  C   UNL     1      -8.924  18.672 -12.585  1.00  0.00    -0.000 C 
BRANCH  17  18
ATOM     18  C   UNL     1      -9.929  19.016 -11.475  1.00  0.00    -0.000 C 
BRANCH  18  19
ATOM     19  C   UNL     1     -10.932  17.882 -11.214  1.00  0.00    -0.003 C 
ATOM     20  C   UNL     1     -10.211  16.575 -10.896  1.00  0.00     0.004 C 
ENDBRANCH  18  19
ENDBRANCH  17  18
ENDBRANCH  16  17
ENDBRANCH  15  16
ENDBRANCH  14  15
ENDBRANCH  13  14
ENDBRANCH  12  13
ENDBRANCH   1  12
TORSDOF 16
ENDMDL
MODEL 8
REMARK VINA RESULT:    -3.450      2.433      6.510
REMARK INTER + INTRA:          -9.400
REMARK INTER:                  -7.002
REMARK INTRA:                  -2.397
REMARK UNBOUND:                -2.723
REMARK SMILES CCCCCCCCCCCCCCCCCC(=O)[O-]
REMARK SMILES IDX 10 1 11 2 12 3 13 4 14 5 15 6 16 7 17 8 18 9 19 10 20 11
REMARK SMILES IDX 9 12 8 13 7 14 6 15 5 16 4 17 3 18 2 19 1 20
REMARK H PARENT
REMARK Flexibility Score: inf
ROOT
ATOM      1  C   UNL     1      -7.378  20.713  -9.745  1.00  0.00     0.000 C 
ENDROOT
BRANCH   1   2
ATOM      2  C   UNL     1      -7.610  20.731  -8.224  1.00  0.00     0.000 C 
BRANCH   2   3
ATOM      3  C   UNL     1      -6.363  20.450  -7.362  1.00  0.00     0.000 C 
BRANCH   3   4
ATOM      4  C   UNL     1      -5.335  19.492  -7.993  1.00  0.00     0.000 C 
BRANCH   4   5
ATOM      5  C   UNL     1      -5.351  18.096  -7.353  1.00  0.00     0.000 C 
BRANCH   5   6
ATOM      6  C   UNL     1      -6.611  17.320  -7.763  1.00  0.00     0.000 C 
BRANCH   6   7
ATOM      7  C   UNL     1      -6.440  16.564  -9.095  1.00  0.00     0.006 C 
BRANCH   7   8
ATOM      8  C   UNL     1      -5.054  15.929  -9.287  1.00  0.00     0.053 C 
BRANCH   8   9
ATOM      9  C   UNL     1      -4.410  16.360 -10.569  1.00  0.00     0.041 C 
ATOM     10  O   UNL     1      -3.952  15.501 -11.368  1.00  0.00    -0.550 OA
ATOM     11  O   UNL     1      -4.346  17.709 -10.895  1.00  0.00    -0.550 OA
ENDBRANCH   8   9
ENDBRANCH   7   8
ENDBRANCH   6   7
ENDBRANCH   5   6
ENDBRANCH   4   5
ENDBRANCH   3   4
ENDBRANCH   2   3
ENDBRANCH   1   2
BRANCH   1  12
ATOM     12  C   UNL     1      -8.191  19.621 -10.460  1.00  0.00     0.000 C 
BRANCH  12  13
ATOM     13  C   UNL     1      -7.462  19.038 -11.684  1.00  0.00    -0.000 C 
BRANCH  13  14
ATOM     14  C   UNL     1      -7.988  19.515 -13.054  1.00  0.00    -0.000 C 
BRANCH  14  15
ATOM     15  C   UNL     1      -9.419  20.081 -13.043  1.00  0.00    -0.000 C 
BRANCH  15  16
ATOM     16  C   UNL     1     -10.465  19.072 -13.540  1.00  0.00    -0.000 C 
BRANCH  16  17
ATOM     17  C   UNL     1     -11.567  18.864 -12.490  1.00  0.00    -0.000 C 
BRANCH  17  18
ATOM     18  C   UNL     1     -11.900  17.379 -12.268  1.00  0.00    -0.000 C 
BRANCH  18  19
ATOM     19  C   UNL     1     -10.644  16.503 -12.154  1.00  0.00    -0.003 C 
ATOM     20  C   UNL     1     -10.074  16.543 -10.740  1.00  0.00     0.004 C 
ENDBRANCH  18  19
ENDBRANCH  17  18
ENDBRANCH  16  17
ENDBRANCH  15  16
ENDBRANCH  14  15
ENDBRANCH  13  14
ENDBRANCH  12  13
ENDBRANCH   1  12
TORSDOF 16
ENDMDL
MODEL 9
REMARK VINA RESULT:    -3.405      1.180      3.653
REMARK INTER + INTRA:          -9.312
REMARK INTER:                  -6.422
REMARK INTRA:                  -2.890
REMARK UNBOUND:                -2.723
REMARK SMILES CCCCCCCCCCCCCCCCCC(=O)[O-]
REMARK SMILES IDX 10 1 11 2 12 3 13 4 14 5 15 6 16 7 17 8 18 9 19 10 20 11
REMARK SMILES IDX 9 12 8 13 7 14 6 15 5 16 4 17 3 18 2 19 1 20
REMARK H PARENT
REMARK Flexibility Score: inf
ROOT
ATOM      1  C   UNL     1      -4.971  17.991  -7.070  1.00  0.00     0.000 C 
ENDROOT
BRANCH   1   2
ATOM      2  C   UNL     1      -5.148  19.506  -7.267  1.00  0.00     0.000 C 
BRANCH   2   3
ATOM      3  C   UNL     1      -4.832  20.029  -8.682  1.00  0.00     0.000 C 
BRANCH   3   4
ATOM      4  C   UNL     1      -5.986  20.776  -9.376  1.00  0.00     0.000 C 
BRANCH   4   5
ATOM      5  C   UNL     1      -7.317  20.012  -9.307  1.00  0.00     0.000 C 
BRANCH   5   6
ATOM      6  C   UNL     1      -8.003  19.984 -10.681  1.00  0.00     0.000 C 
BRANCH   6   7
ATOM      7  C   UNL     1      -8.664  18.628 -10.990  1.00  0.00     0.006 C 
BRANCH   7   8
ATOM      8  C   UNL     1     -10.121  18.730 -11.469  1.00  0.00     0.053 C 
BRANCH   8   9
ATOM      9  C   UNL     1     -10.830  17.411 -11.398  1.00  0.00     0.041 C 
ATOM     10  O   UNL     1     -11.872  17.215 -12.077  1.00  0.00    -0.550 OA
ATOM     11  O   UNL     1     -10.319  16.389 -10.609  1.00  0.00    -0.550 OA
ENDBRANCH   8   9
ENDBRANCH   7   8
ENDBRANCH   6   7
ENDBRANCH   5   6
ENDBRANCH   4   5
ENDBRANCH   3   4
ENDBRANCH   2   3
ENDBRANCH   1   2
BRANCH   1  12
ATOM     12  C   UNL     1      -6.294  17.214  -7.182  1.00  0.00     0.000 C 
BRANCH  12  13
ATOM     13  C   UNL     1      -6.260  16.130  -8.274  1.00  0.00    -0.000 C 
BRANCH  13  14
ATOM     14  C   UNL     1      -5.883  16.627  -9.685  1.00  0.00    -0.000 C 
BRANCH  14  15
ATOM     15  C   UNL     1      -4.543  16.101 -10.227  1.00  0.00    -0.000 C 
BRANCH  15  16
ATOM     16  C   UNL     1      -4.056  16.867 -11.466  1.00  0.00    -0.000 C 
BRANCH  16  17
ATOM     17  C   UNL     1      -5.019  18.012 -11.815  1.00  0.00    -0.000 C 
BRANCH  17  18
ATOM     18  C   UNL     1      -4.291  19.261 -12.336  1.00  0.00    -0.000 C 
BRANCH  18  19
ATOM     19  C   UNL     1      -5.211  20.187 -13.145  1.00  0.00    -0.003 C 
ATOM     20  C   UNL     1      -6.257  19.385 -13.913  1.00  0.00     0.004 C 
ENDBRANCH  18  19
ENDBRANCH  17  18
ENDBRANCH  16  17
ENDBRANCH  15  16
ENDBRANCH  14  15
ENDBRANCH  13  14
ENDBRANCH  12  13
ENDBRANCH   1  12
TORSDOF 16
ENDMDL
