MODEL 1
REMARK VINA RESULT:    -5.850      0.000      0.000
REMARK INTER + INTRA:         -11.291
REMARK INTER:                 -10.296
REMARK INTRA:                  -0.994
REMARK UNBOUND:                -0.994
REMARK SMILES CCCCCCC=CCCCCCCCC(=O)[O-]
REMARK SMILES IDX 10 1 11 2 12 3 13 4 14 5 15 6 16 7 17 8 18 9 9 10 8 11 7 12
REMARK SMILES IDX 6 13 5 14 4 15 3 16 2 17 1 18
REMARK H PARENT
REMARK Flexibility Score: inf
ROOT
ATOM      1  C   UNL     1     -26.514  56.773   0.372  1.00  0.00     0.004 C 
ENDROOT
BRANCH   1   2
ATOM      2  C   UNL     1     -27.875  57.132   1.003  1.00  0.00     0.000 C 
BRANCH   2   3
ATOM      3  C   UNL     1     -28.837  55.943   1.203  1.00  0.00     0.000 C 
BRANCH   3   4
ATOM      4  C   UNL     1     -30.089  56.254   2.043  1.00  0.00     0.000 C 
BRANCH   4   5
ATOM      5  C   UNL     1     -29.976  57.575   2.817  1.00  0.00     0.006 C 
BRANCH   5   6
ATOM      6  C   UNL     1     -30.317  57.374   4.298  1.00  0.00     0.053 C 
BRANCH   6   7
ATOM      7  C   UNL     1     -29.386  58.163   5.160  1.00  0.00     0.041 C 
ATOM      8  O   UNL     1     -28.304  58.605   4.689  1.00  0.00    -0.550 OA
ATOM      9  O   UNL     1     -29.687  58.371   6.501  1.00  0.00    -0.550 OA
ENDBRANCH   6   7
ENDBRANCH   5   6
ENDBRANCH   4   5
ENDBRANCH   3   4
ENDBRANCH   2   3
ENDBRANCH   1   2
BRANCH   1  10
ATOM     10  C   UNL     1     -25.296  57.152   1.231  1.00  0.00     0.027 C 
BRANCH  10  11
ATOM     11  C   UNL     1     -25.691  57.818   2.526  1.00  0.00    -0.031 C 
ATOM     12  C   UNL     1     -24.846  58.500   3.321  1.00  0.00    -0.031 C 
BRANCH  12  13
ATOM     13  C   UNL     1     -23.370  58.646   3.043  1.00  0.00     0.027 C 
BRANCH  13  14
ATOM     14  C   UNL     1     -22.532  57.934   4.115  1.00  0.00     0.004 C 
BRANCH  14  15
ATOM     15  C   UNL     1     -23.379  56.970   4.973  1.00  0.00     0.000 C 
BRANCH  15  16
ATOM     16  C   UNL     1     -22.772  56.679   6.356  1.00  0.00    -0.000 C 
BRANCH  16  17
ATOM     17  C   UNL     1     -22.927  55.213   6.780  1.00  0.00    -0.003 C 
ATOM     18  C   UNL     1     -23.926  55.074   7.925  1.00  0.00     0.004 C 
ENDBRANCH  16  17
ENDBRANCH  15  16
ENDBRANCH  14  15
ENDBRANCH  13  14
ENDBRANCH  12  13
ENDBRANCH  10  11
ENDBRANCH   1  10
TORSDOF 13
ENDMDL
MODEL 2
REMARK VINA RESULT:    -5.562      2.341      3.809
REMARK INTER + INTRA:         -10.783
REMARK INTER:                  -9.784
REMARK INTRA:                  -0.999
REMARK UNBOUND:                -0.994
REMARK SMILES CCCCCCC=CCCCCCCCC(=O)[O-]
REMARK SMILES IDX 10 1 11 2 12 3 13 4 14 5 15 6 16 7 17 8 18 9 9 10 8 11 7 12
REMARK SMILES IDX 6 13 5 14 4 15 3 16 2 17 1 18
REMARK H PARENT
REMARK Flexibility Score: inf
ROOT
ATOM      1  C   UNL     1     -28.540  57.391   0.812  1.00  0.00     0.004 C 
ENDROOT
BRANCH   1   2
ATOM      2  C   UNL     1     -29.742  57.906   1.629  1.00  0.00     0.000 C 
BRANCH   2   3
ATOM      3  C   UNL     1     -30.759  56.826   2.050  1.00  0.00     0.000 C 
BRANCH   3   4
ATOM      4  C   UNL     1     -30.603  56.311   3.492  1.00  0.00     0.000 C 
BRANCH   4   5
ATOM      5  C   UNL     1     -31.161  57.286   4.538  1.00  0.00     0.006 C 
BRANCH   5   6
ATOM      6  C   UNL     1     -30.029  58.043   5.241  1.00  0.00     0.053 C 
BRANCH   6   7
ATOM      7  C   UNL     1     -30.417  58.379   6.645  1.00  0.00     0.041 C 
ATOM      8  O   UNL     1     -31.616  58.648   6.925  1.00  0.00    -0.550 OA
ATOM      9  O   UNL     1     -29.448  58.446   7.638  1.00  0.00    -0.550 OA
ENDBRANCH   6   7
ENDBRANCH   5   6
ENDBRANCH   4   5
ENDBRANCH   3   4
ENDBRANCH   2   3
ENDBRANCH   1   2
BRANCH   1  10
ATOM     10  C   UNL     1     -27.187  57.499   1.535  1.00  0.00     0.027 C 
BRANCH  10  11
ATOM     11  C   UNL     1     -27.274  58.325   2.796  1.00  0.00    -0.031 C 
ATOM     12  C   UNL     1     -26.254  58.517   3.652  1.00  0.00    -0.031 C 
BRANCH  12  13
ATOM     13  C   UNL     1     -24.893  57.886   3.487  1.00  0.00     0.027 C 
BRANCH  13  14
ATOM     14  C   UNL     1     -24.013  58.707   2.533  1.00  0.00     0.004 C 
BRANCH  14  15
ATOM     15  C   UNL     1     -22.631  59.025   3.142  1.00  0.00     0.000 C 
BRANCH  15  16
ATOM     16  C   UNL     1     -21.914  60.204   2.463  1.00  0.00    -0.000 C 
BRANCH  16  17
ATOM     17  C   UNL     1     -22.212  60.300   0.961  1.00  0.00    -0.003 C 
ATOM     18  C   UNL     1     -21.269  61.285   0.275  1.00  0.00     0.004 C 
ENDBRANCH  16  17
ENDBRANCH  15  16
ENDBRANCH  14  15
ENDBRANCH  13  14
ENDBRANCH  12  13
ENDBRANCH  10  11
ENDBRANCH   1  10
TORSDOF 13
ENDMDL
MODEL 3
REMARK VINA RESULT:    -5.534      7.634     10.368
REMARK INTER + INTRA:         -10.733
REMARK INTER:                  -9.839
REMARK INTRA:                  -0.895
REMARK UNBOUND:                -0.994
REMARK SMILES CCCCCCC=CCCCCCCCC(=O)[O-]
REMARK SMILES IDX 10 1 11 2 12 3 13 4 14 5 15 6 16 7 17 8 18 9 9 10 8 11 7 12
REMARK SMILES IDX 6 13 5 14 4 15 3 16 2 17 1 18
REMARK H PARENT
REMARK Flexibility Score: inf
ROOT
ATOM      1  C   UNL     1     -16.501  60.575  -2.732  1.00  0.00     0.004 C 
ENDROOT
BRANCH   1   2
ATOM      2  C   UNL     1     -16.677  59.887  -4.101  1.00  0.00     0.000 C 
BRANCH   2   3
ATOM      3  C   UNL     1     -18.007  59.130  -4.287  1.00  0.00     0.000 C 
BRANCH   3   4
ATOM      4  C   UNL     1     -18.008  58.083  -5.416  1.00  0.00     0.000 C 
BRANCH   4   5
ATOM      5  C   UNL     1     -18.875  56.857  -5.093  1.00  0.00     0.006 C 
BRANCH   5   6
ATOM      6  C   UNL     1     -19.982  57.216  -4.096  1.00  0.00     0.053 C 
BRANCH   6   7
ATOM      7  C   UNL     1     -21.202  57.691  -4.818  1.00  0.00     0.041 C 
ATOM      8  O   UNL     1     -21.692  58.822  -4.558  1.00  0.00    -0.550 OA
ATOM      9  O   UNL     1     -21.830  56.866  -5.743  1.00  0.00    -0.550 OA
ENDBRANCH   6   7
ENDBRANCH   5   6
ENDBRANCH   4   5
ENDBRANCH   3   4
ENDBRANCH   2   3
ENDBRANCH   1   2
BRANCH   1  10
ATOM     10  C   UNL     1     -17.311  59.936  -1.591  1.00  0.00     0.027 C 
BRANCH  10  11
ATOM     11  C   UNL     1     -17.523  60.885  -0.436  1.00  0.00    -0.031 C 
ATOM     12  C   UNL     1     -18.698  61.070   0.192  1.00  0.00    -0.031 C 
BRANCH  12  13
ATOM     13  C   UNL     1     -19.980  60.383  -0.213  1.00  0.00     0.027 C 
BRANCH  13  14
ATOM     14  C   UNL     1     -21.175  61.343  -0.120  1.00  0.00     0.004 C 
BRANCH  14  15
ATOM     15  C   UNL     1     -22.337  60.749   0.705  1.00  0.00     0.000 C 
BRANCH  15  16
ATOM     16  C   UNL     1     -21.875  59.836   1.852  1.00  0.00    -0.000 C 
BRANCH  16  17
ATOM     17  C   UNL     1     -22.986  59.545   2.871  1.00  0.00    -0.003 C 
ATOM     18  C   UNL     1     -23.875  58.397   2.403  1.00  0.00     0.004 C 
ENDBRANCH  16  17
ENDBRANCH  15  16
ENDBRANCH  14  15
ENDBRANCH  13  14
ENDBRANCH  12  13
ENDBRANCH  10  11
ENDBRANCH   1  10
TORSDOF 13
ENDMDL
MODEL 4
REMARK VINA RESULT:    -5.519      3.360      5.281
REMARK INTER + INTRA:         -10.708
REMARK INTER:                  -9.805
REMARK INTRA:                  -0.902
REMARK UNBOUND:                -0.994
REMARK SMILES CCCCCCC=CCCCCCCCC(=O)[O-]
REMARK SMILES IDX 10 1 11 2 12 3 13 4 14 5 15 6 16 7 17 8 18 9 9 10 8 11 7 12
REMARK SMILES IDX 6 13 5 14 4 15 3 16 2 17 1 18
REMARK H PARENT
REMARK Flexibility Score: inf
ROOT
ATOM      1  C   UNL     1     -29.513  57.813   3.229  1.00  0.00     0.004 C 
ENDROOT
BRANCH   1   2
ATOM      2  C   UNL     1     -30.131  56.586   2.528  1.00  0.00     0.000 C 
BRANCH   2   3
ATOM      3  C   UNL     1     -31.213  56.909   1.477  1.00  0.00     0.000 C 
BRANCH   3   4
ATOM      4  C   UNL     1     -30.790  57.922   0.397  1.00  0.00     0.000 C 
BRANCH   4   5
ATOM      5  C   UNL     1     -29.947  57.288  -0.718  1.00  0.00     0.006 C 
BRANCH   5   6
ATOM      6  C   UNL     1     -28.730  58.159  -1.048  1.00  0.00     0.053 C 
BRANCH   6   7
ATOM      7  C   UNL     1     -27.726  57.379  -1.834  1.00  0.00     0.041 C 
ATOM      8  O   UNL     1     -26.702  56.911  -1.269  1.00  0.00    -0.550 OA
ATOM      9  O   UNL     1     -27.893  57.209  -3.203  1.00  0.00    -0.550 OA
ENDBRANCH   6   7
ENDBRANCH   5   6
ENDBRANCH   4   5
ENDBRANCH   3   4
ENDBRANCH   2   3
ENDBRANCH   1   2
BRANCH   1  10
ATOM     10  C   UNL     1     -28.114  58.199   2.717  1.00  0.00     0.027 C 
BRANCH  10  11
ATOM     11  C   UNL     1     -27.260  58.821   3.795  1.00  0.00    -0.031 C 
ATOM     12  C   UNL     1     -25.917  58.743   3.842  1.00  0.00    -0.031 C 
BRANCH  12  13
ATOM     13  C   UNL     1     -25.088  57.976   2.841  1.00  0.00     0.027 C 
BRANCH  13  14
ATOM     14  C   UNL     1     -23.639  57.822   3.325  1.00  0.00     0.004 C 
BRANCH  14  15
ATOM     15  C   UNL     1     -22.816  59.112   3.119  1.00  0.00     0.000 C 
BRANCH  15  16
ATOM     16  C   UNL     1     -22.926  59.694   1.700  1.00  0.00    -0.000 C 
BRANCH  16  17
ATOM     17  C   UNL     1     -21.739  60.593   1.328  1.00  0.00    -0.003 C 
ATOM     18  C   UNL     1     -21.809  61.021  -0.135  1.00  0.00     0.004 C 
ENDBRANCH  16  17
ENDBRANCH  15  16
ENDBRANCH  14  15
ENDBRANCH  13  14
ENDBRANCH  12  13
ENDBRANCH  10  11
ENDBRANCH   1  10
TORSDOF 13
ENDMDL
MODEL 5
REMARK VINA RESULT:    -5.518      2.475      6.719
REMARK INTER + INTRA:         -10.706
REMARK INTER:                  -9.727
REMARK INTRA:                  -0.980
REMARK UNBOUND:                -0.994
REMARK SMILES CCCCCCC=CCCCCCCCC(=O)[O-]
REMARK SMILES IDX 10 1 11 2 12 3 13 4 14 5 15 6 16 7 17 8 18 9 9 10 8 11 7 12
REMARK SMILES IDX 6 13 5 14 4 15 3 16 2 17 1 18
REMARK H PARENT
REMARK Flexibility Score: inf
ROOT
ATOM      1  C   UNL     1     -25.344  57.275   1.493  1.00  0.00     0.004 C 
ENDROOT
BRANCH   1   2
ATOM      2  C   UNL     1     -25.111  57.851   2.904  1.00  0.00     0.000 C 
BRANCH   2   3
ATOM      3  C   UNL     1     -23.677  58.345   3.182  1.00  0.00     0.000 C 
BRANCH   3   4
ATOM      4  C   UNL     1     -22.824  57.408   4.056  1.00  0.00     0.000 C 
BRANCH   4   5
ATOM      5  C   UNL     1     -23.576  56.893   5.290  1.00  0.00     0.006 C 
BRANCH   5   6
ATOM      6  C   UNL     1     -22.603  56.326   6.329  1.00  0.00     0.053 C 
BRANCH   6   7
ATOM      7  C   UNL     1     -23.290  56.139   7.643  1.00  0.00     0.041 C 
ATOM      8  O   UNL     1     -22.755  56.558   8.704  1.00  0.00    -0.550 OA
ATOM      9  O   UNL     1     -24.500  55.459   7.706  1.00  0.00    -0.550 OA
ENDBRANCH   6   7
ENDBRANCH   5   6
ENDBRANCH   4   5
ENDBRANCH   3   4
ENDBRANCH   2   3
ENDBRANCH   1   2
BRANCH   1  10
ATOM     10  C   UNL     1     -26.822  57.200   1.073  1.00  0.00     0.027 C 
BRANCH  10  11
ATOM     11  C   UNL     1     -26.987  56.878  -0.393  1.00  0.00    -0.031 C 
ATOM     12  C   UNL     1     -28.039  57.256  -1.142  1.00  0.00    -0.031 C 
BRANCH  12  13
ATOM     13  C   UNL     1     -29.224  58.015  -0.597  1.00  0.00     0.027 C 
BRANCH  13  14
ATOM     14  C   UNL     1     -30.413  57.076  -0.343  1.00  0.00     0.004 C 
BRANCH  14  15
ATOM     15  C   UNL     1     -30.365  56.441   1.063  1.00  0.00     0.000 C 
BRANCH  15  16
ATOM     16  C   UNL     1     -31.129  57.243   2.129  1.00  0.00    -0.000 C 
BRANCH  16  17
ATOM     17  C   UNL     1     -30.505  57.128   3.526  1.00  0.00    -0.003 C 
ATOM     18  C   UNL     1     -29.309  58.064   3.674  1.00  0.00     0.004 C 
ENDBRANCH  16  17
ENDBRANCH  15  16
ENDBRANCH  14  15
ENDBRANCH  13  14
ENDBRANCH  12  13
ENDBRANCH  10  11
ENDBRANCH   1  10
TORSDOF 13
ENDMDL
MODEL 6
REMARK VINA RESULT:    -5.450      9.515     11.888
REMARK INTER + INTRA:         -10.587
REMARK INTER:                  -9.318
REMARK INTRA:                  -1.269
REMARK UNBOUND:                -0.994
REMARK SMILES CCCCCCC=CCCCCCCCC(=O)[O-]
REMARK SMILES IDX 10 1 11 2 12 3 13 4 14 5 15 6 16 7 17 8 18 9 9 10 8 11 7 12
REMARK SMILES IDX 6 13 5 14 4 15 3 16 2 17 1 18
REMARK H PARENT
REMARK Flexibility Score: inf
ROOT
ATOM      1  C   UNL     1     -16.609  59.842  -4.706  1.00  0.00     0.004 C 
ENDROOT
BRANCH   1   2
ATOM      2  C   UNL     1     -16.707  58.998  -5.993  1.00  0.00     0.000 C 
BRANCH   2   3
ATOM      3  C   UNL     1     -17.882  58.000  -6.033  1.00  0.00     0.000 C 
BRANCH   3   4
ATOM      4  C   UNL     1     -19.071  58.430  -6.912  1.00  0.00     0.000 C 
BRANCH   4   5
ATOM      5  C   UNL     1     -20.221  59.044  -6.101  1.00  0.00     0.006 C 
BRANCH   5   6
ATOM      6  C   UNL     1     -20.429  58.287  -4.785  1.00  0.00     0.053 C 
BRANCH   6   7
ATOM      7  C   UNL     1     -21.685  57.479  -4.838  1.00  0.00     0.041 C 
ATOM      8  O   UNL     1     -22.794  58.042  -5.043  1.00  0.00    -0.550 OA
ATOM      9  O   UNL     1     -21.642  56.109  -4.612  1.00  0.00    -0.550 OA
ENDBRANCH   6   7
ENDBRANCH   5   6
ENDBRANCH   4   5
ENDBRANCH   3   4
ENDBRANCH   2   3
ENDBRANCH   1   2
BRANCH   1  10
ATOM     10  C   UNL     1     -15.187  60.319  -4.366  1.00  0.00     0.027 C 
BRANCH  10  11
ATOM     11  C   UNL     1     -15.090  61.824  -4.282  1.00  0.00    -0.031 C 
ATOM     12  C   UNL     1     -14.965  62.515  -3.134  1.00  0.00    -0.031 C 
BRANCH  12  13
ATOM     13  C   UNL     1     -14.954  61.874  -1.768  1.00  0.00     0.027 C 
BRANCH  13  14
ATOM     14  C   UNL     1     -16.377  61.738  -1.209  1.00  0.00     0.004 C 
BRANCH  14  15
ATOM     15  C   UNL     1     -16.691  60.295  -0.758  1.00  0.00     0.000 C 
BRANCH  15  16
ATOM     16  C   UNL     1     -18.100  59.819  -1.150  1.00  0.00    -0.000 C 
BRANCH  16  17
ATOM     17  C   UNL     1     -19.182  60.275  -0.161  1.00  0.00    -0.003 C 
ATOM     18  C   UNL     1     -18.949  59.676   1.223  1.00  0.00     0.004 C 
ENDBRANCH  16  17
ENDBRANCH  15  16
ENDBRANCH  14  15
ENDBRANCH  13  14
ENDBRANCH  12  13
ENDBRANCH  10  11
ENDBRANCH   1  10
TORSDOF 13
ENDMDL
MODEL 7
REMARK VINA RESULT:    -5.404      5.723      8.078
REMARK INTER + INTRA:         -10.506
REMARK INTER:                  -9.574
REMARK INTRA:                  -0.932
REMARK UNBOUND:                -0.994
REMARK SMILES CCCCCCC=CCCCCCCCC(=O)[O-]
REMARK SMILES IDX 10 1 11 2 12 3 13 4 14 5 15 6 16 7 17 8 18 9 9 10 8 11 7 12
REMARK SMILES IDX 6 13 5 14 4 15 3 16 2 17 1 18
REMARK H PARENT
REMARK Flexibility Score: inf
ROOT
ATOM      1  C   UNL     1     -23.466  59.206   2.941  1.00  0.00     0.004 C 
ENDROOT
BRANCH   1   2
ATOM      2  C   UNL     1     -22.109  59.606   2.325  1.00  0.00     0.000 C 
BRANCH   2   3
ATOM      3  C   UNL     1     -22.192  60.602   1.151  1.00  0.00     0.000 C 
BRANCH   3   4
ATOM      4  C   UNL     1     -20.996  60.566   0.181  1.00  0.00     0.000 C 
BRANCH   4   5
ATOM      5  C   UNL     1     -19.720  60.011   0.828  1.00  0.00     0.006 C 
BRANCH   5   6
ATOM      6  C   UNL     1     -18.479  60.405   0.020  1.00  0.00     0.053 C 
BRANCH   6   7
ATOM      7  C   UNL     1     -17.277  59.664   0.510  1.00  0.00     0.041 C 
ATOM      8  O   UNL     1     -16.224  59.636  -0.180  1.00  0.00    -0.550 OA
ATOM      9  O   UNL     1     -17.333  58.961   1.708  1.00  0.00    -0.550 OA
ENDBRANCH   6   7
ENDBRANCH   5   6
ENDBRANCH   4   5
ENDBRANCH   3   4
ENDBRANCH   2   3
ENDBRANCH   1   2
BRANCH   1  10
ATOM     10  C   UNL     1     -23.485  57.807   3.580  1.00  0.00     0.027 C 
BRANCH  10  11
ATOM     11  C   UNL     1     -22.300  57.573   4.486  1.00  0.00    -0.031 C 
ATOM     12  C   UNL     1     -22.345  56.871   5.633  1.00  0.00    -0.031 C 
BRANCH  12  13
ATOM     13  C   UNL     1     -23.609  56.264   6.193  1.00  0.00     0.027 C 
BRANCH  13  14
ATOM     14  C   UNL     1     -23.486  56.026   7.705  1.00  0.00     0.004 C 
BRANCH  14  15
ATOM     15  C   UNL     1     -22.153  56.561   8.273  1.00  0.00     0.000 C 
BRANCH  15  16
ATOM     16  C   UNL     1     -22.333  57.591   9.401  1.00  0.00    -0.000 C 
BRANCH  16  17
ATOM     17  C   UNL     1     -21.316  58.738   9.330  1.00  0.00    -0.003 C 
ATOM     18  C   UNL     1     -20.353  58.549   8.162  1.00  0.00     0.004 C 
ENDBRANCH  16  17
ENDBRANCH  15  16
ENDBRANCH  14  15
ENDBRANCH  13  14
ENDBRANCH  12  13
ENDBRANCH  10  11
ENDBRANCH   1  10
TORSDOF 13
ENDMDL
MODEL 8
REMARK VINA RESULT:    -5.345      8.575     11.183
REMARK INTER + INTRA:         -10.402
REMARK INTER:                  -9.336
REMARK INTRA:                  -1.066
REMARK UNBOUND:                -0.994
REMARK SMILES CCCCCCC=CCCCCCCCC(=O)[O-]
REMARK SMILES IDX 10 1 11 2 12 3 13 4 14 5 15 6 16 7 17 8 18 9 9 10 8 11 7 12
REMARK SMILES IDX 6 13 5 14 4 15 3 16 2 17 1 18
REMARK H PARENT
REMARK Flexibility Score: inf
ROOT
ATOM      1  C   UNL     1     -15.622  60.407  -4.446  1.00  0.00     0.004 C 
ENDROOT
BRANCH   1   2
ATOM      2  C   UNL     1     -16.914  59.573  -4.577  1.00  0.00     0.000 C 
BRANCH   2   3
ATOM      3  C   UNL     1     -17.133  58.918  -5.955  1.00  0.00     0.000 C 
BRANCH   3   4
ATOM      4  C   UNL     1     -18.571  58.440  -6.227  1.00  0.00     0.000 C 
BRANCH   4   5
ATOM      5  C   UNL     1     -19.456  58.465  -4.973  1.00  0.00     0.006 C 
BRANCH   5   6
ATOM      6  C   UNL     1     -20.209  57.141  -4.807  1.00  0.00     0.053 C 
BRANCH   6   7
ATOM      7  C   UNL     1     -21.683  57.380  -4.754  1.00  0.00     0.041 C 
ATOM      8  O   UNL     1     -22.470  56.436  -4.476  1.00  0.00    -0.550 OA
ATOM      9  O   UNL     1     -22.197  58.634  -5.061  1.00  0.00    -0.550 OA
ENDBRANCH   6   7
ENDBRANCH   5   6
ENDBRANCH   4   5
ENDBRANCH   3   4
ENDBRANCH   2   3
ENDBRANCH   1   2
BRANCH   1  10
ATOM     10  C   UNL     1     -15.143  60.613  -2.999  1.00  0.00     0.027 C 
BRANCH  10  11
ATOM     11  C   UNL     1     -15.927  61.686  -2.282  1.00  0.00    -0.031 C 
ATOM     12  C   UNL     1     -16.640  61.486  -1.158  1.00  0.00    -0.031 C 
BRANCH  12  13
ATOM     13  C   UNL     1     -16.790  60.140  -0.491  1.00  0.00     0.027 C 
BRANCH  13  14
ATOM     14  C   UNL     1     -18.193  59.560  -0.725  1.00  0.00     0.004 C 
BRANCH  14  15
ATOM     15  C   UNL     1     -19.165  59.904   0.425  1.00  0.00     0.000 C 
BRANCH  15  16
ATOM     16  C   UNL     1     -20.292  60.866   0.013  1.00  0.00    -0.000 C 
BRANCH  16  17
ATOM     17  C   UNL     1     -21.572  60.676   0.838  1.00  0.00    -0.003 C 
ATOM     18  C   UNL     1     -21.274  59.982   2.164  1.00  0.00     0.004 C 
ENDBRANCH  16  17
ENDBRANCH  15  16
ENDBRANCH  14  15
ENDBRANCH  13  14
ENDBRANCH  12  13
ENDBRANCH  10  11
ENDBRANCH   1  10
TORSDOF 13
ENDMDL
MODEL 9
REMARK VINA RESULT:    -5.335      7.974     10.976
REMARK INTER + INTRA:         -10.383
REMARK INTER:                  -9.465
REMARK INTRA:                  -0.918
REMARK UNBOUND:                -0.994
REMARK SMILES CCCCCCC=CCCCCCCCC(=O)[O-]
REMARK SMILES IDX 10 1 11 2 12 3 13 4 14 5 15 6 16 7 17 8 18 9 9 10 8 11 7 12
REMARK SMILES IDX 6 13 5 14 4 15 3 16 2 17 1 18
REMARK H PARENT
REMARK Flexibility Score: inf
ROOT
ATOM      1  C   UNL     1     -15.914  60.257  -0.768  1.00  0.00     0.004 C 
ENDROOT
BRANCH   1   2
ATOM      2  C   UNL     1     -16.923  59.713   0.264  1.00  0.00     0.000 C 
BRANCH   2   3
ATOM      3  C   UNL     1     -18.302  59.327  -0.310  1.00  0.00     0.000 C 
BRANCH   3   4
ATOM      4  C   UNL     1     -19.438  60.318   0.002  1.00  0.00     0.000 C 
BRANCH   4   5
ATOM      5  C   UNL     1     -20.152  60.011   1.326  1.00  0.00     0.006 C 
BRANCH   5   6
ATOM      6  C   UNL     1     -21.665  60.211   1.192  1.00  0.00     0.053 C 
BRANCH   6   7
ATOM      7  C   UNL     1     -21.963  61.385   0.315  1.00  0.00     0.041 C 
ATOM      8  O   UNL     1     -22.438  61.211  -0.838  1.00  0.00    -0.550 OA
ATOM      9  O   UNL     1     -21.669  62.671   0.752  1.00  0.00    -0.550 OA
ENDBRANCH   6   7
ENDBRANCH   5   6
ENDBRANCH   4   5
ENDBRANCH   3   4
ENDBRANCH   2   3
ENDBRANCH   1   2
BRANCH   1  10
ATOM     10  C   UNL     1     -16.558  60.948  -1.982  1.00  0.00     0.027 C 
BRANCH  10  11
ATOM     11  C   UNL     1     -15.733  60.789  -3.237  1.00  0.00    -0.031 C 
ATOM     12  C   UNL     1     -16.140  60.131  -4.338  1.00  0.00    -0.031 C 
BRANCH  12  13
ATOM     13  C   UNL     1     -17.466  59.417  -4.443  1.00  0.00     0.027 C 
BRANCH  13  14
ATOM     14  C   UNL     1     -17.648  58.789  -5.832  1.00  0.00     0.004 C 
BRANCH  14  15
ATOM     15  C   UNL     1     -18.382  57.433  -5.767  1.00  0.00     0.000 C 
BRANCH  15  16
ATOM     16  C   UNL     1     -19.055  57.160  -4.411  1.00  0.00    -0.000 C 
BRANCH  16  17
ATOM     17  C   UNL     1     -20.581  57.033  -4.515  1.00  0.00    -0.003 C 
ATOM     18  C   UNL     1     -21.223  58.375  -4.854  1.00  0.00     0.004 C 
ENDBRANCH  16  17
ENDBRANCH  15  16
ENDBRANCH  14  15
ENDBRANCH  13  14
ENDBRANCH  12  13
ENDBRANCH  10  11
ENDBRANCH   1  10
TORSDOF 13
ENDMDL
