MODEL 1
REMARK VINA RESULT:    -6.272      0.000      0.000
REMARK INTER + INTRA:         -13.241
REMARK INTER:                 -11.405
REMARK INTRA:                  -1.837
REMARK UNBOUND:                -1.837
REMARK SMILES CCCCCCCCCCCCCC[C@H](C)C(=O)[O-]
REMARK SMILES IDX 9 1 10 2 11 3 12 4 13 5 14 6 15 7 16 8 17 9 18 10 19 11 8 12
REMARK SMILES IDX 7 13 6 14 5 15 4 16 3 17 2 18 1 19
REMARK H PARENT
REMARK Flexibility Score: inf
ROOT
ATOM      1  C   UNL     1      16.877   2.037  11.448  1.00  0.00     0.000 C 
ENDROOT
BRANCH   1   2
ATOM      2  C   UNL     1      17.752   0.787  11.658  1.00  0.00     0.000 C 
BRANCH   2   3
ATOM      3  C   UNL     1      17.337  -0.036  12.890  1.00  0.00     0.000 C 
BRANCH   3   4
ATOM      4  C   UNL     1      18.516  -0.315  13.835  1.00  0.00     0.000 C 
BRANCH   4   5
ATOM      5  C   UNL     1      18.064  -0.767  15.232  1.00  0.00     0.001 C 
BRANCH   5   6
ATOM      6  C   UNL     1      16.537  -0.644  15.379  1.00  0.00     0.009 C 
BRANCH   6   7
ATOM      7  C   UNL     1      16.064  -0.238  16.793  1.00  0.00     0.032 C 
ATOM      8  C   UNL     1      16.969   0.823  17.438  1.00  0.00     0.014 C 
BRANCH   7   9
ATOM      9  C   UNL     1      15.879  -1.439  17.684  1.00  0.00     0.044 C 
ATOM     10  O   UNL     1      14.814  -2.113  17.649  1.00  0.00    -0.550 OA
ATOM     11  O   UNL     1      16.863  -1.769  18.608  1.00  0.00    -0.550 OA
ENDBRANCH   7   9
ENDBRANCH   6   7
ENDBRANCH   5   6
ENDBRANCH   4   5
ENDBRANCH   3   4
ENDBRANCH   2   3
ENDBRANCH   1   2
BRANCH   1  12
ATOM     12  C   UNL     1      15.476   1.967  12.080  1.00  0.00     0.000 C 
BRANCH  12  13
ATOM     13  C   UNL     1      15.214   3.098  13.087  1.00  0.00    -0.000 C 
BRANCH  13  14
ATOM     14  C   UNL     1      15.018   2.540  14.504  1.00  0.00    -0.000 C 
BRANCH  14  15
ATOM     15  C   UNL     1      13.555   2.604  14.980  1.00  0.00    -0.000 C 
BRANCH  15  16
ATOM     16  C   UNL     1      13.360   2.451  16.499  1.00  0.00    -0.000 C 
BRANCH  16  17
ATOM     17  C   UNL     1      13.101   3.791  17.208  1.00  0.00    -0.000 C 
BRANCH  17  18
ATOM     18  C   UNL     1      13.354   3.717  18.722  1.00  0.00    -0.003 C 
ATOM     19  C   UNL     1      14.104   2.451  19.133  1.00  0.00     0.004 C 
ENDBRANCH  17  18
ENDBRANCH  16  17
ENDBRANCH  15  16
ENDBRANCH  14  15
ENDBRANCH  13  14
ENDBRANCH  12  13
ENDBRANCH   1  12
TORSDOF 14
ENDMDL
MODEL 2
REMARK VINA RESULT:    -6.175      1.182      5.288
REMARK INTER + INTRA:         -13.065
REMARK INTER:                 -11.022
REMARK INTRA:                  -2.044
REMARK UNBOUND:                -1.837
REMARK SMILES CCCCCCCCCCCCCC[C@H](C)C(=O)[O-]
REMARK SMILES IDX 9 1 10 2 11 3 12 4 13 5 14 6 15 7 16 8 17 9 18 10 19 11 8 12
REMARK SMILES IDX 7 13 6 14 5 15 4 16 3 17 2 18 1 19
REMARK H PARENT
REMARK Flexibility Score: inf
ROOT
ATOM      1  C   UNL     1      13.120   2.539  16.102  1.00  0.00     0.000 C 
ENDROOT
BRANCH   1   2
ATOM      2  C   UNL     1      13.090   3.727  17.081  1.00  0.00     0.000 C 
BRANCH   2   3
ATOM      3  C   UNL     1      13.602   3.361  18.485  1.00  0.00     0.000 C 
BRANCH   3   4
ATOM      4  C   UNL     1      13.732   1.843  18.686  1.00  0.00     0.000 C 
BRANCH   4   5
ATOM      5  C   UNL     1      14.871   1.467  19.646  1.00  0.00     0.001 C 
BRANCH   5   6
ATOM      6  C   UNL     1      14.931  -0.057  19.854  1.00  0.00     0.009 C 
BRANCH   6   7
ATOM      7  C   UNL     1      16.269  -0.705  19.431  1.00  0.00     0.032 C 
ATOM      8  C   UNL     1      17.361   0.334  19.132  1.00  0.00     0.014 C 
BRANCH   7   9
ATOM      9  C   UNL     1      16.083  -1.672  18.291  1.00  0.00     0.044 C 
ATOM     10  O   UNL     1      17.075  -2.216  17.736  1.00  0.00    -0.550 OA
ATOM     11  O   UNL     1      14.807  -1.915  17.796  1.00  0.00    -0.550 OA
ENDBRANCH   7   9
ENDBRANCH   6   7
ENDBRANCH   5   6
ENDBRANCH   4   5
ENDBRANCH   3   4
ENDBRANCH   2   3
ENDBRANCH   1   2
BRANCH   1  12
ATOM     12  C   UNL     1      14.100   2.687  14.925  1.00  0.00     0.000 C 
BRANCH  12  13
ATOM     13  C   UNL     1      15.565   2.468  15.331  1.00  0.00    -0.000 C 
BRANCH  13  14
ATOM     14  C   UNL     1      15.804   1.013  15.764  1.00  0.00    -0.000 C 
BRANCH  14  15
ATOM     15  C   UNL     1      16.906   0.315  14.947  1.00  0.00    -0.000 C 
BRANCH  15  16
ATOM     16  C   UNL     1      16.527  -0.008  13.490  1.00  0.00    -0.000 C 
BRANCH  16  17
ATOM     17  C   UNL     1      17.648   0.322  12.491  1.00  0.00    -0.000 C 
BRANCH  17  18
ATOM     18  C   UNL     1      17.305   1.518  11.591  1.00  0.00    -0.003 C 
ATOM     19  C   UNL     1      15.807   1.823  11.561  1.00  0.00     0.004 C 
ENDBRANCH  17  18
ENDBRANCH  16  17
ENDBRANCH  15  16
ENDBRANCH  14  15
ENDBRANCH  13  14
ENDBRANCH  12  13
ENDBRANCH   1  12
TORSDOF 14
ENDMDL
MODEL 3
REMARK VINA RESULT:    -6.166      1.359      5.050
REMARK INTER + INTRA:         -13.048
REMARK INTER:                 -11.113
REMARK INTRA:                  -1.935
REMARK UNBOUND:                -1.837
REMARK SMILES CCCCCCCCCCCCCC[C@H](C)C(=O)[O-]
REMARK SMILES IDX 9 1 10 2 11 3 12 4 13 5 14 6 15 7 16 8 17 9 18 10 19 11 8 12
REMARK SMILES IDX 7 13 6 14 5 15 4 16 3 17 2 18 1 19
REMARK H PARENT
REMARK Flexibility Score: inf
ROOT
ATOM      1  C   UNL     1      15.466   0.989  15.817  1.00  0.00     0.000 C 
ENDROOT
BRANCH   1   2
ATOM      2  C   UNL     1      15.298   1.894  17.052  1.00  0.00     0.000 C 
BRANCH   2   3
ATOM      3  C   UNL     1      14.130   1.466  17.956  1.00  0.00     0.000 C 
BRANCH   3   4
ATOM      4  C   UNL     1      14.312   1.926  19.411  1.00  0.00     0.000 C 
BRANCH   4   5
ATOM      5  C   UNL     1      15.395   1.128  20.154  1.00  0.00     0.001 C 
BRANCH   5   6
ATOM      6  C   UNL     1      15.232  -0.381  19.904  1.00  0.00     0.009 C 
BRANCH   6   7
ATOM      7  C   UNL     1      16.477  -1.064  19.295  1.00  0.00     0.032 C 
ATOM      8  C   UNL     1      17.625  -0.077  19.034  1.00  0.00     0.014 C 
BRANCH   7   9
ATOM      9  C   UNL     1      16.129  -1.864  18.067  1.00  0.00     0.044 C 
ATOM     10  O   UNL     1      17.031  -2.301  17.302  1.00  0.00    -0.550 OA
ATOM     11  O   UNL     1      14.796  -2.064  17.731  1.00  0.00    -0.550 OA
ENDBRANCH   7   9
ENDBRANCH   6   7
ENDBRANCH   5   6
ENDBRANCH   4   5
ENDBRANCH   3   4
ENDBRANCH   2   3
ENDBRANCH   1   2
BRANCH   1  12
ATOM     12  C   UNL     1      14.802   1.511  14.530  1.00  0.00     0.000 C 
BRANCH  12  13
ATOM     13  C   UNL     1      15.259   2.928  14.150  1.00  0.00    -0.000 C 
BRANCH  13  14
ATOM     14  C   UNL     1      15.322   3.095  12.624  1.00  0.00    -0.000 C 
BRANCH  14  15
ATOM     15  C   UNL     1      15.575   1.769  11.884  1.00  0.00    -0.000 C 
BRANCH  15  16
ATOM     16  C   UNL     1      16.855   1.738  11.029  1.00  0.00    -0.000 C 
BRANCH  16  17
ATOM     17  C   UNL     1      17.975   0.891  11.655  1.00  0.00    -0.000 C 
BRANCH  17  18
ATOM     18  C   UNL     1      17.446  -0.119  12.685  1.00  0.00    -0.003 C 
ATOM     19  C   UNL     1      18.459  -0.422  13.788  1.00  0.00     0.004 C 
ENDBRANCH  17  18
ENDBRANCH  16  17
ENDBRANCH  15  16
ENDBRANCH  14  15
ENDBRANCH  13  14
ENDBRANCH  12  13
ENDBRANCH   1  12
TORSDOF 14
ENDMDL
MODEL 4
REMARK VINA RESULT:    -6.154      2.605      5.510
REMARK INTER + INTRA:         -13.028
REMARK INTER:                 -10.730
REMARK INTRA:                  -2.298
REMARK UNBOUND:                -1.837
REMARK SMILES CCCCCCCCCCCCCC[C@H](C)C(=O)[O-]
REMARK SMILES IDX 9 1 10 2 11 3 12 4 13 5 14 6 15 7 16 8 17 9 18 10 19 11 8 12
REMARK SMILES IDX 7 13 6 14 5 15 4 16 3 17 2 18 1 19
REMARK H PARENT
REMARK Flexibility Score: inf
ROOT
ATOM      1  C   UNL     1      13.406   3.757  16.997  1.00  0.00     0.000 C 
ENDROOT
BRANCH   1   2
ATOM      2  C   UNL     1      12.968   2.818  15.858  1.00  0.00     0.000 C 
BRANCH   2   3
ATOM      3  C   UNL     1      14.126   2.424  14.926  1.00  0.00     0.000 C 
BRANCH   3   4
ATOM      4  C   UNL     1      15.501   2.606  15.587  1.00  0.00     0.000 C 
BRANCH   4   5
ATOM      5  C   UNL     1      16.257   1.280  15.762  1.00  0.00     0.001 C 
BRANCH   5   6
ATOM      6  C   UNL     1      15.848   0.270  14.675  1.00  0.00     0.009 C 
BRANCH   6   7
ATOM      7  C   UNL     1      16.996  -0.141  13.725  1.00  0.00     0.032 C 
ATOM      8  C   UNL     1      18.357  -0.205  14.434  1.00  0.00     0.014 C 
BRANCH   7   9
ATOM      9  C   UNL     1      17.039   0.729  12.496  1.00  0.00     0.044 C 
ATOM     10  O   UNL     1      18.115   0.898  11.860  1.00  0.00    -0.550 OA
ATOM     11  O   UNL     1      15.898   1.413  12.096  1.00  0.00    -0.550 OA
ENDBRANCH   7   9
ENDBRANCH   6   7
ENDBRANCH   5   6
ENDBRANCH   4   5
ENDBRANCH   3   4
ENDBRANCH   2   3
ENDBRANCH   1   2
BRANCH   1  12
ATOM     12  C   UNL     1      13.054   3.274  18.415  1.00  0.00     0.000 C 
BRANCH  12  13
ATOM     13  C   UNL     1      14.146   2.392  19.038  1.00  0.00    -0.000 C 
BRANCH  13  14
ATOM     14  C   UNL     1      13.752   0.908  18.984  1.00  0.00    -0.000 C 
BRANCH  14  15
ATOM     15  C   UNL     1      14.926  -0.038  19.297  1.00  0.00    -0.000 C 
BRANCH  15  16
ATOM     16  C   UNL     1      16.312   0.632  19.315  1.00  0.00    -0.000 C 
BRANCH  16  17
ATOM     17  C   UNL     1      17.454  -0.343  18.984  1.00  0.00    -0.000 C 
BRANCH  17  18
ATOM     18  C   UNL     1      16.951  -1.765  18.695  1.00  0.00    -0.003 C 
ATOM     19  C   UNL     1      17.205  -2.199  17.252  1.00  0.00     0.004 C 
ENDBRANCH  17  18
ENDBRANCH  16  17
ENDBRANCH  15  16
ENDBRANCH  14  15
ENDBRANCH  13  14
ENDBRANCH  12  13
ENDBRANCH   1  12
TORSDOF 14
ENDMDL
MODEL 5
REMARK VINA RESULT:    -6.146      1.388      5.141
REMARK INTER + INTRA:         -13.013
REMARK INTER:                 -10.885
REMARK INTRA:                  -2.128
REMARK UNBOUND:                -1.837
REMARK SMILES CCCCCCCCCCCCCC[C@H](C)C(=O)[O-]
REMARK SMILES IDX 9 1 10 2 11 3 12 4 13 5 14 6 15 7 16 8 17 9 18 10 19 11 8 12
REMARK SMILES IDX 7 13 6 14 5 15 4 16 3 17 2 18 1 19
REMARK H PARENT
REMARK Flexibility Score: inf
ROOT
ATOM      1  C   UNL     1      14.067   1.912  14.663  1.00  0.00     0.000 C 
ENDROOT
BRANCH   1   2
ATOM      2  C   UNL     1      12.965   2.532  15.542  1.00  0.00     0.000 C 
BRANCH   2   3
ATOM      3  C   UNL     1      13.520   3.459  16.636  1.00  0.00     0.000 C 
BRANCH   3   4
ATOM      4  C   UNL     1      13.165   2.977  18.051  1.00  0.00     0.000 C 
BRANCH   4   5
ATOM      5  C   UNL     1      13.638   1.541  18.326  1.00  0.00     0.001 C 
BRANCH   5   6
ATOM      6  C   UNL     1      15.121   1.523  18.735  1.00  0.00     0.009 C 
BRANCH   6   7
ATOM      7  C   UNL     1      16.060   0.872  17.695  1.00  0.00     0.032 C 
ATOM      8  C   UNL     1      15.506  -0.451  17.144  1.00  0.00     0.014 C 
BRANCH   7   9
ATOM      9  C   UNL     1      17.461   0.718  18.228  1.00  0.00     0.044 C 
ATOM     10  O   UNL     1      17.666   0.275  19.390  1.00  0.00    -0.550 OA
ATOM     11  O   UNL     1      18.540   1.138  17.459  1.00  0.00    -0.550 OA
ENDBRANCH   7   9
ENDBRANCH   6   7
ENDBRANCH   5   6
ENDBRANCH   4   5
ENDBRANCH   3   4
ENDBRANCH   2   3
ENDBRANCH   1   2
BRANCH   1  12
ATOM     12  C   UNL     1      15.270   2.829  14.380  1.00  0.00     0.000 C 
BRANCH  12  13
ATOM     13  C   UNL     1      15.395   3.217  12.899  1.00  0.00    -0.000 C 
BRANCH  13  14
ATOM     14  C   UNL     1      15.542   1.970  12.014  1.00  0.00    -0.000 C 
BRANCH  14  15
ATOM     15  C   UNL     1      16.875   1.933  11.243  1.00  0.00    -0.000 C 
BRANCH  15  16
ATOM     16  C   UNL     1      17.855   0.835  11.694  1.00  0.00    -0.000 C 
BRANCH  16  17
ATOM     17  C   UNL     1      17.266  -0.088  12.773  1.00  0.00    -0.000 C 
BRANCH  17  18
ATOM     18  C   UNL     1      17.960   0.074  14.134  1.00  0.00    -0.003 C 
ATOM     19  C   UNL     1      18.936  -1.061  14.437  1.00  0.00     0.004 C 
ENDBRANCH  17  18
ENDBRANCH  16  17
ENDBRANCH  15  16
ENDBRANCH  14  15
ENDBRANCH  13  14
ENDBRANCH  12  13
ENDBRANCH   1  12
TORSDOF 14
ENDMDL
MODEL 6
REMARK VINA RESULT:    -6.144      1.712      4.741
REMARK INTER + INTRA:         -13.009
REMARK INTER:                 -11.136
REMARK INTRA:                  -1.873
REMARK UNBOUND:                -1.837
REMARK SMILES CCCCCCCCCCCCCC[C@H](C)C(=O)[O-]
REMARK SMILES IDX 9 1 10 2 11 3 12 4 13 5 14 6 15 7 16 8 17 9 18 10 19 11 8 12
REMARK SMILES IDX 7 13 6 14 5 15 4 16 3 17 2 18 1 19
REMARK H PARENT
REMARK Flexibility Score: inf
ROOT
ATOM      1  C   UNL     1      15.364   3.155  12.924  1.00  0.00     0.000 C 
ENDROOT
BRANCH   1   2
ATOM      2  C   UNL     1      15.290   2.899  14.440  1.00  0.00     0.000 C 
BRANCH   2   3
ATOM      3  C   UNL     1      14.020   2.142  14.860  1.00  0.00     0.000 C 
BRANCH   3   4
ATOM      4  C   UNL     1      13.224   2.884  15.946  1.00  0.00     0.000 C 
BRANCH   4   5
ATOM      5  C   UNL     1      14.075   3.225  17.178  1.00  0.00     0.001 C 
BRANCH   5   6
ATOM      6  C   UNL     1      13.577   2.460  18.417  1.00  0.00     0.009 C 
BRANCH   6   7
ATOM      7  C   UNL     1      14.476   1.275  18.836  1.00  0.00     0.032 C 
ATOM      8  C   UNL     1      13.996  -0.065  18.260  1.00  0.00     0.014 C 
BRANCH   7   9
ATOM      9  C   UNL     1      14.657   1.215  20.331  1.00  0.00     0.044 C 
ATOM     10  O   UNL     1      14.687   2.269  21.022  1.00  0.00    -0.550 OA
ATOM     11  O   UNL     1      14.866  -0.011  20.950  1.00  0.00    -0.550 OA
ENDBRANCH   7   9
ENDBRANCH   6   7
ENDBRANCH   5   6
ENDBRANCH   4   5
ENDBRANCH   3   4
ENDBRANCH   2   3
ENDBRANCH   1   2
BRANCH   1  12
ATOM     12  C   UNL     1      15.505   1.892  12.055  1.00  0.00     0.000 C 
BRANCH  12  13
ATOM     13  C   UNL     1      16.842   1.829  11.299  1.00  0.00    -0.000 C 
BRANCH  13  14
ATOM     14  C   UNL     1      17.610   0.545  11.647  1.00  0.00    -0.000 C 
BRANCH  14  15
ATOM     15  C   UNL     1      17.359   0.065  13.089  1.00  0.00    -0.000 C 
BRANCH  15  16
ATOM     16  C   UNL     1      18.598  -0.490  13.813  1.00  0.00    -0.000 C 
BRANCH  16  17
ATOM     17  C   UNL     1      18.387  -0.649  15.328  1.00  0.00    -0.000 C 
BRANCH  17  18
ATOM     18  C   UNL     1      17.186   0.158  15.844  1.00  0.00    -0.003 C 
ATOM     19  C   UNL     1      17.570   1.150  16.942  1.00  0.00     0.004 C 
ENDBRANCH  17  18
ENDBRANCH  16  17
ENDBRANCH  15  16
ENDBRANCH  14  15
ENDBRANCH  13  14
ENDBRANCH  12  13
ENDBRANCH   1  12
TORSDOF 14
ENDMDL
MODEL 7
REMARK VINA RESULT:    -6.103      1.292      5.159
REMARK INTER + INTRA:         -12.934
REMARK INTER:                 -10.772
REMARK INTRA:                  -2.162
REMARK UNBOUND:                -1.837
REMARK SMILES CCCCCCCCCCCCCC[C@H](C)C(=O)[O-]
REMARK SMILES IDX 9 1 10 2 11 3 12 4 13 5 14 6 15 7 16 8 17 9 18 10 19 11 8 12
REMARK SMILES IDX 7 13 6 14 5 15 4 16 3 17 2 18 1 19
REMARK H PARENT
REMARK Flexibility Score: inf
ROOT
ATOM      1  C   UNL     1      16.153   1.353  15.722  1.00  0.00     0.000 C 
ENDROOT
BRANCH   1   2
ATOM      2  C   UNL     1      14.711   1.475  16.249  1.00  0.00     0.000 C 
BRANCH   2   3
ATOM      3  C   UNL     1      14.611   2.320  17.531  1.00  0.00     0.000 C 
BRANCH   3   4
ATOM      4  C   UNL     1      13.861   1.592  18.658  1.00  0.00     0.000 C 
BRANCH   4   5
ATOM      5  C   UNL     1      14.749   1.320  19.882  1.00  0.00     0.001 C 
BRANCH   5   6
ATOM      6  C   UNL     1      14.923  -0.193  20.107  1.00  0.00     0.009 C 
BRANCH   6   7
ATOM      7  C   UNL     1      16.254  -0.766  19.571  1.00  0.00     0.032 C 
ATOM      8  C   UNL     1      17.289   0.327  19.266  1.00  0.00     0.014 C 
BRANCH   7   9
ATOM      9  C   UNL     1      16.033  -1.679  18.393  1.00  0.00     0.044 C 
ATOM     10  O   UNL     1      16.999  -2.275  17.846  1.00  0.00    -0.550 OA
ATOM     11  O   UNL     1      14.759  -1.812  17.855  1.00  0.00    -0.550 OA
ENDBRANCH   7   9
ENDBRANCH   6   7
ENDBRANCH   5   6
ENDBRANCH   4   5
ENDBRANCH   3   4
ENDBRANCH   2   3
ENDBRANCH   1   2
BRANCH   1  12
ATOM     12  C   UNL     1      16.531  -0.034  15.172  1.00  0.00     0.000 C 
BRANCH  12  13
ATOM     13  C   UNL     1      18.045  -0.296  15.193  1.00  0.00    -0.000 C 
BRANCH  13  14
ATOM     14  C   UNL     1      18.572  -0.592  13.781  1.00  0.00    -0.000 C 
BRANCH  14  15
ATOM     15  C   UNL     1      17.586  -0.181  12.672  1.00  0.00    -0.000 C 
BRANCH  15  16
ATOM     16  C   UNL     1      17.980   1.087  11.892  1.00  0.00    -0.000 C 
BRANCH  16  17
ATOM     17  C   UNL     1      16.804   1.702  11.116  1.00  0.00    -0.000 C 
BRANCH  17  18
ATOM     18  C   UNL     1      15.515   1.765  11.949  1.00  0.00    -0.003 C 
ATOM     19  C   UNL     1      15.363   3.086  12.702  1.00  0.00     0.004 C 
ENDBRANCH  17  18
ENDBRANCH  16  17
ENDBRANCH  15  16
ENDBRANCH  14  15
ENDBRANCH  13  14
ENDBRANCH  12  13
ENDBRANCH   1  12
TORSDOF 14
ENDMDL
MODEL 8
REMARK VINA RESULT:    -6.095      1.808      5.202
REMARK INTER + INTRA:         -12.920
REMARK INTER:                 -10.989
REMARK INTRA:                  -1.931
REMARK UNBOUND:                -1.837
REMARK SMILES CCCCCCCCCCCCCC[C@H](C)C(=O)[O-]
REMARK SMILES IDX 9 1 10 2 11 3 12 4 13 5 14 6 15 7 16 8 17 9 18 10 19 11 8 12
REMARK SMILES IDX 7 13 6 14 5 15 4 16 3 17 2 18 1 19
REMARK H PARENT
REMARK Flexibility Score: inf
ROOT
ATOM      1  C   UNL     1      15.414   0.187  20.420  1.00  0.00     0.000 C 
ENDROOT
BRANCH   1   2
ATOM      2  C   UNL     1      16.698   0.001  19.591  1.00  0.00     0.000 C 
BRANCH   2   3
ATOM      3  C   UNL     1      16.743  -1.345  18.847  1.00  0.00     0.000 C 
BRANCH   3   4
ATOM      4  C   UNL     1      15.900  -1.335  17.562  1.00  0.00     0.000 C 
BRANCH   4   5
ATOM      5  C   UNL     1      16.232  -0.149  16.643  1.00  0.00     0.001 C 
BRANCH   5   6
ATOM      6  C   UNL     1      16.418  -0.618  15.189  1.00  0.00     0.009 C 
BRANCH   6   7
ATOM      7  C   UNL     1      17.679  -0.055  14.495  1.00  0.00     0.032 C 
ATOM      8  C   UNL     1      17.674  -0.292  12.977  1.00  0.00     0.014 C 
BRANCH   7   9
ATOM      9  C   UNL     1      18.942  -0.559  15.142  1.00  0.00     0.044 C 
ATOM     10  O   UNL     1      19.243  -1.783  15.107  1.00  0.00    -0.550 OA
ATOM     11  O   UNL     1      19.752   0.321  15.850  1.00  0.00    -0.550 OA
ENDBRANCH   7   9
ENDBRANCH   6   7
ENDBRANCH   5   6
ENDBRANCH   4   5
ENDBRANCH   3   4
ENDBRANCH   2   3
ENDBRANCH   1   2
BRANCH   1  12
ATOM     12  C   UNL     1      14.757   1.574  20.303  1.00  0.00     0.000 C 
BRANCH  12  13
ATOM     13  C   UNL     1      14.022   1.781  18.970  1.00  0.00    -0.000 C 
BRANCH  13  14
ATOM     14  C   UNL     1      13.678   3.262  18.755  1.00  0.00    -0.000 C 
BRANCH  14  15
ATOM     15  C   UNL     1      13.105   3.550  17.355  1.00  0.00    -0.000 C 
BRANCH  15  16
ATOM     16  C   UNL     1      13.388   2.463  16.302  1.00  0.00    -0.000 C 
BRANCH  16  17
ATOM     17  C   UNL     1      14.538   2.834  15.351  1.00  0.00    -0.000 C 
BRANCH  17  18
ATOM     18  C   UNL     1      14.392   2.187  13.966  1.00  0.00    -0.003 C 
ATOM     19  C   UNL     1      15.397   2.732  12.952  1.00  0.00     0.004 C 
ENDBRANCH  17  18
ENDBRANCH  16  17
ENDBRANCH  15  16
ENDBRANCH  14  15
ENDBRANCH  13  14
ENDBRANCH  12  13
ENDBRANCH   1  12
TORSDOF 14
ENDMDL
MODEL 9
REMARK VINA RESULT:    -6.077      1.920      5.383
REMARK INTER + INTRA:         -12.887
REMARK INTER:                 -10.845
REMARK INTRA:                  -2.042
REMARK UNBOUND:                -1.837
REMARK SMILES CCCCCCCCCCCCCC[C@H](C)C(=O)[O-]
REMARK SMILES IDX 9 1 10 2 11 3 12 4 13 5 14 6 15 7 16 8 17 9 18 10 19 11 8 12
REMARK SMILES IDX 7 13 6 14 5 15 4 16 3 17 2 18 1 19
REMARK H PARENT
REMARK Flexibility Score: inf
ROOT
ATOM      1  C   UNL     1      14.412   2.131  18.760  1.00  0.00     0.000 C 
ENDROOT
BRANCH   1   2
ATOM      2  C   UNL     1      14.036   0.652  18.965  1.00  0.00     0.000 C 
BRANCH   2   3
ATOM      3  C   UNL     1      15.091  -0.131  19.765  1.00  0.00     0.000 C 
BRANCH   3   4
ATOM      4  C   UNL     1      16.500   0.464  19.619  1.00  0.00     0.000 C 
BRANCH   4   5
ATOM      5  C   UNL     1      17.281  -0.140  18.442  1.00  0.00     0.001 C 
BRANCH   5   6
ATOM      6  C   UNL     1      17.637   0.943  17.408  1.00  0.00     0.009 C 
BRANCH   6   7
ATOM      7  C   UNL     1      17.220   0.601  15.960  1.00  0.00     0.032 C 
ATOM      8  C   UNL     1      16.007  -0.340  15.899  1.00  0.00     0.014 C 
BRANCH   7   9
ATOM      9  C   UNL     1      18.382   0.076  15.156  1.00  0.00     0.044 C 
ATOM     10  O   UNL     1      18.201  -0.449  14.024  1.00  0.00    -0.550 OA
ATOM     11  O   UNL     1      19.662   0.105  15.696  1.00  0.00    -0.550 OA
ENDBRANCH   7   9
ENDBRANCH   6   7
ENDBRANCH   5   6
ENDBRANCH   4   5
ENDBRANCH   3   4
ENDBRANCH   2   3
ENDBRANCH   1   2
BRANCH   1  12
ATOM     12  C   UNL     1      13.227   3.077  18.499  1.00  0.00     0.000 C 
BRANCH  12  13
ATOM     13  C   UNL     1      13.125   3.522  17.032  1.00  0.00    -0.000 C 
BRANCH  13  14
ATOM     14  C   UNL     1      14.312   2.993  16.212  1.00  0.00    -0.000 C 
BRANCH  14  15
ATOM     15  C   UNL     1      13.934   2.648  14.760  1.00  0.00    -0.000 C 
BRANCH  15  16
ATOM     16  C   UNL     1      15.063   2.846  13.732  1.00  0.00    -0.000 C 
BRANCH  16  17
ATOM     17  C   UNL     1      15.260   1.628  12.815  1.00  0.00    -0.000 C 
BRANCH  17  18
ATOM     18  C   UNL     1      15.789   2.012  11.426  1.00  0.00    -0.003 C 
ATOM     19  C   UNL     1      17.306   1.867  11.312  1.00  0.00     0.004 C 
ENDBRANCH  17  18
ENDBRANCH  16  17
ENDBRANCH  15  16
ENDBRANCH  14  15
ENDBRANCH  13  14
ENDBRANCH  12  13
ENDBRANCH   1  12
TORSDOF 14
ENDMDL
