MODEL 1
REMARK VINA RESULT:    -3.967      0.000      0.000
REMARK INTER + INTRA:          -7.523
REMARK INTER:                  -6.054
REMARK INTRA:                  -1.468
REMARK UNBOUND:                -1.468
REMARK SMILES CCCCCCCCCC=CC(=O)[O-]
REMARK SMILES IDX 7 1 8 2 9 3 10 4 11 5 12 6 13 7 14 8 6 9 5 10 4 11 3 12 2 13
REMARK SMILES IDX 1 14
REMARK H PARENT
REMARK Flexibility Score: inf
ROOT
ATOM      1  C   UNL     1      13.090  -4.163  30.845  1.00  0.00     0.000 C 
ENDROOT
BRANCH   1   2
ATOM      2  C   UNL     1      12.158  -3.896  29.654  1.00  0.00     0.004 C 
BRANCH   2   3
ATOM      3  C   UNL     1      10.897  -4.774  29.700  1.00  0.00     0.027 C 
BRANCH   3   4
ATOM      4  C   UNL     1       9.630  -3.965  29.591  1.00  0.00    -0.025 C 
ATOM      5  C   UNL     1       9.019  -3.604  28.452  1.00  0.00     0.020 C 
BRANCH   5   6
ATOM      6  C   UNL     1       9.484  -3.877  27.076  1.00  0.00     0.064 C 
ATOM      7  O   UNL     1       8.950  -4.813  26.428  1.00  0.00    -0.545 OA
ATOM      8  O   UNL     1      10.471  -3.115  26.463  1.00  0.00    -0.545 OA
ENDBRANCH   5   6
ENDBRANCH   3   4
ENDBRANCH   2   3
ENDBRANCH   1   2
BRANCH   1   9
ATOM      9  C   UNL     1      12.545  -5.292  31.728  1.00  0.00     0.000 C 
BRANCH   9  10
ATOM     10  C   UNL     1      12.565  -4.889  33.210  1.00  0.00     0.000 C 
BRANCH  10  11
ATOM     11  C   UNL     1      11.198  -4.388  33.703  1.00  0.00    -0.000 C 
BRANCH  11  12
ATOM     12  C   UNL     1      11.150  -2.857  33.856  1.00  0.00    -0.000 C 
BRANCH  12  13
ATOM     13  C   UNL     1      10.434  -2.171  32.682  1.00  0.00    -0.003 C 
ATOM     14  C   UNL     1      11.301  -1.113  32.000  1.00  0.00     0.004 C 
ENDBRANCH  12  13
ENDBRANCH  11  12
ENDBRANCH  10  11
ENDBRANCH   9  10
ENDBRANCH   1   9
TORSDOF 9
ENDMDL
MODEL 2
REMARK VINA RESULT:    -3.905      2.167      3.052
REMARK INTER + INTRA:          -7.428
REMARK INTER:                  -6.262
REMARK INTRA:                  -1.166
REMARK UNBOUND:                -1.468
REMARK SMILES CCCCCCCCCC=CC(=O)[O-]
REMARK SMILES IDX 7 1 8 2 9 3 10 4 11 5 12 6 13 7 14 8 6 9 5 10 4 11 3 12 2 13
REMARK SMILES IDX 1 14
REMARK H PARENT
REMARK Flexibility Score: inf
ROOT
ATOM      1  C   UNL     1      12.335  -2.912  28.915  1.00  0.00     0.000 C 
ENDROOT
BRANCH   1   2
ATOM      2  C   UNL     1      11.922  -3.784  27.719  1.00  0.00     0.004 C 
BRANCH   2   3
ATOM      3  C   UNL     1      10.643  -3.265  27.041  1.00  0.00     0.027 C 
BRANCH   3   4
ATOM      4  C   UNL     1       9.407  -3.977  27.527  1.00  0.00    -0.025 C 
ATOM      5  C   UNL     1       8.539  -3.518  28.443  1.00  0.00     0.020 C 
BRANCH   5   6
ATOM      6  C   UNL     1       8.642  -2.253  29.199  1.00  0.00     0.064 C 
ATOM      7  O   UNL     1       9.102  -2.278  30.368  1.00  0.00    -0.545 OA
ATOM      8  O   UNL     1       8.274  -1.030  28.650  1.00  0.00    -0.545 OA
ENDBRANCH   5   6
ENDBRANCH   3   4
ENDBRANCH   2   3
ENDBRANCH   1   2
BRANCH   1   9
ATOM      9  C   UNL     1      12.285  -3.713  30.222  1.00  0.00     0.000 C 
BRANCH   9  10
ATOM     10  C   UNL     1      11.734  -5.126  29.979  1.00  0.00     0.000 C 
BRANCH  10  11
ATOM     11  C   UNL     1      11.536  -5.915  31.283  1.00  0.00    -0.000 C 
BRANCH  11  12
ATOM     12  C   UNL     1      10.543  -5.233  32.241  1.00  0.00    -0.000 C 
BRANCH  12  13
ATOM     13  C   UNL     1      11.164  -4.927  33.613  1.00  0.00    -0.003 C 
ATOM     14  C   UNL     1      12.672  -5.170  33.644  1.00  0.00     0.004 C 
ENDBRANCH  12  13
ENDBRANCH  11  12
ENDBRANCH  10  11
ENDBRANCH   9  10
ENDBRANCH   1   9
TORSDOF 9
ENDMDL
MODEL 3
REMARK VINA RESULT:    -3.793      1.283      2.876
REMARK INTER + INTRA:          -7.258
REMARK INTER:                  -5.814
REMARK INTRA:                  -1.444
REMARK UNBOUND:                -1.468
REMARK SMILES CCCCCCCCCC=CC(=O)[O-]
REMARK SMILES IDX 7 1 8 2 9 3 10 4 11 5 12 6 13 7 14 8 6 9 5 10 4 11 3 12 2 13
REMARK SMILES IDX 1 14
REMARK H PARENT
REMARK Flexibility Score: inf
ROOT
ATOM      1  C   UNL     1      11.214  -1.922  30.996  1.00  0.00     0.000 C 
ENDROOT
BRANCH   1   2
ATOM      2  C   UNL     1       9.731  -2.147  30.660  1.00  0.00     0.004 C 
BRANCH   2   3
ATOM      3  C   UNL     1       9.466  -2.084  29.147  1.00  0.00     0.027 C 
BRANCH   3   4
ATOM      4  C   UNL     1       8.795  -3.330  28.630  1.00  0.00    -0.025 C 
ATOM      5  C   UNL     1       9.201  -4.073  27.588  1.00  0.00     0.020 C 
BRANCH   5   6
ATOM      6  C   UNL     1      10.354  -3.798  26.705  1.00  0.00     0.064 C 
ATOM      7  O   UNL     1      10.258  -2.882  25.849  1.00  0.00    -0.545 OA
ATOM      8  O   UNL     1      11.550  -4.496  26.809  1.00  0.00    -0.545 OA
ENDBRANCH   5   6
ENDBRANCH   3   4
ENDBRANCH   2   3
ENDBRANCH   1   2
BRANCH   1   9
ATOM      9  C   UNL     1      12.116  -2.426  29.863  1.00  0.00     0.000 C 
BRANCH   9  10
ATOM     10  C   UNL     1      12.814  -3.736  30.258  1.00  0.00     0.000 C 
BRANCH  10  11
ATOM     11  C   UNL     1      11.863  -4.943  30.231  1.00  0.00    -0.000 C 
BRANCH  11  12
ATOM     12  C   UNL     1      11.884  -5.743  31.546  1.00  0.00    -0.000 C 
BRANCH  12  13
ATOM     13  C   UNL     1      10.678  -5.428  32.446  1.00  0.00    -0.003 C 
ATOM     14  C   UNL     1      11.060  -4.604  33.675  1.00  0.00     0.004 C 
ENDBRANCH  12  13
ENDBRANCH  11  12
ENDBRANCH  10  11
ENDBRANCH   9  10
ENDBRANCH   1   9
TORSDOF 9
ENDMDL
MODEL 4
REMARK VINA RESULT:    -3.767      3.218      5.613
REMARK INTER + INTRA:          -7.217
REMARK INTER:                  -5.767
REMARK INTRA:                  -1.450
REMARK UNBOUND:                -1.468
REMARK SMILES CCCCCCCCCC=CC(=O)[O-]
REMARK SMILES IDX 7 1 8 2 9 3 10 4 11 5 12 6 13 7 14 8 6 9 5 10 4 11 3 12 2 13
REMARK SMILES IDX 1 14
REMARK H PARENT
REMARK Flexibility Score: inf
ROOT
ATOM      1  C   UNL     1      10.754  -2.187  30.379  1.00  0.00     0.000 C 
ENDROOT
BRANCH   1   2
ATOM      2  C   UNL     1      12.192  -2.465  29.915  1.00  0.00     0.004 C 
BRANCH   2   3
ATOM      3  C   UNL     1      12.716  -3.815  30.434  1.00  0.00     0.027 C 
BRANCH   3   4
ATOM      4  C   UNL     1      11.628  -4.853  30.529  1.00  0.00    -0.025 C 
ATOM      5  C   UNL     1      11.169  -5.415  31.659  1.00  0.00     0.020 C 
BRANCH   5   6
ATOM      6  C   UNL     1      11.665  -5.172  33.030  1.00  0.00     0.064 C 
ATOM      7  O   UNL     1      10.900  -4.631  33.867  1.00  0.00    -0.545 OA
ATOM      8  O   UNL     1      12.940  -5.549  33.433  1.00  0.00    -0.545 OA
ENDBRANCH   5   6
ENDBRANCH   3   4
ENDBRANCH   2   3
ENDBRANCH   1   2
BRANCH   1   9
ATOM      9  C   UNL     1       9.881  -1.716  29.210  1.00  0.00     0.000 C 
BRANCH   9  10
ATOM     10  C   UNL     1       8.734  -2.704  28.949  1.00  0.00     0.000 C 
BRANCH  10  11
ATOM     11  C   UNL     1       9.140  -3.843  28.000  1.00  0.00    -0.000 C 
BRANCH  11  12
ATOM     12  C   UNL     1      10.096  -3.374  26.889  1.00  0.00    -0.000 C 
BRANCH  12  13
ATOM     13  C   UNL     1      11.305  -4.309  26.721  1.00  0.00    -0.003 C 
ATOM     14  C   UNL     1      10.951  -5.778  26.950  1.00  0.00     0.004 C 
ENDBRANCH  12  13
ENDBRANCH  11  12
ENDBRANCH  10  11
ENDBRANCH   9  10
ENDBRANCH   1   9
TORSDOF 9
ENDMDL
MODEL 5
REMARK VINA RESULT:    -3.755      3.009      5.921
REMARK INTER + INTRA:          -7.199
REMARK INTER:                  -5.976
REMARK INTRA:                  -1.223
REMARK UNBOUND:                -1.468
REMARK SMILES CCCCCCCCCC=CC(=O)[O-]
REMARK SMILES IDX 7 1 8 2 9 3 10 4 11 5 12 6 13 7 14 8 6 9 5 10 4 11 3 12 2 13
REMARK SMILES IDX 1 14
REMARK H PARENT
REMARK Flexibility Score: inf
ROOT
ATOM      1  C   UNL     1      10.033  -3.331  28.948  1.00  0.00     0.000 C 
ENDROOT
BRANCH   1   2
ATOM      2  C   UNL     1      11.463  -2.826  28.698  1.00  0.00     0.004 C 
BRANCH   2   3
ATOM      3  C   UNL     1      12.247  -2.641  30.007  1.00  0.00     0.027 C 
BRANCH   3   4
ATOM      4  C   UNL     1      12.955  -3.901  30.434  1.00  0.00    -0.025 C 
ATOM      5  C   UNL     1      12.541  -4.758  31.382  1.00  0.00     0.020 C 
BRANCH   5   6
ATOM      6  C   UNL     1      11.341  -4.618  32.233  1.00  0.00     0.064 C 
ATOM      7  O   UNL     1      10.332  -5.324  31.981  1.00  0.00    -0.545 OA
ATOM      8  O   UNL     1      11.301  -3.755  33.321  1.00  0.00    -0.545 OA
ENDBRANCH   5   6
ENDBRANCH   3   4
ENDBRANCH   2   3
ENDBRANCH   1   2
BRANCH   1   9
ATOM      9  C   UNL     1       9.681  -4.480  27.996  1.00  0.00     0.000 C 
BRANCH   9  10
ATOM     10  C   UNL     1      10.917  -5.343  27.697  1.00  0.00     0.000 C 
BRANCH  10  11
ATOM     11  C   UNL     1      10.918  -5.894  26.262  1.00  0.00    -0.000 C 
BRANCH  11  12
ATOM     12  C   UNL     1      11.570  -4.926  25.258  1.00  0.00    -0.000 C 
BRANCH  12  13
ATOM     13  C   UNL     1      10.536  -4.214  24.371  1.00  0.00    -0.003 C 
ATOM     14  C   UNL     1      10.417  -2.723  24.685  1.00  0.00     0.004 C 
ENDBRANCH  12  13
ENDBRANCH  11  12
ENDBRANCH  10  11
ENDBRANCH   9  10
ENDBRANCH   1   9
TORSDOF 9
ENDMDL
MODEL 6
REMARK VINA RESULT:    -3.752      2.917      5.465
REMARK INTER + INTRA:          -7.194
REMARK INTER:                  -5.703
REMARK INTRA:                  -1.491
REMARK UNBOUND:                -1.468
REMARK SMILES CCCCCCCCCC=CC(=O)[O-]
REMARK SMILES IDX 7 1 8 2 9 3 10 4 11 5 12 6 13 7 14 8 6 9 5 10 4 11 3 12 2 13
REMARK SMILES IDX 1 14
REMARK H PARENT
REMARK Flexibility Score: inf
ROOT
ATOM      1  C   UNL     1       9.244  -1.475  30.104  1.00  0.00     0.000 C 
ENDROOT
BRANCH   1   2
ATOM      2  C   UNL     1       9.792  -2.588  31.011  1.00  0.00     0.004 C 
BRANCH   2   3
ATOM      3  C   UNL     1      11.230  -2.299  31.474  1.00  0.00     0.027 C 
BRANCH   3   4
ATOM      4  C   UNL     1      12.260  -2.878  30.539  1.00  0.00    -0.025 C 
ATOM      5  C   UNL     1      12.835  -4.087  30.647  1.00  0.00     0.020 C 
BRANCH   5   6
ATOM      6  C   UNL     1      12.618  -5.073  31.725  1.00  0.00     0.064 C 
ATOM      7  O   UNL     1      13.335  -5.016  32.756  1.00  0.00    -0.545 OA
ATOM      8  O   UNL     1      11.627  -6.044  31.652  1.00  0.00    -0.545 OA
ENDBRANCH   5   6
ENDBRANCH   3   4
ENDBRANCH   2   3
ENDBRANCH   1   2
BRANCH   1   9
ATOM      9  C   UNL     1       8.546  -2.064  28.872  1.00  0.00     0.000 C 
BRANCH   9  10
ATOM     10  C   UNL     1       8.696  -3.593  28.835  1.00  0.00     0.000 C 
BRANCH  10  11
ATOM     11  C   UNL     1       9.297  -4.094  27.512  1.00  0.00    -0.000 C 
BRANCH  11  12
ATOM     12  C   UNL     1      10.665  -4.772  27.704  1.00  0.00    -0.000 C 
BRANCH  12  13
ATOM     13  C   UNL     1      11.786  -4.068  26.923  1.00  0.00    -0.003 C 
ATOM     14  C   UNL     1      11.733  -2.546  27.061  1.00  0.00     0.004 C 
ENDBRANCH  12  13
ENDBRANCH  11  12
ENDBRANCH  10  11
ENDBRANCH   9  10
ENDBRANCH   1   9
TORSDOF 9
ENDMDL
MODEL 7
REMARK VINA RESULT:    -3.744      1.692      3.110
REMARK INTER + INTRA:          -7.182
REMARK INTER:                  -5.828
REMARK INTRA:                  -1.354
REMARK UNBOUND:                -1.468
REMARK SMILES CCCCCCCCCC=CC(=O)[O-]
REMARK SMILES IDX 7 1 8 2 9 3 10 4 11 5 12 6 13 7 14 8 6 9 5 10 4 11 3 12 2 13
REMARK SMILES IDX 1 14
REMARK H PARENT
REMARK Flexibility Score: inf
ROOT
ATOM      1  C   UNL     1      11.294  -1.333  29.855  1.00  0.00     0.000 C 
ENDROOT
BRANCH   1   2
ATOM      2  C   UNL     1      12.383  -1.566  28.797  1.00  0.00     0.004 C 
BRANCH   2   3
ATOM      3  C   UNL     1      11.839  -2.304  27.562  1.00  0.00     0.027 C 
BRANCH   3   4
ATOM      4  C   UNL     1      12.020  -3.797  27.660  1.00  0.00    -0.025 C 
ATOM      5  C   UNL     1      11.050  -4.719  27.554  1.00  0.00     0.020 C 
BRANCH   5   6
ATOM      6  C   UNL     1       9.606  -4.462  27.373  1.00  0.00     0.064 C 
ATOM      7  O   UNL     1       8.943  -4.005  28.339  1.00  0.00    -0.545 OA
ATOM      8  O   UNL     1       8.960  -4.681  26.162  1.00  0.00    -0.545 OA
ENDBRANCH   5   6
ENDBRANCH   3   4
ENDBRANCH   2   3
ENDBRANCH   1   2
BRANCH   1   9
ATOM      9  C   UNL     1      11.558  -2.172  31.111  1.00  0.00     0.000 C 
BRANCH   9  10
ATOM     10  C   UNL     1      10.607  -3.376  31.176  1.00  0.00     0.000 C 
BRANCH  10  11
ATOM     11  C   UNL     1      11.356  -4.719  31.181  1.00  0.00    -0.000 C 
BRANCH  11  12
ATOM     12  C   UNL     1      12.881  -4.546  31.289  1.00  0.00    -0.000 C 
BRANCH  12  13
ATOM     13  C   UNL     1      13.476  -5.306  32.485  1.00  0.00    -0.003 C 
ATOM     14  C   UNL     1      12.698  -5.071  33.779  1.00  0.00     0.004 C 
ENDBRANCH  12  13
ENDBRANCH  11  12
ENDBRANCH  10  11
ENDBRANCH   9  10
ENDBRANCH   1   9
TORSDOF 9
ENDMDL
MODEL 8
REMARK VINA RESULT:    -3.738      2.090      3.982
REMARK INTER + INTRA:          -7.173
REMARK INTER:                  -5.681
REMARK INTRA:                  -1.492
REMARK UNBOUND:                -1.468
REMARK SMILES CCCCCCCCCC=CC(=O)[O-]
REMARK SMILES IDX 7 1 8 2 9 3 10 4 11 5 12 6 13 7 14 8 6 9 5 10 4 11 3 12 2 13
REMARK SMILES IDX 1 14
REMARK H PARENT
REMARK Flexibility Score: inf
ROOT
ATOM      1  C   UNL     1       9.801  -2.122  27.694  1.00  0.00     0.000 C 
ENDROOT
BRANCH   1   2
ATOM      2  C   UNL     1       9.229  -3.482  28.121  1.00  0.00     0.004 C 
BRANCH   2   3
ATOM      3  C   UNL     1       9.295  -4.518  26.987  1.00  0.00     0.027 C 
BRANCH   3   4
ATOM      4  C   UNL     1      10.667  -5.123  26.842  1.00  0.00    -0.025 C 
ATOM      5  C   UNL     1      11.435  -5.085  25.742  1.00  0.00     0.020 C 
BRANCH   5   6
ATOM      6  C   UNL     1      11.077  -4.493  24.436  1.00  0.00     0.064 C 
ATOM      7  O   UNL     1      10.957  -3.244  24.347  1.00  0.00    -0.545 OA
ATOM      8  O   UNL     1      10.898  -5.266  23.296  1.00  0.00    -0.545 OA
ENDBRANCH   5   6
ENDBRANCH   3   4
ENDBRANCH   2   3
ENDBRANCH   1   2
BRANCH   1   9
ATOM      9  C   UNL     1      10.825  -1.611  28.715  1.00  0.00     0.000 C 
BRANCH   9  10
ATOM     10  C   UNL     1      12.212  -2.218  28.452  1.00  0.00     0.000 C 
BRANCH  10  11
ATOM     11  C   UNL     1      12.612  -3.257  29.511  1.00  0.00    -0.000 C 
BRANCH  11  12
ATOM     12  C   UNL     1      11.871  -3.057  30.845  1.00  0.00    -0.000 C 
BRANCH  12  13
ATOM     13  C   UNL     1      11.202  -4.347  31.347  1.00  0.00    -0.003 C 
ATOM     14  C   UNL     1      11.444  -5.535  30.417  1.00  0.00     0.004 C 
ENDBRANCH  12  13
ENDBRANCH  11  12
ENDBRANCH  10  11
ENDBRANCH   9  10
ENDBRANCH   1   9
TORSDOF 9
ENDMDL
MODEL 9
REMARK VINA RESULT:    -3.734      3.170      5.057
REMARK INTER + INTRA:          -7.167
REMARK INTER:                  -5.678
REMARK INTRA:                  -1.489
REMARK UNBOUND:                -1.468
REMARK SMILES CCCCCCCCCC=CC(=O)[O-]
REMARK SMILES IDX 7 1 8 2 9 3 10 4 11 5 12 6 13 7 14 8 6 9 5 10 4 11 3 12 2 13
REMARK SMILES IDX 1 14
REMARK H PARENT
REMARK Flexibility Score: inf
ROOT
ATOM      1  C   UNL     1      11.887  -3.672  27.889  1.00  0.00     0.000 C 
ENDROOT
BRANCH   1   2
ATOM      2  C   UNL     1      12.377  -2.688  28.963  1.00  0.00     0.004 C 
BRANCH   2   3
ATOM      3  C   UNL     1      12.427  -3.334  30.358  1.00  0.00     0.027 C 
BRANCH   3   4
ATOM      4  C   UNL     1      11.903  -4.747  30.354  1.00  0.00    -0.025 C 
ATOM      5  C   UNL     1      11.653  -5.499  31.438  1.00  0.00     0.020 C 
BRANCH   5   6
ATOM      6  C   UNL     1      11.886  -5.121  32.847  1.00  0.00     0.064 C 
ATOM      7  O   UNL     1      13.063  -5.127  33.292  1.00  0.00    -0.545 OA
ATOM      8  O   UNL     1      10.854  -4.729  33.690  1.00  0.00    -0.545 OA
ENDBRANCH   5   6
ENDBRANCH   3   4
ENDBRANCH   2   3
ENDBRANCH   1   2
BRANCH   1   9
ATOM      9  C   UNL     1      10.614  -3.154  27.209  1.00  0.00     0.000 C 
BRANCH   9  10
ATOM     10  C   UNL     1       9.383  -3.949  27.672  1.00  0.00     0.000 C 
BRANCH  10  11
ATOM     11  C   UNL     1       8.558  -3.196  28.729  1.00  0.00    -0.000 C 
BRANCH  11  12
ATOM     12  C   UNL     1       8.678  -1.668  28.594  1.00  0.00    -0.000 C 
BRANCH  12  13
ATOM     13  C   UNL     1       9.172  -1.000  29.888  1.00  0.00    -0.003 C 
ATOM     14  C   UNL     1       9.303  -1.987  31.047  1.00  0.00     0.004 C 
ENDBRANCH  12  13
ENDBRANCH  11  12
ENDBRANCH  10  11
ENDBRANCH   9  10
ENDBRANCH   1   9
TORSDOF 9
ENDMDL
