MODEL 1
REMARK VINA RESULT:    -4.946      0.000      0.000
REMARK INTER + INTRA:         -10.157
REMARK INTER:                  -8.995
REMARK INTRA:                  -1.162
REMARK UNBOUND:                -1.162
REMARK SMILES CCCCCCCCCCCCCC[C@@H](C)C(=O)[O-]
REMARK SMILES IDX 9 1 10 2 11 3 12 4 13 5 14 6 15 7 16 8 17 9 18 10 19 11 8 12
REMARK SMILES IDX 7 13 6 14 5 15 4 16 3 17 2 18 1 19
REMARK H PARENT
REMARK Flexibility Score: inf
ROOT
ATOM      1  C   UNL     1      10.873  15.509  23.045  1.00  0.00     0.000 C 
ENDROOT
BRANCH   1   2
ATOM      2  C   UNL     1      11.331  15.148  24.471  1.00  0.00     0.000 C 
BRANCH   2   3
ATOM      3  C   UNL     1      12.376  16.126  25.032  1.00  0.00     0.000 C 
BRANCH   3   4
ATOM      4  C   UNL     1      11.904  17.590  24.992  1.00  0.00     0.000 C 
BRANCH   4   5
ATOM      5  C   UNL     1      13.014  18.608  25.330  1.00  0.00     0.001 C 
BRANCH   5   6
ATOM      6  C   UNL     1      14.096  18.670  24.237  1.00  0.00     0.009 C 
BRANCH   6   7
ATOM      7  C   UNL     1      13.498  18.921  22.837  1.00  0.00     0.032 C 
ATOM      8  C   UNL     1      13.670  20.388  22.431  1.00  0.00     0.014 C 
BRANCH   7   9
ATOM      9  C   UNL     1      14.134  18.030  21.804  1.00  0.00     0.044 C 
ATOM     10  O   UNL     1      13.868  16.799  21.780  1.00  0.00    -0.550 OA
ATOM     11  O   UNL     1      15.016  18.559  20.867  1.00  0.00    -0.550 OA
ENDBRANCH   7   9
ENDBRANCH   6   7
ENDBRANCH   5   6
ENDBRANCH   4   5
ENDBRANCH   3   4
ENDBRANCH   2   3
ENDBRANCH   1   2
BRANCH   1  12
ATOM     12  C   UNL     1       9.837  14.553  22.427  1.00  0.00     0.000 C 
BRANCH  12  13
ATOM     13  C   UNL     1      10.471  13.304  21.796  1.00  0.00    -0.000 C 
BRANCH  13  14
ATOM     14  C   UNL     1       9.636  12.053  22.095  1.00  0.00    -0.000 C 
BRANCH  14  15
ATOM     15  C   UNL     1       8.719  11.709  20.913  1.00  0.00    -0.000 C 
BRANCH  15  16
ATOM     16  C   UNL     1       7.296  12.263  21.088  1.00  0.00    -0.000 C 
BRANCH  16  17
ATOM     17  C   UNL     1       6.856  12.310  22.562  1.00  0.00    -0.000 C 
BRANCH  17  18
ATOM     18  C   UNL     1       6.181  11.007  23.016  1.00  0.00    -0.003 C 
ATOM     19  C   UNL     1       4.792  10.819  22.408  1.00  0.00     0.004 C 
ENDBRANCH  17  18
ENDBRANCH  16  17
ENDBRANCH  15  16
ENDBRANCH  14  15
ENDBRANCH  13  14
ENDBRANCH  12  13
ENDBRANCH   1  12
TORSDOF 14
ENDMDL
MODEL 2
REMARK VINA RESULT:    -4.869      1.417      2.143
REMARK INTER + INTRA:         -10.017
REMARK INTER:                  -8.200
REMARK INTRA:                  -1.817
REMARK UNBOUND:                -1.162
REMARK SMILES CCCCCCCCCCCCCC[C@@H](C)C(=O)[O-]
REMARK SMILES IDX 9 1 10 2 11 3 12 4 13 5 14 6 15 7 16 8 17 9 18 10 19 11 8 12
REMARK SMILES IDX 7 13 6 14 5 15 4 16 3 17 2 18 1 19
REMARK H PARENT
REMARK Flexibility Score: inf
ROOT
ATOM      1  C   UNL     1      13.040  14.687  24.107  1.00  0.00     0.000 C 
ENDROOT
BRANCH   1   2
ATOM      2  C   UNL     1      12.144  15.534  25.030  1.00  0.00     0.000 C 
BRANCH   2   3
ATOM      3  C   UNL     1      12.877  16.742  25.634  1.00  0.00     0.000 C 
BRANCH   3   4
ATOM      4  C   UNL     1      12.459  18.075  24.990  1.00  0.00     0.000 C 
BRANCH   4   5
ATOM      5  C   UNL     1      11.299  17.939  23.980  1.00  0.00     0.001 C 
BRANCH   5   6
ATOM      6  C   UNL     1      11.768  18.139  22.528  1.00  0.00     0.009 C 
BRANCH   6   7
ATOM      7  C   UNL     1      13.289  18.380  22.433  1.00  0.00     0.032 C 
ATOM      8  C   UNL     1      13.948  17.326  21.537  1.00  0.00     0.014 C 
BRANCH   7   9
ATOM      9  C   UNL     1      13.592  19.756  21.905  1.00  0.00     0.044 C 
ATOM     10  O   UNL     1      14.176  19.894  20.797  1.00  0.00    -0.550 OA
ATOM     11  O   UNL     1      13.229  20.884  22.633  1.00  0.00    -0.550 OA
ENDBRANCH   7   9
ENDBRANCH   6   7
ENDBRANCH   5   6
ENDBRANCH   4   5
ENDBRANCH   3   4
ENDBRANCH   2   3
ENDBRANCH   1   2
BRANCH   1  12
ATOM     12  C   UNL     1      12.363  14.179  22.820  1.00  0.00     0.000 C 
BRANCH  12  13
ATOM     13  C   UNL     1      10.907  13.741  23.039  1.00  0.00    -0.000 C 
BRANCH  13  14
ATOM     14  C   UNL     1       9.937  14.665  22.293  1.00  0.00    -0.000 C 
BRANCH  14  15
ATOM     15  C   UNL     1       8.537  14.040  22.211  1.00  0.00    -0.000 C 
BRANCH  15  16
ATOM     16  C   UNL     1       8.562  12.601  21.671  1.00  0.00    -0.000 C 
BRANCH  16  17
ATOM     17  C   UNL     1       7.849  11.606  22.604  1.00  0.00    -0.000 C 
BRANCH  17  18
ATOM     18  C   UNL     1       6.440  12.076  22.999  1.00  0.00    -0.003 C 
ATOM     19  C   UNL     1       5.356  11.066  22.625  1.00  0.00     0.004 C 
ENDBRANCH  17  18
ENDBRANCH  16  17
ENDBRANCH  15  16
ENDBRANCH  14  15
ENDBRANCH  13  14
ENDBRANCH  12  13
ENDBRANCH   1  12
TORSDOF 14
ENDMDL
MODEL 3
REMARK VINA RESULT:    -4.792      1.282      2.598
REMARK INTER + INTRA:          -9.876
REMARK INTER:                  -8.179
REMARK INTRA:                  -1.698
REMARK UNBOUND:                -1.162
REMARK SMILES CCCCCCCCCCCCCC[C@@H](C)C(=O)[O-]
REMARK SMILES IDX 9 1 10 2 11 3 12 4 13 5 14 6 15 7 16 8 17 9 18 10 19 11 8 12
REMARK SMILES IDX 7 13 6 14 5 15 4 16 3 17 2 18 1 19
REMARK H PARENT
REMARK Flexibility Score: inf
ROOT
ATOM      1  C   UNL     1      13.081  16.017  24.956  1.00  0.00     0.000 C 
ENDROOT
BRANCH   1   2
ATOM      2  C   UNL     1      12.461  17.347  25.426  1.00  0.00     0.000 C 
BRANCH   2   3
ATOM      3  C   UNL     1      13.287  18.574  25.011  1.00  0.00     0.000 C 
BRANCH   3   4
ATOM      4  C   UNL     1      14.439  18.221  24.054  1.00  0.00     0.000 C 
BRANCH   4   5
ATOM      5  C   UNL     1      14.927  19.415  23.205  1.00  0.00     0.001 C 
BRANCH   5   6
ATOM      6  C   UNL     1      14.055  19.632  21.955  1.00  0.00     0.009 C 
BRANCH   6   7
ATOM      7  C   UNL     1      13.477  18.311  21.410  1.00  0.00     0.032 C 
ATOM      8  C   UNL     1      11.959  18.419  21.231  1.00  0.00     0.014 C 
BRANCH   7   9
ATOM      9  C   UNL     1      14.116  17.933  20.100  1.00  0.00     0.044 C 
ATOM     10  O   UNL     1      13.425  17.893  19.048  1.00  0.00    -0.550 OA
ATOM     11  O   UNL     1      15.472  17.630  20.042  1.00  0.00    -0.550 OA
ENDBRANCH   7   9
ENDBRANCH   6   7
ENDBRANCH   5   6
ENDBRANCH   4   5
ENDBRANCH   3   4
ENDBRANCH   2   3
ENDBRANCH   1   2
BRANCH   1  12
ATOM     12  C   UNL     1      12.192  15.169  24.028  1.00  0.00     0.000 C 
BRANCH  12  13
ATOM     13  C   UNL     1      10.862  15.854  23.680  1.00  0.00    -0.000 C 
BRANCH  13  14
ATOM     14  C   UNL     1      10.302  15.326  22.353  1.00  0.00    -0.000 C 
BRANCH  14  15
ATOM     15  C   UNL     1      10.483  13.805  22.246  1.00  0.00    -0.000 C 
BRANCH  15  16
ATOM     16  C   UNL     1       9.145  13.057  22.139  1.00  0.00    -0.000 C 
BRANCH  16  17
ATOM     17  C   UNL     1       7.933  13.974  22.375  1.00  0.00    -0.000 C 
BRANCH  17  18
ATOM     18  C   UNL     1       6.782  13.254  23.095  1.00  0.00    -0.003 C 
ATOM     19  C   UNL     1       6.782  11.747  22.847  1.00  0.00     0.004 C 
ENDBRANCH  17  18
ENDBRANCH  16  17
ENDBRANCH  15  16
ENDBRANCH  14  15
ENDBRANCH  13  14
ENDBRANCH  12  13
ENDBRANCH   1  12
TORSDOF 14
ENDMDL
MODEL 4
REMARK VINA RESULT:    -4.786      1.556      2.239
REMARK INTER + INTRA:          -9.866
REMARK INTER:                  -8.444
REMARK INTRA:                  -1.422
REMARK UNBOUND:                -1.162
REMARK SMILES CCCCCCCCCCCCCC[C@@H](C)C(=O)[O-]
REMARK SMILES IDX 9 1 10 2 11 3 12 4 13 5 14 6 15 7 16 8 17 9 18 10 19 11 8 12
REMARK SMILES IDX 7 13 6 14 5 15 4 16 3 17 2 18 1 19
REMARK H PARENT
REMARK Flexibility Score: inf
ROOT
ATOM      1  C   UNL     1      11.291  14.211  22.075  1.00  0.00     0.000 C 
ENDROOT
BRANCH   1   2
ATOM      2  C   UNL     1      11.062  15.346  23.091  1.00  0.00     0.000 C 
BRANCH   2   3
ATOM      3  C   UNL     1      11.407  14.940  24.533  1.00  0.00     0.000 C 
BRANCH   3   4
ATOM      4  C   UNL     1      12.781  15.462  24.986  1.00  0.00     0.000 C 
BRANCH   4   5
ATOM      5  C   UNL     1      13.150  16.836  24.386  1.00  0.00     0.001 C 
BRANCH   5   6
ATOM      6  C   UNL     1      12.501  17.999  25.159  1.00  0.00     0.009 C 
BRANCH   6   7
ATOM      7  C   UNL     1      11.398  18.700  24.340  1.00  0.00     0.032 C 
ATOM      8  C   UNL     1      10.581  19.642  25.230  1.00  0.00     0.014 C 
BRANCH   7   9
ATOM      9  C   UNL     1      11.981  19.471  23.186  1.00  0.00     0.044 C 
ATOM     10  O   UNL     1      12.462  20.621  23.373  1.00  0.00    -0.550 OA
ATOM     11  O   UNL     1      11.996  18.922  21.909  1.00  0.00    -0.550 OA
ENDBRANCH   7   9
ENDBRANCH   6   7
ENDBRANCH   5   6
ENDBRANCH   4   5
ENDBRANCH   3   4
ENDBRANCH   2   3
ENDBRANCH   1   2
BRANCH   1  12
ATOM     12  C   UNL     1      11.416  12.801  22.682  1.00  0.00     0.000 C 
BRANCH  12  13
ATOM     13  C   UNL     1      10.107  12.001  22.618  1.00  0.00    -0.000 C 
BRANCH  13  14
ATOM     14  C   UNL     1       9.619  11.859  21.171  1.00  0.00    -0.000 C 
BRANCH  14  15
ATOM     15  C   UNL     1       8.106  12.100  21.075  1.00  0.00    -0.000 C 
BRANCH  15  16
ATOM     16  C   UNL     1       7.613  13.166  22.066  1.00  0.00    -0.000 C 
BRANCH  16  17
ATOM     17  C   UNL     1       6.608  12.605  23.087  1.00  0.00    -0.000 C 
BRANCH  17  18
ATOM     18  C   UNL     1       6.308  11.115  22.860  1.00  0.00    -0.003 C 
ATOM     19  C   UNL     1       4.872  10.865  22.404  1.00  0.00     0.004 C 
ENDBRANCH  17  18
ENDBRANCH  16  17
ENDBRANCH  15  16
ENDBRANCH  14  15
ENDBRANCH  13  14
ENDBRANCH  12  13
ENDBRANCH   1  12
TORSDOF 14
ENDMDL
MODEL 5
REMARK VINA RESULT:    -4.730      1.655      2.943
REMARK INTER + INTRA:          -9.764
REMARK INTER:                  -8.300
REMARK INTRA:                  -1.464
REMARK UNBOUND:                -1.162
REMARK SMILES CCCCCCCCCCCCCC[C@@H](C)C(=O)[O-]
REMARK SMILES IDX 9 1 10 2 11 3 12 4 13 5 14 6 15 7 16 8 17 9 18 10 19 11 8 12
REMARK SMILES IDX 7 13 6 14 5 15 4 16 3 17 2 18 1 19
REMARK H PARENT
REMARK Flexibility Score: inf
ROOT
ATOM      1  C   UNL     1       9.900  14.972  22.256  1.00  0.00     0.000 C 
ENDROOT
BRANCH   1   2
ATOM      2  C   UNL     1      11.422  14.841  22.451  1.00  0.00     0.000 C 
BRANCH   2   3
ATOM      3  C   UNL     1      11.804  14.264  23.824  1.00  0.00     0.000 C 
BRANCH   3   4
ATOM      4  C   UNL     1      11.679  15.295  24.959  1.00  0.00     0.000 C 
BRANCH   4   5
ATOM      5  C   UNL     1      12.909  16.217  25.097  1.00  0.00     0.001 C 
BRANCH   5   6
ATOM      6  C   UNL     1      12.526  17.626  25.584  1.00  0.00     0.009 C 
BRANCH   6   7
ATOM      7  C   UNL     1      13.153  18.735  24.713  1.00  0.00     0.032 C 
ATOM      8  C   UNL     1      14.436  18.234  24.042  1.00  0.00     0.014 C 
BRANCH   7   9
ATOM      9  C   UNL     1      12.187  19.218  23.665  1.00  0.00     0.044 C 
ATOM     10  O   UNL     1      11.891  18.479  22.689  1.00  0.00    -0.550 OA
ATOM     11  O   UNL     1      11.613  20.480  23.767  1.00  0.00    -0.550 OA
ENDBRANCH   7   9
ENDBRANCH   6   7
ENDBRANCH   5   6
ENDBRANCH   4   5
ENDBRANCH   3   4
ENDBRANCH   2   3
ENDBRANCH   1   2
BRANCH   1  12
ATOM     12  C   UNL     1       9.077  13.733  22.656  1.00  0.00     0.000 C 
BRANCH  12  13
ATOM     13  C   UNL     1       7.586  13.864  22.309  1.00  0.00    -0.000 C 
BRANCH  13  14
ATOM     14  C   UNL     1       6.767  12.753  22.978  1.00  0.00    -0.000 C 
BRANCH  14  15
ATOM     15  C   UNL     1       6.472  11.616  21.990  1.00  0.00    -0.000 C 
BRANCH  15  16
ATOM     16  C   UNL     1       7.343  10.375  22.240  1.00  0.00    -0.000 C 
BRANCH  16  17
ATOM     17  C   UNL     1       8.555  10.302  21.295  1.00  0.00    -0.000 C 
BRANCH  17  18
ATOM     18  C   UNL     1       8.319  11.053  19.976  1.00  0.00    -0.003 C 
ATOM     19  C   UNL     1       9.563  11.793  19.487  1.00  0.00     0.004 C 
ENDBRANCH  17  18
ENDBRANCH  16  17
ENDBRANCH  15  16
ENDBRANCH  14  15
ENDBRANCH  13  14
ENDBRANCH  12  13
ENDBRANCH   1  12
TORSDOF 14
ENDMDL
MODEL 6
REMARK VINA RESULT:    -4.716      1.612      2.424
REMARK INTER + INTRA:          -9.738
REMARK INTER:                  -8.310
REMARK INTRA:                  -1.428
REMARK UNBOUND:                -1.162
REMARK SMILES CCCCCCCCCCCCCC[C@@H](C)C(=O)[O-]
REMARK SMILES IDX 9 1 10 2 11 3 12 4 13 5 14 6 15 7 16 8 17 9 18 10 19 11 8 12
REMARK SMILES IDX 7 13 6 14 5 15 4 16 3 17 2 18 1 19
REMARK H PARENT
REMARK Flexibility Score: inf
ROOT
ATOM      1  C   UNL     1      11.451  12.909  22.911  1.00  0.00     0.000 C 
ENDROOT
BRANCH   1   2
ATOM      2  C   UNL     1      10.987  14.377  22.965  1.00  0.00     0.000 C 
BRANCH   2   3
ATOM      3  C   UNL     1      11.213  15.028  24.338  1.00  0.00     0.000 C 
BRANCH   3   4
ATOM      4  C   UNL     1      12.638  15.581  24.508  1.00  0.00     0.000 C 
BRANCH   4   5
ATOM      5  C   UNL     1      12.770  16.615  25.647  1.00  0.00     0.001 C 
BRANCH   5   6
ATOM      6  C   UNL     1      12.963  18.046  25.113  1.00  0.00     0.009 C 
BRANCH   6   7
ATOM      7  C   UNL     1      11.779  18.507  24.239  1.00  0.00     0.032 C 
ATOM      8  C   UNL     1      10.878  19.472  25.016  1.00  0.00     0.014 C 
BRANCH   7   9
ATOM      9  C   UNL     1      12.258  19.168  22.974  1.00  0.00     0.044 C 
ATOM     10  O   UNL     1      11.628  19.001  21.896  1.00  0.00    -0.550 OA
ATOM     11  O   UNL     1      13.396  19.967  22.986  1.00  0.00    -0.550 OA
ENDBRANCH   7   9
ENDBRANCH   6   7
ENDBRANCH   5   6
ENDBRANCH   4   5
ENDBRANCH   3   4
ENDBRANCH   2   3
ENDBRANCH   1   2
BRANCH   1  12
ATOM     12  C   UNL     1      10.553  11.965  22.091  1.00  0.00     0.000 C 
BRANCH  12  13
ATOM     13  C   UNL     1      10.317  12.457  20.655  1.00  0.00    -0.000 C 
BRANCH  13  14
ATOM     14  C   UNL     1       9.108  11.756  20.024  1.00  0.00    -0.000 C 
BRANCH  14  15
ATOM     15  C   UNL     1       8.284  11.017  21.089  1.00  0.00    -0.000 C 
BRANCH  15  16
ATOM     16  C   UNL     1       6.965  11.733  21.417  1.00  0.00    -0.000 C 
BRANCH  16  17
ATOM     17  C   UNL     1       6.782  11.975  22.926  1.00  0.00    -0.000 C 
BRANCH  17  18
ATOM     18  C   UNL     1       6.793  13.469  23.287  1.00  0.00    -0.003 C 
ATOM     19  C   UNL     1       7.485  14.327  22.229  1.00  0.00     0.004 C 
ENDBRANCH  17  18
ENDBRANCH  16  17
ENDBRANCH  15  16
ENDBRANCH  14  15
ENDBRANCH  13  14
ENDBRANCH  12  13
ENDBRANCH   1  12
TORSDOF 14
ENDMDL
MODEL 7
REMARK VINA RESULT:    -4.674      1.334      2.193
REMARK INTER + INTRA:          -9.662
REMARK INTER:                  -7.959
REMARK INTRA:                  -1.703
REMARK UNBOUND:                -1.162
REMARK SMILES CCCCCCCCCCCCCC[C@@H](C)C(=O)[O-]
REMARK SMILES IDX 9 1 10 2 11 3 12 4 13 5 14 6 15 7 16 8 17 9 18 10 19 11 8 12
REMARK SMILES IDX 7 13 6 14 5 15 4 16 3 17 2 18 1 19
REMARK H PARENT
REMARK Flexibility Score: inf
ROOT
ATOM      1  C   UNL     1      12.882  15.894  24.849  1.00  0.00     0.000 C 
ENDROOT
BRANCH   1   2
ATOM      2  C   UNL     1      12.331  17.238  25.363  1.00  0.00     0.000 C 
BRANCH   2   3
ATOM      3  C   UNL     1      11.122  17.738  24.557  1.00  0.00     0.000 C 
BRANCH   3   4
ATOM      4  C   UNL     1      10.968  19.268  24.601  1.00  0.00     0.000 C 
BRANCH   4   5
ATOM      5  C   UNL     1      12.215  20.032  24.105  1.00  0.00     0.001 C 
BRANCH   5   6
ATOM      6  C   UNL     1      12.315  20.042  22.569  1.00  0.00     0.009 C 
BRANCH   6   7
ATOM      7  C   UNL     1      13.572  19.306  22.062  1.00  0.00     0.032 C 
ATOM      8  C   UNL     1      14.651  19.268  23.148  1.00  0.00     0.014 C 
BRANCH   7   9
ATOM      9  C   UNL     1      13.244  17.905  21.622  1.00  0.00     0.044 C 
ATOM     10  O   UNL     1      14.135  17.014  21.633  1.00  0.00    -0.550 OA
ATOM     11  O   UNL     1      11.958  17.581  21.204  1.00  0.00    -0.550 OA
ENDBRANCH   7   9
ENDBRANCH   6   7
ENDBRANCH   5   6
ENDBRANCH   4   5
ENDBRANCH   3   4
ENDBRANCH   2   3
ENDBRANCH   1   2
BRANCH   1  12
ATOM     12  C   UNL     1      11.829  14.930  24.273  1.00  0.00     0.000 C 
BRANCH  12  13
ATOM     13  C   UNL     1      12.230  14.348  22.909  1.00  0.00    -0.000 C 
BRANCH  13  14
ATOM     14  C   UNL     1      11.033  13.676  22.224  1.00  0.00    -0.000 C 
BRANCH  14  15
ATOM     15  C   UNL     1       9.716  14.347  22.637  1.00  0.00    -0.000 C 
BRANCH  15  16
ATOM     16  C   UNL     1       8.482  13.616  22.084  1.00  0.00    -0.000 C 
BRANCH  16  17
ATOM     17  C   UNL     1       7.264  13.721  23.018  1.00  0.00    -0.000 C 
BRANCH  17  18
ATOM     18  C   UNL     1       6.455  12.416  23.079  1.00  0.00    -0.003 C 
ATOM     19  C   UNL     1       7.088  11.291  22.261  1.00  0.00     0.004 C 
ENDBRANCH  17  18
ENDBRANCH  16  17
ENDBRANCH  15  16
ENDBRANCH  14  15
ENDBRANCH  13  14
ENDBRANCH  12  13
ENDBRANCH   1  12
TORSDOF 14
ENDMDL
MODEL 8
REMARK VINA RESULT:    -4.674      3.239      8.084
REMARK INTER + INTRA:          -9.662
REMARK INTER:                  -8.011
REMARK INTRA:                  -1.650
REMARK UNBOUND:                -1.162
REMARK SMILES CCCCCCCCCCCCCC[C@@H](C)C(=O)[O-]
REMARK SMILES IDX 9 1 10 2 11 3 12 4 13 5 14 6 15 7 16 8 17 9 18 10 19 11 8 12
REMARK SMILES IDX 7 13 6 14 5 15 4 16 3 17 2 18 1 19
REMARK H PARENT
REMARK Flexibility Score: inf
ROOT
ATOM      1  C   UNL     1      12.161  16.066  24.889  1.00  0.00     0.000 C 
ENDROOT
BRANCH   1   2
ATOM      2  C   UNL     1      13.115  15.232  24.013  1.00  0.00     0.000 C 
BRANCH   2   3
ATOM      3  C   UNL     1      12.390  14.474  22.890  1.00  0.00     0.000 C 
BRANCH   3   4
ATOM      4  C   UNL     1      10.891  14.811  22.814  1.00  0.00     0.000 C 
BRANCH   4   5
ATOM      5  C   UNL     1       9.998  13.595  22.488  1.00  0.00     0.001 C 
BRANCH   5   6
ATOM      6  C   UNL     1       8.629  14.016  21.922  1.00  0.00     0.009 C 
BRANCH   6   7
ATOM      7  C   UNL     1       7.690  12.811  21.709  1.00  0.00     0.032 C 
ATOM      8  C   UNL     1       8.499  11.523  21.519  1.00  0.00     0.014 C 
BRANCH   7   9
ATOM      9  C   UNL     1       6.740  12.648  22.865  1.00  0.00     0.044 C 
ATOM     10  O   UNL     1       6.549  13.601  23.666  1.00  0.00    -0.550 OA
ATOM     11  O   UNL     1       6.064  11.448  23.056  1.00  0.00    -0.550 OA
ENDBRANCH   7   9
ENDBRANCH   6   7
ENDBRANCH   5   6
ENDBRANCH   4   5
ENDBRANCH   3   4
ENDBRANCH   2   3
ENDBRANCH   1   2
BRANCH   1  12
ATOM     12  C   UNL     1      12.847  16.999  25.904  1.00  0.00     0.000 C 
BRANCH  12  13
ATOM     13  C   UNL     1      12.206  18.393  25.967  1.00  0.00    -0.000 C 
BRANCH  13  14
ATOM     14  C   UNL     1      11.307  18.642  24.749  1.00  0.00    -0.000 C 
BRANCH  14  15
ATOM     15  C   UNL     1      11.707  19.936  24.026  1.00  0.00    -0.000 C 
BRANCH  15  16
ATOM     16  C   UNL     1      12.772  19.703  22.943  1.00  0.00    -0.000 C 
BRANCH  16  17
ATOM     17  C   UNL     1      12.509  18.431  22.117  1.00  0.00    -0.000 C 
BRANCH  17  18
ATOM     18  C   UNL     1      13.789  17.865  21.483  1.00  0.00    -0.003 C 
ATOM     19  C   UNL     1      14.827  18.946  21.186  1.00  0.00     0.004 C 
ENDBRANCH  17  18
ENDBRANCH  16  17
ENDBRANCH  15  16
ENDBRANCH  14  15
ENDBRANCH  13  14
ENDBRANCH  12  13
ENDBRANCH   1  12
TORSDOF 14
ENDMDL
MODEL 9
REMARK VINA RESULT:    -4.653      3.512      8.327
REMARK INTER + INTRA:          -9.624
REMARK INTER:                  -8.125
REMARK INTRA:                  -1.500
REMARK UNBOUND:                -1.162
REMARK SMILES CCCCCCCCCCCCCC[C@@H](C)C(=O)[O-]
REMARK SMILES IDX 9 1 10 2 11 3 12 4 13 5 14 6 15 7 16 8 17 9 18 10 19 11 8 12
REMARK SMILES IDX 7 13 6 14 5 15 4 16 3 17 2 18 1 19
REMARK H PARENT
REMARK Flexibility Score: inf
ROOT
ATOM      1  C   UNL     1      11.084  17.335  21.940  1.00  0.00     0.000 C 
ENDROOT
BRANCH   1   2
ATOM      2  C   UNL     1      12.024  16.158  22.261  1.00  0.00     0.000 C 
BRANCH   2   3
ATOM      3  C   UNL     1      11.273  14.898  22.720  1.00  0.00     0.000 C 
BRANCH   3   4
ATOM      4  C   UNL     1       9.782  14.921  22.341  1.00  0.00     0.000 C 
BRANCH   4   5
ATOM      5  C   UNL     1       9.217  13.534  21.966  1.00  0.00     0.001 C 
BRANCH   5   6
ATOM      6  C   UNL     1       7.727  13.398  22.330  1.00  0.00     0.009 C 
BRANCH   6   7
ATOM      7  C   UNL     1       7.062  12.198  21.625  1.00  0.00     0.032 C 
ATOM      8  C   UNL     1       7.999  11.605  20.568  1.00  0.00     0.014 C 
BRANCH   7   9
ATOM      9  C   UNL     1       6.671  11.132  22.613  1.00  0.00     0.044 C 
ATOM     10  O   UNL     1       5.456  10.923  22.871  1.00  0.00    -0.550 OA
ATOM     11  O   UNL     1       7.646  10.368  23.245  1.00  0.00    -0.550 OA
ENDBRANCH   7   9
ENDBRANCH   6   7
ENDBRANCH   5   6
ENDBRANCH   4   5
ENDBRANCH   3   4
ENDBRANCH   2   3
ENDBRANCH   1   2
BRANCH   1  12
ATOM     12  C   UNL     1      11.680  18.423  21.029  1.00  0.00     0.000 C 
BRANCH  12  13
ATOM     13  C   UNL     1      12.420  19.521  21.808  1.00  0.00    -0.000 C 
BRANCH  13  14
ATOM     14  C   UNL     1      13.939  19.355  21.686  1.00  0.00    -0.000 C 
BRANCH  14  15
ATOM     15  C   UNL     1      14.506  18.578  22.883  1.00  0.00    -0.000 C 
BRANCH  15  16
ATOM     16  C   UNL     1      13.950  19.076  24.227  1.00  0.00    -0.000 C 
BRANCH  16  17
ATOM     17  C   UNL     1      13.266  17.959  25.034  1.00  0.00    -0.000 C 
BRANCH  17  18
ATOM     18  C   UNL     1      12.154  18.493  25.951  1.00  0.00    -0.003 C 
ATOM     19  C   UNL     1      11.080  19.265  25.187  1.00  0.00     0.004 C 
ENDBRANCH  17  18
ENDBRANCH  16  17
ENDBRANCH  15  16
ENDBRANCH  14  15
ENDBRANCH  13  14
ENDBRANCH  12  13
ENDBRANCH   1  12
TORSDOF 14
ENDMDL
