MODEL 1
REMARK VINA RESULT:    -7.817      0.000      0.000
REMARK INTER + INTRA:          -9.434
REMARK INTER:                  -9.188
REMARK INTRA:                  -0.246
REMARK UNBOUND:                -0.246
REMARK SMILES O=c1c(O)c(-c2ccc(O)cc2)oc2cc(O)cc(O)c12
REMARK SMILES IDX 5 1 3 2 2 3 1 4 21 5 19 6 18 7 16 8 15 9 14 10 13 11 6 12
REMARK SMILES IDX 7 13 8 14 9 15 12 16 11 17 10 18 4 20 20 22 17 24
REMARK H PARENT 10 19 4 21 20 23 17 25
REMARK Flexibility Score: inf
ROOT
ATOM      1  C   UNL     1       4.932  -6.985   6.818  1.00  0.00     0.180 A 
ATOM      2  C   UNL     1       5.093  -6.604   8.161  1.00  0.00     0.208 A 
ATOM      3  C   UNL     1       6.381  -6.610   8.721  1.00  0.00     0.238 A 
ATOM      4  O   UNL     1       6.526  -6.216   9.908  1.00  0.00    -0.285 OA
ATOM      5  C   UNL     1       7.489  -7.011   7.936  1.00  0.00     0.111 A 
ATOM      6  C   UNL     1       8.831  -7.093   8.411  1.00  0.00     0.134 A 
ATOM      7  C   UNL     1       9.866  -7.377   7.512  1.00  0.00     0.093 A 
ATOM      8  C   UNL     1       9.599  -7.645   6.167  1.00  0.00     0.123 A 
ATOM      9  C   UNL     1       8.285  -7.625   5.707  1.00  0.00     0.094 A 
ATOM     10  C   UNL     1       7.234  -7.311   6.572  1.00  0.00     0.146 A 
ATOM     11  O   UNL     1       5.999  -7.293   6.089  1.00  0.00    -0.452 OA
ENDROOT
BRANCH   1  12
ATOM     12  C   UNL     1       3.603  -7.028   6.164  1.00  0.00     0.021 A 
ATOM     13  C   UNL     1       3.268  -6.050   5.214  1.00  0.00     0.016 A 
ATOM     14  C   UNL     1       2.028  -6.086   4.568  1.00  0.00     0.047 A 
ATOM     15  C   UNL     1       1.114  -7.109   4.855  1.00  0.00     0.115 A 
ATOM     16  C   UNL     1       2.688  -8.064   6.433  1.00  0.00     0.016 A 
ATOM     17  C   UNL     1       1.449  -8.097   5.786  1.00  0.00     0.047 A 
BRANCH  15  18
ATOM     18  O   UNL     1      -0.125  -7.154   4.220  1.00  0.00    -0.508 OA
ATOM     19  H   UNL     1      -0.420  -7.968   3.692  1.00  0.00     0.293 HD
ENDBRANCH  15  18
ENDBRANCH   1  12
BRANCH   2  20
ATOM     20  O   UNL     1       3.989  -6.191   8.912  1.00  0.00    -0.502 OA
ATOM     21  H   UNL     1       3.279  -5.572   8.539  1.00  0.00     0.293 HD
ENDBRANCH   2  20
BRANCH   6  22
ATOM     22  O   UNL     1       9.195  -6.934   9.752  1.00  0.00    -0.507 OA
ATOM     23  H   UNL     1       8.971  -7.584  10.489  1.00  0.00     0.293 HD
ENDBRANCH   6  22
BRANCH   8  24
ATOM     24  O   UNL     1      10.633  -7.941   5.283  1.00  0.00    -0.508 OA
ATOM     25  H   UNL     1      10.793  -8.884   4.949  1.00  0.00     0.293 HD
ENDBRANCH   8  24
TORSDOF 5
ENDMDL
MODEL 2
REMARK VINA RESULT:    -7.598      8.344     12.828
REMARK INTER + INTRA:          -9.177
REMARK INTER:                  -8.881
REMARK INTRA:                  -0.296
REMARK UNBOUND:                -0.246
REMARK SMILES O=c1c(O)c(-c2ccc(O)cc2)oc2cc(O)cc(O)c12
REMARK SMILES IDX 5 1 3 2 2 3 1 4 21 5 19 6 18 7 16 8 15 9 14 10 13 11 6 12
REMARK SMILES IDX 7 13 8 14 9 15 12 16 11 17 10 18 4 20 20 22 17 24
REMARK H PARENT 10 19 4 21 20 23 17 25
REMARK Flexibility Score: inf
ROOT
ATOM      1  C   UNL     1      12.410  -4.027  15.234  1.00  0.00     0.180 A 
ATOM      2  C   UNL     1      12.375  -4.895  14.130  1.00  0.00     0.208 A 
ATOM      3  C   UNL     1      11.179  -5.029  13.406  1.00  0.00     0.238 A 
ATOM      4  O   UNL     1      11.169  -5.766  12.386  1.00  0.00    -0.285 OA
ATOM      5  C   UNL     1      10.029  -4.304  13.805  1.00  0.00     0.111 A 
ATOM      6  C   UNL     1       8.755  -4.394  13.169  1.00  0.00     0.134 A 
ATOM      7  C   UNL     1       7.724  -3.534  13.567  1.00  0.00     0.093 A 
ATOM      8  C   UNL     1       7.902  -2.634  14.620  1.00  0.00     0.123 A 
ATOM      9  C   UNL     1       9.123  -2.582  15.285  1.00  0.00     0.094 A 
ATOM     10  C   UNL     1      10.183  -3.401  14.889  1.00  0.00     0.146 A 
ATOM     11  O   UNL     1      11.334  -3.311  15.543  1.00  0.00    -0.452 OA
ENDROOT
BRANCH   1  12
ATOM     12  C   UNL     1      13.626  -3.852  16.062  1.00  0.00     0.021 A 
ATOM     13  C   UNL     1      14.535  -2.828  15.747  1.00  0.00     0.016 A 
ATOM     14  C   UNL     1      15.678  -2.631  16.529  1.00  0.00     0.047 A 
ATOM     15  C   UNL     1      15.918  -3.446  17.643  1.00  0.00     0.115 A 
ATOM     16  C   UNL     1      13.863  -4.653  17.193  1.00  0.00     0.016 A 
ATOM     17  C   UNL     1      15.007  -4.454  17.973  1.00  0.00     0.047 A 
BRANCH  15  18
ATOM     18  O   UNL     1      17.053  -3.260  18.429  1.00  0.00    -0.508 OA
ATOM     19  H   UNL     1      17.016  -2.738  19.297  1.00  0.00     0.293 HD
ENDBRANCH  15  18
ENDBRANCH   1  12
BRANCH   2  20
ATOM     20  O   UNL     1      13.527  -5.584  13.741  1.00  0.00    -0.502 OA
ATOM     21  H   UNL     1      13.708  -5.839  12.777  1.00  0.00     0.293 HD
ENDBRANCH   2  20
BRANCH   6  22
ATOM     22  O   UNL     1       8.444  -5.321  12.169  1.00  0.00    -0.507 OA
ATOM     23  H   UNL     1       8.365  -6.316  12.314  1.00  0.00     0.293 HD
ENDBRANCH   6  22
BRANCH   8  24
ATOM     24  O   UNL     1       6.865  -1.793  15.019  1.00  0.00    -0.508 OA
ATOM     25  H   UNL     1       6.057  -1.632  14.430  1.00  0.00     0.293 HD
ENDBRANCH   8  24
TORSDOF 5
ENDMDL
MODEL 3
REMARK VINA RESULT:    -7.463      8.810     11.153
REMARK INTER + INTRA:          -9.018
REMARK INTER:                  -8.732
REMARK INTRA:                  -0.286
REMARK UNBOUND:                -0.246
REMARK SMILES O=c1c(O)c(-c2ccc(O)cc2)oc2cc(O)cc(O)c12
REMARK SMILES IDX 5 1 3 2 2 3 1 4 21 5 19 6 18 7 16 8 15 9 14 10 13 11 6 12
REMARK SMILES IDX 7 13 8 14 9 15 12 16 11 17 10 18 4 20 20 22 17 24
REMARK H PARENT 10 19 4 21 20 23 17 25
REMARK Flexibility Score: inf
ROOT
ATOM      1  C   UNL     1      11.812  -4.276  13.864  1.00  0.00     0.180 A 
ATOM      2  C   UNL     1      11.627  -4.946  12.643  1.00  0.00     0.208 A 
ATOM      3  C   UNL     1      11.873  -4.257  11.444  1.00  0.00     0.238 A 
ATOM      4  O   UNL     1      11.758  -4.878  10.355  1.00  0.00    -0.285 OA
ATOM      5  C   UNL     1      12.286  -2.903  11.481  1.00  0.00     0.111 A 
ATOM      6  C   UNL     1      12.524  -2.097  10.329  1.00  0.00     0.134 A 
ATOM      7  C   UNL     1      13.055  -0.811  10.483  1.00  0.00     0.093 A 
ATOM      8  C   UNL     1      13.294  -0.278  11.753  1.00  0.00     0.123 A 
ATOM      9  C   UNL     1      13.009  -1.035  12.885  1.00  0.00     0.094 A 
ATOM     10  C   UNL     1      12.512  -2.336  12.763  1.00  0.00     0.146 A 
ATOM     11  O   UNL     1      12.264  -3.027  13.868  1.00  0.00    -0.452 OA
ENDROOT
BRANCH   1  12
ATOM     12  C   UNL     1      11.550  -4.927  15.169  1.00  0.00     0.021 A 
ATOM     13  C   UNL     1      10.273  -4.831  15.745  1.00  0.00     0.016 A 
ATOM     14  C   UNL     1       9.997  -5.458  16.965  1.00  0.00     0.047 A 
ATOM     15  C   UNL     1      10.992  -6.199  17.615  1.00  0.00     0.115 A 
ATOM     16  C   UNL     1      12.538  -5.690  15.818  1.00  0.00     0.016 A 
ATOM     17  C   UNL     1      12.260  -6.315  17.038  1.00  0.00     0.047 A 
BRANCH  15  18
ATOM     18  O   UNL     1      10.730  -6.827  18.831  1.00  0.00    -0.508 OA
ATOM     19  H   UNL     1      10.162  -7.665  18.883  1.00  0.00     0.293 HD
ENDBRANCH  15  18
ENDBRANCH   1  12
BRANCH   2  20
ATOM     20  O   UNL     1      11.240  -6.289  12.629  1.00  0.00    -0.502 OA
ATOM     21  H   UNL     1      10.666  -6.696  13.357  1.00  0.00     0.293 HD
ENDBRANCH   2  20
BRANCH   6  22
ATOM     22  O   UNL     1      12.233  -2.499   9.021  1.00  0.00    -0.507 OA
ATOM     23  H   UNL     1      12.298  -3.447   8.684  1.00  0.00     0.293 HD
ENDBRANCH   6  22
BRANCH   8  24
ATOM     24  O   UNL     1      13.808   1.009  11.898  1.00  0.00    -0.508 OA
ATOM     25  H   UNL     1      14.781   1.169  12.127  1.00  0.00     0.293 HD
ENDBRANCH   8  24
TORSDOF 5
ENDMDL
MODEL 4
REMARK VINA RESULT:    -7.327     11.549     15.430
REMARK INTER + INTRA:          -8.859
REMARK INTER:                  -8.570
REMARK INTRA:                  -0.289
REMARK UNBOUND:                -0.246
REMARK SMILES O=c1c(O)c(-c2ccc(O)cc2)oc2cc(O)cc(O)c12
REMARK SMILES IDX 5 1 3 2 2 3 1 4 21 5 19 6 18 7 16 8 15 9 14 10 13 11 6 12
REMARK SMILES IDX 7 13 8 14 9 15 12 16 11 17 10 18 4 20 20 22 17 24
REMARK H PARENT 10 19 4 21 20 23 17 25
REMARK Flexibility Score: inf
ROOT
ATOM      1  C   UNL     1      16.359  -6.399  16.878  1.00  0.00     0.180 A 
ATOM      2  C   UNL     1      16.901  -5.294  17.556  1.00  0.00     0.208 A 
ATOM      3  C   UNL     1      16.362  -4.019  17.322  1.00  0.00     0.238 A 
ATOM      4  O   UNL     1      16.816  -3.042  17.973  1.00  0.00    -0.285 OA
ATOM      5  C   UNL     1      15.298  -3.862  16.402  1.00  0.00     0.111 A 
ATOM      6  C   UNL     1      14.702  -2.612  16.058  1.00  0.00     0.134 A 
ATOM      7  C   UNL     1      13.570  -2.591  15.234  1.00  0.00     0.093 A 
ATOM      8  C   UNL     1      13.052  -3.769  14.690  1.00  0.00     0.123 A 
ATOM      9  C   UNL     1      13.663  -4.987  14.973  1.00  0.00     0.094 A 
ATOM     10  C   UNL     1      14.772  -5.046  15.820  1.00  0.00     0.146 A 
ATOM     11  O   UNL     1      15.317  -6.229  16.071  1.00  0.00    -0.452 OA
ENDROOT
BRANCH   1  12
ATOM     12  C   UNL     1      16.889  -7.770  17.054  1.00  0.00     0.021 A 
ATOM     13  C   UNL     1      17.964  -8.203  16.260  1.00  0.00     0.016 A 
ATOM     14  C   UNL     1      18.496  -9.486  16.425  1.00  0.00     0.047 A 
ATOM     15  C   UNL     1      17.967 -10.347  17.396  1.00  0.00     0.115 A 
ATOM     16  C   UNL     1      16.377  -8.633  18.040  1.00  0.00     0.016 A 
ATOM     17  C   UNL     1      16.910  -9.916  18.203  1.00  0.00     0.047 A 
BRANCH  15  18
ATOM     18  O   UNL     1      18.487 -11.628  17.569  1.00  0.00    -0.508 OA
ATOM     19  H   UNL     1      18.022 -12.444  17.186  1.00  0.00     0.293 HD
ENDBRANCH  15  18
ENDBRANCH   1  12
BRANCH   2  20
ATOM     20  O   UNL     1      17.937  -5.474  18.477  1.00  0.00    -0.502 OA
ATOM     21  H   UNL     1      18.056  -4.876  19.286  1.00  0.00     0.293 HD
ENDBRANCH   2  20
BRANCH   6  22
ATOM     22  O   UNL     1      15.196  -1.371  16.472  1.00  0.00    -0.507 OA
ATOM     23  H   UNL     1      14.740  -0.765  17.136  1.00  0.00     0.293 HD
ENDBRANCH   6  22
BRANCH   8  24
ATOM     24  O   UNL     1      11.934  -3.736  13.859  1.00  0.00    -0.508 OA
ATOM     25  H   UNL     1      12.023  -3.748  12.850  1.00  0.00     0.293 HD
ENDBRANCH   8  24
TORSDOF 5
ENDMDL
MODEL 5
REMARK VINA RESULT:    -7.291      2.445      3.466
REMARK INTER + INTRA:          -8.816
REMARK INTER:                  -8.621
REMARK INTRA:                  -0.195
REMARK UNBOUND:                -0.246
REMARK SMILES O=c1c(O)c(-c2ccc(O)cc2)oc2cc(O)cc(O)c12
REMARK SMILES IDX 5 1 3 2 2 3 1 4 21 5 19 6 18 7 16 8 15 9 14 10 13 11 6 12
REMARK SMILES IDX 7 13 8 14 9 15 12 16 11 17 10 18 4 20 20 22 17 24
REMARK H PARENT 10 19 4 21 20 23 17 25
REMARK Flexibility Score: inf
ROOT
ATOM      1  C   UNL     1       3.965  -8.552   7.282  1.00  0.00     0.180 A 
ATOM      2  C   UNL     1       3.407  -7.269   7.414  1.00  0.00     0.208 A 
ATOM      3  C   UNL     1       4.192  -6.237   7.956  1.00  0.00     0.238 A 
ATOM      4  O   UNL     1       3.705  -5.078   8.021  1.00  0.00    -0.285 OA
ATOM      5  C   UNL     1       5.518  -6.505   8.372  1.00  0.00     0.111 A 
ATOM      6  C   UNL     1       6.388  -5.546   8.971  1.00  0.00     0.134 A 
ATOM      7  C   UNL     1       7.722  -5.887   9.224  1.00  0.00     0.093 A 
ATOM      8  C   UNL     1       8.199  -7.174   8.960  1.00  0.00     0.123 A 
ATOM      9  C   UNL     1       7.341  -8.134   8.431  1.00  0.00     0.094 A 
ATOM     10  C   UNL     1       6.014  -7.814   8.134  1.00  0.00     0.146 A 
ATOM     11  O   UNL     1       5.234  -8.756   7.621  1.00  0.00    -0.452 OA
ENDROOT
BRANCH   1  12
ATOM     12  C   UNL     1       3.194  -9.696   6.744  1.00  0.00     0.021 A 
ATOM     13  C   UNL     1       3.579 -10.277   5.524  1.00  0.00     0.016 A 
ATOM     14  C   UNL     1       2.878 -11.372   5.009  1.00  0.00     0.047 A 
ATOM     15  C   UNL     1       1.793 -11.908   5.715  1.00  0.00     0.115 A 
ATOM     16  C   UNL     1       2.116 -10.252   7.457  1.00  0.00     0.016 A 
ATOM     17  C   UNL     1       1.417 -11.347   6.939  1.00  0.00     0.047 A 
BRANCH  15  18
ATOM     18  O   UNL     1       1.086 -12.999   5.212  1.00  0.00    -0.508 OA
ATOM     19  H   UNL     1       1.349 -13.443   4.340  1.00  0.00     0.293 HD
ENDBRANCH  15  18
ENDBRANCH   1  12
BRANCH   2  20
ATOM     20  O   UNL     1       2.103  -7.021   6.976  1.00  0.00    -0.502 OA
ATOM     21  H   UNL     1       1.570  -7.699   6.446  1.00  0.00     0.293 HD
ENDBRANCH   2  20
BRANCH   6  22
ATOM     22  O   UNL     1       5.988  -4.263   9.358  1.00  0.00    -0.507 OA
ATOM     23  H   UNL     1       5.406  -4.060  10.156  1.00  0.00     0.293 HD
ENDBRANCH   6  22
BRANCH   8  24
ATOM     24  O   UNL     1       9.524  -7.509   9.229  1.00  0.00    -0.508 OA
ATOM     25  H   UNL     1      10.033  -7.087   9.997  1.00  0.00     0.293 HD
ENDBRANCH   8  24
TORSDOF 5
ENDMDL
MODEL 6
REMARK VINA RESULT:    -7.157      7.388     10.068
REMARK INTER + INTRA:          -8.659
REMARK INTER:                  -8.426
REMARK INTRA:                  -0.233
REMARK UNBOUND:                -0.246
REMARK SMILES O=c1c(O)c(-c2ccc(O)cc2)oc2cc(O)cc(O)c12
REMARK SMILES IDX 5 1 3 2 2 3 1 4 21 5 19 6 18 7 16 8 15 9 14 10 13 11 6 12
REMARK SMILES IDX 7 13 8 14 9 15 12 16 11 17 10 18 4 20 20 22 17 24
REMARK H PARENT 10 19 4 21 20 23 17 25
REMARK Flexibility Score: inf
ROOT
ATOM      1  C   UNL     1      10.785  -3.566  13.257  1.00  0.00     0.180 A 
ATOM      2  C   UNL     1      11.617  -4.694  13.352  1.00  0.00     0.208 A 
ATOM      3  C   UNL     1      12.822  -4.593  14.066  1.00  0.00     0.238 A 
ATOM      4  O   UNL     1      13.537  -5.622  14.194  1.00  0.00    -0.285 OA
ATOM      5  C   UNL     1      13.187  -3.362  14.662  1.00  0.00     0.111 A 
ATOM      6  C   UNL     1      14.403  -3.136  15.374  1.00  0.00     0.134 A 
ATOM      7  C   UNL     1      14.600  -1.917  16.033  1.00  0.00     0.093 A 
ATOM      8  C   UNL     1      13.654  -0.892  15.951  1.00  0.00     0.123 A 
ATOM      9  C   UNL     1      12.492  -1.083  15.210  1.00  0.00     0.094 A 
ATOM     10  C   UNL     1      12.249  -2.301  14.570  1.00  0.00     0.146 A 
ATOM     11  O   UNL     1      11.124  -2.444  13.883  1.00  0.00    -0.452 OA
ENDROOT
BRANCH   1  12
ATOM     12  C   UNL     1       9.511  -3.586  12.501  1.00  0.00     0.021 A 
ATOM     13  C   UNL     1       8.293  -3.535  13.197  1.00  0.00     0.016 A 
ATOM     14  C   UNL     1       7.079  -3.530  12.502  1.00  0.00     0.047 A 
ATOM     15  C   UNL     1       7.071  -3.563  11.101  1.00  0.00     0.115 A 
ATOM     16  C   UNL     1       9.496  -3.599  11.094  1.00  0.00     0.016 A 
ATOM     17  C   UNL     1       8.280  -3.594  10.401  1.00  0.00     0.047 A 
BRANCH  15  18
ATOM     18  O   UNL     1       5.869  -3.559  10.397  1.00  0.00    -0.508 OA
ATOM     19  H   UNL     1       4.980  -3.440  10.869  1.00  0.00     0.293 HD
ENDBRANCH  15  18
ENDBRANCH   1  12
BRANCH   2  20
ATOM     20  O   UNL     1      11.227  -5.906  12.775  1.00  0.00    -0.502 OA
ATOM     21  H   UNL     1      11.895  -6.609  12.483  1.00  0.00     0.293 HD
ENDBRANCH   2  20
BRANCH   6  22
ATOM     22  O   UNL     1      15.452  -4.059  15.441  1.00  0.00    -0.507 OA
ATOM     23  H   UNL     1      15.377  -5.032  15.190  1.00  0.00     0.293 HD
ENDBRANCH   6  22
BRANCH   8  24
ATOM     24  O   UNL     1      13.866   0.324  16.598  1.00  0.00    -0.508 OA
ATOM     25  H   UNL     1      14.435   0.388  17.433  1.00  0.00     0.293 HD
ENDBRANCH   8  24
TORSDOF 5
ENDMDL
MODEL 7
REMARK VINA RESULT:    -7.081      2.543      6.863
REMARK INTER + INTRA:          -8.569
REMARK INTER:                  -8.270
REMARK INTRA:                  -0.299
REMARK UNBOUND:                -0.246
REMARK SMILES O=c1c(O)c(-c2ccc(O)cc2)oc2cc(O)cc(O)c12
REMARK SMILES IDX 5 1 3 2 2 3 1 4 21 5 19 6 18 7 16 8 15 9 14 10 13 11 6 12
REMARK SMILES IDX 7 13 8 14 9 15 12 16 11 17 10 18 4 20 20 22 17 24
REMARK H PARENT 10 19 4 21 20 23 17 25
REMARK Flexibility Score: inf
ROOT
ATOM      1  C   UNL     1       6.691  -6.232   8.733  1.00  0.00     0.180 A 
ATOM      2  C   UNL     1       5.745  -5.273   8.334  1.00  0.00     0.208 A 
ATOM      3  C   UNL     1       4.500  -5.704   7.847  1.00  0.00     0.238 A 
ATOM      4  O   UNL     1       3.638  -4.839   7.543  1.00  0.00    -0.285 OA
ATOM      5  C   UNL     1       4.223  -7.089   7.750  1.00  0.00     0.111 A 
ATOM      6  C   UNL     1       3.012  -7.639   7.234  1.00  0.00     0.134 A 
ATOM      7  C   UNL     1       2.795  -9.020   7.306  1.00  0.00     0.093 A 
ATOM      8  C   UNL     1       3.773  -9.877   7.817  1.00  0.00     0.123 A 
ATOM      9  C   UNL     1       4.981  -9.356   8.268  1.00  0.00     0.094 A 
ATOM     10  C   UNL     1       5.214  -7.978   8.242  1.00  0.00     0.146 A 
ATOM     11  O   UNL     1       6.376  -7.523   8.693  1.00  0.00    -0.452 OA
ENDROOT
BRANCH   1  12
ATOM     12  C   UNL     1       8.033  -5.857   9.234  1.00  0.00     0.021 A 
ATOM     13  C   UNL     1       8.252  -5.757  10.618  1.00  0.00     0.016 A 
ATOM     14  C   UNL     1       9.518  -5.426  11.113  1.00  0.00     0.047 A 
ATOM     15  C   UNL     1      10.583  -5.204  10.229  1.00  0.00     0.115 A 
ATOM     16  C   UNL     1       9.112  -5.652   8.354  1.00  0.00     0.016 A 
ATOM     17  C   UNL     1      10.376  -5.321   8.851  1.00  0.00     0.047 A 
BRANCH  15  18
ATOM     18  O   UNL     1      11.848  -4.872  10.710  1.00  0.00    -0.508 OA
ATOM     19  H   UNL     1      12.666  -4.906  10.113  1.00  0.00     0.293 HD
ENDBRANCH  15  18
ENDBRANCH   1  12
BRANCH   2  20
ATOM     20  O   UNL     1       6.031  -3.910   8.459  1.00  0.00    -0.502 OA
ATOM     21  H   UNL     1       5.785  -3.236   7.744  1.00  0.00     0.293 HD
ENDBRANCH   2  20
BRANCH   6  22
ATOM     22  O   UNL     1       2.010  -6.880   6.619  1.00  0.00    -0.507 OA
ATOM     23  H   UNL     1       1.722  -5.961   6.917  1.00  0.00     0.293 HD
ENDBRANCH   6  22
BRANCH   8  24
ATOM     24  O   UNL     1       3.554 -11.252   7.871  1.00  0.00    -0.508 OA
ATOM     25  H   UNL     1       3.868 -11.809   8.657  1.00  0.00     0.293 HD
ENDBRANCH   8  24
TORSDOF 5
ENDMDL
MODEL 8
REMARK VINA RESULT:    -7.072      2.382      6.601
REMARK INTER + INTRA:          -8.559
REMARK INTER:                  -8.510
REMARK INTRA:                  -0.049
REMARK UNBOUND:                -0.246
REMARK SMILES O=c1c(O)c(-c2ccc(O)cc2)oc2cc(O)cc(O)c12
REMARK SMILES IDX 5 1 3 2 2 3 1 4 21 5 19 6 18 7 16 8 15 9 14 10 13 11 6 12
REMARK SMILES IDX 7 13 8 14 9 15 12 16 11 17 10 18 4 20 20 22 17 24
REMARK H PARENT 10 19 4 21 20 23 17 25
REMARK Flexibility Score: inf
ROOT
ATOM      1  C   UNL     1       5.630  -7.592   8.018  1.00  0.00     0.180 A 
ATOM      2  C   UNL     1       4.484  -6.780   7.997  1.00  0.00     0.208 A 
ATOM      3  C   UNL     1       3.249  -7.353   7.650  1.00  0.00     0.238 A 
ATOM      4  O   UNL     1       2.217  -6.633   7.686  1.00  0.00    -0.285 OA
ATOM      5  C   UNL     1       3.180  -8.726   7.313  1.00  0.00     0.111 A 
ATOM      6  C   UNL     1       1.990  -9.402   6.908  1.00  0.00     0.134 A 
ATOM      7  C   UNL     1       2.012 -10.789   6.725  1.00  0.00     0.093 A 
ATOM      8  C   UNL     1       3.197 -11.516   6.869  1.00  0.00     0.123 A 
ATOM      9  C   UNL     1       4.375 -10.857   7.207  1.00  0.00     0.094 A 
ATOM     10  C   UNL     1       4.378  -9.478   7.431  1.00  0.00     0.146 A 
ATOM     11  O   UNL     1       5.521  -8.891   7.762  1.00  0.00    -0.452 OA
ENDROOT
BRANCH   1  12
ATOM     12  C   UNL     1       6.971  -7.056   8.350  1.00  0.00     0.021 A 
ATOM     13  C   UNL     1       7.188  -6.465   9.605  1.00  0.00     0.016 A 
ATOM     14  C   UNL     1       8.452  -5.973   9.947  1.00  0.00     0.047 A 
ATOM     15  C   UNL     1       9.517  -6.079   9.043  1.00  0.00     0.115 A 
ATOM     16  C   UNL     1       8.050  -7.177   7.455  1.00  0.00     0.016 A 
ATOM     17  C   UNL     1       9.312  -6.685   7.799  1.00  0.00     0.047 A 
BRANCH  15  18
ATOM     18  O   UNL     1      10.780  -5.592   9.372  1.00  0.00    -0.508 OA
ATOM     19  H   UNL     1      11.537  -6.215   9.626  1.00  0.00     0.293 HD
ENDBRANCH  15  18
ENDBRANCH   1  12
BRANCH   2  20
ATOM     20  O   UNL     1       4.571  -5.431   8.354  1.00  0.00    -0.502 OA
ATOM     21  H   UNL     1       4.295  -5.092   9.268  1.00  0.00     0.293 HD
ENDBRANCH   2  20
BRANCH   6  22
ATOM     22  O   UNL     1       0.777  -8.757   6.646  1.00  0.00    -0.507 OA
ATOM     23  H   UNL     1      -0.132  -9.184   6.738  1.00  0.00     0.293 HD
ENDBRANCH   6  22
BRANCH   8  24
ATOM     24  O   UNL     1       3.213 -12.895   6.670  1.00  0.00    -0.508 OA
ATOM     25  H   UNL     1       3.686 -13.311   5.877  1.00  0.00     0.293 HD
ENDBRANCH   8  24
TORSDOF 5
ENDMDL
MODEL 9
REMARK VINA RESULT:    -7.053      3.922      8.172
REMARK INTER + INTRA:          -8.536
REMARK INTER:                  -8.254
REMARK INTRA:                  -0.282
REMARK UNBOUND:                -0.246
REMARK SMILES O=c1c(O)c(-c2ccc(O)cc2)oc2cc(O)cc(O)c12
REMARK SMILES IDX 5 1 3 2 2 3 1 4 21 5 19 6 18 7 16 8 15 9 14 10 13 11 6 12
REMARK SMILES IDX 7 13 8 14 9 15 12 16 11 17 10 18 4 20 20 22 17 24
REMARK H PARENT 10 19 4 21 20 23 17 25
REMARK Flexibility Score: inf
ROOT
ATOM      1  C   UNL     1       8.261  -4.475  10.384  1.00  0.00     0.180 A 
ATOM      2  C   UNL     1       7.598  -5.714  10.403  1.00  0.00     0.208 A 
ATOM      3  C   UNL     1       6.417  -5.866   9.658  1.00  0.00     0.238 A 
ATOM      4  O   UNL     1       5.858  -6.994   9.636  1.00  0.00    -0.285 OA
ATOM      5  C   UNL     1       5.906  -4.774   8.915  1.00  0.00     0.111 A 
ATOM      6  C   UNL     1       4.698  -4.805   8.158  1.00  0.00     0.134 A 
ATOM      7  C   UNL     1       4.357  -3.707   7.358  1.00  0.00     0.093 A 
ATOM      8  C   UNL     1       5.148  -2.556   7.339  1.00  0.00     0.123 A 
ATOM      9  C   UNL     1       6.297  -2.494   8.122  1.00  0.00     0.094 A 
ATOM     10  C   UNL     1       6.684  -3.586   8.903  1.00  0.00     0.146 A 
ATOM     11  O   UNL     1       7.792  -3.490   9.625  1.00  0.00    -0.452 OA
ENDROOT
BRANCH   1  12
ATOM     12  C   UNL     1       9.496  -4.229  11.163  1.00  0.00     0.021 A 
ATOM     13  C   UNL     1      10.741  -4.251  10.512  1.00  0.00     0.016 A 
ATOM     14  C   UNL     1      11.917  -3.999  11.224  1.00  0.00     0.047 A 
ATOM     15  C   UNL     1      11.862  -3.707  12.594  1.00  0.00     0.115 A 
ATOM     16  C   UNL     1       9.447  -3.915  12.534  1.00  0.00     0.016 A 
ATOM     17  C   UNL     1      10.625  -3.664  13.244  1.00  0.00     0.047 A 
BRANCH  15  18
ATOM     18  O   UNL     1      13.028  -3.456  13.314  1.00  0.00    -0.508 OA
ATOM     19  H   UNL     1      13.011  -3.329  14.320  1.00  0.00     0.293 HD
ENDBRANCH  15  18
ENDBRANCH   1  12
BRANCH   2  20
ATOM     20  O   UNL     1       8.131  -6.785  11.125  1.00  0.00    -0.502 OA
ATOM     21  H   UNL     1       9.129  -6.943  11.206  1.00  0.00     0.293 HD
ENDBRANCH   2  20
BRANCH   6  22
ATOM     22  O   UNL     1       3.791  -5.869   8.177  1.00  0.00    -0.507 OA
ATOM     23  H   UNL     1       3.606  -6.451   8.979  1.00  0.00     0.293 HD
ENDBRANCH   6  22
BRANCH   8  24
ATOM     24  O   UNL     1       4.793  -1.463   6.552  1.00  0.00    -0.508 OA
ATOM     25  H   UNL     1       5.217  -0.553   6.685  1.00  0.00     0.293 HD
ENDBRANCH   8  24
TORSDOF 5
ENDMDL
