MODEL 1
REMARK VINA RESULT:    -0.113      0.000      0.000
REMARK INTER + INTRA:          -0.778
REMARK INTER:                  -0.152
REMARK INTRA:                  -0.626
REMARK UNBOUND:                -0.626
REMARK SMILES CCCCCCCC(=O)[O-]
REMARK SMILES IDX 5 1 6 2 7 3 8 4 9 5 10 6 4 7 3 8 2 9 1 10
REMARK H PARENT
REMARK Flexibility Score: inf
ROOT
ATOM      1  C   UNL     1     160.614 185.112 177.844  1.00  0.00     0.000 C 
ENDROOT
BRANCH   1   2
ATOM      2  C   UNL     1     159.386 184.227 178.125  1.00  0.00     0.006 C 
BRANCH   2   3
ATOM      3  C   UNL     1     159.156 183.162 177.046  1.00  0.00     0.053 C 
BRANCH   3   4
ATOM      4  C   UNL     1     158.981 181.813 177.672  1.00  0.00     0.041 C 
ATOM      5  O   UNL     1     158.796 181.712 178.913  1.00  0.00    -0.550 OA
ATOM      6  O   UNL     1     158.971 180.675 176.878  1.00  0.00    -0.550 OA
ENDBRANCH   3   4
ENDBRANCH   2   3
ENDBRANCH   1   2
BRANCH   1   7
ATOM      7  C   UNL     1     161.682 184.478 176.934  1.00  0.00     0.000 C 
BRANCH   7   8
ATOM      8  C   UNL     1     162.870 183.896 177.720  1.00  0.00    -0.000 C 
BRANCH   8   9
ATOM      9  C   UNL     1     162.699 182.399 178.018  1.00  0.00    -0.003 C 
ATOM     10  C   UNL     1     162.314 182.123 179.472  1.00  0.00     0.004 C 
ENDBRANCH   8   9
ENDBRANCH   7   8
ENDBRANCH   1   7
TORSDOF 6
ENDMDL
MODEL 2
REMARK VINA RESULT:    -0.093     21.401     22.783
REMARK INTER + INTRA:          -0.751
REMARK INTER:                  -0.072
REMARK INTRA:                  -0.679
REMARK UNBOUND:                -0.626
REMARK SMILES CCCCCCCC(=O)[O-]
REMARK SMILES IDX 5 1 6 2 7 3 8 4 9 5 10 6 4 7 3 8 2 9 1 10
REMARK H PARENT
REMARK Flexibility Score: inf
ROOT
ATOM      1  C   UNL     1     174.850 197.625 185.270  1.00  0.00     0.000 C 
ENDROOT
BRANCH   1   2
ATOM      2  C   UNL     1     175.513 196.660 186.271  1.00  0.00     0.006 C 
BRANCH   2   3
ATOM      3  C   UNL     1     176.884 196.159 185.802  1.00  0.00     0.053 C 
BRANCH   3   4
ATOM      4  C   UNL     1     176.777 195.541 184.442  1.00  0.00     0.041 C 
ATOM      5  O   UNL     1     177.435 196.017 183.479  1.00  0.00    -0.550 OA
ATOM      6  O   UNL     1     175.993 194.412 184.251  1.00  0.00    -0.550 OA
ENDBRANCH   3   4
ENDBRANCH   2   3
ENDBRANCH   1   2
BRANCH   1   7
ATOM      7  C   UNL     1     175.430 199.051 185.256  1.00  0.00     0.000 C 
BRANCH   7   8
ATOM      8  C   UNL     1     176.196 199.374 183.960  1.00  0.00    -0.000 C 
BRANCH   8   9
ATOM      9  C   UNL     1     177.710 199.495 184.187  1.00  0.00    -0.003 C 
ATOM     10  C   UNL     1     178.074 199.724 185.654  1.00  0.00     0.004 C 
ENDBRANCH   8   9
ENDBRANCH   7   8
ENDBRANCH   1   7
TORSDOF 6
ENDMDL
MODEL 3
REMARK VINA RESULT:    -0.088     22.528     23.872
REMARK INTER + INTRA:          -0.744
REMARK INTER:                  -0.067
REMARK INTRA:                  -0.677
REMARK UNBOUND:                -0.626
REMARK SMILES CCCCCCCC(=O)[O-]
REMARK SMILES IDX 5 1 6 2 7 3 8 4 9 5 10 6 4 7 3 8 2 9 1 10
REMARK H PARENT
REMARK Flexibility Score: inf
ROOT
ATOM      1  C   UNL     1     175.242 197.324 185.758  1.00  0.00     0.000 C 
ENDROOT
BRANCH   1   2
ATOM      2  C   UNL     1     176.306 196.231 185.974  1.00  0.00     0.006 C 
BRANCH   2   3
ATOM      3  C   UNL     1     177.554 196.746 186.702  1.00  0.00     0.053 C 
BRANCH   3   4
ATOM      4  C   UNL     1     177.174 197.385 188.001  1.00  0.00     0.041 C 
ATOM      5  O   UNL     1     176.699 196.686 188.935  1.00  0.00    -0.550 OA
ATOM      6  O   UNL     1     177.394 198.742 188.199  1.00  0.00    -0.550 OA
ENDBRANCH   3   4
ENDBRANCH   2   3
ENDBRANCH   1   2
BRANCH   1   7
ATOM      7  C   UNL     1     175.532 198.297 184.601  1.00  0.00     0.000 C 
BRANCH   7   8
ATOM      8  C   UNL     1     175.889 199.713 185.084  1.00  0.00    -0.000 C 
BRANCH   8   9
ATOM      9  C   UNL     1     177.372 200.051 184.869  1.00  0.00    -0.003 C 
ATOM     10  C   UNL     1     178.045 199.141 183.841  1.00  0.00     0.004 C 
ENDBRANCH   8   9
ENDBRANCH   7   8
ENDBRANCH   1   7
TORSDOF 6
ENDMDL
MODEL 4
REMARK VINA RESULT:    -0.087     21.377     22.740
REMARK INTER + INTRA:          -0.743
REMARK INTER:                  -0.061
REMARK INTRA:                  -0.682
REMARK UNBOUND:                -0.626
REMARK SMILES CCCCCCCC(=O)[O-]
REMARK SMILES IDX 5 1 6 2 7 3 8 4 9 5 10 6 4 7 3 8 2 9 1 10
REMARK H PARENT
REMARK Flexibility Score: inf
ROOT
ATOM      1  C   UNL     1     174.319 196.200 184.735  1.00  0.00     0.000 C 
ENDROOT
BRANCH   1   2
ATOM      2  C   UNL     1     174.805 197.414 183.922  1.00  0.00     0.006 C 
BRANCH   2   3
ATOM      3  C   UNL     1     174.993 198.672 184.779  1.00  0.00     0.053 C 
BRANCH   3   4
ATOM      4  C   UNL     1     176.405 199.162 184.685  1.00  0.00     0.041 C 
ATOM      5  O   UNL     1     177.162 198.737 183.773  1.00  0.00    -0.550 OA
ATOM      6  O   UNL     1     176.867 200.124 185.572  1.00  0.00    -0.550 OA
ENDBRANCH   3   4
ENDBRANCH   2   3
ENDBRANCH   1   2
BRANCH   1   7
ATOM      7  C   UNL     1     175.341 195.631 185.736  1.00  0.00     0.000 C 
BRANCH   7   8
ATOM      8  C   UNL     1     176.706 195.330 185.092  1.00  0.00    -0.000 C 
BRANCH   8   9
ATOM      9  C   UNL     1     177.876 195.927 185.889  1.00  0.00    -0.003 C 
ATOM     10  C   UNL     1     177.427 196.607 187.183  1.00  0.00     0.004 C 
ENDBRANCH   8   9
ENDBRANCH   7   8
ENDBRANCH   1   7
TORSDOF 6
ENDMDL
MODEL 5
REMARK VINA RESULT:    -0.079     21.184     22.519
REMARK INTER + INTRA:          -0.732
REMARK INTER:                  -0.042
REMARK INTRA:                  -0.690
REMARK UNBOUND:                -0.626
REMARK SMILES CCCCCCCC(=O)[O-]
REMARK SMILES IDX 5 1 6 2 7 3 8 4 9 5 10 6 4 7 3 8 2 9 1 10
REMARK H PARENT
REMARK Flexibility Score: inf
ROOT
ATOM      1  C   UNL     1     174.283 196.635 184.464  1.00  0.00     0.000 C 
ENDROOT
BRANCH   1   2
ATOM      2  C   UNL     1     173.415 197.486 185.410  1.00  0.00     0.006 C 
BRANCH   2   3
ATOM      3  C   UNL     1     173.634 197.149 186.890  1.00  0.00     0.053 C 
BRANCH   3   4
ATOM      4  C   UNL     1     174.869 197.820 187.402  1.00  0.00     0.041 C 
ATOM      5  O   UNL     1     174.863 199.057 187.643  1.00  0.00    -0.550 OA
ATOM      6  O   UNL     1     176.010 197.073 187.662  1.00  0.00    -0.550 OA
ENDBRANCH   3   4
ENDBRANCH   2   3
ENDBRANCH   1   2
BRANCH   1   7
ATOM      7  C   UNL     1     175.288 197.428 183.609  1.00  0.00     0.000 C 
BRANCH   7   8
ATOM      8  C   UNL     1     176.725 197.356 184.152  1.00  0.00    -0.000 C 
BRANCH   8   9
ATOM      9  C   UNL     1     177.229 198.713 184.664  1.00  0.00    -0.003 C 
ATOM     10  C   UNL     1     176.226 199.844 184.435  1.00  0.00     0.004 C 
ENDBRANCH   8   9
ENDBRANCH   7   8
ENDBRANCH   1   7
TORSDOF 6
ENDMDL
MODEL 6
REMARK VINA RESULT:    -0.063     20.926     22.385
REMARK INTER + INTRA:          -0.711
REMARK INTER:                  -0.082
REMARK INTRA:                  -0.629
REMARK UNBOUND:                -0.626
REMARK SMILES CCCCCCCC(=O)[O-]
REMARK SMILES IDX 5 1 6 2 7 3 8 4 9 5 10 6 4 7 3 8 2 9 1 10
REMARK H PARENT
REMARK Flexibility Score: inf
ROOT
ATOM      1  C   UNL     1     175.694 196.652 181.941  1.00  0.00     0.000 C 
ENDROOT
BRANCH   1   2
ATOM      2  C   UNL     1     176.705 197.406 181.057  1.00  0.00     0.006 C 
BRANCH   2   3
ATOM      3  C   UNL     1     177.836 198.056 181.863  1.00  0.00     0.053 C 
BRANCH   3   4
ATOM      4  C   UNL     1     177.280 199.031 182.853  1.00  0.00     0.041 C 
ATOM      5  O   UNL     1     177.540 198.904 184.079  1.00  0.00    -0.550 OA
ATOM      6  O   UNL     1     176.519 200.107 182.418  1.00  0.00    -0.550 OA
ENDBRANCH   3   4
ENDBRANCH   2   3
ENDBRANCH   1   2
BRANCH   1   7
ATOM      7  C   UNL     1     175.709 195.120 181.790  1.00  0.00     0.000 C 
BRANCH   7   8
ATOM      8  C   UNL     1     176.509 194.417 182.900  1.00  0.00    -0.000 C 
BRANCH   8   9
ATOM      9  C   UNL     1     176.668 195.290 184.154  1.00  0.00    -0.003 C 
ATOM     10  C   UNL     1     178.124 195.436 184.595  1.00  0.00     0.004 C 
ENDBRANCH   8   9
ENDBRANCH   7   8
ENDBRANCH   1   7
TORSDOF 6
ENDMDL
MODEL 7
REMARK VINA RESULT:    -0.060     11.497     12.593
REMARK INTER + INTRA:          -0.707
REMARK INTER:                  -0.013
REMARK INTRA:                  -0.694
REMARK UNBOUND:                -0.626
REMARK SMILES CCCCCCCC(=O)[O-]
REMARK SMILES IDX 5 1 6 2 7 3 8 4 9 5 10 6 4 7 3 8 2 9 1 10
REMARK H PARENT
REMARK Flexibility Score: inf
ROOT
ATOM      1  C   UNL     1     161.801 183.851 190.905  1.00  0.00     0.000 C 
ENDROOT
BRANCH   1   2
ATOM      2  C   UNL     1     161.589 185.149 190.103  1.00  0.00     0.006 C 
BRANCH   2   3
ATOM      3  C   UNL     1     160.169 185.711 190.239  1.00  0.00     0.053 C 
BRANCH   3   4
ATOM      4  C   UNL     1     159.350 185.362 189.036  1.00  0.00     0.041 C 
ATOM      5  O   UNL     1     159.895 184.827 188.034  1.00  0.00    -0.550 OA
ATOM      6  O   UNL     1     157.979 185.580 189.040  1.00  0.00    -0.550 OA
ENDBRANCH   3   4
ENDBRANCH   2   3
ENDBRANCH   1   2
BRANCH   1   7
ATOM      7  C   UNL     1     161.813 182.560 190.068  1.00  0.00     0.000 C 
BRANCH   7   8
ATOM      8  C   UNL     1     160.439 181.868 190.013  1.00  0.00    -0.000 C 
BRANCH   8   9
ATOM      9  C   UNL     1     159.605 182.119 191.279  1.00  0.00    -0.003 C 
ATOM     10  C   UNL     1     158.140 182.430 190.972  1.00  0.00     0.004 C 
ENDBRANCH   8   9
ENDBRANCH   7   8
ENDBRANCH   1   7
TORSDOF 6
ENDMDL
MODEL 8
REMARK VINA RESULT:    -0.055     18.850     20.259
REMARK INTER + INTRA:          -0.699
REMARK INTER:                   0.000
REMARK INTRA:                  -0.699
REMARK UNBOUND:                -0.626
REMARK SMILES CCCCCCCC(=O)[O-]
REMARK SMILES IDX 5 1 6 2 7 3 8 4 9 5 10 6 4 7 3 8 2 9 1 10
REMARK H PARENT
REMARK Flexibility Score: inf
ROOT
ATOM      1  C   UNL     1     170.630 188.486 192.163  1.00  0.00     0.000 C 
ENDROOT
BRANCH   1   2
ATOM      2  C   UNL     1     171.956 187.781 191.821  1.00  0.00     0.006 C 
BRANCH   2   3
ATOM      3  C   UNL     1     172.032 186.350 192.366  1.00  0.00     0.053 C 
BRANCH   3   4
ATOM      4  C   UNL     1     172.321 186.364 193.834  1.00  0.00     0.041 C 
ATOM      5  O   UNL     1     173.469 186.674 194.249  1.00  0.00    -0.550 OA
ATOM      6  O   UNL     1     171.311 186.086 194.744  1.00  0.00    -0.550 OA
ENDBRANCH   3   4
ENDBRANCH   2   3
ENDBRANCH   1   2
BRANCH   1   7
ATOM      7  C   UNL     1     170.760 189.707 193.092  1.00  0.00     0.000 C 
BRANCH   7   8
ATOM      8  C   UNL     1     172.222 190.119 193.340  1.00  0.00    -0.000 C 
BRANCH   8   9
ATOM      9  C   UNL     1     172.603 190.068 194.827  1.00  0.00    -0.003 C 
ATOM     10  C   UNL     1     171.479 189.525 195.710  1.00  0.00     0.004 C 
ENDBRANCH   8   9
ENDBRANCH   7   8
ENDBRANCH   1   7
TORSDOF 6
ENDMDL
MODEL 9
REMARK VINA RESULT:    -0.055     13.827     14.887
REMARK INTER + INTRA:          -0.699
REMARK INTER:                   0.000
REMARK INTRA:                  -0.699
REMARK UNBOUND:                -0.626
REMARK SMILES CCCCCCCC(=O)[O-]
REMARK SMILES IDX 5 1 6 2 7 3 8 4 9 5 10 6 4 7 3 8 2 9 1 10
REMARK H PARENT
REMARK Flexibility Score: inf
ROOT
ATOM      1  C   UNL     1     165.173 192.786 184.391  1.00  0.00     0.000 C 
ENDROOT
BRANCH   1   2
ATOM      2  C   UNL     1     164.172 193.252 185.464  1.00  0.00     0.006 C 
BRANCH   2   3
ATOM      3  C   UNL     1     163.567 194.628 185.162  1.00  0.00     0.053 C 
BRANCH   3   4
ATOM      4  C   UNL     1     164.547 195.713 185.485  1.00  0.00     0.041 C 
ATOM      5  O   UNL     1     164.805 195.995 186.685  1.00  0.00    -0.550 OA
ATOM      6  O   UNL     1     165.213 196.375 184.462  1.00  0.00    -0.550 OA
ENDBRANCH   3   4
ENDBRANCH   2   3
ENDBRANCH   1   2
BRANCH   1   7
ATOM      7  C   UNL     1     166.627 192.637 184.874  1.00  0.00     0.000 C 
BRANCH   7   8
ATOM      8  C   UNL     1     166.770 192.784 186.399  1.00  0.00    -0.000 C 
BRANCH   8   9
ATOM      9  C   UNL     1     167.699 193.942 186.793  1.00  0.00    -0.003 C 
ATOM     10  C   UNL     1     168.190 194.746 185.588  1.00  0.00     0.004 C 
ENDBRANCH   8   9
ENDBRANCH   7   8
ENDBRANCH   1   7
TORSDOF 6
ENDMDL
