MODEL 1
REMARK VINA RESULT:    -4.937      0.000      0.000
REMARK INTER + INTRA:          -6.717
REMARK INTER:                  -6.380
REMARK INTRA:                  -0.336
REMARK UNBOUND:                -0.336
REMARK SMILES CCO[C@@H]1O[C@@H](CO)[C@@H](O)[C@H](O)[C@H]1O
REMARK SMILES IDX 4 1 13 2 11 3 9 4 6 5 5 6 3 7 2 8 1 9 14 10 12 12 7 14 8 15
REMARK SMILES IDX 10 17
REMARK H PARENT 14 11 12 13 8 16 10 18
REMARK Flexibility Score: inf
ROOT
ATOM      1  C   UNL     1      23.212   4.296  37.390  1.00  0.00     0.281 C 
ATOM      2  C   UNL     1      21.986   3.368  37.218  1.00  0.00     0.202 C 
ATOM      3  C   UNL     1      20.666   4.162  37.087  1.00  0.00     0.179 C 
ATOM      4  C   UNL     1      20.818   5.374  36.140  1.00  0.00     0.177 C 
ATOM      5  C   UNL     1      22.114   6.153  36.465  1.00  0.00     0.178 C 
ATOM      6  O   UNL     1      23.248   5.304  36.387  1.00  0.00    -0.341 OA
ENDROOT
BRANCH   1   7
ATOM      7  O   UNL     1      23.230   4.854  38.694  1.00  0.00    -0.350 OA
BRANCH   7   8
ATOM      8  C   UNL     1      24.499   4.700  39.302  1.00  0.00     0.160 C 
ATOM      9  C   UNL     1      24.590   5.566  40.553  1.00  0.00     0.035 C 
ENDBRANCH   7   8
ENDBRANCH   1   7
BRANCH   2  10
ATOM     10  O   UNL     1      22.155   2.580  36.066  1.00  0.00    -0.385 OA
ATOM     11  H   UNL     1      21.624   1.752  36.199  1.00  0.00     0.211 HD
ENDBRANCH   2  10
BRANCH   3  12
ATOM     12  O   UNL     1      20.161   4.540  38.346  1.00  0.00    -0.387 OA
ATOM     13  H   UNL     1      20.682   4.078  39.048  1.00  0.00     0.211 HD
ENDBRANCH   3  12
BRANCH   5  14
ATOM     14  C   UNL     1      22.316   7.351  35.524  1.00  0.00     0.191 C 
BRANCH  14  15
ATOM     15  O   UNL     1      21.087   7.936  35.176  1.00  0.00    -0.394 OA
ATOM     16  H   UNL     1      20.722   8.361  35.995  1.00  0.00     0.210 HD
ENDBRANCH  14  15
ENDBRANCH   5  14
BRANCH   4  17
ATOM     17  O   UNL     1      20.852   4.925  34.809  1.00  0.00    -0.387 OA
ATOM     18  H   UNL     1      19.940   5.052  34.438  1.00  0.00     0.211 HD
ENDBRANCH   4  17
TORSDOF 7
ENDMDL
MODEL 2
REMARK VINA RESULT:    -4.641      1.863      4.165
REMARK INTER + INTRA:          -6.334
REMARK INTER:                  -5.986
REMARK INTRA:                  -0.348
REMARK UNBOUND:                -0.336
REMARK SMILES CCO[C@@H]1O[C@@H](CO)[C@@H](O)[C@H](O)[C@H]1O
REMARK SMILES IDX 4 1 13 2 11 3 9 4 6 5 5 6 3 7 2 8 1 9 14 10 12 12 7 14 8 15
REMARK SMILES IDX 10 17
REMARK H PARENT 14 11 12 13 8 16 10 18
REMARK Flexibility Score: inf
ROOT
ATOM      1  C   UNL     1      23.257   4.538  37.837  1.00  0.00     0.281 C 
ATOM      2  C   UNL     1      22.885   4.478  39.338  1.00  0.00     0.202 C 
ATOM      3  C   UNL     1      21.528   3.777  39.576  1.00  0.00     0.179 C 
ATOM      4  C   UNL     1      21.389   2.493  38.725  1.00  0.00     0.177 C 
ATOM      5  C   UNL     1      21.830   2.763  37.267  1.00  0.00     0.178 C 
ATOM      6  O   UNL     1      23.159   3.257  37.224  1.00  0.00    -0.341 OA
ENDROOT
BRANCH   1   7
ATOM      7  O   UNL     1      22.459   5.501  37.168  1.00  0.00    -0.350 OA
BRANCH   7   8
ATOM      8  C   UNL     1      23.193   6.164  36.156  1.00  0.00     0.160 C 
ATOM      9  C   UNL     1      22.380   7.323  35.591  1.00  0.00     0.035 C 
ENDBRANCH   7   8
ENDBRANCH   1   7
BRANCH   2  10
ATOM     10  O   UNL     1      23.883   3.779  40.038  1.00  0.00    -0.385 OA
ATOM     11  H   UNL     1      23.851   2.837  39.728  1.00  0.00     0.211 HD
ENDBRANCH   2  10
BRANCH   3  12
ATOM     12  O   UNL     1      20.447   4.657  39.377  1.00  0.00    -0.387 OA
ATOM     13  H   UNL     1      19.680   4.344  39.917  1.00  0.00     0.211 HD
ENDBRANCH   3  12
BRANCH   5  14
ATOM     14  C   UNL     1      21.734   1.500  36.395  1.00  0.00     0.191 C 
BRANCH  14  15
ATOM     15  O   UNL     1      22.926   0.760  36.443  1.00  0.00    -0.394 OA
ATOM     16  H   UNL     1      23.566   1.190  35.818  1.00  0.00     0.210 HD
ENDBRANCH  14  15
ENDBRANCH   5  14
BRANCH   4  17
ATOM     17  O   UNL     1      22.180   1.475  39.284  1.00  0.00    -0.387 OA
ATOM     18  H   UNL     1      21.662   1.088  40.036  1.00  0.00     0.211 HD
ENDBRANCH   4  17
TORSDOF 7
ENDMDL
MODEL 3
REMARK VINA RESULT:    -4.601      1.900      3.730
REMARK INTER + INTRA:          -6.282
REMARK INTER:                  -5.960
REMARK INTRA:                  -0.322
REMARK UNBOUND:                -0.336
REMARK SMILES CCO[C@@H]1O[C@@H](CO)[C@@H](O)[C@H](O)[C@H]1O
REMARK SMILES IDX 4 1 13 2 11 3 9 4 6 5 5 6 3 7 2 8 1 9 14 10 12 12 7 14 8 15
REMARK SMILES IDX 10 17
REMARK H PARENT 14 11 12 13 8 16 10 18
REMARK Flexibility Score: inf
ROOT
ATOM      1  C   UNL     1      22.501   4.060  39.143  1.00  0.00     0.281 C 
ATOM      2  C   UNL     1      23.944   4.517  39.464  1.00  0.00     0.202 C 
ATOM      3  C   UNL     1      24.815   4.640  38.193  1.00  0.00     0.179 C 
ATOM      4  C   UNL     1      24.054   5.339  37.043  1.00  0.00     0.177 C 
ATOM      5  C   UNL     1      22.629   4.752  36.903  1.00  0.00     0.178 C 
ATOM      6  O   UNL     1      21.916   4.862  38.124  1.00  0.00    -0.341 OA
ENDROOT
BRANCH   1   7
ATOM      7  O   UNL     1      22.483   2.683  38.801  1.00  0.00    -0.350 OA
BRANCH   7   8
ATOM      8  C   UNL     1      21.214   2.108  39.052  1.00  0.00     0.160 C 
ATOM      9  C   UNL     1      21.341   0.595  39.186  1.00  0.00     0.035 C 
ENDBRANCH   7   8
ENDBRANCH   1   7
BRANCH   2  10
ATOM     10  O   UNL     1      23.906   5.765  40.108  1.00  0.00    -0.385 OA
ATOM     11  H   UNL     1      24.841   6.096  40.158  1.00  0.00     0.211 HD
ENDBRANCH   2  10
BRANCH   3  12
ATOM     12  O   UNL     1      25.333   3.393  37.796  1.00  0.00    -0.387 OA
ATOM     13  H   UNL     1      24.926   2.687  38.357  1.00  0.00     0.211 HD
ENDBRANCH   3  12
BRANCH   5  14
ATOM     14  C   UNL     1      21.829   5.443  35.787  1.00  0.00     0.191 C 
BRANCH  14  15
ATOM     15  O   UNL     1      21.439   6.736  36.171  1.00  0.00    -0.394 OA
ATOM     16  H   UNL     1      21.802   6.896  37.080  1.00  0.00     0.210 HD
ENDBRANCH  14  15
ENDBRANCH   5  14
BRANCH   4  17
ATOM     17  O   UNL     1      23.979   6.718  37.304  1.00  0.00    -0.387 OA
ATOM     18  H   UNL     1      24.869   7.101  37.089  1.00  0.00     0.211 HD
ENDBRANCH   4  17
TORSDOF 7
ENDMDL
MODEL 4
REMARK VINA RESULT:    -4.584      2.142      4.242
REMARK INTER + INTRA:          -6.260
REMARK INTER:                  -5.867
REMARK INTRA:                  -0.394
REMARK UNBOUND:                -0.336
REMARK SMILES CCO[C@@H]1O[C@@H](CO)[C@@H](O)[C@H](O)[C@H]1O
REMARK SMILES IDX 4 1 13 2 11 3 9 4 6 5 5 6 3 7 2 8 1 9 14 10 12 12 7 14 8 15
REMARK SMILES IDX 10 17
REMARK H PARENT 14 11 12 13 8 16 10 18
REMARK Flexibility Score: inf
ROOT
ATOM      1  C   UNL     1      20.809   4.381  37.377  1.00  0.00     0.281 C 
ATOM      2  C   UNL     1      20.479   3.715  38.735  1.00  0.00     0.202 C 
ATOM      3  C   UNL     1      21.645   2.846  39.258  1.00  0.00     0.179 C 
ATOM      4  C   UNL     1      23.009   3.556  39.092  1.00  0.00     0.177 C 
ATOM      5  C   UNL     1      23.128   4.169  37.677  1.00  0.00     0.178 C 
ATOM      6  O   UNL     1      22.057   5.063  37.421  1.00  0.00    -0.341 OA
ENDROOT
BRANCH   1   7
ATOM      7  O   UNL     1      20.774   3.420  36.334  1.00  0.00    -0.350 OA
BRANCH   7   8
ATOM      8  C   UNL     1      20.052   3.901  35.216  1.00  0.00     0.160 C 
ATOM      9  C   UNL     1      21.005   4.203  34.066  1.00  0.00     0.035 C 
ENDBRANCH   7   8
ENDBRANCH   1   7
BRANCH   2  10
ATOM     10  O   UNL     1      20.196   4.711  39.686  1.00  0.00    -0.385 OA
ATOM     11  H   UNL     1      19.606   4.300  40.371  1.00  0.00     0.211 HD
ENDBRANCH   2  10
BRANCH   3  12
ATOM     12  O   UNL     1      21.644   1.567  38.669  1.00  0.00    -0.387 OA
ATOM     13  H   UNL     1      21.727   0.889  39.384  1.00  0.00     0.211 HD
ENDBRANCH   3  12
BRANCH   5  14
ATOM     14  C   UNL     1      24.461   4.910  37.482  1.00  0.00     0.191 C 
BRANCH  14  15
ATOM     15  O   UNL     1      24.353   6.256  37.867  1.00  0.00    -0.394 OA
ATOM     16  H   UNL     1      24.806   6.799  37.171  1.00  0.00     0.210 HD
ENDBRANCH  14  15
ENDBRANCH   5  14
BRANCH   4  17
ATOM     17  O   UNL     1      23.131   4.565  40.062  1.00  0.00    -0.387 OA
ATOM     18  H   UNL     1      22.846   4.170  40.926  1.00  0.00     0.211 HD
ENDBRANCH   4  17
TORSDOF 7
ENDMDL
MODEL 5
REMARK VINA RESULT:    -4.539     14.976     16.966
REMARK INTER + INTRA:          -6.201
REMARK INTER:                  -5.861
REMARK INTRA:                  -0.341
REMARK UNBOUND:                -0.336
REMARK SMILES CCO[C@@H]1O[C@@H](CO)[C@@H](O)[C@H](O)[C@H]1O
REMARK SMILES IDX 4 1 13 2 11 3 9 4 6 5 5 6 3 7 2 8 1 9 14 10 12 12 7 14 8 15
REMARK SMILES IDX 10 17
REMARK H PARENT 14 11 12 13 8 16 10 18
REMARK Flexibility Score: inf
ROOT
ATOM      1  C   UNL     1      35.309   1.692  44.341  1.00  0.00     0.281 C 
ATOM      2  C   UNL     1      35.267   0.409  43.476  1.00  0.00     0.202 C 
ATOM      3  C   UNL     1      36.619  -0.340  43.477  1.00  0.00     0.179 C 
ATOM      4  C   UNL     1      37.229  -0.421  44.895  1.00  0.00     0.177 C 
ATOM      5  C   UNL     1      37.153   0.957  45.594  1.00  0.00     0.178 C 
ATOM      6  O   UNL     1      35.816   1.426  45.643  1.00  0.00    -0.341 OA
ENDROOT
BRANCH   1   7
ATOM      7  O   UNL     1      36.055   2.705  43.686  1.00  0.00    -0.350 OA
BRANCH   7   8
ATOM      8  C   UNL     1      35.301   3.896  43.555  1.00  0.00     0.160 C 
ATOM      9  C   UNL     1      35.728   4.907  44.612  1.00  0.00     0.035 C 
ENDBRANCH   7   8
ENDBRANCH   1   7
BRANCH   2  10
ATOM     10  O   UNL     1      34.272  -0.453  43.969  1.00  0.00    -0.385 OA
ATOM     11  H   UNL     1      34.558  -0.739  44.876  1.00  0.00     0.211 HD
ENDBRANCH   2  10
BRANCH   3  12
ATOM     12  O   UNL     1      37.520   0.216  42.549  1.00  0.00    -0.387 OA
ATOM     13  H   UNL     1      37.036   0.873  41.991  1.00  0.00     0.211 HD
ENDBRANCH   3  12
BRANCH   5  14
ATOM     14  C   UNL     1      37.725   0.910  47.020  1.00  0.00     0.191 C 
BRANCH  14  15
ATOM     15  O   UNL     1      36.929   0.112  47.858  1.00  0.00    -0.394 OA
ATOM     16  H   UNL     1      36.998  -0.821  47.528  1.00  0.00     0.210 HD
ENDBRANCH  14  15
ENDBRANCH   5  14
BRANCH   4  17
ATOM     17  O   UNL     1      36.530  -1.379  45.649  1.00  0.00    -0.387 OA
ATOM     18  H   UNL     1      37.184  -1.786  46.275  1.00  0.00     0.211 HD
ENDBRANCH   4  17
TORSDOF 7
ENDMDL
MODEL 6
REMARK VINA RESULT:    -4.461      1.970      3.441
REMARK INTER + INTRA:          -6.101
REMARK INTER:                  -5.716
REMARK INTRA:                  -0.386
REMARK UNBOUND:                -0.336
REMARK SMILES CCO[C@@H]1O[C@@H](CO)[C@@H](O)[C@H](O)[C@H]1O
REMARK SMILES IDX 4 1 13 2 11 3 9 4 6 5 5 6 3 7 2 8 1 9 14 10 12 12 7 14 8 15
REMARK SMILES IDX 10 17
REMARK H PARENT 14 11 12 13 8 16 10 18
REMARK Flexibility Score: inf
ROOT
ATOM      1  C   UNL     1      21.146   2.841  37.859  1.00  0.00     0.281 C 
ATOM      2  C   UNL     1      21.592   4.207  38.434  1.00  0.00     0.202 C 
ATOM      3  C   UNL     1      22.091   5.170  37.332  1.00  0.00     0.179 C 
ATOM      4  C   UNL     1      21.166   5.152  36.093  1.00  0.00     0.177 C 
ATOM      5  C   UNL     1      20.824   3.696  35.697  1.00  0.00     0.178 C 
ATOM      6  O   UNL     1      20.230   3.003  36.783  1.00  0.00    -0.341 OA
ENDROOT
BRANCH   1   7
ATOM      7  O   UNL     1      22.276   2.074  37.475  1.00  0.00    -0.350 OA
BRANCH   7   8
ATOM      8  C   UNL     1      22.911   1.496  38.600  1.00  0.00     0.160 C 
ATOM      9  C   UNL     1      22.670  -0.009  38.624  1.00  0.00     0.035 C 
ENDBRANCH   7   8
ENDBRANCH   1   7
BRANCH   2  10
ATOM     10  O   UNL     1      20.511   4.807  39.102  1.00  0.00    -0.385 OA
ATOM     11  H   UNL     1      20.756   5.757  39.258  1.00  0.00     0.211 HD
ENDBRANCH   2  10
BRANCH   3  12
ATOM     12  O   UNL     1      23.432   4.914  36.988  1.00  0.00    -0.387 OA
ATOM     13  H   UNL     1      23.825   5.738  36.607  1.00  0.00     0.211 HD
ENDBRANCH   3  12
BRANCH   5  14
ATOM     14  C   UNL     1      19.880   3.638  34.485  1.00  0.00     0.191 C 
BRANCH  14  15
ATOM     15  O   UNL     1      20.198   4.633  33.546  1.00  0.00    -0.394 OA
ATOM     16  H   UNL     1      20.397   4.176  32.689  1.00  0.00     0.210 HD
ENDBRANCH  14  15
ENDBRANCH   5  14
BRANCH   4  17
ATOM     17  O   UNL     1      19.986   5.859  36.382  1.00  0.00    -0.387 OA
ATOM     18  H   UNL     1      20.086   6.223  37.300  1.00  0.00     0.211 HD
ENDBRANCH   4  17
TORSDOF 7
ENDMDL
MODEL 7
REMARK VINA RESULT:    -4.441     15.014     17.794
REMARK INTER + INTRA:          -6.076
REMARK INTER:                  -5.657
REMARK INTRA:                  -0.419
REMARK UNBOUND:                -0.336
REMARK SMILES CCO[C@@H]1O[C@@H](CO)[C@@H](O)[C@H](O)[C@H]1O
REMARK SMILES IDX 4 1 13 2 11 3 9 4 6 5 5 6 3 7 2 8 1 9 14 10 12 12 7 14 8 15
REMARK SMILES IDX 10 17
REMARK H PARENT 14 11 12 13 8 16 10 18
REMARK Flexibility Score: inf
ROOT
ATOM      1  C   UNL     1      36.334   2.137  45.131  1.00  0.00     0.281 C 
ATOM      2  C   UNL     1      36.817   0.884  45.901  1.00  0.00     0.202 C 
ATOM      3  C   UNL     1      38.089   0.269  45.275  1.00  0.00     0.179 C 
ATOM      4  C   UNL     1      39.125   1.353  44.898  1.00  0.00     0.177 C 
ATOM      5  C   UNL     1      38.435   2.524  44.159  1.00  0.00     0.178 C 
ATOM      6  O   UNL     1      37.389   3.072  44.945  1.00  0.00    -0.341 OA
ENDROOT
BRANCH   1   7
ATOM      7  O   UNL     1      35.742   1.763  43.898  1.00  0.00    -0.350 OA
BRANCH   7   8
ATOM      8  C   UNL     1      34.476   1.161  44.097  1.00  0.00     0.160 C 
ATOM      9  C   UNL     1      33.399   1.946  43.359  1.00  0.00     0.035 C 
ENDBRANCH   7   8
ENDBRANCH   1   7
BRANCH   2  10
ATOM     10  O   UNL     1      37.092   1.232  47.234  1.00  0.00    -0.385 OA
ATOM     11  H   UNL     1      37.729   1.994  47.211  1.00  0.00     0.211 HD
ENDBRANCH   2  10
BRANCH   3  12
ATOM     12  O   UNL     1      37.780  -0.562  44.181  1.00  0.00    -0.387 OA
ATOM     13  H   UNL     1      36.909  -0.999  44.352  1.00  0.00     0.211 HD
ENDBRANCH   3  12
BRANCH   5  14
ATOM     14  C   UNL     1      39.429   3.638  43.793  1.00  0.00     0.191 C 
BRANCH  14  15
ATOM     15  O   UNL     1      39.607   4.529  44.864  1.00  0.00    -0.394 OA
ATOM     16  H   UNL     1      38.868   5.190  44.823  1.00  0.00     0.210 HD
ENDBRANCH  14  15
ENDBRANCH   5  14
BRANCH   4  17
ATOM     17  O   UNL     1      39.749   1.827  46.065  1.00  0.00    -0.387 OA
ATOM     18  H   UNL     1      39.026   2.085  46.694  1.00  0.00     0.211 HD
ENDBRANCH   4  17
TORSDOF 7
ENDMDL
MODEL 8
REMARK VINA RESULT:    -4.436     10.730     12.904
REMARK INTER + INTRA:          -6.069
REMARK INTER:                  -5.598
REMARK INTRA:                  -0.470
REMARK UNBOUND:                -0.336
REMARK SMILES CCO[C@@H]1O[C@@H](CO)[C@@H](O)[C@H](O)[C@H]1O
REMARK SMILES IDX 4 1 13 2 11 3 9 4 6 5 5 6 3 7 2 8 1 9 14 10 12 12 7 14 8 15
REMARK SMILES IDX 10 17
REMARK H PARENT 14 11 12 13 8 16 10 18
REMARK Flexibility Score: inf
ROOT
ATOM      1  C   UNL     1      33.528   3.380  41.225  1.00  0.00     0.281 C 
ATOM      2  C   UNL     1      34.503   2.219  40.913  1.00  0.00     0.202 C 
ATOM      3  C   UNL     1      34.464   1.116  41.995  1.00  0.00     0.179 C 
ATOM      4  C   UNL     1      33.015   0.775  42.414  1.00  0.00     0.177 C 
ATOM      5  C   UNL     1      32.206   2.071  42.656  1.00  0.00     0.178 C 
ATOM      6  O   UNL     1      32.219   2.898  41.505  1.00  0.00    -0.341 OA
ENDROOT
BRANCH   1   7
ATOM      7  O   UNL     1      34.031   4.176  42.286  1.00  0.00    -0.350 OA
BRANCH   7   8
ATOM      8  C   UNL     1      35.247   4.805  41.925  1.00  0.00     0.160 C 
ATOM      9  C   UNL     1      36.041   5.169  43.174  1.00  0.00     0.035 C 
ENDBRANCH   7   8
ENDBRANCH   1   7
BRANCH   2  10
ATOM     10  O   UNL     1      34.168   1.649  39.673  1.00  0.00    -0.385 OA
ATOM     11  H   UNL     1      35.003   1.601  39.139  1.00  0.00     0.211 HD
ENDBRANCH   2  10
BRANCH   3  12
ATOM     12  O   UNL     1      35.266   1.448  43.103  1.00  0.00    -0.387 OA
ATOM     13  H   UNL     1      34.741   1.304  43.929  1.00  0.00     0.211 HD
ENDBRANCH   3  12
BRANCH   5  14
ATOM     14  C   UNL     1      30.749   1.773  43.047  1.00  0.00     0.191 C 
BRANCH  14  15
ATOM     15  O   UNL     1      29.975   1.461  41.917  1.00  0.00    -0.394 OA
ATOM     16  H   UNL     1      29.693   2.320  41.507  1.00  0.00     0.210 HD
ENDBRANCH  14  15
ENDBRANCH   5  14
BRANCH   4  17
ATOM     17  O   UNL     1      32.405   0.012  41.404  1.00  0.00    -0.387 OA
ATOM     18  H   UNL     1      31.634  -0.454  41.820  1.00  0.00     0.211 HD
ENDBRANCH   4  17
TORSDOF 7
ENDMDL
MODEL 9
REMARK VINA RESULT:    -4.371     14.937     17.794
REMARK INTER + INTRA:          -5.985
REMARK INTER:                  -5.539
REMARK INTRA:                  -0.446
REMARK UNBOUND:                -0.336
REMARK SMILES CCO[C@@H]1O[C@@H](CO)[C@@H](O)[C@H](O)[C@H]1O
REMARK SMILES IDX 4 1 13 2 11 3 9 4 6 5 5 6 3 7 2 8 1 9 14 10 12 12 7 14 8 15
REMARK SMILES IDX 10 17
REMARK H PARENT 14 11 12 13 8 16 10 18
REMARK Flexibility Score: inf
ROOT
ATOM      1  C   UNL     1      37.068   1.585  43.055  1.00  0.00     0.281 C 
ATOM      2  C   UNL     1      38.456   2.267  43.119  1.00  0.00     0.202 C 
ATOM      3  C   UNL     1      38.819   2.720  44.551  1.00  0.00     0.179 C 
ATOM      4  C   UNL     1      38.476   1.637  45.600  1.00  0.00     0.177 C 
ATOM      5  C   UNL     1      37.058   1.072  45.345  1.00  0.00     0.178 C 
ATOM      6  O   UNL     1      36.949   0.555  44.029  1.00  0.00    -0.341 OA
ENDROOT
BRANCH   1   7
ATOM      7  O   UNL     1      36.037   2.551  43.184  1.00  0.00    -0.350 OA
BRANCH   7   8
ATOM      8  C   UNL     1      36.000   3.417  42.065  1.00  0.00     0.160 C 
ATOM      9  C   UNL     1      35.389   4.756  42.459  1.00  0.00     0.035 C 
ENDBRANCH   7   8
ENDBRANCH   1   7
BRANCH   2  10
ATOM     10  O   UNL     1      39.438   1.369  42.666  1.00  0.00    -0.385 OA
ATOM     11  H   UNL     1      39.076   0.453  42.792  1.00  0.00     0.211 HD
ENDBRANCH   2  10
BRANCH   3  12
ATOM     12  O   UNL     1      38.232   3.961  44.867  1.00  0.00    -0.387 OA
ATOM     13  H   UNL     1      38.634   4.658  44.292  1.00  0.00     0.211 HD
ENDBRANCH   3  12
BRANCH   5  14
ATOM     14  C   UNL     1      36.691  -0.031  46.351  1.00  0.00     0.191 C 
BRANCH  14  15
ATOM     15  O   UNL     1      37.179   0.270  47.634  1.00  0.00    -0.394 OA
ATOM     16  H   UNL     1      36.394   0.444  48.214  1.00  0.00     0.210 HD
ENDBRANCH  14  15
ENDBRANCH   5  14
BRANCH   4  17
ATOM     17  O   UNL     1      39.423   0.603  45.528  1.00  0.00    -0.387 OA
ATOM     18  H   UNL     1      40.207   0.962  45.036  1.00  0.00     0.211 HD
ENDBRANCH   4  17
TORSDOF 7
ENDMDL
