MODEL 1
REMARK VINA RESULT:     0.223      0.000      0.000
REMARK INTER + INTRA:           5.888
REMARK INTER:                   0.340
REMARK INTRA:                   5.548
REMARK UNBOUND:                 5.548
REMARK SMILES CC1=CCC[C@H](C)C(=O)C[C@H](C(C)C)C(=O)C1
REMARK SMILES IDX 8 1 9 2 6 3 7 4 5 5 4 6 3 7 2 8 1 9 10 11 11 12 15 13 16 14
REMARK SMILES IDX 17 15 12 17 13 18 14 19
REMARK H PARENT
REMARK Flexibility Score: 70.00
ROOT
ATOM      1  C   UNL     1     -10.115 -24.433  23.888  1.00  0.00     0.136 C 
ATOM      2  O   UNL     1      -9.298 -24.944  23.135  1.00  0.00    -0.299 OA
ENDROOT
BRANCH   1   3
ATOM      3  C   UNL     1     -10.080 -24.751  25.376  1.00  0.00     0.053 C 
ATOM      4  C   UNL     1      -8.665 -25.109  25.858  1.00  0.00     0.016 C 
BRANCH   3   5
ATOM      5  C   UNL     1     -10.686 -23.614  26.230  1.00  0.00     0.015 C 
BRANCH   5   6
ATOM      6  C   UNL     1     -10.833 -22.264  25.485  1.00  0.00     0.028 C 
BRANCH   6   7
ATOM      7  C   UNL     1      -9.578 -21.434  25.625  1.00  0.00    -0.028 C 
ATOM      8  C   UNL     1      -8.500 -21.490  24.805  1.00  0.00    -0.070 CG0
ATOM      9  C   UNL     1      -7.397 -20.484  25.017  1.00  0.00     0.039 C 
ATOM     10  G   UNL     1      -8.347 -22.514  23.689  1.00  0.00     0.000 G0
ENDBRANCH   6   7
ENDBRANCH   5   6
ENDBRANCH   3   5
ENDBRANCH   1   3
BRANCH   1  11
ATOM     11  C   UNL     1     -11.124 -23.464  23.315  1.00  0.00     0.087 C 
BRANCH  11  12
ATOM     12  C   UNL     1     -10.531 -22.591  22.175  1.00  0.00     0.066 C 
BRANCH  12  13
ATOM     13  C   UNL     1      -9.044 -22.321  22.384  1.00  0.00     0.140 C 
ATOM     14  O   UNL     1      -8.381 -21.926  21.438  1.00  0.00    -0.299 OA
BRANCH  13  15
ATOM     15  C   UNL     1      -8.318 -22.542  23.698  1.00  0.00     0.106 CG0
ATOM     16  G   UNL     1      -8.555 -21.488  24.771  1.00  0.00     0.000 G0
ENDBRANCH  13  15
ENDBRANCH  12  13
BRANCH  12  17
ATOM     17  C   UNL     1     -10.806 -23.147  20.742  1.00  0.00    -0.006 C 
ATOM     18  C   UNL     1     -10.852 -22.074  19.639  1.00  0.00     0.008 C 
ATOM     19  C   UNL     1      -9.799 -24.244  20.356  1.00  0.00     0.008 C 
ENDBRANCH  12  17
ENDBRANCH  11  12
ENDBRANCH   1  11
TORSDOF 1
ENDMDL
