MODEL 1
REMARK VINA RESULT:    -2.463      0.000      0.000
REMARK INTER + INTRA:          -2.463
REMARK INTER:                  -2.463
REMARK INTRA:                   0.000
REMARK UNBOUND:                 0.000
REMARK SMILES CC(=O)[O-]
REMARK SMILES IDX 1 1 2 2 3 3 4 4
REMARK H PARENT
REMARK Flexibility Score: inf
ROOT
ATOM      1  C   UNL     1      -1.937 -34.312  53.572  1.00  0.00     0.063 C 
ATOM      2  C   UNL     1      -2.088 -35.370  54.611  1.00  0.00     0.038 C 
ATOM      3  O   UNL     1      -1.078 -35.798  55.228  1.00  0.00    -0.550 OA
ATOM      4  O   UNL     1      -3.350 -35.847  54.940  1.00  0.00    -0.550 OA
ENDROOT
TORSDOF 0
ENDMDL
MODEL 2
REMARK VINA RESULT:    -2.441      0.105      1.622
REMARK INTER + INTRA:          -2.441
REMARK INTER:                  -2.441
REMARK INTRA:                   0.000
REMARK UNBOUND:                 0.000
REMARK SMILES CC(=O)[O-]
REMARK SMILES IDX 1 1 2 2 3 3 4 4
REMARK H PARENT
REMARK Flexibility Score: inf
ROOT
ATOM      1  C   UNL     1      -1.954 -34.295  53.540  1.00  0.00     0.063 C 
ATOM      2  C   UNL     1      -2.094 -35.319  54.615  1.00  0.00     0.038 C 
ATOM      3  O   UNL     1      -3.221 -35.817  54.870  1.00  0.00    -0.550 OA
ATOM      4  O   UNL     1      -0.972 -35.765  55.302  1.00  0.00    -0.550 OA
ENDROOT
TORSDOF 0
ENDMDL
MODEL 3
REMARK VINA RESULT:    -2.413     12.688     12.796
REMARK INTER + INTRA:          -2.413
REMARK INTER:                  -2.413
REMARK INTRA:                   0.000
REMARK UNBOUND:                 0.000
REMARK SMILES CC(=O)[O-]
REMARK SMILES IDX 1 1 2 2 3 3 4 4
REMARK H PARENT
REMARK Flexibility Score: inf
ROOT
ATOM      1  C   UNL     1       2.957 -42.563  44.085  1.00  0.00     0.063 C 
ATOM      2  C   UNL     1       2.239 -42.935  45.338  1.00  0.00     0.038 C 
ATOM      3  O   UNL     1       2.632 -42.490  46.448  1.00  0.00    -0.550 OA
ATOM      4  O   UNL     1       1.102 -43.731  45.279  1.00  0.00    -0.550 OA
ENDROOT
TORSDOF 0
ENDMDL
MODEL 4
REMARK VINA RESULT:    -2.389      1.918      1.981
REMARK INTER + INTRA:          -2.389
REMARK INTER:                  -2.389
REMARK INTRA:                   0.000
REMARK UNBOUND:                 0.000
REMARK SMILES CC(=O)[O-]
REMARK SMILES IDX 1 1 2 2 3 3 4 4
REMARK H PARENT
REMARK Flexibility Score: inf
ROOT
ATOM      1  C   UNL     1      -1.506 -35.905  55.220  1.00  0.00     0.063 C 
ATOM      2  C   UNL     1      -2.964 -35.666  55.017  1.00  0.00     0.038 C 
ATOM      3  O   UNL     1      -3.450 -35.673  53.856  1.00  0.00    -0.550 OA
ATOM      4  O   UNL     1      -3.799 -35.487  56.113  1.00  0.00    -0.550 OA
ENDROOT
TORSDOF 0
ENDMDL
MODEL 5
REMARK VINA RESULT:    -2.383      1.413      1.834
REMARK INTER + INTRA:          -2.383
REMARK INTER:                  -2.383
REMARK INTRA:                   0.000
REMARK UNBOUND:                 0.000
REMARK SMILES CC(=O)[O-]
REMARK SMILES IDX 1 1 2 2 3 3 4 4
REMARK H PARENT
REMARK Flexibility Score: inf
ROOT
ATOM      1  C   UNL     1      -3.893 -35.500  55.775  1.00  0.00     0.063 C 
ATOM      2  C   UNL     1      -2.645 -35.637  54.971  1.00  0.00     0.038 C 
ATOM      3  O   UNL     1      -1.578 -36.017  55.521  1.00  0.00    -0.550 OA
ATOM      4  O   UNL     1      -2.668 -35.398  53.603  1.00  0.00    -0.550 OA
ENDROOT
TORSDOF 0
ENDMDL
MODEL 6
REMARK VINA RESULT:    -2.359     14.759     15.125
REMARK INTER + INTRA:          -2.359
REMARK INTER:                  -2.359
REMARK INTRA:                   0.000
REMARK UNBOUND:                 0.000
REMARK SMILES CC(=O)[O-]
REMARK SMILES IDX 1 1 2 2 3 3 4 4
REMARK H PARENT
REMARK Flexibility Score: inf
ROOT
ATOM      1  C   UNL     1      -9.541 -33.311  40.764  1.00  0.00     0.063 C 
ATOM      2  C   UNL     1      -8.210 -32.751  41.135  1.00  0.00     0.038 C 
ATOM      3  O   UNL     1      -7.203 -33.503  41.198  1.00  0.00    -0.550 OA
ATOM      4  O   UNL     1      -8.066 -31.387  41.359  1.00  0.00    -0.550 OA
ENDROOT
TORSDOF 0
ENDMDL
MODEL 7
REMARK VINA RESULT:    -2.351     14.688     15.275
REMARK INTER + INTRA:          -2.351
REMARK INTER:                  -2.351
REMARK INTRA:                   0.000
REMARK UNBOUND:                 0.000
REMARK SMILES CC(=O)[O-]
REMARK SMILES IDX 1 1 2 2 3 3 4 4
REMARK H PARENT
REMARK Flexibility Score: inf
ROOT
ATOM      1  C   UNL     1      -7.663 -33.177  41.223  1.00  0.00     0.063 C 
ATOM      2  C   UNL     1      -9.108 -33.543  41.181  1.00  0.00     0.038 C 
ATOM      3  O   UNL     1      -9.835 -33.141  40.235  1.00  0.00    -0.550 OA
ATOM      4  O   UNL     1      -9.645 -34.373  42.157  1.00  0.00    -0.550 OA
ENDROOT
TORSDOF 0
ENDMDL
MODEL 8
REMARK VINA RESULT:    -2.342     14.715     15.297
REMARK INTER + INTRA:          -2.342
REMARK INTER:                  -2.342
REMARK INTRA:                   0.000
REMARK UNBOUND:                 0.000
REMARK SMILES CC(=O)[O-]
REMARK SMILES IDX 1 1 2 2 3 3 4 4
REMARK H PARENT
REMARK Flexibility Score: inf
ROOT
ATOM      1  C   UNL     1     -10.209 -33.816  42.548  1.00  0.00     0.063 C 
ATOM      2  C   UNL     1      -9.338 -33.575  41.362  1.00  0.00     0.038 C 
ATOM      3  O   UNL     1      -9.843 -33.187  40.276  1.00  0.00    -0.550 OA
ATOM      4  O   UNL     1      -7.961 -33.726  41.467  1.00  0.00    -0.550 OA
ENDROOT
TORSDOF 0
ENDMDL
MODEL 9
REMARK VINA RESULT:    -2.284      2.066      2.685
REMARK INTER + INTRA:          -2.284
REMARK INTER:                  -2.284
REMARK INTRA:                   0.000
REMARK UNBOUND:                 0.000
REMARK SMILES CC(=O)[O-]
REMARK SMILES IDX 1 1 2 2 3 3 4 4
REMARK H PARENT
REMARK Flexibility Score: inf
ROOT
ATOM      1  C   UNL     1      -2.100 -34.327  53.527  1.00  0.00     0.063 C 
ATOM      2  C   UNL     1      -3.507 -33.914  53.798  1.00  0.00     0.038 C 
ATOM      3  O   UNL     1      -4.127 -33.202  52.966  1.00  0.00    -0.550 OA
ATOM      4  O   UNL     1      -4.155 -34.359  54.943  1.00  0.00    -0.550 OA
ENDROOT
TORSDOF 0
ENDMDL
