MODEL 1
REMARK VINA RESULT:    -5.228      0.000      0.000
REMARK INTER + INTRA:         -10.506
REMARK INTER:                  -9.506
REMARK INTRA:                  -1.000
REMARK UNBOUND:                -1.000
REMARK SMILES CCCCCC=CCC=CCCCCCCCC(=O)[O-]
REMARK SMILES IDX 11 1 12 2 13 3 14 4 15 5 16 6 17 7 18 8 19 9 20 10 10 11
REMARK SMILES IDX 9 12 8 13 7 14 6 15 5 16 4 17 3 18 2 19 1 20
REMARK H PARENT
REMARK Flexibility Score: inf
ROOT
ATOM      1  C   UNL     1      21.237  32.621  29.378  1.00  0.00     0.027 C 
ENDROOT
BRANCH   1   2
ATOM      2  C   UNL     1      21.816  33.989  28.999  1.00  0.00     0.004 C 
BRANCH   2   3
ATOM      3  C   UNL     1      22.000  34.870  30.243  1.00  0.00     0.000 C 
BRANCH   3   4
ATOM      4  C   UNL     1      22.984  36.031  30.014  1.00  0.00     0.000 C 
BRANCH   4   5
ATOM      5  C   UNL     1      23.675  36.040  28.634  1.00  0.00     0.000 C 
BRANCH   5   6
ATOM      6  C   UNL     1      24.852  37.022  28.501  1.00  0.00     0.006 C 
BRANCH   6   7
ATOM      7  C   UNL     1      26.036  36.659  29.406  1.00  0.00     0.053 C 
BRANCH   7   8
ATOM      8  C   UNL     1      27.002  35.780  28.675  1.00  0.00     0.041 C 
ATOM      9  O   UNL     1      27.804  35.052  29.315  1.00  0.00    -0.550 OA
ATOM     10  O   UNL     1      26.978  35.725  27.288  1.00  0.00    -0.550 OA
ENDBRANCH   7   8
ENDBRANCH   6   7
ENDBRANCH   5   6
ENDBRANCH   4   5
ENDBRANCH   3   4
ENDBRANCH   2   3
ENDBRANCH   1   2
BRANCH   1  11
ATOM     11  C   UNL     1      21.083  32.491  30.868  1.00  0.00    -0.031 C 
ATOM     12  C   UNL     1      19.909  32.158  31.426  1.00  0.00    -0.027 C 
BRANCH  12  13
ATOM     13  C   UNL     1      19.758  32.042  32.916  1.00  0.00     0.054 C 
BRANCH  13  14
ATOM     14  C   UNL     1      20.934  31.303  33.506  1.00  0.00    -0.027 C 
ATOM     15  C   UNL     1      20.844  30.163  34.215  1.00  0.00    -0.031 C 
BRANCH  15  16
ATOM     16  C   UNL     1      19.550  29.494  34.601  1.00  0.00     0.027 C 
BRANCH  16  17
ATOM     17  C   UNL     1      19.746  27.984  34.782  1.00  0.00     0.004 C 
BRANCH  17  18
ATOM     18  C   UNL     1      21.235  27.624  34.828  1.00  0.00     0.000 C 
BRANCH  18  19
ATOM     19  C   UNL     1      21.479  26.221  34.260  1.00  0.00    -0.003 C 
ATOM     20  C   UNL     1      22.930  25.791  34.458  1.00  0.00     0.004 C 
ENDBRANCH  18  19
ENDBRANCH  17  18
ENDBRANCH  16  17
ENDBRANCH  15  16
ENDBRANCH  13  14
ENDBRANCH  12  13
ENDBRANCH   1  11
TORSDOF 14
ENDMDL
MODEL 2
REMARK VINA RESULT:    -4.976      3.359      5.866
REMARK INTER + INTRA:         -10.049
REMARK INTER:                  -8.448
REMARK INTRA:                  -1.600
REMARK UNBOUND:                -1.000
REMARK SMILES CCCCCC=CCC=CCCCCCCCC(=O)[O-]
REMARK SMILES IDX 11 1 12 2 13 3 14 4 15 5 16 6 17 7 18 8 19 9 20 10 10 11
REMARK SMILES IDX 9 12 8 13 7 14 6 15 5 16 4 17 3 18 2 19 1 20
REMARK H PARENT
REMARK Flexibility Score: inf
ROOT
ATOM      1  C   UNL     1      21.159  30.321  33.890  1.00  0.00     0.027 C 
ENDROOT
BRANCH   1   2
ATOM      2  C   UNL     1      20.159  31.339  34.450  1.00  0.00     0.004 C 
BRANCH   2   3
ATOM      3  C   UNL     1      18.771  31.147  33.821  1.00  0.00     0.000 C 
BRANCH   3   4
ATOM      4  C   UNL     1      18.262  32.407  33.100  1.00  0.00     0.000 C 
BRANCH   4   5
ATOM      5  C   UNL     1      18.690  32.535  31.624  1.00  0.00     0.000 C 
BRANCH   5   6
ATOM      6  C   UNL     1      20.022  33.271  31.392  1.00  0.00     0.006 C 
BRANCH   6   7
ATOM      7  C   UNL     1      21.058  32.411  30.660  1.00  0.00     0.053 C 
BRANCH   7   8
ATOM      8  C   UNL     1      21.434  33.042  29.356  1.00  0.00     0.041 C 
ATOM      9  O   UNL     1      21.417  34.294  29.231  1.00  0.00    -0.550 OA
ATOM     10  O   UNL     1      21.855  32.250  28.297  1.00  0.00    -0.550 OA
ENDBRANCH   7   8
ENDBRANCH   6   7
ENDBRANCH   5   6
ENDBRANCH   4   5
ENDBRANCH   3   4
ENDBRANCH   2   3
ENDBRANCH   1   2
BRANCH   1  11
ATOM     11  C   UNL     1      20.986  28.976  34.540  1.00  0.00    -0.031 C 
ATOM     12  C   UNL     1      21.814  27.955  34.272  1.00  0.00    -0.027 C 
BRANCH  12  13
ATOM     13  C   UNL     1      21.628  26.610  34.915  1.00  0.00     0.054 C 
BRANCH  13  14
ATOM     14  C   UNL     1      21.337  25.564  33.867  1.00  0.00    -0.027 C 
ATOM     15  C   UNL     1      20.104  25.190  33.481  1.00  0.00    -0.031 C 
BRANCH  15  16
ATOM     16  C   UNL     1      18.824  25.696  34.095  1.00  0.00     0.027 C 
BRANCH  16  17
ATOM     17  C   UNL     1      17.644  25.515  33.131  1.00  0.00     0.004 C 
BRANCH  17  18
ATOM     18  C   UNL     1      16.513  26.496  33.456  1.00  0.00     0.000 C 
BRANCH  18  19
ATOM     19  C   UNL     1      17.009  27.946  33.398  1.00  0.00    -0.003 C 
ATOM     20  C   UNL     1      16.385  28.695  32.225  1.00  0.00     0.004 C 
ENDBRANCH  18  19
ENDBRANCH  17  18
ENDBRANCH  16  17
ENDBRANCH  15  16
ENDBRANCH  13  14
ENDBRANCH  12  13
ENDBRANCH   1  11
TORSDOF 14
ENDMDL
MODEL 3
REMARK VINA RESULT:    -4.936      4.147      9.044
REMARK INTER + INTRA:          -9.975
REMARK INTER:                  -8.603
REMARK INTRA:                  -1.372
REMARK UNBOUND:                -1.000
REMARK SMILES CCCCCC=CCC=CCCCCCCCC(=O)[O-]
REMARK SMILES IDX 11 1 12 2 13 3 14 4 15 5 16 6 17 7 18 8 19 9 20 10 10 11
REMARK SMILES IDX 9 12 8 13 7 14 6 15 5 16 4 17 3 18 2 19 1 20
REMARK H PARENT
REMARK Flexibility Score: inf
ROOT
ATOM      1  C   UNL     1      16.547  28.423  33.179  1.00  0.00     0.027 C 
ENDROOT
BRANCH   1   2
ATOM      2  C   UNL     1      17.114  28.380  34.603  1.00  0.00     0.004 C 
BRANCH   2   3
ATOM      3  C   UNL     1      18.344  27.463  34.675  1.00  0.00     0.000 C 
BRANCH   3   4
ATOM      4  C   UNL     1      19.441  28.006  35.608  1.00  0.00     0.000 C 
BRANCH   4   5
ATOM      5  C   UNL     1      20.450  28.963  34.941  1.00  0.00     0.000 C 
BRANCH   5   6
ATOM      6  C   UNL     1      21.661  28.280  34.282  1.00  0.00     0.006 C 
BRANCH   6   7
ATOM      7  C   UNL     1      22.138  27.043  35.052  1.00  0.00     0.053 C 
BRANCH   7   8
ATOM      8  C   UNL     1      22.132  25.840  34.162  1.00  0.00     0.041 C 
ATOM      9  O   UNL     1      21.062  25.457  33.621  1.00  0.00    -0.550 OA
ATOM     10  O   UNL     1      23.319  25.174  33.887  1.00  0.00    -0.550 OA
ENDBRANCH   7   8
ENDBRANCH   6   7
ENDBRANCH   5   6
ENDBRANCH   4   5
ENDBRANCH   3   4
ENDBRANCH   2   3
ENDBRANCH   1   2
BRANCH   1  11
ATOM     11  C   UNL     1      17.089  29.599  32.414  1.00  0.00    -0.031 C 
ATOM     12  C   UNL     1      17.823  30.548  33.014  1.00  0.00    -0.027 C 
BRANCH  12  13
ATOM     13  C   UNL     1      18.353  31.727  32.249  1.00  0.00     0.054 C 
BRANCH  13  14
ATOM     14  C   UNL     1      19.835  31.885  32.488  1.00  0.00    -0.027 C 
ATOM     15  C   UNL     1      20.720  32.294  31.561  1.00  0.00    -0.031 C 
BRANCH  15  16
ATOM     16  C   UNL     1      20.383  32.576  30.120  1.00  0.00     0.027 C 
BRANCH  16  17
ATOM     17  C   UNL     1      21.572  33.218  29.394  1.00  0.00     0.004 C 
BRANCH  17  18
ATOM     18  C   UNL     1      21.479  34.747  29.431  1.00  0.00     0.000 C 
BRANCH  18  19
ATOM     19  C   UNL     1      22.809  35.368  29.874  1.00  0.00    -0.003 C 
ATOM     20  C   UNL     1      23.581  35.926  28.683  1.00  0.00     0.004 C 
ENDBRANCH  18  19
ENDBRANCH  17  18
ENDBRANCH  16  17
ENDBRANCH  15  16
ENDBRANCH  13  14
ENDBRANCH  12  13
ENDBRANCH   1  11
TORSDOF 14
ENDMDL
MODEL 4
REMARK VINA RESULT:    -4.929     14.251     15.142
REMARK INTER + INTRA:          -9.962
REMARK INTER:                  -8.590
REMARK INTRA:                  -1.372
REMARK UNBOUND:                -1.000
REMARK SMILES CCCCCC=CCC=CCCCCCCCC(=O)[O-]
REMARK SMILES IDX 11 1 12 2 13 3 14 4 15 5 16 6 17 7 18 8 19 9 20 10 10 11
REMARK SMILES IDX 9 12 8 13 7 14 6 15 5 16 4 17 3 18 2 19 1 20
REMARK H PARENT
REMARK Flexibility Score: inf
ROOT
ATOM      1  C   UNL     1      31.863  32.484  20.682  1.00  0.00     0.027 C 
ENDROOT
BRANCH   1   2
ATOM      2  C   UNL     1      31.497  33.912  21.106  1.00  0.00     0.004 C 
BRANCH   2   3
ATOM      3  C   UNL     1      32.514  34.924  20.559  1.00  0.00     0.000 C 
BRANCH   3   4
ATOM      4  C   UNL     1      33.926  34.331  20.409  1.00  0.00     0.000 C 
BRANCH   4   5
ATOM      5  C   UNL     1      35.041  35.105  21.143  1.00  0.00     0.000 C 
BRANCH   5   6
ATOM      6  C   UNL     1      34.784  35.357  22.639  1.00  0.00     0.006 C 
BRANCH   6   7
ATOM      7  C   UNL     1      35.529  34.370  23.546  1.00  0.00     0.053 C 
BRANCH   7   8
ATOM      8  C   UNL     1      34.558  33.495  24.274  1.00  0.00     0.041 C 
ATOM      9  O   UNL     1      33.826  32.694  23.637  1.00  0.00    -0.550 OA
ATOM     10  O   UNL     1      34.501  33.526  25.661  1.00  0.00    -0.550 OA
ENDBRANCH   7   8
ENDBRANCH   6   7
ENDBRANCH   5   6
ENDBRANCH   4   5
ENDBRANCH   3   4
ENDBRANCH   2   3
ENDBRANCH   1   2
BRANCH   1  11
ATOM     11  C   UNL     1      30.801  31.893  19.796  1.00  0.00    -0.031 C 
ATOM     12  C   UNL     1      30.493  32.438  18.610  1.00  0.00    -0.027 C 
BRANCH  12  13
ATOM     13  C   UNL     1      29.423  31.851  17.734  1.00  0.00     0.054 C 
BRANCH  13  14
ATOM     14  C   UNL     1      28.420  31.093  18.570  1.00  0.00    -0.027 C 
ATOM     15  C   UNL     1      27.735  30.013  18.150  1.00  0.00    -0.031 C 
BRANCH  15  16
ATOM     16  C   UNL     1      27.801  29.446  16.756  1.00  0.00     0.027 C 
BRANCH  16  17
ATOM     17  C   UNL     1      26.442  28.874  16.332  1.00  0.00     0.004 C 
BRANCH  17  18
ATOM     18  C   UNL     1      25.336  29.925  16.469  1.00  0.00     0.000 C 
BRANCH  18  19
ATOM     19  C   UNL     1      24.072  29.315  17.086  1.00  0.00    -0.003 C 
ATOM     20  C   UNL     1      24.173  27.795  17.162  1.00  0.00     0.004 C 
ENDBRANCH  18  19
ENDBRANCH  17  18
ENDBRANCH  16  17
ENDBRANCH  15  16
ENDBRANCH  13  14
ENDBRANCH  12  13
ENDBRANCH   1  11
TORSDOF 14
ENDMDL
MODEL 5
REMARK VINA RESULT:    -4.880     14.663     16.610
REMARK INTER + INTRA:          -9.874
REMARK INTER:                  -7.331
REMARK INTRA:                  -2.542
REMARK UNBOUND:                -1.000
REMARK SMILES CCCCCC=CCC=CCCCCCCCC(=O)[O-]
REMARK SMILES IDX 11 1 12 2 13 3 14 4 15 5 16 6 17 7 18 8 19 9 20 10 10 11
REMARK SMILES IDX 9 12 8 13 7 14 6 15 5 16 4 17 3 18 2 19 1 20
REMARK H PARENT
REMARK Flexibility Score: inf
ROOT
ATOM      1  C   UNL     1      30.857  32.407  20.106  1.00  0.00     0.027 C 
ENDROOT
BRANCH   1   2
ATOM      2  C   UNL     1      31.437  31.507  19.008  1.00  0.00     0.004 C 
BRANCH   2   3
ATOM      3  C   UNL     1      30.962  31.960  17.620  1.00  0.00     0.000 C 
BRANCH   3   4
ATOM      4  C   UNL     1      30.002  33.161  17.678  1.00  0.00     0.000 C 
BRANCH   4   5
ATOM      5  C   UNL     1      28.864  33.139  16.636  1.00  0.00     0.000 C 
BRANCH   5   6
ATOM      6  C   UNL     1      27.594  32.388  17.071  1.00  0.00     0.006 C 
BRANCH   6   7
ATOM      7  C   UNL     1      27.607  30.910  16.664  1.00  0.00     0.053 C 
BRANCH   7   8
ATOM      8  C   UNL     1      27.443  30.035  17.867  1.00  0.00     0.041 C 
ATOM      9  O   UNL     1      28.159  30.219  18.885  1.00  0.00    -0.550 OA
ATOM     10  O   UNL     1      26.462  29.053  17.883  1.00  0.00    -0.550 OA
ENDBRANCH   7   8
ENDBRANCH   6   7
ENDBRANCH   5   6
ENDBRANCH   4   5
ENDBRANCH   3   4
ENDBRANCH   2   3
ENDBRANCH   1   2
BRANCH   1  11
ATOM     11  C   UNL     1      31.822  32.558  21.249  1.00  0.00    -0.031 C 
ATOM     12  C   UNL     1      33.091  32.132  21.157  1.00  0.00    -0.027 C 
BRANCH  12  13
ATOM     13  C   UNL     1      34.047  32.274  22.307  1.00  0.00     0.054 C 
BRANCH  13  14
ATOM     14  C   UNL     1      33.902  33.635  22.945  1.00  0.00    -0.027 C 
ATOM     15  C   UNL     1      34.501  34.755  22.502  1.00  0.00    -0.031 C 
BRANCH  15  16
ATOM     16  C   UNL     1      35.477  34.809  21.354  1.00  0.00     0.027 C 
BRANCH  16  17
ATOM     17  C   UNL     1      34.961  35.726  20.238  1.00  0.00     0.004 C 
BRANCH  17  18
ATOM     18  C   UNL     1      33.429  35.744  20.205  1.00  0.00     0.000 C 
BRANCH  18  19
ATOM     19  C   UNL     1      32.905  35.361  18.816  1.00  0.00    -0.003 C 
ATOM     20  C   UNL     1      33.789  34.302  18.166  1.00  0.00     0.004 C 
ENDBRANCH  18  19
ENDBRANCH  17  18
ENDBRANCH  16  17
ENDBRANCH  15  16
ENDBRANCH  13  14
ENDBRANCH  12  13
ENDBRANCH   1  11
TORSDOF 14
ENDMDL
MODEL 6
REMARK VINA RESULT:    -4.874     14.393     16.720
REMARK INTER + INTRA:          -9.863
REMARK INTER:                  -6.962
REMARK INTRA:                  -2.901
REMARK UNBOUND:                -1.000
REMARK SMILES CCCCCC=CCC=CCCCCCCCC(=O)[O-]
REMARK SMILES IDX 11 1 12 2 13 3 14 4 15 5 16 6 17 7 18 8 19 9 20 10 10 11
REMARK SMILES IDX 9 12 8 13 7 14 6 15 5 16 4 17 3 18 2 19 1 20
REMARK H PARENT
REMARK Flexibility Score: inf
ROOT
ATOM      1  C   UNL     1      21.866  19.710  23.309  1.00  0.00     0.027 C 
ENDROOT
BRANCH   1   2
ATOM      2  C   UNL     1      22.006  19.746  21.783  1.00  0.00     0.004 C 
BRANCH   2   3
ATOM      3  C   UNL     1      20.654  19.487  21.102  1.00  0.00     0.000 C 
BRANCH   3   4
ATOM      4  C   UNL     1      19.920  20.782  20.715  1.00  0.00     0.000 C 
BRANCH   4   5
ATOM      5  C   UNL     1      18.599  21.036  21.469  1.00  0.00     0.000 C 
BRANCH   5   6
ATOM      6  C   UNL     1      18.693  22.038  22.633  1.00  0.00     0.006 C 
BRANCH   6   7
ATOM      7  C   UNL     1      17.406  22.109  23.463  1.00  0.00     0.053 C 
BRANCH   7   8
ATOM      8  C   UNL     1      17.730  22.267  24.915  1.00  0.00     0.041 C 
ATOM      9  O   UNL     1      18.836  22.752  25.268  1.00  0.00    -0.550 OA
ATOM     10  O   UNL     1      16.788  21.929  25.878  1.00  0.00    -0.550 OA
ENDBRANCH   7   8
ENDBRANCH   6   7
ENDBRANCH   5   6
ENDBRANCH   4   5
ENDBRANCH   3   4
ENDBRANCH   2   3
ENDBRANCH   1   2
BRANCH   1  11
ATOM     11  C   UNL     1      20.580  19.048  23.720  1.00  0.00    -0.031 C 
ATOM     12  C   UNL     1      19.971  19.353  24.876  1.00  0.00    -0.027 C 
BRANCH  12  13
ATOM     13  C   UNL     1      18.692  18.680  25.287  1.00  0.00     0.054 C 
BRANCH  13  14
ATOM     14  C   UNL     1      18.449  17.454  24.440  1.00  0.00    -0.027 C 
ATOM     15  C   UNL     1      17.515  17.363  23.476  1.00  0.00    -0.031 C 
BRANCH  15  16
ATOM     16  C   UNL     1      16.511  18.440  23.152  1.00  0.00     0.027 C 
BRANCH  16  17
ATOM     17  C   UNL     1      16.142  18.415  21.663  1.00  0.00     0.004 C 
BRANCH  17  18
ATOM     18  C   UNL     1      16.893  17.300  20.929  1.00  0.00     0.000 C 
BRANCH  18  19
ATOM     19  C   UNL     1      17.670  17.858  19.730  1.00  0.00    -0.003 C 
ATOM     20  C   UNL     1      16.760  18.670  18.814  1.00  0.00     0.004 C 
ENDBRANCH  18  19
ENDBRANCH  17  18
ENDBRANCH  16  17
ENDBRANCH  15  16
ENDBRANCH  13  14
ENDBRANCH  12  13
ENDBRANCH   1  11
TORSDOF 14
ENDMDL
MODEL 7
REMARK VINA RESULT:    -4.818      4.058      9.109
REMARK INTER + INTRA:          -9.760
REMARK INTER:                  -8.063
REMARK INTRA:                  -1.697
REMARK UNBOUND:                -1.000
REMARK SMILES CCCCCC=CCC=CCCCCCCCC(=O)[O-]
REMARK SMILES IDX 11 1 12 2 13 3 14 4 15 5 16 6 17 7 18 8 19 9 20 10 10 11
REMARK SMILES IDX 9 12 8 13 7 14 6 15 5 16 4 17 3 18 2 19 1 20
REMARK H PARENT
REMARK Flexibility Score: inf
ROOT
ATOM      1  C   UNL     1      16.612  28.769  32.435  1.00  0.00     0.027 C 
ENDROOT
BRANCH   1   2
ATOM      2  C   UNL     1      16.145  27.649  33.373  1.00  0.00     0.004 C 
BRANCH   2   3
ATOM      3  C   UNL     1      16.535  26.271  32.819  1.00  0.00     0.000 C 
BRANCH   3   4
ATOM      4  C   UNL     1      17.758  25.665  33.527  1.00  0.00     0.000 C 
BRANCH   4   5
ATOM      5  C   UNL     1      18.102  26.295  34.893  1.00  0.00     0.000 C 
BRANCH   5   6
ATOM      6  C   UNL     1      19.583  26.667  35.085  1.00  0.00     0.006 C 
BRANCH   6   7
ATOM      7  C   UNL     1      20.498  26.031  34.033  1.00  0.00     0.053 C 
BRANCH   7   8
ATOM      8  C   UNL     1      21.908  26.501  34.213  1.00  0.00     0.041 C 
ATOM      9  O   UNL     1      22.224  27.682  33.916  1.00  0.00    -0.550 OA
ATOM     10  O   UNL     1      22.859  25.651  34.762  1.00  0.00    -0.550 OA
ENDBRANCH   7   8
ENDBRANCH   6   7
ENDBRANCH   5   6
ENDBRANCH   4   5
ENDBRANCH   3   4
ENDBRANCH   2   3
ENDBRANCH   1   2
BRANCH   1  11
ATOM     11  C   UNL     1      17.301  29.865  33.200  1.00  0.00    -0.031 C 
ATOM     12  C   UNL     1      18.474  29.658  33.819  1.00  0.00    -0.027 C 
BRANCH  12  13
ATOM     13  C   UNL     1      19.152  30.753  34.592  1.00  0.00     0.054 C 
BRANCH  13  14
ATOM     14  C   UNL     1      20.531  31.012  34.033  1.00  0.00    -0.027 C 
ATOM     15  C   UNL     1      20.813  31.924  33.085  1.00  0.00    -0.031 C 
BRANCH  15  16
ATOM     16  C   UNL     1      19.785  32.767  32.374  1.00  0.00     0.027 C 
BRANCH  16  17
ATOM     17  C   UNL     1      19.766  32.459  30.872  1.00  0.00     0.004 C 
BRANCH  17  18
ATOM     18  C   UNL     1      21.165  32.601  30.264  1.00  0.00     0.000 C 
BRANCH  18  19
ATOM     19  C   UNL     1      21.552  34.077  30.113  1.00  0.00    -0.003 C 
ATOM     20  C   UNL     1      22.127  34.358  28.728  1.00  0.00     0.004 C 
ENDBRANCH  18  19
ENDBRANCH  17  18
ENDBRANCH  16  17
ENDBRANCH  15  16
ENDBRANCH  13  14
ENDBRANCH  12  13
ENDBRANCH   1  11
TORSDOF 14
ENDMDL
MODEL 8
REMARK VINA RESULT:    -4.775     14.163     16.328
REMARK INTER + INTRA:          -9.682
REMARK INTER:                  -7.264
REMARK INTRA:                  -2.418
REMARK UNBOUND:                -1.000
REMARK SMILES CCCCCC=CCC=CCCCCCCCC(=O)[O-]
REMARK SMILES IDX 11 1 12 2 13 3 14 4 15 5 16 6 17 7 18 8 19 9 20 10 10 11
REMARK SMILES IDX 9 12 8 13 7 14 6 15 5 16 4 17 3 18 2 19 1 20
REMARK H PARENT
REMARK Flexibility Score: inf
ROOT
ATOM      1  C   UNL     1      21.847  19.881  22.643  1.00  0.00     0.027 C 
ENDROOT
BRANCH   1   2
ATOM      2  C   UNL     1      21.175  19.263  21.412  1.00  0.00     0.004 C 
BRANCH   2   3
ATOM      3  C   UNL     1      20.187  20.249  20.773  1.00  0.00     0.000 C 
BRANCH   3   4
ATOM      4  C   UNL     1      18.851  19.592  20.384  1.00  0.00     0.000 C 
BRANCH   4   5
ATOM      5  C   UNL     1      17.946  20.442  19.469  1.00  0.00     0.000 C 
BRANCH   5   6
ATOM      6  C   UNL     1      18.472  21.854  19.159  1.00  0.00     0.006 C 
BRANCH   6   7
ATOM      7  C   UNL     1      17.557  22.635  18.209  1.00  0.00     0.053 C 
BRANCH   7   8
ATOM      8  C   UNL     1      18.329  23.120  17.022  1.00  0.00     0.041 C 
ATOM      9  O   UNL     1      18.844  22.296  16.222  1.00  0.00    -0.550 OA
ATOM     10  O   UNL     1      18.433  24.481  16.770  1.00  0.00    -0.550 OA
ENDBRANCH   7   8
ENDBRANCH   6   7
ENDBRANCH   5   6
ENDBRANCH   4   5
ENDBRANCH   3   4
ENDBRANCH   2   3
ENDBRANCH   1   2
BRANCH   1  11
ATOM     11  C   UNL     1      21.132  19.487  23.906  1.00  0.00    -0.031 C 
ATOM     12  C   UNL     1      20.131  18.593  23.896  1.00  0.00    -0.027 C 
BRANCH  12  13
ATOM     13  C   UNL     1      19.412  18.212  25.159  1.00  0.00     0.054 C 
BRANCH  13  14
ATOM     14  C   UNL     1      17.935  18.049  24.892  1.00  0.00    -0.027 C 
ATOM     15  C   UNL     1      16.980  18.880  25.347  1.00  0.00    -0.031 C 
BRANCH  15  16
ATOM     16  C   UNL     1      17.227  20.051  26.263  1.00  0.00     0.027 C 
BRANCH  16  17
ATOM     17  C   UNL     1      17.122  21.377  25.498  1.00  0.00     0.004 C 
BRANCH  17  18
ATOM     18  C   UNL     1      18.495  21.829  24.989  1.00  0.00     0.000 C 
BRANCH  18  19
ATOM     19  C   UNL     1      18.450  22.141  23.488  1.00  0.00    -0.003 C 
ATOM     20  C   UNL     1      17.114  21.726  22.879  1.00  0.00     0.004 C 
ENDBRANCH  18  19
ENDBRANCH  17  18
ENDBRANCH  16  17
ENDBRANCH  15  16
ENDBRANCH  13  14
ENDBRANCH  12  13
ENDBRANCH   1  11
TORSDOF 14
ENDMDL
MODEL 9
REMARK VINA RESULT:    -4.752     14.243     16.449
REMARK INTER + INTRA:          -9.640
REMARK INTER:                  -6.961
REMARK INTRA:                  -2.679
REMARK UNBOUND:                -1.000
REMARK SMILES CCCCCC=CCC=CCCCCCCCC(=O)[O-]
REMARK SMILES IDX 11 1 12 2 13 3 14 4 15 5 16 6 17 7 18 8 19 9 20 10 10 11
REMARK SMILES IDX 9 12 8 13 7 14 6 15 5 16 4 17 3 18 2 19 1 20
REMARK H PARENT
REMARK Flexibility Score: inf
ROOT
ATOM      1  C   UNL     1      19.199  20.872  19.993  1.00  0.00     0.027 C 
ENDROOT
BRANCH   1   2
ATOM      2  C   UNL     1      18.153  21.759  19.307  1.00  0.00     0.004 C 
BRANCH   2   3
ATOM      3  C   UNL     1      16.743  21.451  19.833  1.00  0.00     0.000 C 
BRANCH   3   4
ATOM      4  C   UNL     1      16.208  22.538  20.781  1.00  0.00     0.000 C 
BRANCH   4   5
ATOM      5  C   UNL     1      16.121  22.126  22.265  1.00  0.00     0.000 C 
BRANCH   5   6
ATOM      6  C   UNL     1      17.455  22.157  23.031  1.00  0.00     0.006 C 
BRANCH   6   7
ATOM      7  C   UNL     1      17.481  21.192  24.222  1.00  0.00     0.053 C 
BRANCH   7   8
ATOM      8  C   UNL     1      18.304  21.760  25.336  1.00  0.00     0.041 C 
ATOM      9  O   UNL     1      18.812  22.905  25.228  1.00  0.00    -0.550 OA
ATOM     10  O   UNL     1      18.462  21.045  26.516  1.00  0.00    -0.550 OA
ENDBRANCH   7   8
ENDBRANCH   6   7
ENDBRANCH   5   6
ENDBRANCH   4   5
ENDBRANCH   3   4
ENDBRANCH   2   3
ENDBRANCH   1   2
BRANCH   1  11
ATOM     11  C   UNL     1      18.554  19.691  20.662  1.00  0.00    -0.031 C 
ATOM     12  C   UNL     1      19.051  18.452  20.532  1.00  0.00    -0.027 C 
BRANCH  12  13
ATOM     13  C   UNL     1      18.396  17.273  21.193  1.00  0.00     0.054 C 
BRANCH  13  14
ATOM     14  C   UNL     1      17.642  17.715  22.424  1.00  0.00    -0.027 C 
ATOM     15  C   UNL     1      18.169  17.788  23.659  1.00  0.00    -0.031 C 
BRANCH  15  16
ATOM     16  C   UNL     1      19.569  17.359  24.020  1.00  0.00     0.027 C 
BRANCH  16  17
ATOM     17  C   UNL     1      20.366  18.529  24.610  1.00  0.00     0.004 C 
BRANCH  17  18
ATOM     18  C   UNL     1      20.684  19.575  23.538  1.00  0.00     0.000 C 
BRANCH  18  19
ATOM     19  C   UNL     1      22.166  19.528  23.146  1.00  0.00    -0.003 C 
ATOM     20  C   UNL     1      22.356  19.862  21.670  1.00  0.00     0.004 C 
ENDBRANCH  18  19
ENDBRANCH  17  18
ENDBRANCH  16  17
ENDBRANCH  15  16
ENDBRANCH  13  14
ENDBRANCH  12  13
ENDBRANCH   1  11
TORSDOF 14
ENDMDL
