MODEL 1
REMARK VINA RESULT:    -4.099      0.000      0.000
REMARK INTER + INTRA:         -11.675
REMARK INTER:                  -8.891
REMARK INTRA:                  -2.783
REMARK UNBOUND:                -2.783
REMARK SMILES CCCCCCCCCCCCCCCCCCCCCC(=O)[O-]
REMARK SMILES IDX 12 1 11 2 10 3 9 4 8 5 7 6 6 7 5 8 4 9 3 10 2 11 1 12 13 13
REMARK SMILES IDX 14 14 15 15 16 16 17 17 18 18 19 19 20 20 21 21 22 22 23 23
REMARK SMILES IDX 24 24
REMARK H PARENT
REMARK Flexibility Score: inf
ROOT
ATOM      1  C   UNL     1      -0.953 -34.916  46.458  1.00  0.00     0.000 C 
ENDROOT
BRANCH   1   2
ATOM      2  C   UNL     1      -1.059 -35.620  45.092  1.00  0.00     0.000 C 
BRANCH   2   3
ATOM      3  C   UNL     1       0.045 -36.660  44.811  1.00  0.00     0.000 C 
BRANCH   3   4
ATOM      4  C   UNL     1       1.277 -36.123  44.055  1.00  0.00    -0.000 C 
BRANCH   4   5
ATOM      5  C   UNL     1       1.596 -34.636  44.298  1.00  0.00    -0.000 C 
BRANCH   5   6
ATOM      6  C   UNL     1       2.980 -34.416  44.932  1.00  0.00    -0.000 C 
BRANCH   6   7
ATOM      7  C   UNL     1       3.316 -35.465  46.009  1.00  0.00    -0.000 C 
BRANCH   7   8
ATOM      8  C   UNL     1       2.702 -35.189  47.395  1.00  0.00    -0.000 C 
BRANCH   8   9
ATOM      9  C   UNL     1       3.748 -34.739  48.431  1.00  0.00    -0.000 C 
BRANCH   9  10
ATOM     10  C   UNL     1       3.995 -33.221  48.398  1.00  0.00    -0.000 C 
BRANCH  10  11
ATOM     11  C   UNL     1       2.690 -32.410  48.381  1.00  0.00    -0.003 C 
ATOM     12  C   UNL     1       2.973 -30.913  48.468  1.00  0.00     0.004 C 
ENDBRANCH  10  11
ENDBRANCH   9  10
ENDBRANCH   8   9
ENDBRANCH   7   8
ENDBRANCH   6   7
ENDBRANCH   5   6
ENDBRANCH   4   5
ENDBRANCH   3   4
ENDBRANCH   2   3
ENDBRANCH   1   2
BRANCH   1  13
ATOM     13  C   UNL     1      -2.049 -33.862  46.672  1.00  0.00     0.000 C 
BRANCH  13  14
ATOM     14  C   UNL     1      -2.695 -34.019  48.057  1.00  0.00     0.000 C 
BRANCH  14  15
ATOM     15  C   UNL     1      -2.800 -35.487  48.496  1.00  0.00     0.000 C 
BRANCH  15  16
ATOM     16  C   UNL     1      -4.238 -35.899  48.859  1.00  0.00     0.000 C 
BRANCH  16  17
ATOM     17  C   UNL     1      -4.773 -37.016  47.939  1.00  0.00     0.000 C 
BRANCH  17  18
ATOM     18  C   UNL     1      -4.042 -37.105  46.584  1.00  0.00     0.000 C 
BRANCH  18  19
ATOM     19  C   UNL     1      -4.930 -36.855  45.353  1.00  0.00     0.000 C 
BRANCH  19  20
ATOM     20  C   UNL     1      -4.744 -35.447  44.761  1.00  0.00     0.006 C 
BRANCH  20  21
ATOM     21  C   UNL     1      -6.070 -34.679  44.676  1.00  0.00     0.053 C 
BRANCH  21  22
ATOM     22  C   UNL     1      -6.600 -34.332  46.036  1.00  0.00     0.041 C 
ATOM     23  O   UNL     1      -7.697 -34.809  46.428  1.00  0.00    -0.550 OA
ATOM     24  O   UNL     1      -5.869 -33.501  46.879  1.00  0.00    -0.550 OA
ENDBRANCH  21  22
ENDBRANCH  20  21
ENDBRANCH  19  20
ENDBRANCH  18  19
ENDBRANCH  17  18
ENDBRANCH  16  17
ENDBRANCH  15  16
ENDBRANCH  14  15
ENDBRANCH  13  14
ENDBRANCH   1  13
TORSDOF 20
ENDMDL
MODEL 2
REMARK VINA RESULT:    -4.046      3.472      7.679
REMARK INTER + INTRA:         -11.561
REMARK INTER:                  -7.789
REMARK INTRA:                  -3.772
REMARK UNBOUND:                -2.783
REMARK SMILES CCCCCCCCCCCCCCCCCCCCCC(=O)[O-]
REMARK SMILES IDX 12 1 11 2 10 3 9 4 8 5 7 6 6 7 5 8 4 9 3 10 2 11 1 12 13 13
REMARK SMILES IDX 14 14 15 15 16 16 17 17 18 18 19 19 20 20 21 21 22 22 23 23
REMARK SMILES IDX 24 24
REMARK H PARENT
REMARK Flexibility Score: inf
ROOT
ATOM      1  C   UNL     1      -1.680 -33.746  48.078  1.00  0.00     0.000 C 
ENDROOT
BRANCH   1   2
ATOM      2  C   UNL     1      -3.021 -33.577  47.340  1.00  0.00     0.000 C 
BRANCH   2   3
ATOM      3  C   UNL     1      -4.266 -33.561  48.252  1.00  0.00     0.000 C 
BRANCH   3   4
ATOM      4  C   UNL     1      -5.620 -33.598  47.517  1.00  0.00    -0.000 C 
BRANCH   4   5
ATOM      5  C   UNL     1      -6.374 -34.938  47.603  1.00  0.00    -0.000 C 
BRANCH   5   6
ATOM      6  C   UNL     1      -5.689 -35.952  48.535  1.00  0.00    -0.000 C 
BRANCH   6   7
ATOM      7  C   UNL     1      -5.045 -37.123  47.769  1.00  0.00    -0.000 C 
BRANCH   7   8
ATOM      8  C   UNL     1      -5.269 -37.102  46.245  1.00  0.00    -0.000 C 
BRANCH   8   9
ATOM      9  C   UNL     1      -4.012 -36.681  45.463  1.00  0.00    -0.000 C 
BRANCH   9  10
ATOM     10  C   UNL     1      -4.285 -35.526  44.484  1.00  0.00    -0.000 C 
BRANCH  10  11
ATOM     11  C   UNL     1      -5.779 -35.360  44.167  1.00  0.00    -0.003 C 
ATOM     12  C   UNL     1      -6.134 -33.892  43.952  1.00  0.00     0.004 C 
ENDBRANCH  10  11
ENDBRANCH   9  10
ENDBRANCH   8   9
ENDBRANCH   7   8
ENDBRANCH   6   7
ENDBRANCH   5   6
ENDBRANCH   4   5
ENDBRANCH   3   4
ENDBRANCH   2   3
ENDBRANCH   1   2
BRANCH   1  13
ATOM     13  C   UNL     1      -1.472 -35.168  48.618  1.00  0.00     0.000 C 
BRANCH  13  14
ATOM     14  C   UNL     1       0.016 -35.550  48.593  1.00  0.00     0.000 C 
BRANCH  14  15
ATOM     15  C   UNL     1       0.286 -36.817  47.767  1.00  0.00     0.000 C 
BRANCH  15  16
ATOM     16  C   UNL     1      -0.791 -37.070  46.697  1.00  0.00     0.000 C 
BRANCH  16  17
ATOM     17  C   UNL     1      -0.308 -36.685  45.282  1.00  0.00     0.000 C 
BRANCH  17  18
ATOM     18  C   UNL     1      -0.417 -35.176  44.981  1.00  0.00     0.000 C 
BRANCH  18  19
ATOM     19  C   UNL     1       0.895 -34.510  44.532  1.00  0.00     0.000 C 
BRANCH  19  20
ATOM     20  C   UNL     1       2.143 -35.264  45.021  1.00  0.00     0.006 C 
BRANCH  20  21
ATOM     21  C   UNL     1       2.892 -34.489  46.114  1.00  0.00     0.053 C 
BRANCH  21  22
ATOM     22  C   UNL     1       3.631 -35.408  47.040  1.00  0.00     0.041 C 
ATOM     23  O   UNL     1       4.232 -36.416  46.584  1.00  0.00    -0.550 OA
ATOM     24  O   UNL     1       3.677 -35.138  48.404  1.00  0.00    -0.550 OA
ENDBRANCH  21  22
ENDBRANCH  20  21
ENDBRANCH  19  20
ENDBRANCH  18  19
ENDBRANCH  17  18
ENDBRANCH  16  17
ENDBRANCH  15  16
ENDBRANCH  14  15
ENDBRANCH  13  14
ENDBRANCH   1  13
TORSDOF 20
ENDMDL
MODEL 3
REMARK VINA RESULT:    -3.948      1.976      3.464
REMARK INTER + INTRA:         -11.347
REMARK INTER:                  -8.994
REMARK INTRA:                  -2.353
REMARK UNBOUND:                -2.783
REMARK SMILES CCCCCCCCCCCCCCCCCCCCCC(=O)[O-]
REMARK SMILES IDX 12 1 11 2 10 3 9 4 8 5 7 6 6 7 5 8 4 9 3 10 2 11 1 12 13 13
REMARK SMILES IDX 14 14 15 15 16 16 17 17 18 18 19 19 20 20 21 21 22 22 23 23
REMARK SMILES IDX 24 24
REMARK H PARENT
REMARK Flexibility Score: inf
ROOT
ATOM      1  C   UNL     1      -2.783 -36.237  45.514  1.00  0.00     0.000 C 
ENDROOT
BRANCH   1   2
ATOM      2  C   UNL     1      -1.612 -37.076  44.971  1.00  0.00     0.000 C 
BRANCH   2   3
ATOM      3  C   UNL     1      -0.237 -36.748  45.589  1.00  0.00     0.000 C 
BRANCH   3   4
ATOM      4  C   UNL     1       0.815 -36.204  44.602  1.00  0.00    -0.000 C 
BRANCH   4   5
ATOM      5  C   UNL     1       0.861 -34.670  44.477  1.00  0.00    -0.000 C 
BRANCH   5   6
ATOM      6  C   UNL     1       1.823 -34.015  45.483  1.00  0.00    -0.000 C 
BRANCH   6   7
ATOM      7  C   UNL     1       3.189 -34.725  45.549  1.00  0.00    -0.000 C 
BRANCH   7   8
ATOM      8  C   UNL     1       3.537 -35.333  46.921  1.00  0.00    -0.000 C 
BRANCH   8   9
ATOM      9  C   UNL     1       2.966 -34.518  48.096  1.00  0.00    -0.000 C 
BRANCH   9  10
ATOM     10  C   UNL     1       3.579 -33.111  48.191  1.00  0.00    -0.000 C 
BRANCH  10  11
ATOM     11  C   UNL     1       2.641 -32.100  48.868  1.00  0.00    -0.003 C 
ATOM     12  C   UNL     1       3.026 -30.668  48.509  1.00  0.00     0.004 C 
ENDBRANCH  10  11
ENDBRANCH   9  10
ENDBRANCH   8   9
ENDBRANCH   7   8
ENDBRANCH   6   7
ENDBRANCH   5   6
ENDBRANCH   4   5
ENDBRANCH   3   4
ENDBRANCH   2   3
ENDBRANCH   1   2
BRANCH   1  13
ATOM     13  C   UNL     1      -3.932 -37.099  46.057  1.00  0.00     0.000 C 
BRANCH  13  14
ATOM     14  C   UNL     1      -5.280 -36.644  45.476  1.00  0.00     0.000 C 
BRANCH  14  15
ATOM     15  C   UNL     1      -5.130 -35.488  44.475  1.00  0.00     0.000 C 
BRANCH  15  16
ATOM     16  C   UNL     1      -6.106 -34.331  44.750  1.00  0.00     0.000 C 
BRANCH  16  17
ATOM     17  C   UNL     1      -6.775 -34.451  46.136  1.00  0.00     0.000 C 
BRANCH  17  18
ATOM     18  C   UNL     1      -6.185 -33.495  47.193  1.00  0.00     0.000 C 
BRANCH  18  19
ATOM     19  C   UNL     1      -5.018 -34.076  48.009  1.00  0.00     0.000 C 
BRANCH  19  20
ATOM     20  C   UNL     1      -3.672 -33.406  47.683  1.00  0.00     0.006 C 
BRANCH  20  21
ATOM     21  C   UNL     1      -2.685 -33.497  48.855  1.00  0.00     0.053 C 
BRANCH  21  22
ATOM     22  C   UNL     1      -1.677 -34.589  48.649  1.00  0.00     0.041 C 
ATOM     23  O   UNL     1      -1.965 -35.779  48.944  1.00  0.00    -0.550 OA
ATOM     24  O   UNL     1      -0.430 -34.296  48.107  1.00  0.00    -0.550 OA
ENDBRANCH  21  22
ENDBRANCH  20  21
ENDBRANCH  19  20
ENDBRANCH  18  19
ENDBRANCH  17  18
ENDBRANCH  16  17
ENDBRANCH  15  16
ENDBRANCH  14  15
ENDBRANCH  13  14
ENDBRANCH   1  13
TORSDOF 20
ENDMDL
MODEL 4
REMARK VINA RESULT:    -3.755      1.350      2.375
REMARK INTER + INTRA:         -10.928
REMARK INTER:                  -8.695
REMARK INTRA:                  -2.233
REMARK UNBOUND:                -2.783
REMARK SMILES CCCCCCCCCCCCCCCCCCCCCC(=O)[O-]
REMARK SMILES IDX 12 1 11 2 10 3 9 4 8 5 7 6 6 7 5 8 4 9 3 10 2 11 1 12 13 13
REMARK SMILES IDX 14 14 15 15 16 16 17 17 18 18 19 19 20 20 21 21 22 22 23 23
REMARK SMILES IDX 24 24
REMARK H PARENT
REMARK Flexibility Score: inf
ROOT
ATOM      1  C   UNL     1      -0.655 -36.853  46.124  1.00  0.00     0.000 C 
ENDROOT
BRANCH   1   2
ATOM      2  C   UNL     1      -0.457 -36.786  44.599  1.00  0.00     0.000 C 
BRANCH   2   3
ATOM      3  C   UNL     1       0.933 -36.294  44.146  1.00  0.00     0.000 C 
BRANCH   3   4
ATOM      4  C   UNL     1       1.265 -34.833  44.511  1.00  0.00    -0.000 C 
BRANCH   4   5
ATOM      5  C   UNL     1       2.525 -34.646  45.377  1.00  0.00    -0.000 C 
BRANCH   5   6
ATOM      6  C   UNL     1       3.189 -35.978  45.766  1.00  0.00    -0.000 C 
BRANCH   6   7
ATOM      7  C   UNL     1       3.744 -35.969  47.203  1.00  0.00    -0.000 C 
BRANCH   7   8
ATOM      8  C   UNL     1       2.913 -35.156  48.213  1.00  0.00    -0.000 C 
BRANCH   8   9
ATOM      9  C   UNL     1       3.756 -34.124  48.985  1.00  0.00    -0.000 C 
BRANCH   9  10
ATOM     10  C   UNL     1       3.750 -32.739  48.316  1.00  0.00    -0.000 C 
BRANCH  10  11
ATOM     11  C   UNL     1       2.708 -31.791  48.929  1.00  0.00    -0.003 C 
ATOM     12  C   UNL     1       3.011 -30.339  48.573  1.00  0.00     0.004 C 
ENDBRANCH  10  11
ENDBRANCH   9  10
ENDBRANCH   8   9
ENDBRANCH   7   8
ENDBRANCH   6   7
ENDBRANCH   5   6
ENDBRANCH   4   5
ENDBRANCH   3   4
ENDBRANCH   2   3
ENDBRANCH   1   2
BRANCH   1  13
ATOM     13  C   UNL     1      -1.579 -35.747  46.655  1.00  0.00     0.000 C 
BRANCH  13  14
ATOM     14  C   UNL     1      -2.627 -36.325  47.618  1.00  0.00     0.000 C 
BRANCH  14  15
ATOM     15  C   UNL     1      -3.225 -35.259  48.549  1.00  0.00     0.000 C 
BRANCH  15  16
ATOM     16  C   UNL     1      -2.637 -33.858  48.304  1.00  0.00     0.000 C 
BRANCH  16  17
ATOM     17  C   UNL     1      -3.647 -32.914  47.619  1.00  0.00     0.000 C 
BRANCH  17  18
ATOM     18  C   UNL     1      -5.069 -32.995  48.210  1.00  0.00     0.000 C 
BRANCH  18  19
ATOM     19  C   UNL     1      -6.204 -32.788  47.192  1.00  0.00     0.000 C 
BRANCH  19  20
ATOM     20  C   UNL     1      -7.105 -34.027  47.046  1.00  0.00     0.006 C 
BRANCH  20  21
ATOM     21  C   UNL     1      -6.347 -35.223  46.454  1.00  0.00     0.053 C 
BRANCH  21  22
ATOM     22  C   UNL     1      -5.765 -34.901  45.110  1.00  0.00     0.041 C 
ATOM     23  O   UNL     1      -4.554 -35.151  44.869  1.00  0.00    -0.550 OA
ATOM     24  O   UNL     1      -6.564 -34.348  44.115  1.00  0.00    -0.550 OA
ENDBRANCH  21  22
ENDBRANCH  20  21
ENDBRANCH  19  20
ENDBRANCH  18  19
ENDBRANCH  17  18
ENDBRANCH  16  17
ENDBRANCH  15  16
ENDBRANCH  14  15
ENDBRANCH  13  14
ENDBRANCH   1  13
TORSDOF 20
ENDMDL
MODEL 5
REMARK VINA RESULT:    -3.689      1.642      3.654
REMARK INTER + INTRA:         -10.785
REMARK INTER:                  -8.401
REMARK INTRA:                  -2.384
REMARK UNBOUND:                -2.783
REMARK SMILES CCCCCCCCCCCCCCCCCCCCCC(=O)[O-]
REMARK SMILES IDX 12 1 11 2 10 3 9 4 8 5 7 6 6 7 5 8 4 9 3 10 2 11 1 12 13 13
REMARK SMILES IDX 14 14 15 15 16 16 17 17 18 18 19 19 20 20 21 21 22 22 23 23
REMARK SMILES IDX 24 24
REMARK H PARENT
REMARK Flexibility Score: inf
ROOT
ATOM      1  C   UNL     1      -0.971 -33.982  46.663  1.00  0.00     0.000 C 
ENDROOT
BRANCH   1   2
ATOM      2  C   UNL     1      -1.006 -34.377  48.151  1.00  0.00     0.000 C 
BRANCH   2   3
ATOM      3  C   UNL     1       0.376 -34.621  48.790  1.00  0.00     0.000 C 
BRANCH   3   4
ATOM      4  C   UNL     1       1.367 -33.445  48.684  1.00  0.00    -0.000 C 
BRANCH   4   5
ATOM      5  C   UNL     1       2.381 -33.546  47.529  1.00  0.00    -0.000 C 
BRANCH   5   6
ATOM      6  C   UNL     1       3.737 -34.120  47.970  1.00  0.00    -0.000 C 
BRANCH   6   7
ATOM      7  C   UNL     1       3.723 -35.656  48.092  1.00  0.00    -0.000 C 
BRANCH   7   8
ATOM      8  C   UNL     1       3.713 -36.411  46.749  1.00  0.00    -0.000 C 
BRANCH   8   9
ATOM      9  C   UNL     1       2.328 -36.986  46.399  1.00  0.00    -0.000 C 
BRANCH   9  10
ATOM     10  C   UNL     1       2.064 -37.008  44.884  1.00  0.00    -0.000 C 
BRANCH  10  11
ATOM     11  C   UNL     1       1.012 -35.976  44.452  1.00  0.00    -0.003 C 
ATOM     12  C   UNL     1       1.658 -34.628  44.143  1.00  0.00     0.004 C 
ENDBRANCH  10  11
ENDBRANCH   9  10
ENDBRANCH   8   9
ENDBRANCH   7   8
ENDBRANCH   6   7
ENDBRANCH   5   6
ENDBRANCH   4   5
ENDBRANCH   3   4
ENDBRANCH   2   3
ENDBRANCH   1   2
BRANCH   1  13
ATOM     13  C   UNL     1      -2.256 -34.366  45.914  1.00  0.00     0.000 C 
BRANCH  13  14
ATOM     14  C   UNL     1      -2.425 -35.893  45.864  1.00  0.00     0.000 C 
BRANCH  14  15
ATOM     15  C   UNL     1      -3.782 -36.354  46.416  1.00  0.00     0.000 C 
BRANCH  15  16
ATOM     16  C   UNL     1      -4.736 -36.849  45.315  1.00  0.00     0.000 C 
BRANCH  16  17
ATOM     17  C   UNL     1      -5.132 -35.723  44.337  1.00  0.00     0.000 C 
BRANCH  17  18
ATOM     18  C   UNL     1      -5.581 -34.425  45.039  1.00  0.00     0.000 C 
BRANCH  18  19
ATOM     19  C   UNL     1      -6.949 -34.507  45.737  1.00  0.00     0.000 C 
BRANCH  19  20
ATOM     20  C   UNL     1      -6.915 -33.972  47.179  1.00  0.00     0.006 C 
BRANCH  20  21
ATOM     21  C   UNL     1      -5.490 -33.947  47.750  1.00  0.00     0.053 C 
BRANCH  21  22
ATOM     22  C   UNL     1      -5.090 -32.568  48.185  1.00  0.00     0.041 C 
ATOM     23  O   UNL     1      -5.931 -31.631  48.166  1.00  0.00    -0.550 OA
ATOM     24  O   UNL     1      -3.797 -32.325  48.635  1.00  0.00    -0.550 OA
ENDBRANCH  21  22
ENDBRANCH  20  21
ENDBRANCH  19  20
ENDBRANCH  18  19
ENDBRANCH  17  18
ENDBRANCH  16  17
ENDBRANCH  15  16
ENDBRANCH  14  15
ENDBRANCH  13  14
ENDBRANCH   1  13
TORSDOF 20
ENDMDL
MODEL 6
REMARK VINA RESULT:    -3.552      2.733      7.568
REMARK INTER + INTRA:         -10.488
REMARK INTER:                  -7.778
REMARK INTRA:                  -2.710
REMARK UNBOUND:                -2.783
REMARK SMILES CCCCCCCCCCCCCCCCCCCCCC(=O)[O-]
REMARK SMILES IDX 12 1 11 2 10 3 9 4 8 5 7 6 6 7 5 8 4 9 3 10 2 11 1 12 13 13
REMARK SMILES IDX 14 14 15 15 16 16 17 17 18 18 19 19 20 20 21 21 22 22 23 23
REMARK SMILES IDX 24 24
REMARK H PARENT
REMARK Flexibility Score: inf
ROOT
ATOM      1  C   UNL     1      -0.686 -34.088  46.457  1.00  0.00     0.000 C 
ENDROOT
BRANCH   1   2
ATOM      2  C   UNL     1      -2.063 -34.338  45.816  1.00  0.00     0.000 C 
BRANCH   2   3
ATOM      3  C   UNL     1      -2.350 -35.808  45.447  1.00  0.00     0.000 C 
BRANCH   3   4
ATOM      4  C   UNL     1      -3.531 -36.456  46.195  1.00  0.00    -0.000 C 
BRANCH   4   5
ATOM      5  C   UNL     1      -4.793 -36.692  45.345  1.00  0.00    -0.000 C 
BRANCH   5   6
ATOM      6  C   UNL     1      -5.047 -35.570  44.325  1.00  0.00    -0.000 C 
BRANCH   6   7
ATOM      7  C   UNL     1      -5.715 -34.332  44.954  1.00  0.00    -0.000 C 
BRANCH   7   8
ATOM      8  C   UNL     1      -6.893 -34.642  45.898  1.00  0.00    -0.000 C 
BRANCH   8   9
ATOM      9  C   UNL     1      -6.607 -34.245  47.358  1.00  0.00    -0.000 C 
BRANCH   9  10
ATOM     10  C   UNL     1      -6.281 -32.749  47.509  1.00  0.00    -0.000 C 
BRANCH  10  11
ATOM     11  C   UNL     1      -4.928 -32.504  48.192  1.00  0.00    -0.003 C 
ATOM     12  C   UNL     1      -4.219 -33.821  48.494  1.00  0.00     0.004 C 
ENDBRANCH  10  11
ENDBRANCH   9  10
ENDBRANCH   8   9
ENDBRANCH   7   8
ENDBRANCH   6   7
ENDBRANCH   5   6
ENDBRANCH   4   5
ENDBRANCH   3   4
ENDBRANCH   2   3
ENDBRANCH   1   2
BRANCH   1  13
ATOM     13  C   UNL     1      -0.559 -34.707  47.857  1.00  0.00     0.000 C 
BRANCH  13  14
ATOM     14  C   UNL     1       0.498 -33.964  48.689  1.00  0.00     0.000 C 
BRANCH  14  15
ATOM     15  C   UNL     1       1.646 -33.415  47.830  1.00  0.00     0.000 C 
BRANCH  15  16
ATOM     16  C   UNL     1       2.926 -33.151  48.642  1.00  0.00     0.000 C 
BRANCH  16  17
ATOM     17  C   UNL     1       4.053 -34.146  48.294  1.00  0.00     0.000 C 
BRANCH  17  18
ATOM     18  C   UNL     1       3.716 -35.610  48.642  1.00  0.00     0.000 C 
BRANCH  18  19
ATOM     19  C   UNL     1       3.972 -36.619  47.510  1.00  0.00     0.000 C 
BRANCH  19  20
ATOM     20  C   UNL     1       3.565 -36.079  46.128  1.00  0.00     0.006 C 
BRANCH  20  21
ATOM     21  C   UNL     1       2.233 -36.671  45.648  1.00  0.00     0.053 C 
BRANCH  21  22
ATOM     22  C   UNL     1       1.623 -35.850  44.550  1.00  0.00     0.041 C 
ATOM     23  O   UNL     1       2.058 -34.693  44.310  1.00  0.00    -0.550 OA
ATOM     24  O   UNL     1       0.592 -36.373  43.777  1.00  0.00    -0.550 OA
ENDBRANCH  21  22
ENDBRANCH  20  21
ENDBRANCH  19  20
ENDBRANCH  18  19
ENDBRANCH  17  18
ENDBRANCH  16  17
ENDBRANCH  15  16
ENDBRANCH  14  15
ENDBRANCH  13  14
ENDBRANCH   1  13
TORSDOF 20
ENDMDL
MODEL 7
REMARK VINA RESULT:    -3.462      1.399      1.993
REMARK INTER + INTRA:         -10.292
REMARK INTER:                  -7.937
REMARK INTRA:                  -2.355
REMARK UNBOUND:                -2.783
REMARK SMILES CCCCCCCCCCCCCCCCCCCCCC(=O)[O-]
REMARK SMILES IDX 12 1 11 2 10 3 9 4 8 5 7 6 6 7 5 8 4 9 3 10 2 11 1 12 13 13
REMARK SMILES IDX 14 14 15 15 16 16 17 17 18 18 19 19 20 20 21 21 22 22 23 23
REMARK SMILES IDX 24 24
REMARK H PARENT
REMARK Flexibility Score: inf
ROOT
ATOM      1  C   UNL     1      -1.557 -34.166  46.451  1.00  0.00     0.000 C 
ENDROOT
BRANCH   1   2
ATOM      2  C   UNL     1      -0.723 -34.800  45.323  1.00  0.00     0.000 C 
BRANCH   2   3
ATOM      3  C   UNL     1       0.638 -34.122  45.062  1.00  0.00     0.000 C 
BRANCH   3   4
ATOM      4  C   UNL     1       1.668 -34.984  44.304  1.00  0.00    -0.000 C 
BRANCH   4   5
ATOM      5  C   UNL     1       1.751 -36.452  44.759  1.00  0.00    -0.000 C 
BRANCH   5   6
ATOM      6  C   UNL     1       2.196 -36.602  46.224  1.00  0.00    -0.000 C 
BRANCH   6   7
ATOM      7  C   UNL     1       3.421 -35.733  46.566  1.00  0.00    -0.000 C 
BRANCH   7   8
ATOM      8  C   UNL     1       3.639 -35.486  48.071  1.00  0.00    -0.000 C 
BRANCH   8   9
ATOM      9  C   UNL     1       2.562 -34.576  48.688  1.00  0.00    -0.000 C 
BRANCH   9  10
ATOM     10  C   UNL     1       2.434 -33.232  47.951  1.00  0.00    -0.000 C 
BRANCH  10  11
ATOM     11  C   UNL     1       3.513 -32.222  48.370  1.00  0.00    -0.003 C 
ATOM     12  C   UNL     1       2.901 -30.855  48.663  1.00  0.00     0.004 C 
ENDBRANCH  10  11
ENDBRANCH   9  10
ENDBRANCH   8   9
ENDBRANCH   7   8
ENDBRANCH   6   7
ENDBRANCH   5   6
ENDBRANCH   4   5
ENDBRANCH   3   4
ENDBRANCH   2   3
ENDBRANCH   1   2
BRANCH   1  13
ATOM     13  C   UNL     1      -1.076 -34.577  47.850  1.00  0.00     0.000 C 
BRANCH  13  14
ATOM     14  C   UNL     1      -2.169 -35.360  48.595  1.00  0.00     0.000 C 
BRANCH  14  15
ATOM     15  C   UNL     1      -2.420 -36.747  47.985  1.00  0.00     0.000 C 
BRANCH  15  16
ATOM     16  C   UNL     1      -3.701 -36.800  47.134  1.00  0.00     0.000 C 
BRANCH  16  17
ATOM     17  C   UNL     1      -4.949 -37.125  47.981  1.00  0.00     0.000 C 
BRANCH  17  18
ATOM     18  C   UNL     1      -5.995 -35.992  48.001  1.00  0.00     0.000 C 
BRANCH  18  19
ATOM     19  C   UNL     1      -5.408 -34.570  47.997  1.00  0.00     0.000 C 
BRANCH  19  20
ATOM     20  C   UNL     1      -5.836 -33.753  46.766  1.00  0.00     0.006 C 
BRANCH  20  21
ATOM     21  C   UNL     1      -4.957 -34.052  45.543  1.00  0.00     0.053 C 
BRANCH  21  22
ATOM     22  C   UNL     1      -5.740 -34.707  44.443  1.00  0.00     0.041 C 
ATOM     23  O   UNL     1      -6.523 -34.024  43.732  1.00  0.00    -0.550 OA
ATOM     24  O   UNL     1      -5.585 -36.065  44.188  1.00  0.00    -0.550 OA
ENDBRANCH  21  22
ENDBRANCH  20  21
ENDBRANCH  19  20
ENDBRANCH  18  19
ENDBRANCH  17  18
ENDBRANCH  16  17
ENDBRANCH  15  16
ENDBRANCH  14  15
ENDBRANCH  13  14
ENDBRANCH   1  13
TORSDOF 20
ENDMDL
MODEL 8
REMARK VINA RESULT:    -3.417      2.693      7.479
REMARK INTER + INTRA:         -10.196
REMARK INTER:                  -7.742
REMARK INTRA:                  -2.454
REMARK UNBOUND:                -2.783
REMARK SMILES CCCCCCCCCCCCCCCCCCCCCC(=O)[O-]
REMARK SMILES IDX 12 1 11 2 10 3 9 4 8 5 7 6 6 7 5 8 4 9 3 10 2 11 1 12 13 13
REMARK SMILES IDX 14 14 15 15 16 16 17 17 18 18 19 19 20 20 21 21 22 22 23 23
REMARK SMILES IDX 24 24
REMARK H PARENT
REMARK Flexibility Score: inf
ROOT
ATOM      1  C   UNL     1       0.684 -33.909  48.230  1.00  0.00     0.000 C 
ENDROOT
BRANCH   1   2
ATOM      2  C   UNL     1       0.040 -35.027  49.070  1.00  0.00     0.000 C 
BRANCH   2   3
ATOM      3  C   UNL     1      -1.028 -35.860  48.332  1.00  0.00     0.000 C 
BRANCH   3   4
ATOM      4  C   UNL     1      -2.191 -35.049  47.726  1.00  0.00    -0.000 C 
BRANCH   4   5
ATOM      5  C   UNL     1      -2.184 -34.944  46.190  1.00  0.00    -0.000 C 
BRANCH   5   6
ATOM      6  C   UNL     1      -2.804 -36.172  45.502  1.00  0.00    -0.000 C 
BRANCH   6   7
ATOM      7  C   UNL     1      -4.090 -36.658  46.197  1.00  0.00    -0.000 C 
BRANCH   7   8
ATOM      8  C   UNL     1      -5.375 -36.502  45.362  1.00  0.00    -0.000 C 
BRANCH   8   9
ATOM      9  C   UNL     1      -5.847 -35.039  45.262  1.00  0.00    -0.000 C 
BRANCH   9  10
ATOM     10  C   UNL     1      -7.001 -34.725  46.230  1.00  0.00    -0.000 C 
BRANCH  10  11
ATOM     11  C   UNL     1      -6.760 -33.443  47.041  1.00  0.00    -0.003 C 
ATOM     12  C   UNL     1      -5.394 -33.472  47.721  1.00  0.00     0.004 C 
ENDBRANCH  10  11
ENDBRANCH   9  10
ENDBRANCH   8   9
ENDBRANCH   7   8
ENDBRANCH   6   7
ENDBRANCH   5   6
ENDBRANCH   4   5
ENDBRANCH   3   4
ENDBRANCH   2   3
ENDBRANCH   1   2
BRANCH   1  13
ATOM     13  C   UNL     1       1.607 -33.000  49.055  1.00  0.00     0.000 C 
BRANCH  13  14
ATOM     14  C   UNL     1       2.851 -32.604  48.245  1.00  0.00     0.000 C 
BRANCH  14  15
ATOM     15  C   UNL     1       3.587 -33.820  47.662  1.00  0.00     0.000 C 
BRANCH  15  16
ATOM     16  C   UNL     1       3.931 -34.875  48.729  1.00  0.00     0.000 C 
BRANCH  16  17
ATOM     17  C   UNL     1       3.399 -36.275  48.356  1.00  0.00     0.000 C 
BRANCH  17  18
ATOM     18  C   UNL     1       4.194 -36.957  47.224  1.00  0.00     0.000 C 
BRANCH  18  19
ATOM     19  C   UNL     1       3.423 -37.125  45.903  1.00  0.00     0.000 C 
BRANCH  19  20
ATOM     20  C   UNL     1       1.973 -36.618  45.991  1.00  0.00     0.006 C 
BRANCH  20  21
ATOM     21  C   UNL     1       1.414 -36.230  44.616  1.00  0.00     0.053 C 
BRANCH  21  22
ATOM     22  C   UNL     1       1.443 -34.746  44.403  1.00  0.00     0.041 C 
ATOM     23  O   UNL     1       0.530 -34.021  44.880  1.00  0.00    -0.550 OA
ATOM     24  O   UNL     1       2.490 -34.160  43.700  1.00  0.00    -0.550 OA
ENDBRANCH  21  22
ENDBRANCH  20  21
ENDBRANCH  19  20
ENDBRANCH  18  19
ENDBRANCH  17  18
ENDBRANCH  16  17
ENDBRANCH  15  16
ENDBRANCH  14  15
ENDBRANCH  13  14
ENDBRANCH   1  13
TORSDOF 20
ENDMDL
MODEL 9
REMARK VINA RESULT:    -3.372      2.832      7.620
REMARK INTER + INTRA:         -10.099
REMARK INTER:                  -6.945
REMARK INTRA:                  -3.154
REMARK UNBOUND:                -2.783
REMARK SMILES CCCCCCCCCCCCCCCCCCCCCC(=O)[O-]
REMARK SMILES IDX 12 1 11 2 10 3 9 4 8 5 7 6 6 7 5 8 4 9 3 10 2 11 1 12 13 13
REMARK SMILES IDX 14 14 15 15 16 16 17 17 18 18 19 19 20 20 21 21 22 22 23 23
REMARK SMILES IDX 24 24
REMARK H PARENT
REMARK Flexibility Score: inf
ROOT
ATOM      1  C   UNL     1      -1.429 -34.267  45.827  1.00  0.00     0.000 C 
ENDROOT
BRANCH   1   2
ATOM      2  C   UNL     1      -1.616 -35.790  45.690  1.00  0.00     0.000 C 
BRANCH   2   3
ATOM      3  C   UNL     1      -3.066 -36.245  45.431  1.00  0.00     0.000 C 
BRANCH   3   4
ATOM      4  C   UNL     1      -3.686 -37.125  46.535  1.00  0.00    -0.000 C 
BRANCH   4   5
ATOM      5  C   UNL     1      -2.949 -37.092  47.887  1.00  0.00    -0.000 C 
BRANCH   5   6
ATOM      6  C   UNL     1      -3.707 -36.298  48.964  1.00  0.00    -0.000 C 
BRANCH   6   7
ATOM      7  C   UNL     1      -4.989 -35.636  48.424  1.00  0.00    -0.000 C 
BRANCH   7   8
ATOM      8  C   UNL     1      -4.836 -34.155  48.029  1.00  0.00    -0.000 C 
BRANCH   8   9
ATOM      9  C   UNL     1      -6.059 -33.611  47.269  1.00  0.00    -0.000 C 
BRANCH   9  10
ATOM     10  C   UNL     1      -6.490 -34.529  46.112  1.00  0.00    -0.000 C 
BRANCH  10  11
ATOM     11  C   UNL     1      -6.136 -33.950  44.734  1.00  0.00    -0.003 C 
ATOM     12  C   UNL     1      -5.879 -35.062  43.722  1.00  0.00     0.004 C 
ENDBRANCH  10  11
ENDBRANCH   9  10
ENDBRANCH   8   9
ENDBRANCH   7   8
ENDBRANCH   6   7
ENDBRANCH   5   6
ENDBRANCH   4   5
ENDBRANCH   3   4
ENDBRANCH   2   3
ENDBRANCH   1   2
BRANCH   1  13
ATOM     13  C   UNL     1      -1.461 -33.792  47.286  1.00  0.00     0.000 C 
BRANCH  13  14
ATOM     14  C   UNL     1      -0.314 -34.422  48.092  1.00  0.00     0.000 C 
BRANCH  14  15
ATOM     15  C   UNL     1       0.491 -33.381  48.884  1.00  0.00     0.000 C 
BRANCH  15  16
ATOM     16  C   UNL     1       1.888 -33.130  48.289  1.00  0.00     0.000 C 
BRANCH  16  17
ATOM     17  C   UNL     1       3.005 -33.790  49.125  1.00  0.00     0.000 C 
BRANCH  17  18
ATOM     18  C   UNL     1       3.993 -34.627  48.287  1.00  0.00     0.000 C 
BRANCH  18  19
ATOM     19  C   UNL     1       3.601 -36.103  48.110  1.00  0.00     0.000 C 
BRANCH  19  20
ATOM     20  C   UNL     1       3.538 -36.529  46.633  1.00  0.00     0.006 C 
BRANCH  20  21
ATOM     21  C   UNL     1       2.124 -36.391  46.053  1.00  0.00     0.053 C 
BRANCH  21  22
ATOM     22  C   UNL     1       2.076 -35.385  44.941  1.00  0.00     0.041 C 
ATOM     23  O   UNL     1       1.379 -35.609  43.916  1.00  0.00    -0.550 OA
ATOM     24  O   UNL     1       2.780 -34.190  45.047  1.00  0.00    -0.550 OA
ENDBRANCH  21  22
ENDBRANCH  20  21
ENDBRANCH  19  20
ENDBRANCH  18  19
ENDBRANCH  17  18
ENDBRANCH  16  17
ENDBRANCH  15  16
ENDBRANCH  14  15
ENDBRANCH  13  14
ENDBRANCH   1  13
TORSDOF 20
ENDMDL
