MODEL 1
REMARK VINA RESULT:    -3.548      0.000      0.000
REMARK INTER + INTRA:          -3.989
REMARK INTER:                  -3.963
REMARK INTRA:                  -0.026
REMARK UNBOUND:                -0.026
REMARK SMILES CCCC(=O)[O-]
REMARK SMILES IDX 3 1 4 2 5 3 6 4 2 5 1 6
REMARK H PARENT
REMARK Flexibility Score: inf
ROOT
ATOM      1  C   UNL     1       3.105 -20.507 -12.158  1.00  0.00     0.052 C 
ENDROOT
BRANCH   1   2
ATOM      2  C   UNL     1       4.259 -21.395 -11.803  1.00  0.00     0.041 C 
ATOM      3  O   UNL     1       5.313 -21.368 -12.490  1.00  0.00    -0.550 OA
ATOM      4  O   UNL     1       4.155 -22.275 -10.734  1.00  0.00    -0.550 OA
ENDBRANCH   1   2
BRANCH   1   5
ATOM      5  C   UNL     1       3.049 -20.224 -13.665  1.00  0.00     0.003 C 
ATOM      6  C   UNL     1       1.849 -20.889 -14.338  1.00  0.00     0.004 C 
ENDBRANCH   1   5
TORSDOF 2
ENDMDL
MODEL 2
REMARK VINA RESULT:    -3.416     14.335     15.022
REMARK INTER + INTRA:          -3.841
REMARK INTER:                  -3.832
REMARK INTRA:                  -0.009
REMARK UNBOUND:                -0.026
REMARK SMILES CCCC(=O)[O-]
REMARK SMILES IDX 3 1 4 2 5 3 6 4 2 5 1 6
REMARK H PARENT
REMARK Flexibility Score: inf
ROOT
ATOM      1  C   UNL     1      -9.850 -18.630  -6.810  1.00  0.00     0.052 C 
ENDROOT
BRANCH   1   2
ATOM      2  C   UNL     1     -10.585 -19.702  -7.556  1.00  0.00     0.041 C 
ATOM      3  O   UNL     1     -10.995 -20.727  -6.950  1.00  0.00    -0.550 OA
ATOM      4  O   UNL     1     -10.786 -19.584  -8.924  1.00  0.00    -0.550 OA
ENDBRANCH   1   2
BRANCH   1   5
ATOM      5  C   UNL     1      -8.964 -19.214  -5.703  1.00  0.00     0.003 C 
ATOM      6  C   UNL     1      -7.645 -18.457  -5.554  1.00  0.00     0.004 C 
ENDBRANCH   1   5
TORSDOF 2
ENDMDL
MODEL 3
REMARK VINA RESULT:    -3.158     12.350     13.047
REMARK INTER + INTRA:          -3.553
REMARK INTER:                  -3.519
REMARK INTRA:                  -0.034
REMARK UNBOUND:                -0.026
REMARK SMILES CCCC(=O)[O-]
REMARK SMILES IDX 3 1 4 2 5 3 6 4 2 5 1 6
REMARK H PARENT
REMARK Flexibility Score: inf
ROOT
ATOM      1  C   UNL     1      -7.039 -16.755 -16.252  1.00  0.00     0.052 C 
ENDROOT
BRANCH   1   2
ATOM      2  C   UNL     1      -7.800 -16.237 -17.435  1.00  0.00     0.041 C 
ATOM      3  O   UNL     1      -8.629 -15.301 -17.294  1.00  0.00    -0.550 OA
ATOM      4  O   UNL     1      -7.616 -16.812 -18.685  1.00  0.00    -0.550 OA
ENDBRANCH   1   2
BRANCH   1   5
ATOM      5  C   UNL     1      -6.630 -18.222 -16.438  1.00  0.00     0.003 C 
ATOM      6  C   UNL     1      -7.530 -19.180 -15.658  1.00  0.00     0.004 C 
ENDBRANCH   1   5
TORSDOF 2
ENDMDL
MODEL 4
REMARK VINA RESULT:    -3.093     11.540     12.443
REMARK INTER + INTRA:          -3.480
REMARK INTER:                  -3.441
REMARK INTRA:                  -0.038
REMARK UNBOUND:                -0.026
REMARK SMILES CCCC(=O)[O-]
REMARK SMILES IDX 3 1 4 2 5 3 6 4 2 5 1 6
REMARK H PARENT
REMARK Flexibility Score: inf
ROOT
ATOM      1  C   UNL     1      -5.764 -16.280 -16.880  1.00  0.00     0.052 C 
ENDROOT
BRANCH   1   2
ATOM      2  C   UNL     1      -6.480 -17.238 -17.783  1.00  0.00     0.041 C 
ATOM      3  O   UNL     1      -6.103 -18.435 -17.863  1.00  0.00    -0.550 OA
ATOM      4  O   UNL     1      -7.544 -16.797 -18.559  1.00  0.00    -0.550 OA
ENDBRANCH   1   2
BRANCH   1   5
ATOM      5  C   UNL     1      -6.695 -15.711 -15.802  1.00  0.00     0.003 C 
ATOM      6  C   UNL     1      -7.031 -14.240 -16.042  1.00  0.00     0.004 C 
ENDBRANCH   1   5
TORSDOF 2
ENDMDL
MODEL 5
REMARK VINA RESULT:    -3.082     13.757     14.390
REMARK INTER + INTRA:          -3.468
REMARK INTER:                  -3.448
REMARK INTRA:                  -0.020
REMARK UNBOUND:                -0.026
REMARK SMILES CCCC(=O)[O-]
REMARK SMILES IDX 3 1 4 2 5 3 6 4 2 5 1 6
REMARK H PARENT
REMARK Flexibility Score: inf
ROOT
ATOM      1  C   UNL     1      -8.972 -20.062  -7.342  1.00  0.00     0.052 C 
ENDROOT
BRANCH   1   2
ATOM      2  C   UNL     1     -10.184 -20.936  -7.452  1.00  0.00     0.041 C 
ATOM      3  O   UNL     1     -11.246 -20.623  -6.853  1.00  0.00    -0.550 OA
ATOM      4  O   UNL     1     -10.129 -22.111  -8.188  1.00  0.00    -0.550 OA
ENDBRANCH   1   2
BRANCH   1   5
ATOM      5  C   UNL     1      -9.244 -18.646  -7.866  1.00  0.00     0.003 C 
ATOM      6  C   UNL     1      -8.570 -18.385  -9.213  1.00  0.00     0.004 C 
ENDBRANCH   1   5
TORSDOF 2
ENDMDL
MODEL 6
REMARK VINA RESULT:    -3.078     12.556     13.121
REMARK INTER + INTRA:          -3.463
REMARK INTER:                  -3.412
REMARK INTRA:                  -0.051
REMARK UNBOUND:                -0.026
REMARK SMILES CCCC(=O)[O-]
REMARK SMILES IDX 3 1 4 2 5 3 6 4 2 5 1 6
REMARK H PARENT
REMARK Flexibility Score: inf
ROOT
ATOM      1  C   UNL     1      -7.008 -16.719 -16.275  1.00  0.00     0.052 C 
ENDROOT
BRANCH   1   2
ATOM      2  C   UNL     1      -7.759 -16.303 -17.503  1.00  0.00     0.041 C 
ATOM      3  O   UNL     1      -7.493 -16.827 -18.616  1.00  0.00    -0.550 OA
ATOM      4  O   UNL     1      -8.728 -15.312 -17.423  1.00  0.00    -0.550 OA
ENDBRANCH   1   2
BRANCH   1   5
ATOM      5  C   UNL     1      -6.560 -15.509 -15.447  1.00  0.00     0.003 C 
ATOM      6  C   UNL     1      -5.556 -14.632 -16.194  1.00  0.00     0.004 C 
ENDBRANCH   1   5
TORSDOF 2
ENDMDL
MODEL 7
REMARK VINA RESULT:    -3.054     12.489     13.178
REMARK INTER + INTRA:          -3.437
REMARK INTER:                  -3.419
REMARK INTRA:                  -0.017
REMARK UNBOUND:                -0.026
REMARK SMILES CCCC(=O)[O-]
REMARK SMILES IDX 3 1 4 2 5 3 6 4 2 5 1 6
REMARK H PARENT
REMARK Flexibility Score: inf
ROOT
ATOM      1  C   UNL     1      -6.969 -16.511 -16.228  1.00  0.00     0.052 C 
ENDROOT
BRANCH   1   2
ATOM      2  C   UNL     1      -7.798 -16.167 -17.428  1.00  0.00     0.041 C 
ATOM      3  O   UNL     1      -8.698 -15.291 -17.346  1.00  0.00    -0.550 OA
ATOM      4  O   UNL     1      -7.596 -16.837 -18.627  1.00  0.00    -0.550 OA
ENDBRANCH   1   2
BRANCH   1   5
ATOM      5  C   UNL     1      -6.521 -15.256 -15.469  1.00  0.00     0.003 C 
ATOM      6  C   UNL     1      -6.404 -15.497 -13.964  1.00  0.00     0.004 C 
ENDBRANCH   1   5
TORSDOF 2
ENDMDL
MODEL 8
REMARK VINA RESULT:    -2.958     10.573     11.208
REMARK INTER + INTRA:          -3.329
REMARK INTER:                  -3.292
REMARK INTRA:                  -0.037
REMARK UNBOUND:                -0.026
REMARK SMILES CCCC(=O)[O-]
REMARK SMILES IDX 3 1 4 2 5 3 6 4 2 5 1 6
REMARK H PARENT
REMARK Flexibility Score: inf
ROOT
ATOM      1  C   UNL     1       0.339 -14.848  -3.858  1.00  0.00     0.052 C 
ENDROOT
BRANCH   1   2
ATOM      2  C   UNL     1       0.696 -15.511  -2.562  1.00  0.00     0.041 C 
ATOM      3  O   UNL     1       1.454 -14.931  -1.742  1.00  0.00    -0.550 OA
ATOM      4  O   UNL     1       0.219 -16.784  -2.279  1.00  0.00    -0.550 OA
ENDBRANCH   1   2
BRANCH   1   5
ATOM      5  C   UNL     1      -0.058 -15.872  -4.929  1.00  0.00     0.003 C 
ATOM      6  C   UNL     1      -1.517 -15.727  -5.360  1.00  0.00     0.004 C 
ENDBRANCH   1   5
TORSDOF 2
ENDMDL
MODEL 9
REMARK VINA RESULT:    -2.501     11.979     12.600
REMARK INTER + INTRA:          -2.819
REMARK INTER:                  -2.782
REMARK INTRA:                  -0.037
REMARK UNBOUND:                -0.026
REMARK SMILES CCCC(=O)[O-]
REMARK SMILES IDX 3 1 4 2 5 3 6 4 2 5 1 6
REMARK H PARENT
REMARK Flexibility Score: inf
ROOT
ATOM      1  C   UNL     1      -6.378 -16.294 -15.712  1.00  0.00     0.052 C 
ENDROOT
BRANCH   1   2
ATOM      2  C   UNL     1      -7.052 -15.110 -16.336  1.00  0.00     0.041 C 
ATOM      3  O   UNL     1      -8.179 -15.238 -16.881  1.00  0.00    -0.550 OA
ATOM      4  O   UNL     1      -6.418 -13.875 -16.345  1.00  0.00    -0.550 OA
ENDBRANCH   1   2
BRANCH   1   5
ATOM      5  C   UNL     1      -6.968 -17.616 -16.220  1.00  0.00     0.003 C 
ATOM      6  C   UNL     1      -6.068 -18.296 -17.251  1.00  0.00     0.004 C 
ENDBRANCH   1   5
TORSDOF 2
ENDMDL
