MODEL 1
REMARK VINA RESULT:    -4.531      0.000      0.000
REMARK INTER + INTRA:          -4.663
REMARK INTER:                  -4.663
REMARK INTRA:                   0.000
REMARK UNBOUND:                 0.000
REMARK SMILES C=C1[C@@H](O)C[C@@]23C[C@@H]1C(C)(C)[C@@H]2CC[C@H]3C
REMARK SMILES IDX 16 1 15 2 14 3 13 4 12 5 6 6 7 7 8 8 9 9 10 10 11 11 2 12
REMARK SMILES IDX 1 13 3 14 5 15 4 16
REMARK H PARENT 4 17
REMARK Flexibility Score: inf
ROOT
ATOM      1  C   UNL     1       1.158  -8.019  -4.161  1.00  0.00     0.008 C 
ATOM      2  C   UNL     1       0.197  -7.816  -5.342  1.00  0.00    -0.008 C 
ATOM      3  C   UNL     1       0.852  -8.185  -6.671  1.00  0.00     0.004 C 
ATOM      4  C   UNL     1       0.019  -7.471  -7.720  1.00  0.00     0.005 C 
ATOM      5  C   UNL     1      -0.334  -6.123  -7.073  1.00  0.00     0.002 C 
ATOM      6  C   UNL     1      -0.362  -6.373  -5.546  1.00  0.00    -0.020 C 
ATOM      7  C   UNL     1      -1.839  -6.243  -5.160  1.00  0.00     0.016 C 
ATOM      8  C   UNL     1      -2.280  -5.079  -6.032  1.00  0.00     0.023 C 
ATOM      9  C   UNL     1      -1.698  -5.437  -7.434  1.00  0.00    -0.025 C 
ATOM     10  C   UNL     1      -1.475  -4.197  -8.334  1.00  0.00     0.012 C 
ATOM     11  C   UNL     1      -2.700  -6.357  -8.180  1.00  0.00     0.012 C 
ATOM     12  C   UNL     1      -1.649  -3.814  -5.449  1.00  0.00    -0.045 C 
ATOM     13  C   UNL     1      -2.341  -2.663  -5.463  1.00  0.00     0.011 C 
ATOM     14  C   UNL     1      -0.180  -3.817  -5.023  1.00  0.00     0.140 C 
ATOM     15  C   UNL     1       0.408  -5.244  -4.793  1.00  0.00     0.044 C 
ENDROOT
BRANCH  14  16
ATOM     16  O   UNL     1      -0.031  -3.061  -3.847  1.00  0.00    -0.389 OA
ATOM     17  H   UNL     1      -0.026  -3.704  -3.091  1.00  0.00     0.211 HD
ENDBRANCH  14  16
TORSDOF 1
ENDMDL
MODEL 2
REMARK VINA RESULT:    -4.426      9.772     12.193
REMARK INTER + INTRA:          -4.555
REMARK INTER:                  -4.555
REMARK INTRA:                   0.000
REMARK UNBOUND:                 0.000
REMARK SMILES C=C1[C@@H](O)C[C@@]23C[C@@H]1C(C)(C)[C@@H]2CC[C@H]3C
REMARK SMILES IDX 16 1 15 2 14 3 13 4 12 5 6 6 7 7 8 8 9 9 10 10 11 11 2 12
REMARK SMILES IDX 1 13 3 14 5 15 4 16
REMARK H PARENT 4 17
REMARK Flexibility Score: inf
ROOT
ATOM      1  C   UNL     1       6.965   4.211  -3.558  1.00  0.00     0.008 C 
ATOM      2  C   UNL     1       7.305   3.719  -2.143  1.00  0.00    -0.008 C 
ATOM      3  C   UNL     1       8.813   3.681  -1.907  1.00  0.00     0.004 C 
ATOM      4  C   UNL     1       8.994   2.732  -0.737  1.00  0.00     0.005 C 
ATOM      5  C   UNL     1       7.951   1.629  -0.977  1.00  0.00     0.002 C 
ATOM      6  C   UNL     1       6.793   2.295  -1.759  1.00  0.00    -0.020 C 
ATOM      7  C   UNL     1       5.626   2.326  -0.767  1.00  0.00     0.016 C 
ATOM      8  C   UNL     1       5.777   0.980  -0.077  1.00  0.00     0.023 C 
ATOM      9  C   UNL     1       7.298   0.915   0.258  1.00  0.00    -0.025 C 
ATOM     10  C   UNL     1       7.826  -0.533   0.405  1.00  0.00     0.012 C 
ATOM     11  C   UNL     1       7.551   1.623   1.615  1.00  0.00     0.012 C 
ATOM     12  C   UNL     1       5.358  -0.092  -1.083  1.00  0.00    -0.045 C 
ATOM     13  C   UNL     1       4.695  -1.179  -0.654  1.00  0.00     0.011 C 
ATOM     14  C   UNL     1       5.850  -0.019  -2.530  1.00  0.00     0.140 C 
ATOM     15  C   UNL     1       6.353   1.396  -2.955  1.00  0.00     0.044 C 
ENDROOT
BRANCH  14  16
ATOM     16  O   UNL     1       4.819  -0.422  -3.396  1.00  0.00    -0.389 OA
ATOM     17  H   UNL     1       4.426  -1.248  -3.009  1.00  0.00     0.211 HD
ENDBRANCH  14  16
TORSDOF 1
ENDMDL
MODEL 3
REMARK VINA RESULT:    -4.320      9.656     11.690
REMARK INTER + INTRA:          -4.446
REMARK INTER:                  -4.446
REMARK INTRA:                   0.000
REMARK UNBOUND:                 0.000
REMARK SMILES C=C1[C@@H](O)C[C@@]23C[C@@H]1C(C)(C)[C@@H]2CC[C@H]3C
REMARK SMILES IDX 16 1 15 2 14 3 13 4 12 5 6 6 7 7 8 8 9 9 10 10 11 11 2 12
REMARK SMILES IDX 1 13 3 14 5 15 4 16
REMARK H PARENT 4 17
REMARK Flexibility Score: inf
ROOT
ATOM      1  C   UNL     1       4.865  -1.893  -2.133  1.00  0.00     0.008 C 
ATOM      2  C   UNL     1       5.185  -0.392  -2.168  1.00  0.00    -0.008 C 
ATOM      3  C   UNL     1       5.864   0.009  -3.476  1.00  0.00     0.004 C 
ATOM      4  C   UNL     1       6.555   1.323  -3.162  1.00  0.00     0.005 C 
ATOM      5  C   UNL     1       7.082   1.143  -1.730  1.00  0.00     0.002 C 
ATOM      6  C   UNL     1       6.118   0.149  -1.039  1.00  0.00    -0.020 C 
ATOM      7  C   UNL     1       5.374   0.992   0.001  1.00  0.00     0.016 C 
ATOM      8  C   UNL     1       6.485   1.892   0.516  1.00  0.00     0.023 C 
ATOM      9  C   UNL     1       7.175   2.395  -0.789  1.00  0.00    -0.025 C 
ATOM     10  C   UNL     1       8.648   2.818  -0.572  1.00  0.00     0.012 C 
ATOM     11  C   UNL     1       6.423   3.647  -1.312  1.00  0.00     0.012 C 
ATOM     12  C   UNL     1       7.413   1.022   1.364  1.00  0.00    -0.045 C 
ATOM     13  C   UNL     1       7.975   1.538   2.470  1.00  0.00     0.011 C 
ATOM     14  C   UNL     1       7.842  -0.357   0.861  1.00  0.00     0.140 C 
ATOM     15  C   UNL     1       6.921  -0.936  -0.257  1.00  0.00     0.044 C 
ENDROOT
BRANCH  14  16
ATOM     16  O   UNL     1       7.883  -1.258   1.939  1.00  0.00    -0.389 OA
ATOM     17  H   UNL     1       8.443  -2.026   1.651  1.00  0.00     0.211 HD
ENDBRANCH  14  16
TORSDOF 1
ENDMDL
MODEL 4
REMARK VINA RESULT:    -4.219      9.480     11.730
REMARK INTER + INTRA:          -4.343
REMARK INTER:                  -4.343
REMARK INTRA:                   0.000
REMARK UNBOUND:                 0.000
REMARK SMILES C=C1[C@@H](O)C[C@@]23C[C@@H]1C(C)(C)[C@@H]2CC[C@H]3C
REMARK SMILES IDX 16 1 15 2 14 3 13 4 12 5 6 6 7 7 8 8 9 9 10 10 11 11 2 12
REMARK SMILES IDX 1 13 3 14 5 15 4 16
REMARK H PARENT 4 17
REMARK Flexibility Score: inf
ROOT
ATOM      1  C   UNL     1       5.281   4.155  -4.347  1.00  0.00     0.008 C 
ATOM      2  C   UNL     1       5.856   2.757  -4.071  1.00  0.00    -0.008 C 
ATOM      3  C   UNL     1       4.907   1.656  -4.539  1.00  0.00     0.004 C 
ATOM      4  C   UNL     1       5.340   0.424  -3.766  1.00  0.00     0.005 C 
ATOM      5  C   UNL     1       5.708   0.958  -2.373  1.00  0.00     0.002 C 
ATOM      6  C   UNL     1       6.178   2.417  -2.583  1.00  0.00    -0.020 C 
ATOM      7  C   UNL     1       7.681   2.384  -2.287  1.00  0.00     0.016 C 
ATOM      8  C   UNL     1       7.738   1.432  -1.104  1.00  0.00     0.023 C 
ATOM      9  C   UNL     1       6.839   0.241  -1.555  1.00  0.00    -0.025 C 
ATOM     10  C   UNL     1       6.246  -0.556  -0.368  1.00  0.00     0.012 C 
ATOM     11  C   UNL     1       7.693  -0.757  -2.381  1.00  0.00     0.012 C 
ATOM     12  C   UNL     1       7.158   2.174   0.100  1.00  0.00    -0.045 C 
ATOM     13  C   UNL     1       7.690   1.978   1.318  1.00  0.00     0.011 C 
ATOM     14  C   UNL     1       5.870   2.986  -0.049  1.00  0.00     0.140 C 
ATOM     15  C   UNL     1       5.525   3.359  -1.524  1.00  0.00     0.044 C 
ENDROOT
BRANCH  14  16
ATOM     16  O   UNL     1       5.966   4.162   0.715  1.00  0.00    -0.389 OA
ATOM     17  H   UNL     1       6.742   4.045   1.324  1.00  0.00     0.211 HD
ENDBRANCH  14  16
TORSDOF 1
ENDMDL
MODEL 5
REMARK VINA RESULT:    -4.180      1.906      3.449
REMARK INTER + INTRA:          -4.302
REMARK INTER:                  -4.302
REMARK INTRA:                   0.000
REMARK UNBOUND:                 0.000
REMARK SMILES C=C1[C@@H](O)C[C@@]23C[C@@H]1C(C)(C)[C@@H]2CC[C@H]3C
REMARK SMILES IDX 16 1 15 2 14 3 13 4 12 5 6 6 7 7 8 8 9 9 10 10 11 11 2 12
REMARK SMILES IDX 1 13 3 14 5 15 4 16
REMARK H PARENT 4 17
REMARK Flexibility Score: inf
ROOT
ATOM      1  C   UNL     1       2.029  -7.854  -3.969  1.00  0.00     0.008 C 
ATOM      2  C   UNL     1       1.977  -6.404  -4.473  1.00  0.00    -0.008 C 
ATOM      3  C   UNL     1       2.176  -5.404  -3.336  1.00  0.00     0.004 C 
ATOM      4  C   UNL     1       1.603  -4.103  -3.865  1.00  0.00     0.005 C 
ATOM      5  C   UNL     1       0.365  -4.531  -4.668  1.00  0.00     0.002 C 
ATOM      6  C   UNL     1       0.660  -5.960  -5.184  1.00  0.00    -0.020 C 
ATOM      7  C   UNL     1       0.821  -5.798  -6.698  1.00  0.00     0.016 C 
ATOM      8  C   UNL     1      -0.264  -4.781  -7.014  1.00  0.00     0.023 C 
ATOM      9  C   UNL     1      -0.062  -3.688  -5.920  1.00  0.00    -0.025 C 
ATOM     10  C   UNL     1      -1.347  -2.874  -5.631  1.00  0.00     0.012 C 
ATOM     11  C   UNL     1       1.008  -2.674  -6.405  1.00  0.00     0.012 C 
ATOM     12  C   UNL     1      -1.607  -5.498  -6.876  1.00  0.00    -0.045 C 
ATOM     13  C   UNL     1      -2.607  -5.196  -7.721  1.00  0.00     0.011 C 
ATOM     14  C   UNL     1      -1.869  -6.411  -5.677  1.00  0.00     0.140 C 
ATOM     15  C   UNL     1      -0.572  -6.889  -4.953  1.00  0.00     0.044 C 
ENDROOT
BRANCH  14  16
ATOM     16  O   UNL     1      -2.605  -7.534  -6.095  1.00  0.00    -0.389 OA
ATOM     17  H   UNL     1      -2.385  -7.681  -7.052  1.00  0.00     0.211 HD
ENDBRANCH  14  16
TORSDOF 1
ENDMDL
MODEL 6
REMARK VINA RESULT:    -4.124     10.306     12.142
REMARK INTER + INTRA:          -4.245
REMARK INTER:                  -4.245
REMARK INTRA:                   0.000
REMARK UNBOUND:                 0.000
REMARK SMILES C=C1[C@@H](O)C[C@@]23C[C@@H]1C(C)(C)[C@@H]2CC[C@H]3C
REMARK SMILES IDX 16 1 15 2 14 3 13 4 12 5 6 6 7 7 8 8 9 9 10 10 11 11 2 12
REMARK SMILES IDX 1 13 3 14 5 15 4 16
REMARK H PARENT 4 17
REMARK Flexibility Score: inf
ROOT
ATOM      1  C   UNL     1       7.871   1.858   2.248  1.00  0.00     0.008 C 
ATOM      2  C   UNL     1       7.152   1.137   1.098  1.00  0.00    -0.008 C 
ATOM      3  C   UNL     1       7.634  -0.304   0.948  1.00  0.00     0.004 C 
ATOM      4  C   UNL     1       7.249  -0.690  -0.469  1.00  0.00     0.005 C 
ATOM      5  C   UNL     1       7.501   0.582  -1.292  1.00  0.00     0.002 C 
ATOM      6  C   UNL     1       7.298   1.770  -0.321  1.00  0.00    -0.020 C 
ATOM      7  C   UNL     1       6.016   2.452  -0.808  1.00  0.00     0.016 C 
ATOM      8  C   UNL     1       6.174   2.357  -2.317  1.00  0.00     0.023 C 
ATOM      9  C   UNL     1       6.598   0.873  -2.541  1.00  0.00    -0.025 C 
ATOM     10  C   UNL     1       7.386   0.660  -3.858  1.00  0.00     0.012 C 
ATOM     11  C   UNL     1       5.326  -0.011  -2.634  1.00  0.00     0.012 C 
ATOM     12  C   UNL     1       7.272   3.341  -2.718  1.00  0.00    -0.045 C 
ATOM     13  C   UNL     1       7.162   4.021  -3.872  1.00  0.00     0.011 C 
ATOM     14  C   UNL     1       8.569   3.414  -1.909  1.00  0.00     0.140 C 
ATOM     15  C   UNL     1       8.454   2.806  -0.477  1.00  0.00     0.044 C 
ENDROOT
BRANCH  14  16
ATOM     16  O   UNL     1       8.985   4.754  -1.811  1.00  0.00    -0.389 OA
ATOM     17  H   UNL     1       9.653   4.793  -1.077  1.00  0.00     0.211 HD
ENDBRANCH  14  16
TORSDOF 1
ENDMDL
MODEL 7
REMARK VINA RESULT:    -4.088     10.879     12.455
REMARK INTER + INTRA:          -4.208
REMARK INTER:                  -4.208
REMARK INTRA:                   0.000
REMARK UNBOUND:                 0.000
REMARK SMILES C=C1[C@@H](O)C[C@@]23C[C@@H]1C(C)(C)[C@@H]2CC[C@H]3C
REMARK SMILES IDX 16 1 15 2 14 3 13 4 12 5 6 6 7 7 8 8 9 9 10 10 11 11 2 12
REMARK SMILES IDX 1 13 3 14 5 15 4 16
REMARK H PARENT 4 17
REMARK Flexibility Score: inf
ROOT
ATOM      1  C   UNL     1       8.590   1.921   0.157  1.00  0.00     0.008 C 
ATOM      2  C   UNL     1       7.672   2.999  -0.438  1.00  0.00    -0.008 C 
ATOM      3  C   UNL     1       6.328   3.057   0.286  1.00  0.00     0.004 C 
ATOM      4  C   UNL     1       5.396   3.750  -0.691  1.00  0.00     0.005 C 
ATOM      5  C   UNL     1       5.814   3.207  -2.066  1.00  0.00     0.002 C 
ATOM      6  C   UNL     1       7.317   2.856  -1.951  1.00  0.00    -0.020 C 
ATOM      7  C   UNL     1       8.023   3.890  -2.833  1.00  0.00     0.016 C 
ATOM      8  C   UNL     1       7.066   3.993  -4.009  1.00  0.00     0.023 C 
ATOM      9  C   UNL     1       5.671   4.130  -3.326  1.00  0.00    -0.025 C 
ATOM     10  C   UNL     1       4.504   3.659  -4.229  1.00  0.00     0.012 C 
ATOM     11  C   UNL     1       5.408   5.624  -3.000  1.00  0.00     0.012 C 
ATOM     12  C   UNL     1       7.195   2.698  -4.810  1.00  0.00    -0.045 C 
ATOM     13  C   UNL     1       7.113   2.739  -6.150  1.00  0.00     0.011 C 
ATOM     14  C   UNL     1       7.231   1.350  -4.087  1.00  0.00     0.140 C 
ATOM     15  C   UNL     1       7.600   1.454  -2.575  1.00  0.00     0.044 C 
ENDROOT
BRANCH  14  16
ATOM     16  O   UNL     1       8.146   0.498  -4.729  1.00  0.00    -0.389 OA
ATOM     17  H   UNL     1       8.907   0.371  -4.103  1.00  0.00     0.211 HD
ENDBRANCH  14  16
TORSDOF 1
ENDMDL
MODEL 8
REMARK VINA RESULT:    -3.991      1.418      3.961
REMARK INTER + INTRA:          -4.108
REMARK INTER:                  -4.108
REMARK INTRA:                   0.000
REMARK UNBOUND:                 0.000
REMARK SMILES C=C1[C@@H](O)C[C@@]23C[C@@H]1C(C)(C)[C@@H]2CC[C@H]3C
REMARK SMILES IDX 16 1 15 2 14 3 13 4 12 5 6 6 7 7 8 8 9 9 10 10 11 11 2 12
REMARK SMILES IDX 1 13 3 14 5 15 4 16
REMARK H PARENT 4 17
REMARK Flexibility Score: inf
ROOT
ATOM      1  C   UNL     1      -4.214  -3.520  -9.346  1.00  0.00     0.008 C 
ATOM      2  C   UNL     1      -3.154  -4.598  -9.073  1.00  0.00    -0.008 C 
ATOM      3  C   UNL     1      -3.759  -6.000  -9.092  1.00  0.00     0.004 C 
ATOM      4  C   UNL     1      -2.766  -6.856  -8.329  1.00  0.00     0.005 C 
ATOM      5  C   UNL     1      -2.279  -5.949  -7.188  1.00  0.00     0.002 C 
ATOM      6  C   UNL     1      -2.392  -4.498  -7.715  1.00  0.00    -0.020 C 
ATOM      7  C   UNL     1      -0.942  -4.032  -7.874  1.00  0.00     0.016 C 
ATOM      8  C   UNL     1      -0.287  -4.645  -6.647  1.00  0.00     0.023 C 
ATOM      9  C   UNL     1      -0.814  -6.113  -6.654  1.00  0.00    -0.025 C 
ATOM     10  C   UNL     1      -0.803  -6.769  -5.252  1.00  0.00     0.012 C 
ATOM     11  C   UNL     1       0.104  -6.978  -7.559  1.00  0.00     0.012 C 
ATOM     12  C   UNL     1      -0.780  -3.859  -5.432  1.00  0.00    -0.045 C 
ATOM     13  C   UNL     1       0.061  -3.624  -4.412  1.00  0.00     0.011 C 
ATOM     14  C   UNL     1      -2.262  -3.505  -5.299  1.00  0.00     0.140 C 
ATOM     15  C   UNL     1      -3.052  -3.577  -6.642  1.00  0.00     0.044 C 
ENDROOT
BRANCH  14  16
ATOM     16  O   UNL     1      -2.389  -2.214  -4.757  1.00  0.00    -0.389 OA
ATOM     17  H   UNL     1      -2.807  -2.318  -3.862  1.00  0.00     0.211 HD
ENDBRANCH  14  16
TORSDOF 1
ENDMDL
MODEL 9
REMARK VINA RESULT:    -3.830      2.162      4.818
REMARK INTER + INTRA:          -3.942
REMARK INTER:                  -3.942
REMARK INTRA:                   0.000
REMARK UNBOUND:                 0.000
REMARK SMILES C=C1[C@@H](O)C[C@@]23C[C@@H]1C(C)(C)[C@@H]2CC[C@H]3C
REMARK SMILES IDX 16 1 15 2 14 3 13 4 12 5 6 6 7 7 8 8 9 9 10 10 11 11 2 12
REMARK SMILES IDX 1 13 3 14 5 15 4 16
REMARK H PARENT 4 17
REMARK Flexibility Score: inf
ROOT
ATOM      1  C   UNL     1      -4.352  -2.738  -6.948  1.00  0.00     0.008 C 
ATOM      2  C   UNL     1      -2.977  -2.816  -6.269  1.00  0.00    -0.008 C 
ATOM      3  C   UNL     1      -2.022  -1.752  -6.807  1.00  0.00     0.004 C 
ATOM      4  C   UNL     1      -0.638  -2.265  -6.452  1.00  0.00     0.005 C 
ATOM      5  C   UNL     1      -0.729  -3.784  -6.665  1.00  0.00     0.002 C 
ATOM      6  C   UNL     1      -2.207  -4.166  -6.407  1.00  0.00    -0.020 C 
ATOM      7  C   UNL     1      -2.175  -4.973  -5.106  1.00  0.00     0.016 C 
ATOM      8  C   UNL     1      -0.905  -5.789  -5.284  1.00  0.00     0.023 C 
ATOM      9  C   UNL     1       0.137  -4.733  -5.766  1.00  0.00    -0.025 C 
ATOM     10  C   UNL     1       1.301  -5.356  -6.575  1.00  0.00     0.012 C 
ATOM     11  C   UNL     1       0.771  -4.043  -4.529  1.00  0.00     0.012 C 
ATOM     12  C   UNL     1      -1.194  -6.847  -6.348  1.00  0.00    -0.045 C 
ATOM     13  C   UNL     1      -0.658  -8.073  -6.225  1.00  0.00     0.011 C 
ATOM     14  C   UNL     1      -1.931  -6.460  -7.632  1.00  0.00     0.140 C 
ATOM     15  C   UNL     1      -2.727  -5.123  -7.525  1.00  0.00     0.044 C 
ENDROOT
BRANCH  14  16
ATOM     16  O   UNL     1      -2.811  -7.494  -7.996  1.00  0.00    -0.389 OA
ATOM     17  H   UNL     1      -3.630  -7.380  -7.447  1.00  0.00     0.211 HD
ENDBRANCH  14  16
TORSDOF 1
ENDMDL
