MODEL 1
REMARK VINA RESULT:     2.555      0.000      0.000
REMARK INTER + INTRA:           3.176
REMARK INTER:                   3.152
REMARK INTRA:                   0.024
REMARK UNBOUND:                 0.024
REMARK SMILES O=c1c(O)c(-c2cc(O)c(O)c(O)c2)oc2cc(O)cc(O)c12
REMARK SMILES IDX 5 1 3 2 2 3 1 4 23 5 21 6 20 7 18 8 17 9 16 10 15 11 6 12
REMARK SMILES IDX 7 13 8 14 14 15 10 16 12 17 9 18 11 20 13 22 4 24 22 26
REMARK SMILES IDX 19 28
REMARK H PARENT 9 19 11 21 13 23 4 25 22 27 19 29
REMARK Flexibility Score: inf
ROOT
ATOM      1  C   UNL     1      14.499  39.636 -12.023  1.00  0.00     0.180 A 
ATOM      2  C   UNL     1      13.616  38.799 -12.726  1.00  0.00     0.208 A 
ATOM      3  C   UNL     1      12.359  38.513 -12.169  1.00  0.00     0.238 A 
ATOM      4  O   UNL     1      11.595  37.719 -12.777  1.00  0.00    -0.285 OA
ATOM      5  C   UNL     1      11.995  39.081 -10.924  1.00  0.00     0.111 A 
ATOM      6  C   UNL     1      10.732  38.892 -10.286  1.00  0.00     0.134 A 
ATOM      7  C   UNL     1      10.529  39.396  -8.996  1.00  0.00     0.093 A 
ATOM      8  C   UNL     1      11.517  40.135  -8.347  1.00  0.00     0.123 A 
ATOM      9  C   UNL     1      12.734  40.377  -8.986  1.00  0.00     0.094 A 
ATOM     10  C   UNL     1      12.980  39.857 -10.259  1.00  0.00     0.146 A 
ATOM     11  O   UNL     1      14.154  40.101 -10.828  1.00  0.00    -0.452 OA
ENDROOT
BRANCH   1  12
ATOM     12  C   UNL     1      15.831  40.003 -12.557  1.00  0.00     0.029 A 
ATOM     13  C   UNL     1      16.699  39.032 -13.085  1.00  0.00     0.062 A 
ATOM     14  C   UNL     1      17.947  39.401 -13.608  1.00  0.00     0.162 A 
ATOM     15  C   UNL     1      16.215  41.352 -12.589  1.00  0.00     0.062 A 
ATOM     16  C   UNL     1      18.332  40.752 -13.614  1.00  0.00     0.200 A 
ATOM     17  C   UNL     1      17.462  41.727 -13.108  1.00  0.00     0.162 A 
BRANCH  14  18
ATOM     18  O   UNL     1      18.803  38.429 -14.125  1.00  0.00    -0.504 OA
ATOM     19  H   UNL     1      18.456  37.659 -14.684  1.00  0.00     0.293 HD
ENDBRANCH  14  18
BRANCH  16  20
ATOM     20  O   UNL     1      19.569  41.143 -14.125  1.00  0.00    -0.502 OA
ATOM     21  H   UNL     1      20.099  41.908 -13.727  1.00  0.00     0.293 HD
ENDBRANCH  16  20
BRANCH  17  22
ATOM     22  O   UNL     1      17.845  43.067 -13.124  1.00  0.00    -0.504 OA
ATOM     23  H   UNL     1      17.357  43.750 -13.693  1.00  0.00     0.293 HD
ENDBRANCH  17  22
ENDBRANCH   1  12
BRANCH   2  24
ATOM     24  O   UNL     1      14.005  38.231 -13.943  1.00  0.00    -0.502 OA
ATOM     25  H   UNL     1      13.458  38.331 -14.789  1.00  0.00     0.293 HD
ENDBRANCH   2  24
BRANCH   6  26
ATOM     26  O   UNL     1       9.645  38.247 -10.882  1.00  0.00    -0.507 OA
ATOM     27  H   UNL     1       9.096  38.627 -11.640  1.00  0.00     0.293 HD
ENDBRANCH   6  26
BRANCH   8  28
ATOM     28  O   UNL     1      11.274  40.636  -7.070  1.00  0.00    -0.508 OA
ATOM     29  H   UNL     1      10.570  40.228  -6.466  1.00  0.00     0.293 HD
ENDBRANCH   8  28
TORSDOF 7
ENDMDL
MODEL 2
REMARK VINA RESULT:     3.035      1.583      7.164
REMARK INTER + INTRA:           3.768
REMARK INTER:                   3.610
REMARK INTRA:                   0.158
REMARK UNBOUND:                 0.024
REMARK SMILES O=c1c(O)c(-c2cc(O)c(O)c(O)c2)oc2cc(O)cc(O)c12
REMARK SMILES IDX 5 1 3 2 2 3 1 4 23 5 21 6 20 7 18 8 17 9 16 10 15 11 6 12
REMARK SMILES IDX 7 13 8 14 14 15 10 16 12 17 9 18 11 20 13 22 4 24 22 26
REMARK SMILES IDX 19 28
REMARK H PARENT 9 19 11 21 13 23 4 25 22 27 19 29
REMARK Flexibility Score: inf
ROOT
ATOM      1  C   UNL     1      13.842  39.659 -11.020  1.00  0.00     0.180 A 
ATOM      2  C   UNL     1      14.681  40.764 -11.248  1.00  0.00     0.208 A 
ATOM      3  C   UNL     1      15.801  40.610 -12.081  1.00  0.00     0.238 A 
ATOM      4  O   UNL     1      16.578  41.588 -12.237  1.00  0.00    -0.285 OA
ATOM      5  C   UNL     1      16.058  39.357 -12.690  1.00  0.00     0.111 A 
ATOM      6  C   UNL     1      17.141  39.099 -13.583  1.00  0.00     0.134 A 
ATOM      7  C   UNL     1      17.374  37.790 -14.023  1.00  0.00     0.093 A 
ATOM      8  C   UNL     1      16.529  36.744 -13.654  1.00  0.00     0.123 A 
ATOM      9  C   UNL     1      15.434  36.996 -12.828  1.00  0.00     0.094 A 
ATOM     10  C   UNL     1      15.195  38.285 -12.344  1.00  0.00     0.146 A 
ATOM     11  O   UNL     1      14.147  38.481 -11.553  1.00  0.00    -0.452 OA
ENDROOT
BRANCH   1  12
ATOM     12  C   UNL     1      12.631  39.750 -10.175  1.00  0.00     0.029 A 
ATOM     13  C   UNL     1      11.450  39.067 -10.513  1.00  0.00     0.062 A 
ATOM     14  C   UNL     1      10.319  39.145  -9.688  1.00  0.00     0.162 A 
ATOM     15  C   UNL     1      12.674  40.487  -8.981  1.00  0.00     0.062 A 
ATOM     16  C   UNL     1      10.366  39.904  -8.507  1.00  0.00     0.200 A 
ATOM     17  C   UNL     1      11.547  40.570  -8.153  1.00  0.00     0.162 A 
BRANCH  14  18
ATOM     18  O   UNL     1       9.151  38.468 -10.036  1.00  0.00    -0.504 OA
ATOM     19  H   UNL     1       8.379  38.371  -9.386  1.00  0.00     0.293 HD
ENDBRANCH  14  18
BRANCH  16  20
ATOM     20  O   UNL     1       9.253  40.000  -7.672  1.00  0.00    -0.502 OA
ATOM     21  H   UNL     1       8.928  39.219  -7.115  1.00  0.00     0.293 HD
ENDBRANCH  16  20
BRANCH  17  22
ATOM     22  O   UNL     1      11.591  41.315  -6.976  1.00  0.00    -0.504 OA
ATOM     23  H   UNL     1      11.441  42.317  -6.977  1.00  0.00     0.293 HD
ENDBRANCH  17  22
ENDBRANCH   1  12
BRANCH   2  24
ATOM     24  O   UNL     1      14.420  41.985 -10.619  1.00  0.00    -0.502 OA
ATOM     25  H   UNL     1      15.134  42.691 -10.485  1.00  0.00     0.293 HD
ENDBRANCH   2  24
BRANCH   6  26
ATOM     26  O   UNL     1      17.990  40.087 -14.088  1.00  0.00    -0.507 OA
ATOM     27  H   UNL     1      17.681  40.926 -14.557  1.00  0.00     0.293 HD
ENDBRANCH   6  26
BRANCH   8  28
ATOM     28  O   UNL     1      16.783  35.457 -14.124  1.00  0.00    -0.508 OA
ATOM     29  H   UNL     1      17.619  35.241 -14.653  1.00  0.00     0.293 HD
ENDBRANCH   8  28
TORSDOF 7
ENDMDL
MODEL 3
REMARK VINA RESULT:     3.045      1.574      7.306
REMARK INTER + INTRA:           3.781
REMARK INTER:                   3.639
REMARK INTRA:                   0.142
REMARK UNBOUND:                 0.024
REMARK SMILES O=c1c(O)c(-c2cc(O)c(O)c(O)c2)oc2cc(O)cc(O)c12
REMARK SMILES IDX 5 1 3 2 2 3 1 4 23 5 21 6 20 7 18 8 17 9 16 10 15 11 6 12
REMARK SMILES IDX 7 13 8 14 14 15 10 16 12 17 9 18 11 20 13 22 4 24 22 26
REMARK SMILES IDX 19 28
REMARK H PARENT 9 19 11 21 13 23 4 25 22 27 19 29
REMARK Flexibility Score: inf
ROOT
ATOM      1  C   UNL     1      13.833  39.630 -10.963  1.00  0.00     0.180 A 
ATOM      2  C   UNL     1      14.636  40.758 -11.203  1.00  0.00     0.208 A 
ATOM      3  C   UNL     1      15.745  40.637 -12.056  1.00  0.00     0.238 A 
ATOM      4  O   UNL     1      16.490  41.637 -12.223  1.00  0.00    -0.285 OA
ATOM      5  C   UNL     1      16.027  39.393 -12.671  1.00  0.00     0.111 A 
ATOM      6  C   UNL     1      17.101  39.167 -13.584  1.00  0.00     0.134 A 
ATOM      7  C   UNL     1      17.364  37.866 -14.031  1.00  0.00     0.093 A 
ATOM      8  C   UNL     1      16.556  36.796 -13.649  1.00  0.00     0.123 A 
ATOM      9  C   UNL     1      15.468  37.016 -12.803  1.00  0.00     0.094 A 
ATOM     10  C   UNL     1      15.201  38.296 -12.313  1.00  0.00     0.146 A 
ATOM     11  O   UNL     1      14.162  38.462 -11.503  1.00  0.00    -0.452 OA
ENDROOT
BRANCH   1  12
ATOM     12  C   UNL     1      12.634  39.685 -10.096  1.00  0.00     0.029 A 
ATOM     13  C   UNL     1      12.621  40.446  -8.914  1.00  0.00     0.062 A 
ATOM     14  C   UNL     1      11.469  40.505  -8.117  1.00  0.00     0.162 A 
ATOM     15  C   UNL     1      11.467  39.010 -10.485  1.00  0.00     0.062 A 
ATOM     16  C   UNL     1      10.314  39.808  -8.505  1.00  0.00     0.200 A 
ATOM     17  C   UNL     1      10.314  39.064  -9.693  1.00  0.00     0.162 A 
BRANCH  14  18
ATOM     18  O   UNL     1      11.469  41.259  -6.944  1.00  0.00    -0.504 OA
ATOM     19  H   UNL     1      12.264  41.263  -6.315  1.00  0.00     0.293 HD
ENDBRANCH  14  18
BRANCH  16  20
ATOM     20  O   UNL     1       9.156  39.848  -7.727  1.00  0.00    -0.502 OA
ATOM     21  H   UNL     1       8.265  40.148  -8.102  1.00  0.00     0.293 HD
ENDBRANCH  16  20
BRANCH  17  22
ATOM     22  O   UNL     1       9.161  38.381 -10.077  1.00  0.00    -0.504 OA
ATOM     23  H   UNL     1       9.034  37.397  -9.867  1.00  0.00     0.293 HD
ENDBRANCH  17  22
ENDBRANCH   1  12
BRANCH   2  24
ATOM     24  O   UNL     1      14.351  41.970 -10.567  1.00  0.00    -0.502 OA
ATOM     25  H   UNL     1      14.666  42.178  -9.627  1.00  0.00     0.293 HD
ENDBRANCH   2  24
BRANCH   6  26
ATOM     26  O   UNL     1      17.913  40.180 -14.101  1.00  0.00    -0.507 OA
ATOM     27  H   UNL     1      18.134  40.296 -15.079  1.00  0.00     0.293 HD
ENDBRANCH   6  26
BRANCH   8  28
ATOM     28  O   UNL     1      16.838  35.517 -14.125  1.00  0.00    -0.508 OA
ATOM     29  H   UNL     1      17.786  35.223 -14.324  1.00  0.00     0.293 HD
ENDBRANCH   8  28
TORSDOF 7
ENDMDL
MODEL 4
REMARK VINA RESULT:     3.194      0.909      2.020
REMARK INTER + INTRA:           3.965
REMARK INTER:                   3.972
REMARK INTRA:                  -0.007
REMARK UNBOUND:                 0.024
REMARK SMILES O=c1c(O)c(-c2cc(O)c(O)c(O)c2)oc2cc(O)cc(O)c12
REMARK SMILES IDX 5 1 3 2 2 3 1 4 23 5 21 6 20 7 18 8 17 9 16 10 15 11 6 12
REMARK SMILES IDX 7 13 8 14 14 15 10 16 12 17 9 18 11 20 13 22 4 24 22 26
REMARK SMILES IDX 19 28
REMARK H PARENT 9 19 11 21 13 23 4 25 22 27 19 29
REMARK Flexibility Score: inf
ROOT
ATOM      1  C   UNL     1      13.874  39.155 -11.778  1.00  0.00     0.180 A 
ATOM      2  C   UNL     1      12.810  38.489 -12.410  1.00  0.00     0.208 A 
ATOM      3  C   UNL     1      11.562  38.435 -11.768  1.00  0.00     0.238 A 
ATOM      4  O   UNL     1      10.629  37.791 -12.314  1.00  0.00    -0.285 OA
ATOM      5  C   UNL     1      11.390  39.062 -10.510  1.00  0.00     0.111 A 
ATOM      6  C   UNL     1      10.159  39.103  -9.788  1.00  0.00     0.134 A 
ATOM      7  C   UNL     1      10.137  39.637  -8.494  1.00  0.00     0.093 A 
ATOM      8  C   UNL     1      11.283  40.188  -7.922  1.00  0.00     0.123 A 
ATOM      9  C   UNL     1      12.478  40.206  -8.642  1.00  0.00     0.094 A 
ATOM     10  C   UNL     1      12.540  39.648  -9.921  1.00  0.00     0.146 A 
ATOM     11  O   UNL     1      13.699  39.676 -10.569  1.00  0.00    -0.452 OA
ENDROOT
BRANCH   1  12
ATOM     12  C   UNL     1      15.211  39.276 -12.403  1.00  0.00     0.029 A 
ATOM     13  C   UNL     1      15.867  40.516 -12.493  1.00  0.00     0.062 A 
ATOM     14  C   UNL     1      17.143  40.608 -13.066  1.00  0.00     0.162 A 
ATOM     15  C   UNL     1      15.865  38.124 -12.866  1.00  0.00     0.062 A 
ATOM     16  C   UNL     1      17.779  39.451 -13.547  1.00  0.00     0.200 A 
ATOM     17  C   UNL     1      17.139  38.209 -13.441  1.00  0.00     0.162 A 
BRANCH  14  18
ATOM     18  O   UNL     1      17.782  41.844 -13.156  1.00  0.00    -0.504 OA
ATOM     19  H   UNL     1      18.731  41.976 -12.827  1.00  0.00     0.293 HD
ENDBRANCH  14  18
BRANCH  16  20
ATOM     20  O   UNL     1      19.046  39.518 -14.125  1.00  0.00    -0.502 OA
ATOM     21  H   UNL     1      19.403  38.786 -14.727  1.00  0.00     0.293 HD
ENDBRANCH  16  20
BRANCH  17  22
ATOM     22  O   UNL     1      17.778  37.063 -13.912  1.00  0.00    -0.504 OA
ATOM     23  H   UNL     1      18.251  36.424 -13.282  1.00  0.00     0.293 HD
ENDBRANCH  17  22
ENDBRANCH   1  12
BRANCH   2  24
ATOM     24  O   UNL     1      13.009  37.859 -13.642  1.00  0.00    -0.502 OA
ATOM     25  H   UNL     1      12.248  37.455 -14.175  1.00  0.00     0.293 HD
ENDBRANCH   2  24
BRANCH   6  26
ATOM     26  O   UNL     1       8.937  38.664 -10.303  1.00  0.00    -0.507 OA
ATOM     27  H   UNL     1       8.162  38.336  -9.744  1.00  0.00     0.293 HD
ENDBRANCH   6  26
BRANCH   8  28
ATOM     28  O   UNL     1      11.220  40.725  -6.637  1.00  0.00    -0.508 OA
ATOM     29  H   UNL     1      11.482  40.184  -5.823  1.00  0.00     0.293 HD
ENDBRANCH   8  28
TORSDOF 7
ENDMDL
MODEL 5
REMARK VINA RESULT:     4.909      1.997      6.264
REMARK INTER + INTRA:           6.080
REMARK INTER:                   5.887
REMARK INTRA:                   0.194
REMARK UNBOUND:                 0.024
REMARK SMILES O=c1c(O)c(-c2cc(O)c(O)c(O)c2)oc2cc(O)cc(O)c12
REMARK SMILES IDX 5 1 3 2 2 3 1 4 23 5 21 6 20 7 18 8 17 9 16 10 15 11 6 12
REMARK SMILES IDX 7 13 8 14 14 15 10 16 12 17 9 18 11 20 13 22 4 24 22 26
REMARK SMILES IDX 19 28
REMARK H PARENT 9 19 11 21 13 23 4 25 22 27 19 29
REMARK Flexibility Score: inf
ROOT
ATOM      1  C   UNL     1      14.136  39.761 -11.112  1.00  0.00     0.180 A 
ATOM      2  C   UNL     1      13.338  38.697 -11.566  1.00  0.00     0.208 A 
ATOM      3  C   UNL     1      13.896  37.752 -12.443  1.00  0.00     0.238 A 
ATOM      4  O   UNL     1      13.160  36.834 -12.888  1.00  0.00    -0.285 OA
ATOM      5  C   UNL     1      15.249  37.875 -12.841  1.00  0.00     0.111 A 
ATOM      6  C   UNL     1      15.929  36.953 -13.693  1.00  0.00     0.134 A 
ATOM      7  C   UNL     1      17.228  37.243 -14.125  1.00  0.00     0.093 A 
ATOM      8  C   UNL     1      17.895  38.386 -13.686  1.00  0.00     0.123 A 
ATOM      9  C   UNL     1      17.262  39.264 -12.806  1.00  0.00     0.094 A 
ATOM     10  C   UNL     1      15.953  39.020 -12.385  1.00  0.00     0.146 A 
ATOM     11  O   UNL     1      15.381  39.885 -11.555  1.00  0.00    -0.452 OA
ENDROOT
BRANCH   1  12
ATOM     12  C   UNL     1      13.626  40.782 -10.168  1.00  0.00     0.029 A 
ATOM     13  C   UNL     1      12.656  40.465  -9.202  1.00  0.00     0.062 A 
ATOM     14  C   UNL     1      12.203  41.438  -8.301  1.00  0.00     0.162 A 
ATOM     15  C   UNL     1      14.159  42.080 -10.199  1.00  0.00     0.062 A 
ATOM     16  C   UNL     1      12.727  42.740  -8.355  1.00  0.00     0.200 A 
ATOM     17  C   UNL     1      13.709  43.058  -9.303  1.00  0.00     0.162 A 
BRANCH  14  18
ATOM     18  O   UNL     1      11.236  41.114  -7.349  1.00  0.00    -0.504 OA
ATOM     19  H   UNL     1      10.416  41.693  -7.207  1.00  0.00     0.293 HD
ENDBRANCH  14  18
BRANCH  16  20
ATOM     20  O   UNL     1      12.288  43.727  -7.472  1.00  0.00    -0.502 OA
ATOM     21  H   UNL     1      11.840  43.503  -6.592  1.00  0.00     0.293 HD
ENDBRANCH  16  20
BRANCH  17  22
ATOM     22  O   UNL     1      14.232  44.349  -9.346  1.00  0.00    -0.504 OA
ATOM     23  H   UNL     1      13.841  45.058  -9.956  1.00  0.00     0.293 HD
ENDBRANCH  17  22
ENDBRANCH   1  12
BRANCH   2  24
ATOM     24  O   UNL     1      11.998  38.609 -11.178  1.00  0.00    -0.502 OA
ATOM     25  H   UNL     1      11.544  39.325 -10.623  1.00  0.00     0.293 HD
ENDBRANCH   2  24
BRANCH   6  26
ATOM     26  O   UNL     1      15.387  35.736 -14.116  1.00  0.00    -0.507 OA
ATOM     27  H   UNL     1      14.617  35.263 -13.668  1.00  0.00     0.293 HD
ENDBRANCH   6  26
BRANCH   8  28
ATOM     28  O   UNL     1      19.195  38.635 -14.124  1.00  0.00    -0.508 OA
ATOM     29  H   UNL     1      19.385  39.284 -14.878  1.00  0.00     0.293 HD
ENDBRANCH   8  28
TORSDOF 7
ENDMDL
