MODEL 1
REMARK VINA RESULT:    -3.759      0.000      0.000
REMARK INTER + INTRA:          -4.261
REMARK INTER:                  -4.199
REMARK INTRA:                  -0.062
REMARK UNBOUND:                -0.062
REMARK SMILES COc1ccc(C(=O)[O-])cc1
REMARK SMILES IDX 6 1 5 2 10 3 4 4 11 5 3 6 7 7 8 8 9 9 2 10 1 11
REMARK H PARENT
REMARK Flexibility Score: inf
ROOT
ATOM      1  C   UNL     1       6.500  17.893  -6.354  1.00  0.00    -0.003 A 
ATOM      2  C   UNL     1       6.888  19.245  -6.329  1.00  0.00     0.014 A 
ATOM      3  C   UNL     1       6.703  17.149  -7.529  1.00  0.00     0.014 A 
ATOM      4  C   UNL     1       7.467  19.839  -7.453  1.00  0.00     0.047 A 
ATOM      5  C   UNL     1       7.282  17.745  -8.652  1.00  0.00     0.047 A 
ATOM      6  C   UNL     1       7.669  19.089  -8.628  1.00  0.00     0.118 A 
ENDROOT
BRANCH   1   7
ATOM      7  C   UNL     1       5.886  17.261  -5.166  1.00  0.00     0.071 C 
ATOM      8  O   UNL     1       4.646  17.044  -5.123  1.00  0.00    -0.545 OA
ATOM      9  O   UNL     1       6.672  16.898  -4.078  1.00  0.00    -0.545 OA
ENDBRANCH   1   7
BRANCH   6  10
ATOM     10  O   UNL     1       8.246  19.639  -9.782  1.00  0.00    -0.497 OA
ATOM     11  C   UNL     1       8.613  18.886 -10.934  1.00  0.00     0.278 C 
ENDBRANCH   6  10
TORSDOF 2
ENDMDL
MODEL 2
REMARK VINA RESULT:    -3.738      2.274      3.261
REMARK INTER + INTRA:          -4.237
REMARK INTER:                  -4.172
REMARK INTRA:                  -0.065
REMARK UNBOUND:                -0.062
REMARK SMILES COc1ccc(C(=O)[O-])cc1
REMARK SMILES IDX 6 1 5 2 10 3 4 4 11 5 3 6 7 7 8 8 9 9 2 10 1 11
REMARK H PARENT
REMARK Flexibility Score: inf
ROOT
ATOM      1  C   UNL     1       6.209  18.518  -5.917  1.00  0.00    -0.003 A 
ATOM      2  C   UNL     1       6.579  19.075  -4.679  1.00  0.00     0.014 A 
ATOM      3  C   UNL     1       6.776  19.037  -7.092  1.00  0.00     0.014 A 
ATOM      4  C   UNL     1       7.498  20.126  -4.620  1.00  0.00     0.047 A 
ATOM      5  C   UNL     1       7.694  20.088  -7.032  1.00  0.00     0.047 A 
ATOM      6  C   UNL     1       8.064  20.642  -5.801  1.00  0.00     0.118 A 
ENDROOT
BRANCH   1   7
ATOM      7  C   UNL     1       5.237  17.405  -5.983  1.00  0.00     0.071 C 
ATOM      8  O   UNL     1       4.911  16.903  -7.091  1.00  0.00    -0.545 OA
ATOM      9  O   UNL     1       4.669  16.896  -4.820  1.00  0.00    -0.545 OA
ENDBRANCH   1   7
BRANCH   6  10
ATOM     10  O   UNL     1       8.989  21.696  -5.795  1.00  0.00    -0.497 OA
ATOM     11  C   UNL     1       9.024  22.730  -4.815  1.00  0.00     0.278 C 
ENDBRANCH   6  10
TORSDOF 2
ENDMDL
MODEL 3
REMARK VINA RESULT:    -3.701      2.454      3.666
REMARK INTER + INTRA:          -4.196
REMARK INTER:                  -4.129
REMARK INTRA:                  -0.067
REMARK UNBOUND:                -0.062
REMARK SMILES COc1ccc(C(=O)[O-])cc1
REMARK SMILES IDX 6 1 5 2 10 3 4 4 11 5 3 6 7 7 8 8 9 9 2 10 1 11
REMARK H PARENT
REMARK Flexibility Score: inf
ROOT
ATOM      1  C   UNL     1       6.216  18.618  -5.830  1.00  0.00    -0.003 A 
ATOM      2  C   UNL     1       6.755  19.276  -6.950  1.00  0.00     0.014 A 
ATOM      3  C   UNL     1       6.555  19.074  -4.545  1.00  0.00     0.014 A 
ATOM      4  C   UNL     1       7.614  20.367  -6.788  1.00  0.00     0.047 A 
ATOM      5  C   UNL     1       7.414  20.164  -4.384  1.00  0.00     0.047 A 
ATOM      6  C   UNL     1       7.950  20.820  -5.498  1.00  0.00     0.118 A 
ENDROOT
BRANCH   1   7
ATOM      7  C   UNL     1       5.307  17.464  -5.999  1.00  0.00     0.071 C 
ATOM      8  O   UNL     1       5.107  16.965  -7.138  1.00  0.00    -0.545 OA
ATOM      9  O   UNL     1       4.659  16.912  -4.899  1.00  0.00    -0.545 OA
ENDBRANCH   1   7
BRANCH   6  10
ATOM     10  O   UNL     1       8.808  21.909  -5.282  1.00  0.00    -0.497 OA
ATOM     11  C   UNL     1       8.612  22.900  -4.278  1.00  0.00     0.278 C 
ENDBRANCH   6  10
TORSDOF 2
ENDMDL
MODEL 4
REMARK VINA RESULT:    -3.542      1.561      4.770
REMARK INTER + INTRA:          -4.018
REMARK INTER:                  -3.954
REMARK INTRA:                  -0.064
REMARK UNBOUND:                -0.062
REMARK SMILES COc1ccc(C(=O)[O-])cc1
REMARK SMILES IDX 6 1 5 2 10 3 4 4 11 5 3 6 7 7 8 8 9 9 2 10 1 11
REMARK H PARENT
REMARK Flexibility Score: inf
ROOT
ATOM      1  C   UNL     1       7.473  18.286  -8.814  1.00  0.00    -0.003 A 
ATOM      2  C   UNL     1       7.006  17.267  -7.963  1.00  0.00     0.014 A 
ATOM      3  C   UNL     1       7.590  19.592  -8.309  1.00  0.00     0.014 A 
ATOM      4  C   UNL     1       6.666  17.550  -6.637  1.00  0.00     0.047 A 
ATOM      5  C   UNL     1       7.250  19.873  -6.984  1.00  0.00     0.047 A 
ATOM      6  C   UNL     1       6.787  18.860  -6.136  1.00  0.00     0.118 A 
ENDROOT
BRANCH   1   7
ATOM      7  C   UNL     1       7.834  17.991 -10.217  1.00  0.00     0.071 C 
ATOM      8  O   UNL     1       8.370  16.893 -10.524  1.00  0.00    -0.545 OA
ATOM      9  O   UNL     1       7.585  18.922 -11.219  1.00  0.00    -0.545 OA
ENDBRANCH   1   7
BRANCH   6  10
ATOM     10  O   UNL     1       6.458  19.195  -4.815  1.00  0.00    -0.497 OA
ATOM     11  C   UNL     1       7.164  20.148  -4.026  1.00  0.00     0.278 C 
ENDBRANCH   6  10
TORSDOF 2
ENDMDL
MODEL 5
REMARK VINA RESULT:    -3.481     23.313     25.239
REMARK INTER + INTRA:          -3.950
REMARK INTER:                  -3.892
REMARK INTRA:                  -0.058
REMARK UNBOUND:                -0.062
REMARK SMILES COc1ccc(C(=O)[O-])cc1
REMARK SMILES IDX 6 1 5 2 10 3 4 4 11 5 3 6 7 7 8 8 9 9 2 10 1 11
REMARK H PARENT
REMARK Flexibility Score: inf
ROOT
ATOM      1  C   UNL     1      -3.470  35.991 -22.756  1.00  0.00    -0.003 A 
ATOM      2  C   UNL     1      -3.241  35.260 -23.936  1.00  0.00     0.014 A 
ATOM      3  C   UNL     1      -2.469  36.021 -21.770  1.00  0.00     0.014 A 
ATOM      4  C   UNL     1      -2.037  34.576 -24.125  1.00  0.00     0.047 A 
ATOM      5  C   UNL     1      -1.267  35.336 -21.960  1.00  0.00     0.047 A 
ATOM      6  C   UNL     1      -1.037  34.610 -23.134  1.00  0.00     0.118 A 
ENDROOT
BRANCH   1   7
ATOM      7  C   UNL     1      -4.742  36.716 -22.553  1.00  0.00     0.071 C 
ATOM      8  O   UNL     1      -5.412  37.125 -23.539  1.00  0.00    -0.545 OA
ATOM      9  O   UNL     1      -5.218  36.959 -21.269  1.00  0.00    -0.545 OA
ENDBRANCH   1   7
BRANCH   6  10
ATOM     10  O   UNL     1       0.187  33.939 -23.275  1.00  0.00    -0.497 OA
ATOM     11  C   UNL     1       0.406  32.580 -22.911  1.00  0.00     0.278 C 
ENDBRANCH   6  10
TORSDOF 2
ENDMDL
MODEL 6
REMARK VINA RESULT:    -3.442      8.413      8.976
REMARK INTER + INTRA:          -3.906
REMARK INTER:                  -3.841
REMARK INTRA:                  -0.065
REMARK UNBOUND:                -0.062
REMARK SMILES COc1ccc(C(=O)[O-])cc1
REMARK SMILES IDX 6 1 5 2 10 3 4 4 11 5 3 6 7 7 8 8 9 9 2 10 1 11
REMARK H PARENT
REMARK Flexibility Score: inf
ROOT
ATOM      1  C   UNL     1       0.772  23.920  -9.622  1.00  0.00    -0.003 A 
ATOM      2  C   UNL     1       1.960  23.167  -9.638  1.00  0.00     0.014 A 
ATOM      3  C   UNL     1      -0.288  23.536 -10.461  1.00  0.00     0.014 A 
ATOM      4  C   UNL     1       2.084  22.055 -10.475  1.00  0.00     0.047 A 
ATOM      5  C   UNL     1      -0.162  22.424 -11.296  1.00  0.00     0.047 A 
ATOM      6  C   UNL     1       1.019  21.674 -11.313  1.00  0.00     0.118 A 
ENDROOT
BRANCH   1   7
ATOM      7  C   UNL     1       0.637  25.098  -8.738  1.00  0.00     0.071 C 
ATOM      8  O   UNL     1       1.589  25.455  -7.995  1.00  0.00    -0.545 OA
ATOM      9  O   UNL     1      -0.546  25.829  -8.714  1.00  0.00    -0.545 OA
ENDBRANCH   1   7
BRANCH   6  10
ATOM     10  O   UNL     1       1.094  20.566 -12.170  1.00  0.00    -0.497 OA
ATOM     11  C   UNL     1       0.802  20.606 -13.564  1.00  0.00     0.278 C 
ENDBRANCH   6  10
TORSDOF 2
ENDMDL
MODEL 7
REMARK VINA RESULT:    -3.335      8.833      9.981
REMARK INTER + INTRA:          -3.787
REMARK INTER:                  -3.720
REMARK INTRA:                  -0.067
REMARK UNBOUND:                -0.062
REMARK SMILES COc1ccc(C(=O)[O-])cc1
REMARK SMILES IDX 6 1 5 2 10 3 4 4 11 5 3 6 7 7 8 8 9 9 2 10 1 11
REMARK H PARENT
REMARK Flexibility Score: inf
ROOT
ATOM      1  C   UNL     1       0.304  22.046 -12.548  1.00  0.00    -0.003 A 
ATOM      2  C   UNL     1       1.176  21.479 -11.600  1.00  0.00     0.014 A 
ATOM      3  C   UNL     1      -0.323  23.267 -12.250  1.00  0.00     0.014 A 
ATOM      4  C   UNL     1       1.414  22.121 -10.382  1.00  0.00     0.047 A 
ATOM      5  C   UNL     1      -0.084  23.907 -11.031  1.00  0.00     0.047 A 
ATOM      6  C   UNL     1       0.784  23.345 -10.088  1.00  0.00     0.118 A 
ENDROOT
BRANCH   1   7
ATOM      7  C   UNL     1       0.050  21.369 -13.838  1.00  0.00     0.071 C 
ATOM      8  O   UNL     1       0.919  20.615 -14.349  1.00  0.00    -0.545 OA
ATOM      9  O   UNL     1      -1.155  21.557 -14.506  1.00  0.00    -0.545 OA
ENDBRANCH   1   7
BRANCH   6  10
ATOM     10  O   UNL     1       0.990  24.028  -8.880  1.00  0.00    -0.497 OA
ATOM     11  C   UNL     1       0.782  25.425  -8.701  1.00  0.00     0.278 C 
ENDBRANCH   6  10
TORSDOF 2
ENDMDL
MODEL 8
REMARK VINA RESULT:    -3.298      8.807      9.721
REMARK INTER + INTRA:          -3.745
REMARK INTER:                  -3.675
REMARK INTRA:                  -0.070
REMARK UNBOUND:                -0.062
REMARK SMILES COc1ccc(C(=O)[O-])cc1
REMARK SMILES IDX 6 1 5 2 10 3 4 4 11 5 3 6 7 7 8 8 9 9 2 10 1 11
REMARK H PARENT
REMARK Flexibility Score: inf
ROOT
ATOM      1  C   UNL     1       1.505  23.687  -9.581  1.00  0.00    -0.003 A 
ATOM      2  C   UNL     1       2.071  24.722  -8.815  1.00  0.00     0.014 A 
ATOM      3  C   UNL     1       0.143  23.760  -9.920  1.00  0.00     0.014 A 
ATOM      4  C   UNL     1       1.293  25.806  -8.400  1.00  0.00     0.047 A 
ATOM      5  C   UNL     1      -0.634  24.844  -9.504  1.00  0.00     0.047 A 
ATOM      6  C   UNL     1      -0.071  25.874  -8.744  1.00  0.00     0.118 A 
ENDROOT
BRANCH   1   7
ATOM      7  C   UNL     1       2.326  22.539 -10.022  1.00  0.00     0.071 C 
ATOM      8  O   UNL     1       1.800  21.572 -10.634  1.00  0.00    -0.545 OA
ATOM      9  O   UNL     1       3.692  22.511  -9.766  1.00  0.00    -0.545 OA
ENDBRANCH   1   7
BRANCH   6  10
ATOM     10  O   UNL     1      -0.894  26.940  -8.351  1.00  0.00    -0.497 OA
ATOM     11  C   UNL     1      -2.117  27.290  -8.991  1.00  0.00     0.278 C 
ENDBRANCH   6  10
TORSDOF 2
ENDMDL
MODEL 9
REMARK VINA RESULT:    -3.290     24.202     25.583
REMARK INTER + INTRA:          -3.737
REMARK INTER:                  -3.678
REMARK INTRA:                  -0.059
REMARK UNBOUND:                -0.062
REMARK SMILES COc1ccc(C(=O)[O-])cc1
REMARK SMILES IDX 6 1 5 2 10 3 4 4 11 5 3 6 7 7 8 8 9 9 2 10 1 11
REMARK H PARENT
REMARK Flexibility Score: inf
ROOT
ATOM      1  C   UNL     1      -2.870  36.484 -22.599  1.00  0.00    -0.003 A 
ATOM      2  C   UNL     1      -2.225  36.184 -23.813  1.00  0.00     0.014 A 
ATOM      3  C   UNL     1      -2.097  36.907 -21.505  1.00  0.00     0.014 A 
ATOM      4  C   UNL     1      -0.838  36.306 -23.929  1.00  0.00     0.047 A 
ATOM      5  C   UNL     1      -0.710  37.028 -21.623  1.00  0.00     0.047 A 
ATOM      6  C   UNL     1      -0.068  36.731 -22.830  1.00  0.00     0.118 A 
ENDROOT
BRANCH   1   7
ATOM      7  C   UNL     1      -4.338  36.356 -22.473  1.00  0.00     0.071 C 
ATOM      8  O   UNL     1      -4.844  35.618 -21.586  1.00  0.00    -0.545 OA
ATOM      9  O   UNL     1      -5.182  37.050 -23.333  1.00  0.00    -0.545 OA
ENDBRANCH   1   7
BRANCH   6  10
ATOM     10  O   UNL     1       1.327  36.868 -22.896  1.00  0.00    -0.497 OA
ATOM     11  C   UNL     1       2.234  36.329 -21.940  1.00  0.00     0.278 C 
ENDBRANCH   6  10
TORSDOF 2
ENDMDL
