MODEL 1
REMARK VINA RESULT:    -5.878      0.000      0.000
REMARK INTER + INTRA:          -6.456
REMARK INTER:                  -6.394
REMARK INTRA:                  -0.062
REMARK UNBOUND:                -0.062
REMARK SMILES COc1cc2ccc(=O)oc2cc1O
REMARK SMILES IDX 3 1 13 2 12 3 11 4 5 5 4 6 6 7 7 8 8 9 9 10 10 11 2 12 1 13
REMARK SMILES IDX 14 14
REMARK H PARENT 14 15
REMARK Flexibility Score: inf
ROOT
ATOM      1  C   UNL     1     -29.331  -4.466  -1.293  1.00  0.00     0.161 A 
ATOM      2  C   UNL     1     -28.578  -5.157  -2.256  1.00  0.00     0.161 A 
ATOM      3  C   UNL     1     -28.213  -6.494  -2.044  1.00  0.00     0.098 A 
ATOM      4  C   UNL     1     -28.596  -7.152  -0.872  1.00  0.00     0.142 A 
ATOM      5  C   UNL     1     -29.354  -6.465   0.100  1.00  0.00     0.022 A 
ATOM      6  C   UNL     1     -29.719  -5.129  -0.111  1.00  0.00     0.062 A 
ATOM      7  C   UNL     1     -29.723  -7.150   1.262  1.00  0.00     0.019 A 
ATOM      8  C   UNL     1     -29.335  -8.480   1.425  1.00  0.00     0.094 A 
ATOM      9  C   UNL     1     -28.585  -9.096   0.418  1.00  0.00     0.336 A 
ATOM     10  O   UNL     1     -28.225 -10.295   0.546  1.00  0.00    -0.246 OA
ATOM     11  O   UNL     1     -28.248  -8.420  -0.678  1.00  0.00    -0.423 OA
ENDROOT
BRANCH   1  12
ATOM     12  O   UNL     1     -29.674  -3.129  -1.547  1.00  0.00    -0.493 OA
ATOM     13  C   UNL     1     -31.005  -2.658  -1.730  1.00  0.00     0.278 C 
ENDBRANCH   1  12
BRANCH   2  14
ATOM     14  O   UNL     1     -28.195  -4.503  -3.426  1.00  0.00    -0.504 OA
ATOM     15  H   UNL     1     -28.455  -3.541  -3.606  1.00  0.00     0.293 HD
ENDBRANCH   2  14
TORSDOF 2
ENDMDL
MODEL 2
REMARK VINA RESULT:    -5.845      1.321      4.942
REMARK INTER + INTRA:          -6.419
REMARK INTER:                  -6.354
REMARK INTRA:                  -0.065
REMARK UNBOUND:                -0.062
REMARK SMILES COc1cc2ccc(=O)oc2cc1O
REMARK SMILES IDX 3 1 13 2 12 3 11 4 5 5 4 6 6 7 7 8 8 9 9 10 10 11 2 12 1 13
REMARK SMILES IDX 14 14
REMARK H PARENT 14 15
REMARK Flexibility Score: inf
ROOT
ATOM      1  C   UNL     1     -29.486  -8.637   1.503  1.00  0.00     0.161 A 
ATOM      2  C   UNL     1     -28.779  -9.340   0.513  1.00  0.00     0.161 A 
ATOM      3  C   UNL     1     -28.301  -8.673  -0.624  1.00  0.00     0.098 A 
ATOM      4  C   UNL     1     -28.523  -7.302  -0.783  1.00  0.00     0.142 A 
ATOM      5  C   UNL     1     -29.232  -6.589   0.207  1.00  0.00     0.022 A 
ATOM      6  C   UNL     1     -29.710  -7.254   1.344  1.00  0.00     0.062 A 
ATOM      7  C   UNL     1     -29.438  -5.218   0.020  1.00  0.00     0.019 A 
ATOM      8  C   UNL     1     -28.942  -4.601  -1.129  1.00  0.00     0.094 A 
ATOM      9  C   UNL     1     -28.248  -5.373  -2.067  1.00  0.00     0.336 A 
ATOM     10  O   UNL     1     -27.793  -4.836  -3.110  1.00  0.00    -0.246 OA
ATOM     11  O   UNL     1     -28.066  -6.676  -1.863  1.00  0.00    -0.423 OA
ENDROOT
BRANCH   1  12
ATOM     12  O   UNL     1     -29.946  -9.344   2.624  1.00  0.00    -0.493 OA
ATOM     13  C   UNL     1     -31.287  -9.788   2.804  1.00  0.00     0.278 C 
ENDBRANCH   1  12
BRANCH   2  14
ATOM     14  O   UNL     1     -28.556 -10.706   0.669  1.00  0.00    -0.504 OA
ATOM     15  H   UNL     1     -29.063 -11.393   0.124  1.00  0.00     0.293 HD
ENDBRANCH   2  14
TORSDOF 2
ENDMDL
MODEL 3
REMARK VINA RESULT:    -5.732      8.615     11.947
REMARK INTER + INTRA:          -6.297
REMARK INTER:                  -6.243
REMARK INTRA:                  -0.055
REMARK UNBOUND:                -0.062
REMARK SMILES COc1cc2ccc(=O)oc2cc1O
REMARK SMILES IDX 3 1 13 2 12 3 11 4 5 5 4 6 6 7 7 8 8 9 9 10 10 11 2 12 1 13
REMARK SMILES IDX 14 14
REMARK H PARENT 14 15
REMARK Flexibility Score: inf
ROOT
ATOM      1  C   UNL     1     -34.749 -16.095   5.223  1.00  0.00     0.161 A 
ATOM      2  C   UNL     1     -33.639 -16.368   6.038  1.00  0.00     0.161 A 
ATOM      3  C   UNL     1     -32.381 -15.832   5.726  1.00  0.00     0.098 A 
ATOM      4  C   UNL     1     -32.221 -15.019   4.600  1.00  0.00     0.142 A 
ATOM      5  C   UNL     1     -33.332 -14.740   3.776  1.00  0.00     0.022 A 
ATOM      6  C   UNL     1     -34.589 -15.275   4.087  1.00  0.00     0.062 A 
ATOM      7  C   UNL     1     -33.140 -13.923   2.657  1.00  0.00     0.019 A 
ATOM      8  C   UNL     1     -31.870 -13.413   2.390  1.00  0.00     0.094 A 
ATOM      9  C   UNL     1     -30.816 -13.734   3.252  1.00  0.00     0.336 A 
ATOM     10  O   UNL     1     -29.662 -13.284   3.029  1.00  0.00    -0.246 OA
ATOM     11  O   UNL     1     -31.026 -14.513   4.310  1.00  0.00    -0.423 OA
ENDROOT
BRANCH   1  12
ATOM     12  O   UNL     1     -35.988 -16.652   5.573  1.00  0.00    -0.493 OA
ATOM     13  C   UNL     1     -37.207 -15.921   5.657  1.00  0.00     0.278 C 
ENDBRANCH   1  12
BRANCH   2  14
ATOM     14  O   UNL     1     -33.795 -17.178   7.162  1.00  0.00    -0.504 OA
ATOM     15  H   UNL     1     -34.347 -16.881   7.958  1.00  0.00     0.293 HD
ENDBRANCH   2  14
TORSDOF 2
ENDMDL
MODEL 4
REMARK VINA RESULT:    -5.591      1.911      5.319
REMARK INTER + INTRA:          -6.143
REMARK INTER:                  -6.167
REMARK INTRA:                   0.023
REMARK UNBOUND:                -0.062
REMARK SMILES COc1cc2ccc(=O)oc2cc1O
REMARK SMILES IDX 3 1 13 2 12 3 11 4 5 5 4 6 6 7 7 8 8 9 9 10 10 11 2 12 1 13
REMARK SMILES IDX 14 14
REMARK H PARENT 14 15
REMARK Flexibility Score: inf
ROOT
ATOM      1  C   UNL     1     -27.496  -9.166  -0.959  1.00  0.00     0.161 A 
ATOM      2  C   UNL     1     -28.319  -9.423   0.149  1.00  0.00     0.161 A 
ATOM      3  C   UNL     1     -29.070  -8.391   0.728  1.00  0.00     0.098 A 
ATOM      4  C   UNL     1     -29.006  -7.095   0.208  1.00  0.00     0.142 A 
ATOM      5  C   UNL     1     -28.181  -6.828  -0.905  1.00  0.00     0.022 A 
ATOM      6  C   UNL     1     -27.430  -7.860  -1.485  1.00  0.00     0.062 A 
ATOM      7  C   UNL     1     -28.137  -5.522  -1.404  1.00  0.00     0.019 A 
ATOM      8  C   UNL     1     -28.904  -4.530  -0.792  1.00  0.00     0.094 A 
ATOM      9  C   UNL     1     -29.699  -4.869   0.308  1.00  0.00     0.336 A 
ATOM     10  O   UNL     1     -30.397  -3.988   0.875  1.00  0.00    -0.246 OA
ATOM     11  O   UNL     1     -29.721  -6.120   0.762  1.00  0.00    -0.423 OA
ENDROOT
BRANCH   1  12
ATOM     12  O   UNL     1     -26.762 -10.230  -1.507  1.00  0.00    -0.493 OA
ATOM     13  C   UNL     1     -25.533 -10.718  -0.980  1.00  0.00     0.278 C 
ENDBRANCH   1  12
BRANCH   2  14
ATOM     14  O   UNL     1     -28.386 -10.714   0.669  1.00  0.00    -0.504 OA
ATOM     15  H   UNL     1     -28.519 -10.881   1.660  1.00  0.00     0.293 HD
ENDBRANCH   2  14
TORSDOF 2
ENDMDL
MODEL 5
REMARK VINA RESULT:    -5.585      9.268     11.409
REMARK INTER + INTRA:          -6.137
REMARK INTER:                  -6.081
REMARK INTRA:                  -0.056
REMARK UNBOUND:                -0.062
REMARK SMILES COc1cc2ccc(=O)oc2cc1O
REMARK SMILES IDX 3 1 13 2 12 3 11 4 5 5 4 6 6 7 7 8 8 9 9 10 10 11 2 12 1 13
REMARK SMILES IDX 14 14
REMARK H PARENT 14 15
REMARK Flexibility Score: inf
ROOT
ATOM      1  C   UNL     1     -30.474 -15.014   4.980  1.00  0.00     0.161 A 
ATOM      2  C   UNL     1     -30.769 -14.072   3.981  1.00  0.00     0.161 A 
ATOM      3  C   UNL     1     -32.073 -13.960   3.477  1.00  0.00     0.098 A 
ATOM      4  C   UNL     1     -33.091 -14.785   3.965  1.00  0.00     0.142 A 
ATOM      5  C   UNL     1     -32.802 -15.733   4.969  1.00  0.00     0.022 A 
ATOM      6  C   UNL     1     -31.500 -15.845   5.473  1.00  0.00     0.062 A 
ATOM      7  C   UNL     1     -33.841 -16.544   5.437  1.00  0.00     0.019 A 
ATOM      8  C   UNL     1     -35.121 -16.393   4.903  1.00  0.00     0.094 A 
ATOM      9  C   UNL     1     -35.333 -15.431   3.910  1.00  0.00     0.336 A 
ATOM     10  O   UNL     1     -36.480 -15.280   3.415  1.00  0.00    -0.246 OA
ATOM     11  O   UNL     1     -34.325 -14.673   3.483  1.00  0.00    -0.423 OA
ENDROOT
BRANCH   1  12
ATOM     12  O   UNL     1     -29.156 -15.091   5.456  1.00  0.00    -0.493 OA
ATOM     13  C   UNL     1     -28.176 -16.003   4.971  1.00  0.00     0.278 C 
ENDBRANCH   1  12
BRANCH   2  14
ATOM     14  O   UNL     1     -29.757 -13.249   3.493  1.00  0.00    -0.504 OA
ATOM     15  H   UNL     1     -29.871 -12.243   3.437  1.00  0.00     0.293 HD
ENDBRANCH   2  14
TORSDOF 2
ENDMDL
MODEL 6
REMARK VINA RESULT:    -5.574     10.427     11.885
REMARK INTER + INTRA:          -6.125
REMARK INTER:                  -6.070
REMARK INTRA:                  -0.055
REMARK UNBOUND:                -0.062
REMARK SMILES COc1cc2ccc(=O)oc2cc1O
REMARK SMILES IDX 3 1 13 2 12 3 11 4 5 5 4 6 6 7 7 8 8 9 9 10 10 11 2 12 1 13
REMARK SMILES IDX 14 14
REMARK H PARENT 14 15
REMARK Flexibility Score: inf
ROOT
ATOM      1  C   UNL     1     -35.250 -15.288   3.909  1.00  0.00     0.161 A 
ATOM      2  C   UNL     1     -35.171 -16.207   4.967  1.00  0.00     0.161 A 
ATOM      3  C   UNL     1     -33.943 -16.459   5.596  1.00  0.00     0.098 A 
ATOM      4  C   UNL     1     -32.787 -15.796   5.176  1.00  0.00     0.142 A 
ATOM      5  C   UNL     1     -32.858 -14.871   4.113  1.00  0.00     0.022 A 
ATOM      6  C   UNL     1     -34.084 -14.618   3.484  1.00  0.00     0.062 A 
ATOM      7  C   UNL     1     -31.684 -14.223   3.715  1.00  0.00     0.019 A 
ATOM      8  C   UNL     1     -30.487 -14.508   4.373  1.00  0.00     0.094 A 
ATOM      9  C   UNL     1     -30.493 -15.437   5.419  1.00  0.00     0.336 A 
ATOM     10  O   UNL     1     -29.424 -15.709   6.025  1.00  0.00    -0.246 OA
ATOM     11  O   UNL     1     -31.625 -16.039   5.777  1.00  0.00    -0.423 OA
ENDROOT
BRANCH   1  12
ATOM     12  O   UNL     1     -36.499 -15.067   3.308  1.00  0.00    -0.493 OA
ATOM     13  C   UNL     1     -37.076 -13.783   3.097  1.00  0.00     0.278 C 
ENDBRANCH   1  12
BRANCH   2  14
ATOM     14  O   UNL     1     -36.322 -16.869   5.389  1.00  0.00    -0.504 OA
ATOM     15  H   UNL     1     -37.246 -16.555   5.115  1.00  0.00     0.293 HD
ENDBRANCH   2  14
TORSDOF 2
ENDMDL
MODEL 7
REMARK VINA RESULT:    -5.560      5.818      6.819
REMARK INTER + INTRA:          -6.109
REMARK INTER:                  -6.062
REMARK INTRA:                  -0.047
REMARK UNBOUND:                -0.062
REMARK SMILES COc1cc2ccc(=O)oc2cc1O
REMARK SMILES IDX 3 1 13 2 12 3 11 4 5 5 4 6 6 7 7 8 8 9 9 10 10 11 2 12 1 13
REMARK SMILES IDX 14 14
REMARK H PARENT 14 15
REMARK Flexibility Score: inf
ROOT
ATOM      1  C   UNL     1     -34.283  -9.522   2.264  1.00  0.00     0.161 A 
ATOM      2  C   UNL     1     -33.219  -8.757   2.771  1.00  0.00     0.161 A 
ATOM      3  C   UNL     1     -31.905  -9.240   2.704  1.00  0.00     0.098 A 
ATOM      4  C   UNL     1     -31.640 -10.488   2.132  1.00  0.00     0.142 A 
ATOM      5  C   UNL     1     -32.703 -11.262   1.620  1.00  0.00     0.022 A 
ATOM      6  C   UNL     1     -34.017 -10.780   1.686  1.00  0.00     0.062 A 
ATOM      7  C   UNL     1     -32.407 -12.506   1.053  1.00  0.00     0.019 A 
ATOM      8  C   UNL     1     -31.083 -12.942   1.010  1.00  0.00     0.094 A 
ATOM      9  C   UNL     1     -30.081 -12.119   1.537  1.00  0.00     0.336 A 
ATOM     10  O   UNL     1     -28.880 -12.494   1.508  1.00  0.00    -0.246 OA
ATOM     11  O   UNL     1     -30.391 -10.940   2.071  1.00  0.00    -0.423 OA
ENDROOT
BRANCH   1  12
ATOM     12  O   UNL     1     -35.582  -8.999   2.352  1.00  0.00    -0.493 OA
ATOM     13  C   UNL     1     -36.765  -9.787   2.432  1.00  0.00     0.278 C 
ENDBRANCH   1  12
BRANCH   2  14
ATOM     14  O   UNL     1     -33.480  -7.513   3.341  1.00  0.00    -0.504 OA
ATOM     15  H   UNL     1     -32.776  -7.016   3.876  1.00  0.00     0.293 HD
ENDBRANCH   2  14
TORSDOF 2
ENDMDL
MODEL 8
REMARK VINA RESULT:    -5.428      8.041     10.639
REMARK INTER + INTRA:          -5.966
REMARK INTER:                  -5.920
REMARK INTRA:                  -0.045
REMARK UNBOUND:                -0.062
REMARK SMILES COc1cc2ccc(=O)oc2cc1O
REMARK SMILES IDX 3 1 13 2 12 3 11 4 5 5 4 6 6 7 7 8 8 9 9 10 10 11 2 12 1 13
REMARK SMILES IDX 14 14
REMARK H PARENT 14 15
REMARK Flexibility Score: inf
ROOT
ATOM      1  C   UNL     1     -27.560 -15.712   4.253  1.00  0.00     0.161 A 
ATOM      2  C   UNL     1     -27.720 -16.913   3.542  1.00  0.00     0.161 A 
ATOM      3  C   UNL     1     -27.758 -16.906   2.140  1.00  0.00     0.098 A 
ATOM      4  C   UNL     1     -27.635 -15.704   1.438  1.00  0.00     0.142 A 
ATOM      5  C   UNL     1     -27.474 -14.494   2.145  1.00  0.00     0.022 A 
ATOM      6  C   UNL     1     -27.436 -14.499   3.545  1.00  0.00     0.062 A 
ATOM      7  C   UNL     1     -27.354 -13.307   1.414  1.00  0.00     0.019 A 
ATOM      8  C   UNL     1     -27.397 -13.354   0.020  1.00  0.00     0.094 A 
ATOM      9  C   UNL     1     -27.559 -14.591  -0.612  1.00  0.00     0.336 A 
ATOM     10  O   UNL     1     -27.601 -14.654  -1.868  1.00  0.00    -0.246 OA
ATOM     11  O   UNL     1     -27.671 -15.705   0.108  1.00  0.00    -0.423 OA
ENDROOT
BRANCH   1  12
ATOM     12  O   UNL     1     -27.527 -15.766   5.655  1.00  0.00    -0.493 OA
ATOM     13  C   UNL     1     -27.582 -14.627   6.507  1.00  0.00     0.278 C 
ENDBRANCH   1  12
BRANCH   2  14
ATOM     14  O   UNL     1     -27.842 -18.113   4.240  1.00  0.00    -0.504 OA
ATOM     15  H   UNL     1     -28.598 -18.272   4.895  1.00  0.00     0.293 HD
ENDBRANCH   2  14
TORSDOF 2
ENDMDL
