MODEL 1
REMARK VINA RESULT:    -4.584      0.000      0.000
REMARK INTER + INTRA:         -11.836
REMARK INTER:                  -8.873
REMARK INTRA:                  -2.964
REMARK UNBOUND:                -2.964
REMARK SMILES CCCCCCCCCCCCCCCCCC(=O)[O-]
REMARK SMILES IDX 10 1 11 2 12 3 13 4 14 5 15 6 16 7 17 8 18 9 19 10 20 11
REMARK SMILES IDX 9 12 8 13 7 14 6 15 5 16 4 17 3 18 2 19 1 20
REMARK H PARENT
REMARK Flexibility Score: inf
ROOT
ATOM      1  C   UNL     1      -1.481 -47.876  17.386  1.00  0.00     0.000 C 
ENDROOT
BRANCH   1   2
ATOM      2  C   UNL     1      -2.458 -49.026  17.672  1.00  0.00     0.000 C 
BRANCH   2   3
ATOM      3  C   UNL     1      -3.755 -48.857  16.870  1.00  0.00     0.000 C 
BRANCH   3   4
ATOM      4  C   UNL     1      -4.937 -48.540  17.794  1.00  0.00     0.000 C 
BRANCH   4   5
ATOM      5  C   UNL     1      -4.567 -48.791  19.265  1.00  0.00     0.000 C 
BRANCH   5   6
ATOM      6  C   UNL     1      -4.598 -47.507  20.110  1.00  0.00     0.000 C 
BRANCH   6   7
ATOM      7  C   UNL     1      -5.474 -46.409  19.487  1.00  0.00     0.006 C 
BRANCH   7   8
ATOM      8  C   UNL     1      -4.991 -45.019  19.911  1.00  0.00     0.053 C 
BRANCH   8   9
ATOM      9  C   UNL     1      -6.126 -44.213  20.460  1.00  0.00     0.041 C 
ATOM     10  O   UNL     1      -7.278 -44.714  20.539  1.00  0.00    -0.550 OA
ATOM     11  O   UNL     1      -5.920 -42.893  20.839  1.00  0.00    -0.550 OA
ENDBRANCH   8   9
ENDBRANCH   7   8
ENDBRANCH   6   7
ENDBRANCH   5   6
ENDBRANCH   4   5
ENDBRANCH   3   4
ENDBRANCH   2   3
ENDBRANCH   1   2
BRANCH   1  12
ATOM     12  C   UNL     1      -1.627 -46.709  18.378  1.00  0.00     0.000 C 
BRANCH  12  13
ATOM     13  C   UNL     1      -2.078 -45.371  17.756  1.00  0.00    -0.000 C 
BRANCH  13  14
ATOM     14  C   UNL     1      -1.650 -45.147  16.294  1.00  0.00    -0.000 C 
BRANCH  14  15
ATOM     15  C   UNL     1      -2.792 -44.618  15.411  1.00  0.00    -0.000 C 
BRANCH  15  16
ATOM     16  C   UNL     1      -3.689 -45.738  14.853  1.00  0.00    -0.000 C 
BRANCH  16  17
ATOM     17  C   UNL     1      -5.179 -45.372  14.707  1.00  0.00    -0.000 C 
BRANCH  17  18
ATOM     18  C   UNL     1      -5.956 -45.483  16.031  1.00  0.00    -0.000 C 
BRANCH  18  19
ATOM     19  C   UNL     1      -6.757 -44.211  16.352  1.00  0.00    -0.003 C 
ATOM     20  C   UNL     1      -5.878 -43.079  16.880  1.00  0.00     0.004 C 
ENDBRANCH  18  19
ENDBRANCH  17  18
ENDBRANCH  16  17
ENDBRANCH  15  16
ENDBRANCH  14  15
ENDBRANCH  13  14
ENDBRANCH  12  13
ENDBRANCH   1  12
TORSDOF 16
ENDMDL
MODEL 2
REMARK VINA RESULT:    -4.547      2.198      4.761
REMARK INTER + INTRA:         -11.764
REMARK INTER:                  -8.956
REMARK INTRA:                  -2.808
REMARK UNBOUND:                -2.964
REMARK SMILES CCCCCCCCCCCCCCCCCC(=O)[O-]
REMARK SMILES IDX 10 1 11 2 12 3 13 4 14 5 15 6 16 7 17 8 18 9 19 10 20 11
REMARK SMILES IDX 9 12 8 13 7 14 6 15 5 16 4 17 3 18 2 19 1 20
REMARK H PARENT
REMARK Flexibility Score: inf
ROOT
ATOM      1  C   UNL     1      -1.529 -47.738  17.212  1.00  0.00     0.000 C 
ENDROOT
BRANCH   1   2
ATOM      2  C   UNL     1      -1.647 -46.714  18.350  1.00  0.00     0.000 C 
BRANCH   2   3
ATOM      3  C   UNL     1      -2.065 -45.341  17.812  1.00  0.00     0.000 C 
BRANCH   3   4
ATOM      4  C   UNL     1      -1.674 -45.183  16.338  1.00  0.00     0.000 C 
BRANCH   4   5
ATOM      5  C   UNL     1      -2.819 -44.554  15.529  1.00  0.00     0.000 C 
BRANCH   5   6
ATOM      6  C   UNL     1      -3.698 -45.604  14.833  1.00  0.00     0.000 C 
BRANCH   6   7
ATOM      7  C   UNL     1      -5.036 -45.830  15.554  1.00  0.00     0.006 C 
BRANCH   7   8
ATOM      8  C   UNL     1      -5.967 -44.629  15.367  1.00  0.00     0.053 C 
BRANCH   8   9
ATOM      9  C   UNL     1      -7.162 -45.012  14.552  1.00  0.00     0.041 C 
ATOM     10  O   UNL     1      -8.297 -45.089  15.091  1.00  0.00    -0.550 OA
ATOM     11  O   UNL     1      -7.014 -45.330  13.208  1.00  0.00    -0.550 OA
ENDBRANCH   8   9
ENDBRANCH   7   8
ENDBRANCH   6   7
ENDBRANCH   5   6
ENDBRANCH   4   5
ENDBRANCH   3   4
ENDBRANCH   2   3
ENDBRANCH   1   2
BRANCH   1  12
ATOM     12  C   UNL     1      -2.341 -49.019  17.475  1.00  0.00     0.000 C 
BRANCH  12  13
ATOM     13  C   UNL     1      -3.736 -49.059  16.817  1.00  0.00    -0.000 C 
BRANCH  13  14
ATOM     14  C   UNL     1      -4.921 -48.818  17.771  1.00  0.00    -0.000 C 
BRANCH  14  15
ATOM     15  C   UNL     1      -4.513 -48.862  19.252  1.00  0.00    -0.000 C 
BRANCH  15  16
ATOM     16  C   UNL     1      -4.623 -47.492  19.947  1.00  0.00    -0.000 C 
BRANCH  16  17
ATOM     17  C   UNL     1      -5.344 -46.401  19.133  1.00  0.00    -0.000 C 
BRANCH  17  18
ATOM     18  C   UNL     1      -5.723 -45.174  19.981  1.00  0.00    -0.000 C 
BRANCH  18  19
ATOM     19  C   UNL     1      -4.994 -43.898  19.528  1.00  0.00    -0.003 C 
ATOM     20  C   UNL     1      -5.871 -42.994  18.664  1.00  0.00     0.004 C 
ENDBRANCH  18  19
ENDBRANCH  17  18
ENDBRANCH  16  17
ENDBRANCH  15  16
ENDBRANCH  14  15
ENDBRANCH  13  14
ENDBRANCH  12  13
ENDBRANCH   1  12
TORSDOF 16
ENDMDL
MODEL 3
REMARK VINA RESULT:    -4.368      3.659      5.215
REMARK INTER + INTRA:         -11.417
REMARK INTER:                  -8.424
REMARK INTRA:                  -2.992
REMARK UNBOUND:                -2.964
REMARK SMILES CCCCCCCCCCCCCCCCCC(=O)[O-]
REMARK SMILES IDX 10 1 11 2 12 3 13 4 14 5 15 6 16 7 17 8 18 9 19 10 20 11
REMARK SMILES IDX 9 12 8 13 7 14 6 15 5 16 4 17 3 18 2 19 1 20
REMARK H PARENT
REMARK Flexibility Score: inf
ROOT
ATOM      1  C   UNL     1      -5.552 -46.020  18.592  1.00  0.00     0.000 C 
ENDROOT
BRANCH   1   2
ATOM      2  C   UNL     1      -5.546 -47.271  17.701  1.00  0.00     0.000 C 
BRANCH   2   3
ATOM      3  C   UNL     1      -4.770 -48.415  18.365  1.00  0.00     0.000 C 
BRANCH   3   4
ATOM      4  C   UNL     1      -3.678 -48.954  17.434  1.00  0.00     0.000 C 
BRANCH   4   5
ATOM      5  C   UNL     1      -2.304 -48.922  18.122  1.00  0.00     0.000 C 
BRANCH   5   6
ATOM      6  C   UNL     1      -1.140 -49.021  17.124  1.00  0.00     0.000 C 
BRANCH   6   7
ATOM      7  C   UNL     1      -1.416 -50.017  15.988  1.00  0.00     0.006 C 
BRANCH   7   8
ATOM      8  C   UNL     1      -0.553 -49.702  14.763  1.00  0.00     0.053 C 
BRANCH   8   9
ATOM      9  C   UNL     1      -1.411 -49.488  13.556  1.00  0.00     0.041 C 
ATOM     10  O   UNL     1      -0.939 -49.671  12.403  1.00  0.00    -0.550 OA
ATOM     11  O   UNL     1      -2.718 -49.040  13.704  1.00  0.00    -0.550 OA
ENDBRANCH   8   9
ENDBRANCH   7   8
ENDBRANCH   6   7
ENDBRANCH   5   6
ENDBRANCH   4   5
ENDBRANCH   3   4
ENDBRANCH   2   3
ENDBRANCH   1   2
BRANCH   1  12
ATOM     12  C   UNL     1      -4.221 -45.812  19.336  1.00  0.00     0.000 C 
BRANCH  12  13
ATOM     13  C   UNL     1      -3.248 -44.815  18.673  1.00  0.00    -0.000 C 
BRANCH  13  14
ATOM     14  C   UNL     1      -1.980 -45.440  18.061  1.00  0.00    -0.000 C 
BRANCH  14  15
ATOM     15  C   UNL     1      -1.825 -45.131  16.564  1.00  0.00    -0.000 C 
BRANCH  15  16
ATOM     16  C   UNL     1      -2.749 -45.982  15.674  1.00  0.00    -0.000 C 
BRANCH  16  17
ATOM     17  C   UNL     1      -3.638 -45.185  14.701  1.00  0.00    -0.000 C 
BRANCH  17  18
ATOM     18  C   UNL     1      -4.027 -43.798  15.245  1.00  0.00    -0.000 C 
BRANCH  18  19
ATOM     19  C   UNL     1      -5.542 -43.658  15.470  1.00  0.00    -0.003 C 
ATOM     20  C   UNL     1      -6.320 -44.898  15.032  1.00  0.00     0.004 C 
ENDBRANCH  18  19
ENDBRANCH  17  18
ENDBRANCH  16  17
ENDBRANCH  15  16
ENDBRANCH  14  15
ENDBRANCH  13  14
ENDBRANCH  12  13
ENDBRANCH   1  12
TORSDOF 16
ENDMDL
MODEL 4
REMARK VINA RESULT:    -4.363      1.152      4.132
REMARK INTER + INTRA:         -11.407
REMARK INTER:                  -8.240
REMARK INTRA:                  -3.167
REMARK UNBOUND:                -2.964
REMARK SMILES CCCCCCCCCCCCCCCCCC(=O)[O-]
REMARK SMILES IDX 10 1 11 2 12 3 13 4 14 5 15 6 16 7 17 8 18 9 19 10 20 11
REMARK SMILES IDX 9 12 8 13 7 14 6 15 5 16 4 17 3 18 2 19 1 20
REMARK H PARENT
REMARK Flexibility Score: inf
ROOT
ATOM      1  C   UNL     1      -1.758 -45.252  16.628  1.00  0.00     0.000 C 
ENDROOT
BRANCH   1   2
ATOM      2  C   UNL     1      -2.627 -44.690  15.493  1.00  0.00     0.000 C 
BRANCH   2   3
ATOM      3  C   UNL     1      -3.854 -45.577  15.250  1.00  0.00     0.000 C 
BRANCH   3   4
ATOM      4  C   UNL     1      -5.151 -44.820  15.556  1.00  0.00     0.000 C 
BRANCH   4   5
ATOM      5  C   UNL     1      -6.143 -45.714  16.318  1.00  0.00     0.000 C 
BRANCH   5   6
ATOM      6  C   UNL     1      -6.496 -45.157  17.706  1.00  0.00     0.000 C 
BRANCH   6   7
ATOM      7  C   UNL     1      -5.899 -43.762  17.955  1.00  0.00     0.006 C 
BRANCH   7   8
ATOM      8  C   UNL     1      -5.878 -43.436  19.450  1.00  0.00     0.053 C 
BRANCH   8   9
ATOM      9  C   UNL     1      -7.245 -43.057  19.925  1.00  0.00     0.041 C 
ATOM     10  O   UNL     1      -7.875 -43.814  20.710  1.00  0.00    -0.550 OA
ATOM     11  O   UNL     1      -7.841 -41.890  19.464  1.00  0.00    -0.550 OA
ENDBRANCH   8   9
ENDBRANCH   7   8
ENDBRANCH   6   7
ENDBRANCH   5   6
ENDBRANCH   4   5
ENDBRANCH   3   4
ENDBRANCH   2   3
ENDBRANCH   1   2
BRANCH   1  12
ATOM     12  C   UNL     1      -2.389 -45.050  18.017  1.00  0.00     0.000 C 
BRANCH  12  13
ATOM     13  C   UNL     1      -2.484 -46.322  18.885  1.00  0.00    -0.000 C 
BRANCH  13  14
ATOM     14  C   UNL     1      -3.624 -46.330  19.920  1.00  0.00    -0.000 C 
BRANCH  14  15
ATOM     15  C   UNL     1      -4.684 -47.405  19.632  1.00  0.00    -0.000 C 
BRANCH  15  16
ATOM     16  C   UNL     1      -4.117 -48.624  18.883  1.00  0.00    -0.000 C 
BRANCH  16  17
ATOM     17  C   UNL     1      -4.716 -48.871  17.485  1.00  0.00    -0.000 C 
BRANCH  17  18
ATOM     18  C   UNL     1      -3.643 -49.034  16.394  1.00  0.00    -0.000 C 
BRANCH  18  19
ATOM     19  C   UNL     1      -2.245 -49.297  16.977  1.00  0.00    -0.003 C 
ATOM     20  C   UNL     1      -1.124 -48.787  16.073  1.00  0.00     0.004 C 
ENDBRANCH  18  19
ENDBRANCH  17  18
ENDBRANCH  16  17
ENDBRANCH  15  16
ENDBRANCH  14  15
ENDBRANCH  13  14
ENDBRANCH  12  13
ENDBRANCH   1  12
TORSDOF 16
ENDMDL
MODEL 5
REMARK VINA RESULT:    -4.317      1.050      2.418
REMARK INTER + INTRA:         -11.319
REMARK INTER:                  -8.500
REMARK INTRA:                  -2.819
REMARK UNBOUND:                -2.964
REMARK SMILES CCCCCCCCCCCCCCCCCC(=O)[O-]
REMARK SMILES IDX 10 1 11 2 12 3 13 4 14 5 15 6 16 7 17 8 18 9 19 10 20 11
REMARK SMILES IDX 9 12 8 13 7 14 6 15 5 16 4 17 3 18 2 19 1 20
REMARK H PARENT
REMARK Flexibility Score: inf
ROOT
ATOM      1  C   UNL     1      -3.726 -48.823  16.250  1.00  0.00     0.000 C 
ENDROOT
BRANCH   1   2
ATOM      2  C   UNL     1      -4.793 -49.081  17.323  1.00  0.00     0.000 C 
BRANCH   2   3
ATOM      3  C   UNL     1      -5.036 -47.827  18.171  1.00  0.00     0.000 C 
BRANCH   3   4
ATOM      4  C   UNL     1      -4.636 -48.062  19.632  1.00  0.00     0.000 C 
BRANCH   4   5
ATOM      5  C   UNL     1      -4.595 -46.737  20.410  1.00  0.00     0.000 C 
BRANCH   5   6
ATOM      6  C   UNL     1      -5.759 -45.802  20.047  1.00  0.00     0.000 C 
BRANCH   6   7
ATOM      7  C   UNL     1      -5.290 -44.381  19.696  1.00  0.00     0.006 C 
BRANCH   7   8
ATOM      8  C   UNL     1      -6.129 -43.332  20.430  1.00  0.00     0.053 C 
BRANCH   8   9
ATOM      9  C   UNL     1      -7.573 -43.458  20.056  1.00  0.00     0.041 C 
ATOM     10  O   UNL     1      -8.433 -43.730  20.935  1.00  0.00    -0.550 OA
ATOM     11  O   UNL     1      -7.961 -43.321  18.730  1.00  0.00    -0.550 OA
ENDBRANCH   8   9
ENDBRANCH   7   8
ENDBRANCH   6   7
ENDBRANCH   5   6
ENDBRANCH   4   5
ENDBRANCH   3   4
ENDBRANCH   2   3
ENDBRANCH   1   2
BRANCH   1  12
ATOM     12  C   UNL     1      -2.303 -49.157  16.732  1.00  0.00     0.000 C 
BRANCH  12  13
ATOM     13  C   UNL     1      -1.356 -47.946  16.870  1.00  0.00    -0.000 C 
BRANCH  13  14
ATOM     14  C   UNL     1      -1.493 -47.149  18.180  1.00  0.00    -0.000 C 
BRANCH  14  15
ATOM     15  C   UNL     1      -1.994 -45.713  17.955  1.00  0.00    -0.000 C 
BRANCH  15  16
ATOM     16  C   UNL     1      -1.866 -45.253  16.492  1.00  0.00    -0.000 C 
BRANCH  16  17
ATOM     17  C   UNL     1      -3.100 -44.527  15.924  1.00  0.00    -0.000 C 
BRANCH  17  18
ATOM     18  C   UNL     1      -3.696 -45.233  14.693  1.00  0.00    -0.000 C 
BRANCH  18  19
ATOM     19  C   UNL     1      -5.154 -45.669  14.913  1.00  0.00    -0.003 C 
ATOM     20  C   UNL     1      -5.826 -44.917  16.061  1.00  0.00     0.004 C 
ENDBRANCH  18  19
ENDBRANCH  17  18
ENDBRANCH  16  17
ENDBRANCH  15  16
ENDBRANCH  14  15
ENDBRANCH  13  14
ENDBRANCH  12  13
ENDBRANCH   1  12
TORSDOF 16
ENDMDL
MODEL 6
REMARK VINA RESULT:    -4.262      2.042      3.134
REMARK INTER + INTRA:         -11.212
REMARK INTER:                  -8.390
REMARK INTRA:                  -2.822
REMARK UNBOUND:                -2.964
REMARK SMILES CCCCCCCCCCCCCCCCCC(=O)[O-]
REMARK SMILES IDX 10 1 11 2 12 3 13 4 14 5 15 6 16 7 17 8 18 9 19 10 20 11
REMARK SMILES IDX 9 12 8 13 7 14 6 15 5 16 4 17 3 18 2 19 1 20
REMARK H PARENT
REMARK Flexibility Score: inf
ROOT
ATOM      1  C   UNL     1      -1.276 -47.533  17.606  1.00  0.00     0.000 C 
ENDROOT
BRANCH   1   2
ATOM      2  C   UNL     1      -2.087 -48.823  17.797  1.00  0.00     0.000 C 
BRANCH   2   3
ATOM      3  C   UNL     1      -2.762 -49.247  16.487  1.00  0.00     0.000 C 
BRANCH   3   4
ATOM      4  C   UNL     1      -4.287 -49.270  16.635  1.00  0.00     0.000 C 
BRANCH   4   5
ATOM      5  C   UNL     1      -4.726 -48.542  17.915  1.00  0.00     0.000 C 
BRANCH   5   6
ATOM      6  C   UNL     1      -5.680 -47.370  17.633  1.00  0.00     0.000 C 
BRANCH   6   7
ATOM      7  C   UNL     1      -5.608 -46.275  18.709  1.00  0.00     0.006 C 
BRANCH   7   8
ATOM      8  C   UNL     1      -4.422 -46.510  19.648  1.00  0.00     0.053 C 
BRANCH   8   9
ATOM      9  C   UNL     1      -3.514 -45.321  19.654  1.00  0.00     0.041 C 
ATOM     10  O   UNL     1      -3.937 -44.198  19.271  1.00  0.00    -0.550 OA
ATOM     11  O   UNL     1      -2.187 -45.462  20.039  1.00  0.00    -0.550 OA
ENDBRANCH   8   9
ENDBRANCH   7   8
ENDBRANCH   6   7
ENDBRANCH   5   6
ENDBRANCH   4   5
ENDBRANCH   3   4
ENDBRANCH   2   3
ENDBRANCH   1   2
BRANCH   1  12
ATOM     12  C   UNL     1      -1.659 -46.772  16.325  1.00  0.00     0.000 C 
BRANCH  12  13
ATOM     13  C   UNL     1      -1.705 -45.236  16.464  1.00  0.00    -0.000 C 
BRANCH  13  14
ATOM     14  C   UNL     1      -2.588 -44.508  15.433  1.00  0.00    -0.000 C 
BRANCH  14  15
ATOM     15  C   UNL     1      -4.086 -44.583  15.772  1.00  0.00    -0.000 C 
BRANCH  15  16
ATOM     16  C   UNL     1      -4.894 -45.400  14.748  1.00  0.00    -0.000 C 
BRANCH  16  17
ATOM     17  C   UNL     1      -4.105 -45.858  13.507  1.00  0.00    -0.000 C 
BRANCH  17  18
ATOM     18  C   UNL     1      -3.865 -47.378  13.478  1.00  0.00    -0.000 C 
BRANCH  18  19
ATOM     19  C   UNL     1      -4.207 -48.003  12.115  1.00  0.00    -0.003 C 
ATOM     20  C   UNL     1      -3.635 -49.410  11.952  1.00  0.00     0.004 C 
ENDBRANCH  18  19
ENDBRANCH  17  18
ENDBRANCH  16  17
ENDBRANCH  15  16
ENDBRANCH  14  15
ENDBRANCH  13  14
ENDBRANCH  12  13
ENDBRANCH   1  12
TORSDOF 16
ENDMDL
MODEL 7
REMARK VINA RESULT:    -4.190      1.992      4.649
REMARK INTER + INTRA:         -11.073
REMARK INTER:                  -8.902
REMARK INTRA:                  -2.171
REMARK UNBOUND:                -2.964
REMARK SMILES CCCCCCCCCCCCCCCCCC(=O)[O-]
REMARK SMILES IDX 10 1 11 2 12 3 13 4 14 5 15 6 16 7 17 8 18 9 19 10 20 11
REMARK SMILES IDX 9 12 8 13 7 14 6 15 5 16 4 17 3 18 2 19 1 20
REMARK H PARENT
REMARK Flexibility Score: inf
ROOT
ATOM      1  C   UNL     1      -2.019 -45.338  17.752  1.00  0.00     0.000 C 
ENDROOT
BRANCH   1   2
ATOM      2  C   UNL     1      -1.935 -45.596  16.240  1.00  0.00     0.000 C 
BRANCH   2   3
ATOM      3  C   UNL     1      -2.331 -44.346  15.446  1.00  0.00     0.000 C 
BRANCH   3   4
ATOM      4  C   UNL     1      -3.656 -44.559  14.706  1.00  0.00     0.000 C 
BRANCH   4   5
ATOM      5  C   UNL     1      -4.852 -44.366  15.652  1.00  0.00     0.000 C 
BRANCH   5   6
ATOM      6  C   UNL     1      -5.621 -45.673  15.908  1.00  0.00     0.000 C 
BRANCH   6   7
ATOM      7  C   UNL     1      -6.451 -45.628  17.200  1.00  0.00     0.006 C 
BRANCH   7   8
ATOM      8  C   UNL     1      -5.712 -46.320  18.348  1.00  0.00     0.053 C 
BRANCH   8   9
ATOM      9  C   UNL     1      -5.978 -45.619  19.642  1.00  0.00     0.041 C 
ATOM     10  O   UNL     1      -5.412 -46.004  20.699  1.00  0.00    -0.550 OA
ATOM     11  O   UNL     1      -6.888 -44.570  19.690  1.00  0.00    -0.550 OA
ENDBRANCH   8   9
ENDBRANCH   7   8
ENDBRANCH   6   7
ENDBRANCH   5   6
ENDBRANCH   4   5
ENDBRANCH   3   4
ENDBRANCH   2   3
ENDBRANCH   1   2
BRANCH   1  12
ATOM     12  C   UNL     1      -2.004 -46.635  18.580  1.00  0.00     0.000 C 
BRANCH  12  13
ATOM     13  C   UNL     1      -1.684 -47.918  17.785  1.00  0.00    -0.000 C 
BRANCH  13  14
ATOM     14  C   UNL     1      -2.779 -49.001  17.815  1.00  0.00    -0.000 C 
BRANCH  14  15
ATOM     15  C   UNL     1      -3.840 -48.807  16.719  1.00  0.00    -0.000 C 
BRANCH  15  16
ATOM     16  C   UNL     1      -3.505 -49.558  15.418  1.00  0.00    -0.000 C 
BRANCH  16  17
ATOM     17  C   UNL     1      -2.641 -48.773  14.413  1.00  0.00    -0.000 C 
BRANCH  17  18
ATOM     18  C   UNL     1      -2.328 -49.575  13.137  1.00  0.00    -0.000 C 
BRANCH  18  19
ATOM     19  C   UNL     1      -0.844 -49.961  13.034  1.00  0.00    -0.003 C 
ATOM     20  C   UNL     1      -0.094 -49.776  14.352  1.00  0.00     0.004 C 
ENDBRANCH  18  19
ENDBRANCH  17  18
ENDBRANCH  16  17
ENDBRANCH  15  16
ENDBRANCH  14  15
ENDBRANCH  13  14
ENDBRANCH  12  13
ENDBRANCH   1  12
TORSDOF 16
ENDMDL
MODEL 8
REMARK VINA RESULT:    -4.163      1.491      4.693
REMARK INTER + INTRA:         -11.021
REMARK INTER:                  -8.131
REMARK INTRA:                  -2.890
REMARK UNBOUND:                -2.964
REMARK SMILES CCCCCCCCCCCCCCCCCC(=O)[O-]
REMARK SMILES IDX 10 1 11 2 12 3 13 4 14 5 15 6 16 7 17 8 18 9 19 10 20 11
REMARK SMILES IDX 9 12 8 13 7 14 6 15 5 16 4 17 3 18 2 19 1 20
REMARK H PARENT
REMARK Flexibility Score: inf
ROOT
ATOM      1  C   UNL     1      -1.975 -45.264  17.595  1.00  0.00     0.000 C 
ENDROOT
BRANCH   1   2
ATOM      2  C   UNL     1      -2.188 -45.245  16.075  1.00  0.00     0.000 C 
BRANCH   2   3
ATOM      3  C   UNL     1      -3.620 -45.658  15.715  1.00  0.00     0.000 C 
BRANCH   3   4
ATOM      4  C   UNL     1      -3.889 -45.470  14.218  1.00  0.00     0.000 C 
BRANCH   4   5
ATOM      5  C   UNL     1      -5.397 -45.484  13.924  1.00  0.00     0.000 C 
BRANCH   5   6
ATOM      6  C   UNL     1      -6.176 -44.471  14.779  1.00  0.00     0.000 C 
BRANCH   6   7
ATOM      7  C   UNL     1      -7.297 -45.127  15.600  1.00  0.00     0.006 C 
BRANCH   7   8
ATOM      8  C   UNL     1      -6.931 -45.173  17.086  1.00  0.00     0.053 C 
BRANCH   8   9
ATOM      9  C   UNL     1      -7.162 -43.840  17.725  1.00  0.00     0.041 C 
ATOM     10  O   UNL     1      -8.333 -43.394  17.853  1.00  0.00    -0.550 OA
ATOM     11  O   UNL     1      -6.082 -43.070  18.137  1.00  0.00    -0.550 OA
ENDBRANCH   8   9
ENDBRANCH   7   8
ENDBRANCH   6   7
ENDBRANCH   5   6
ENDBRANCH   4   5
ENDBRANCH   3   4
ENDBRANCH   2   3
ENDBRANCH   1   2
BRANCH   1  12
ATOM     12  C   UNL     1      -3.283 -45.071  18.383  1.00  0.00     0.000 C 
BRANCH  12  13
ATOM     13  C   UNL     1      -3.447 -45.983  19.616  1.00  0.00    -0.000 C 
BRANCH  13  14
ATOM     14  C   UNL     1      -4.736 -46.824  19.646  1.00  0.00    -0.000 C 
BRANCH  14  15
ATOM     15  C   UNL     1      -4.502 -48.291  19.251  1.00  0.00    -0.000 C 
BRANCH  15  16
ATOM     16  C   UNL     1      -4.793 -48.568  17.766  1.00  0.00    -0.000 C 
BRANCH  16  17
ATOM     17  C   UNL     1      -3.579 -49.020  16.933  1.00  0.00    -0.000 C 
BRANCH  17  18
ATOM     18  C   UNL     1      -2.264 -49.003  17.733  1.00  0.00    -0.000 C 
BRANCH  18  19
ATOM     19  C   UNL     1      -1.041 -48.704  16.851  1.00  0.00    -0.003 C 
ATOM     20  C   UNL     1      -1.329 -48.892  15.362  1.00  0.00     0.004 C 
ENDBRANCH  18  19
ENDBRANCH  17  18
ENDBRANCH  16  17
ENDBRANCH  15  16
ENDBRANCH  14  15
ENDBRANCH  13  14
ENDBRANCH  12  13
ENDBRANCH   1  12
TORSDOF 16
ENDMDL
MODEL 9
REMARK VINA RESULT:    -4.105      3.505      4.878
REMARK INTER + INTRA:         -10.908
REMARK INTER:                  -7.952
REMARK INTRA:                  -2.956
REMARK UNBOUND:                -2.964
REMARK SMILES CCCCCCCCCCCCCCCCCC(=O)[O-]
REMARK SMILES IDX 10 1 11 2 12 3 13 4 14 5 15 6 16 7 17 8 18 9 19 10 20 11
REMARK SMILES IDX 9 12 8 13 7 14 6 15 5 16 4 17 3 18 2 19 1 20
REMARK H PARENT
REMARK Flexibility Score: inf
ROOT
ATOM      1  C   UNL     1      -3.172 -44.916  18.579  1.00  0.00     0.000 C 
ENDROOT
BRANCH   1   2
ATOM      2  C   UNL     1      -3.747 -45.890  19.618  1.00  0.00     0.000 C 
BRANCH   2   3
ATOM      3  C   UNL     1      -4.877 -46.733  19.014  1.00  0.00     0.000 C 
BRANCH   3   4
ATOM      4  C   UNL     1      -4.540 -48.228  19.072  1.00  0.00     0.000 C 
BRANCH   4   5
ATOM      5  C   UNL     1      -3.750 -48.661  17.827  1.00  0.00     0.000 C 
BRANCH   5   6
ATOM      6  C   UNL     1      -2.282 -48.989  18.143  1.00  0.00     0.000 C 
BRANCH   6   7
ATOM      7  C   UNL     1      -1.410 -49.078  16.881  1.00  0.00     0.006 C 
BRANCH   7   8
ATOM      8  C   UNL     1      -2.277 -49.115  15.619  1.00  0.00     0.053 C 
BRANCH   8   9
ATOM      9  C   UNL     1      -1.431 -49.342  14.406  1.00  0.00     0.041 C 
ATOM     10  O   UNL     1      -1.901 -49.129  13.258  1.00  0.00    -0.550 OA
ATOM     11  O   UNL     1      -0.139 -49.834  14.543  1.00  0.00    -0.550 OA
ENDBRANCH   8   9
ENDBRANCH   7   8
ENDBRANCH   6   7
ENDBRANCH   5   6
ENDBRANCH   4   5
ENDBRANCH   3   4
ENDBRANCH   2   3
ENDBRANCH   1   2
BRANCH   1  12
ATOM     12  C   UNL     1      -1.974 -45.502  17.811  1.00  0.00     0.000 C 
BRANCH  12  13
ATOM     13  C   UNL     1      -1.917 -45.143  16.312  1.00  0.00    -0.000 C 
BRANCH  13  14
ATOM     14  C   UNL     1      -3.254 -44.702  15.689  1.00  0.00    -0.000 C 
BRANCH  14  15
ATOM     15  C   UNL     1      -4.170 -45.886  15.340  1.00  0.00    -0.000 C 
BRANCH  15  16
ATOM     16  C   UNL     1      -5.655 -45.606  15.634  1.00  0.00    -0.000 C 
BRANCH  16  17
ATOM     17  C   UNL     1      -5.947 -44.239  16.282  1.00  0.00    -0.000 C 
BRANCH  17  18
ATOM     18  C   UNL     1      -7.082 -44.299  17.320  1.00  0.00    -0.000 C 
BRANCH  18  19
ATOM     19  C   UNL     1      -6.848 -43.345  18.503  1.00  0.00    -0.003 C 
ATOM     20  C   UNL     1      -7.129 -44.002  19.853  1.00  0.00     0.004 C 
ENDBRANCH  18  19
ENDBRANCH  17  18
ENDBRANCH  16  17
ENDBRANCH  15  16
ENDBRANCH  14  15
ENDBRANCH  13  14
ENDBRANCH  12  13
ENDBRANCH   1  12
TORSDOF 16
ENDMDL
