MODEL 1
REMARK VINA RESULT:    -5.175      0.000      0.000
REMARK INTER + INTRA:          -5.673
REMARK INTER:                  -5.629
REMARK INTRA:                  -0.044
REMARK UNBOUND:                -0.044
REMARK SMILES COc1cc2ccc(=O)oc2cc1O
REMARK SMILES IDX 3 1 13 2 12 3 11 4 5 5 4 6 6 7 7 8 8 9 9 10 10 11 2 12 1 13
REMARK SMILES IDX 14 14
REMARK H PARENT 14 15
REMARK Flexibility Score: inf
ROOT
ATOM      1  C   UNL     1      27.541 -51.181  -8.202  1.00  0.00     0.161 A 
ATOM      2  C   UNL     1      26.563 -51.169  -9.217  1.00  0.00     0.161 A 
ATOM      3  C   UNL     1      26.944 -51.113 -10.562  1.00  0.00     0.098 A 
ATOM      4  C   UNL     1      28.295 -51.069 -10.913  1.00  0.00     0.142 A 
ATOM      5  C   UNL     1      29.281 -51.082  -9.906  1.00  0.00     0.022 A 
ATOM      6  C   UNL     1      28.904 -51.138  -8.557  1.00  0.00     0.062 A 
ATOM      7  C   UNL     1      30.626 -51.037 -10.289  1.00  0.00     0.019 A 
ATOM      8  C   UNL     1      30.950 -50.982 -11.644  1.00  0.00     0.094 A 
ATOM      9  C   UNL     1      29.918 -50.974 -12.588  1.00  0.00     0.336 A 
ATOM     10  O   UNL     1      30.190 -50.924 -13.816  1.00  0.00    -0.246 OA
ATOM     11  O   UNL     1      28.646 -51.017 -12.196  1.00  0.00    -0.423 OA
ENDROOT
BRANCH   1  12
ATOM     12  O   UNL     1      27.123 -51.237  -6.862  1.00  0.00    -0.493 OA
ATOM     13  C   UNL     1      27.953 -51.632  -5.774  1.00  0.00     0.278 C 
ENDBRANCH   1  12
BRANCH   2  14
ATOM     14  O   UNL     1      25.204 -51.211  -8.905  1.00  0.00    -0.504 OA
ATOM     15  H   UNL     1      24.489 -51.318  -9.616  1.00  0.00     0.293 HD
ENDBRANCH   2  14
TORSDOF 2
ENDMDL
MODEL 2
REMARK VINA RESULT:    -4.898      4.068      5.428
REMARK INTER + INTRA:          -5.372
REMARK INTER:                  -5.307
REMARK INTRA:                  -0.065
REMARK UNBOUND:                -0.044
REMARK SMILES COc1cc2ccc(=O)oc2cc1O
REMARK SMILES IDX 3 1 13 2 12 3 11 4 5 5 4 6 6 7 7 8 8 9 9 10 10 11 2 12 1 13
REMARK SMILES IDX 14 14
REMARK H PARENT 14 15
REMARK Flexibility Score: inf
ROOT
ATOM      1  C   UNL     1      29.176 -55.871 -11.350  1.00  0.00     0.161 A 
ATOM      2  C   UNL     1      28.125 -56.251 -10.492  1.00  0.00     0.161 A 
ATOM      3  C   UNL     1      27.320 -55.278  -9.888  1.00  0.00     0.098 A 
ATOM      4  C   UNL     1      27.551 -53.921 -10.129  1.00  0.00     0.142 A 
ATOM      5  C   UNL     1      28.600 -53.531 -10.986  1.00  0.00     0.022 A 
ATOM      6  C   UNL     1      29.408 -54.502 -11.593  1.00  0.00     0.062 A 
ATOM      7  C   UNL     1      28.805 -52.165 -11.207  1.00  0.00     0.019 A 
ATOM      8  C   UNL     1      27.975 -51.237 -10.580  1.00  0.00     0.094 A 
ATOM      9  C   UNL     1      26.953 -51.698  -9.744  1.00  0.00     0.336 A 
ATOM     10  O   UNL     1      26.194 -50.877  -9.168  1.00  0.00    -0.246 OA
ATOM     11  O   UNL     1      26.780 -53.004  -9.549  1.00  0.00    -0.423 OA
ENDROOT
BRANCH   1  12
ATOM     12  O   UNL     1      29.963 -56.874 -11.938  1.00  0.00    -0.493 OA
ATOM     13  C   UNL     1      29.813 -57.337 -13.277  1.00  0.00     0.278 C 
ENDBRANCH   1  12
BRANCH   2  14
ATOM     14  O   UNL     1      27.864 -57.596 -10.226  1.00  0.00    -0.504 OA
ATOM     15  H   UNL     1      28.208 -58.059  -9.394  1.00  0.00     0.293 HD
ENDBRANCH   2  14
TORSDOF 2
ENDMDL
MODEL 3
REMARK VINA RESULT:    -4.857     16.125     16.890
REMARK INTER + INTRA:          -5.327
REMARK INTER:                  -5.271
REMARK INTRA:                  -0.056
REMARK UNBOUND:                -0.044
REMARK SMILES COc1cc2ccc(=O)oc2cc1O
REMARK SMILES IDX 3 1 13 2 12 3 11 4 5 5 4 6 6 7 7 8 8 9 9 10 10 11 2 12 1 13
REMARK SMILES IDX 14 14
REMARK H PARENT 14 15
REMARK Flexibility Score: inf
ROOT
ATOM      1  C   UNL     1      31.862 -64.961  -6.567  1.00  0.00     0.161 A 
ATOM      2  C   UNL     1      30.779 -65.303  -5.732  1.00  0.00     0.161 A 
ATOM      3  C   UNL     1      30.436 -66.646  -5.537  1.00  0.00     0.098 A 
ATOM      4  C   UNL     1      31.162 -67.660  -6.166  1.00  0.00     0.142 A 
ATOM      5  C   UNL     1      32.246 -67.328  -7.003  1.00  0.00     0.022 A 
ATOM      6  C   UNL     1      32.594 -65.985  -7.201  1.00  0.00     0.062 A 
ATOM      7  C   UNL     1      32.953 -68.366  -7.619  1.00  0.00     0.019 A 
ATOM      8  C   UNL     1      32.569 -69.687  -7.391  1.00  0.00     0.094 A 
ATOM      9  C   UNL     1      31.483 -69.940  -6.547  1.00  0.00     0.336 A 
ATOM     10  O   UNL     1      31.119 -71.125  -6.328  1.00  0.00    -0.246 OA
ATOM     11  O   UNL     1      30.826 -68.933  -5.973  1.00  0.00    -0.423 OA
ENDROOT
BRANCH   1  12
ATOM     12  O   UNL     1      32.179 -63.604  -6.740  1.00  0.00    -0.493 OA
ATOM     13  C   UNL     1      32.231 -62.943  -8.000  1.00  0.00     0.278 C 
ENDBRANCH   1  12
BRANCH   2  14
ATOM     14  O   UNL     1      30.030 -64.318  -5.087  1.00  0.00    -0.504 OA
ATOM     15  H   UNL     1      29.431 -63.677  -5.592  1.00  0.00     0.293 HD
ENDBRANCH   2  14
TORSDOF 2
ENDMDL
MODEL 4
REMARK VINA RESULT:    -4.821      3.838      4.126
REMARK INTER + INTRA:          -5.288
REMARK INTER:                  -5.228
REMARK INTRA:                  -0.060
REMARK UNBOUND:                -0.044
REMARK SMILES COc1cc2ccc(=O)oc2cc1O
REMARK SMILES IDX 3 1 13 2 12 3 11 4 5 5 4 6 6 7 7 8 8 9 9 10 10 11 2 12 1 13
REMARK SMILES IDX 14 14
REMARK H PARENT 14 15
REMARK Flexibility Score: inf
ROOT
ATOM      1  C   UNL     1      28.059 -52.628 -10.620  1.00  0.00     0.161 A 
ATOM      2  C   UNL     1      27.232 -53.767 -10.692  1.00  0.00     0.161 A 
ATOM      3  C   UNL     1      27.755 -54.992 -11.123  1.00  0.00     0.098 A 
ATOM      4  C   UNL     1      29.100 -55.098 -11.486  1.00  0.00     0.142 A 
ATOM      5  C   UNL     1      29.935 -53.964 -11.416  1.00  0.00     0.022 A 
ATOM      6  C   UNL     1      29.416 -52.736 -10.985  1.00  0.00     0.062 A 
ATOM      7  C   UNL     1      31.277 -54.103 -11.786  1.00  0.00     0.019 A 
ATOM      8  C   UNL     1      31.747 -55.345 -12.209  1.00  0.00     0.094 A 
ATOM      9  C   UNL     1      30.860 -56.426 -12.251  1.00  0.00     0.336 A 
ATOM     10  O   UNL     1      31.263 -57.556 -12.630  1.00  0.00    -0.246 OA
ATOM     11  O   UNL     1      29.587 -56.267 -11.894  1.00  0.00    -0.423 OA
ENDROOT
BRANCH   1  12
ATOM     12  O   UNL     1      27.501 -51.416 -10.183  1.00  0.00    -0.493 OA
ATOM     13  C   UNL     1      27.521 -50.957  -8.835  1.00  0.00     0.278 C 
ENDBRANCH   1  12
BRANCH   2  14
ATOM     14  O   UNL     1      25.884 -53.700 -10.339  1.00  0.00    -0.504 OA
ATOM     15  H   UNL     1      25.572 -53.282  -9.471  1.00  0.00     0.293 HD
ENDBRANCH   2  14
TORSDOF 2
ENDMDL
MODEL 5
REMARK VINA RESULT:    -4.783      2.953      3.404
REMARK INTER + INTRA:          -5.246
REMARK INTER:                  -5.188
REMARK INTRA:                  -0.058
REMARK UNBOUND:                -0.044
REMARK SMILES COc1cc2ccc(=O)oc2cc1O
REMARK SMILES IDX 3 1 13 2 12 3 11 4 5 5 4 6 6 7 7 8 8 9 9 10 10 11 2 12 1 13
REMARK SMILES IDX 14 14
REMARK H PARENT 14 15
REMARK Flexibility Score: inf
ROOT
ATOM      1  C   UNL     1      27.420 -52.811 -10.347  1.00  0.00     0.161 A 
ATOM      2  C   UNL     1      27.583 -54.198 -10.164  1.00  0.00     0.161 A 
ATOM      3  C   UNL     1      28.697 -54.854 -10.700  1.00  0.00     0.098 A 
ATOM      4  C   UNL     1      29.658 -54.141 -11.422  1.00  0.00     0.142 A 
ATOM      5  C   UNL     1      29.503 -52.752 -11.610  1.00  0.00     0.022 A 
ATOM      6  C   UNL     1      28.389 -52.092 -11.075  1.00  0.00     0.062 A 
ATOM      7  C   UNL     1      30.482 -52.066 -12.337  1.00  0.00     0.019 A 
ATOM      8  C   UNL     1      31.571 -52.768 -12.851  1.00  0.00     0.094 A 
ATOM      9  C   UNL     1      31.659 -54.145 -12.623  1.00  0.00     0.336 A 
ATOM     10  O   UNL     1      32.634 -54.797 -13.079  1.00  0.00    -0.246 OA
ATOM     11  O   UNL     1      30.713 -54.774 -11.928  1.00  0.00    -0.423 OA
ENDROOT
BRANCH   1  12
ATOM     12  O   UNL     1      26.290 -52.185  -9.795  1.00  0.00    -0.493 OA
ATOM     13  C   UNL     1      26.337 -51.161  -8.807  1.00  0.00     0.278 C 
ENDBRANCH   1  12
BRANCH   2  14
ATOM     14  O   UNL     1      26.646 -54.945  -9.449  1.00  0.00    -0.504 OA
ATOM     15  H   UNL     1      26.917 -55.645  -8.769  1.00  0.00     0.293 HD
ENDBRANCH   2  14
TORSDOF 2
ENDMDL
MODEL 6
REMARK VINA RESULT:    -4.756      3.959      4.653
REMARK INTER + INTRA:          -5.217
REMARK INTER:                  -5.167
REMARK INTRA:                  -0.050
REMARK UNBOUND:                -0.044
REMARK SMILES COc1cc2ccc(=O)oc2cc1O
REMARK SMILES IDX 3 1 13 2 12 3 11 4 5 5 4 6 6 7 7 8 8 9 9 10 10 11 2 12 1 13
REMARK SMILES IDX 14 14
REMARK H PARENT 14 15
REMARK Flexibility Score: inf
ROOT
ATOM      1  C   UNL     1      29.800 -52.351 -10.552  1.00  0.00     0.161 A 
ATOM      2  C   UNL     1      28.406 -52.294 -10.361  1.00  0.00     0.161 A 
ATOM      3  C   UNL     1      27.600 -53.382 -10.716  1.00  0.00     0.098 A 
ATOM      4  C   UNL     1      28.169 -54.534 -11.264  1.00  0.00     0.142 A 
ATOM      5  C   UNL     1      29.563 -54.601 -11.459  1.00  0.00     0.022 A 
ATOM      6  C   UNL     1      30.374 -53.514 -11.105  1.00  0.00     0.062 A 
ATOM      7  C   UNL     1      30.103 -55.768 -12.010  1.00  0.00     0.019 A 
ATOM      8  C   UNL     1      29.255 -56.822 -12.347  1.00  0.00     0.094 A 
ATOM      9  C   UNL     1      27.881 -56.685 -12.123  1.00  0.00     0.336 A 
ATOM     10  O   UNL     1      27.099 -57.625 -12.421  1.00  0.00    -0.246 OA
ATOM     11  O   UNL     1      27.393 -55.563 -11.598  1.00  0.00    -0.423 OA
ENDROOT
BRANCH   1  12
ATOM     12  O   UNL     1      30.578 -51.241 -10.185  1.00  0.00    -0.493 OA
ATOM     13  C   UNL     1      31.805 -51.318  -9.466  1.00  0.00     0.278 C 
ENDBRANCH   1  12
BRANCH   2  14
ATOM     14  O   UNL     1      27.800 -51.161  -9.817  1.00  0.00    -0.504 OA
ATOM     15  H   UNL     1      27.620 -51.068  -8.824  1.00  0.00     0.293 HD
ENDBRANCH   2  14
TORSDOF 2
ENDMDL
MODEL 7
REMARK VINA RESULT:    -4.722      3.801      4.437
REMARK INTER + INTRA:          -5.180
REMARK INTER:                  -5.123
REMARK INTRA:                  -0.057
REMARK UNBOUND:                -0.044
REMARK SMILES COc1cc2ccc(=O)oc2cc1O
REMARK SMILES IDX 3 1 13 2 12 3 11 4 5 5 4 6 6 7 7 8 8 9 9 10 10 11 2 12 1 13
REMARK SMILES IDX 14 14
REMARK H PARENT 14 15
REMARK Flexibility Score: inf
ROOT
ATOM      1  C   UNL     1      27.829 -52.626  -9.896  1.00  0.00     0.161 A 
ATOM      2  C   UNL     1      29.123 -52.228 -10.286  1.00  0.00     0.161 A 
ATOM      3  C   UNL     1      29.928 -53.087 -11.043  1.00  0.00     0.098 A 
ATOM      4  C   UNL     1      29.457 -54.348 -11.418  1.00  0.00     0.142 A 
ATOM      5  C   UNL     1      28.164 -54.756 -11.033  1.00  0.00     0.022 A 
ATOM      6  C   UNL     1      27.355 -53.898 -10.276  1.00  0.00     0.062 A 
ATOM      7  C   UNL     1      27.722 -56.024 -11.425  1.00  0.00     0.019 A 
ATOM      8  C   UNL     1      28.564 -56.841 -12.178  1.00  0.00     0.094 A 
ATOM      9  C   UNL     1      29.835 -56.369 -12.524  1.00  0.00     0.336 A 
ATOM     10  O   UNL     1      30.611 -57.091 -13.202  1.00  0.00    -0.246 OA
ATOM     11  O   UNL     1      30.231 -55.157 -12.138  1.00  0.00    -0.423 OA
ENDROOT
BRANCH   1  12
ATOM     12  O   UNL     1      27.048 -51.738  -9.138  1.00  0.00    -0.493 OA
ATOM     13  C   UNL     1      25.774 -51.242  -9.535  1.00  0.00     0.278 C 
ENDBRANCH   1  12
BRANCH   2  14
ATOM     14  O   UNL     1      29.628 -50.976  -9.930  1.00  0.00    -0.504 OA
ATOM     15  H   UNL     1      29.061 -50.277  -9.465  1.00  0.00     0.293 HD
ENDBRANCH   2  14
TORSDOF 2
ENDMDL
MODEL 8
REMARK VINA RESULT:    -4.581     16.715     17.438
REMARK INTER + INTRA:          -5.026
REMARK INTER:                  -4.964
REMARK INTRA:                  -0.062
REMARK UNBOUND:                -0.044
REMARK SMILES COc1cc2ccc(=O)oc2cc1O
REMARK SMILES IDX 3 1 13 2 12 3 11 4 5 5 4 6 6 7 7 8 8 9 9 10 10 11 2 12 1 13
REMARK SMILES IDX 14 14
REMARK H PARENT 14 15
REMARK Flexibility Score: inf
ROOT
ATOM      1  C   UNL     1      32.036 -65.376  -6.487  1.00  0.00     0.161 A 
ATOM      2  C   UNL     1      32.920 -65.499  -5.397  1.00  0.00     0.161 A 
ATOM      3  C   UNL     1      33.584 -66.708  -5.161  1.00  0.00     0.098 A 
ATOM      4  C   UNL     1      33.378 -67.804  -6.002  1.00  0.00     0.142 A 
ATOM      5  C   UNL     1      32.496 -67.690  -7.096  1.00  0.00     0.022 A 
ATOM      6  C   UNL     1      31.828 -66.482  -7.336  1.00  0.00     0.062 A 
ATOM      7  C   UNL     1      32.310 -68.806  -7.920  1.00  0.00     0.019 A 
ATOM      8  C   UNL     1      32.997 -69.986  -7.640  1.00  0.00     0.094 A 
ATOM      9  C   UNL     1      33.858 -70.025  -6.538  1.00  0.00     0.336 A 
ATOM     10  O   UNL     1      34.486 -71.081  -6.267  1.00  0.00    -0.246 OA
ATOM     11  O   UNL     1      34.015 -68.949  -5.769  1.00  0.00    -0.423 OA
ENDROOT
BRANCH   1  12
ATOM     12  O   UNL     1      31.385 -64.148  -6.694  1.00  0.00    -0.493 OA
ATOM     13  C   UNL     1      31.857 -63.121  -7.560  1.00  0.00     0.278 C 
ENDBRANCH   1  12
BRANCH   2  14
ATOM     14  O   UNL     1      33.151 -64.427  -4.534  1.00  0.00    -0.504 OA
ATOM     15  H   UNL     1      32.739 -64.378  -3.610  1.00  0.00     0.293 HD
ENDBRANCH   2  14
TORSDOF 2
ENDMDL
MODEL 9
REMARK VINA RESULT:    -4.546      4.389      5.590
REMARK INTER + INTRA:          -4.989
REMARK INTER:                  -4.950
REMARK INTRA:                  -0.039
REMARK UNBOUND:                -0.044
REMARK SMILES COc1cc2ccc(=O)oc2cc1O
REMARK SMILES IDX 3 1 13 2 12 3 11 4 5 5 4 6 6 7 7 8 8 9 9 10 10 11 2 12 1 13
REMARK SMILES IDX 14 14
REMARK H PARENT 14 15
REMARK Flexibility Score: inf
ROOT
ATOM      1  C   UNL     1      28.287 -56.234 -11.741  1.00  0.00     0.161 A 
ATOM      2  C   UNL     1      29.674 -56.329 -11.971  1.00  0.00     0.161 A 
ATOM      3  C   UNL     1      30.506 -55.232 -11.720  1.00  0.00     0.098 A 
ATOM      4  C   UNL     1      29.972 -54.034 -11.241  1.00  0.00     0.142 A 
ATOM      5  C   UNL     1      28.586 -53.929 -11.008  1.00  0.00     0.022 A 
ATOM      6  C   UNL     1      27.748 -55.025 -11.257  1.00  0.00     0.062 A 
ATOM      7  C   UNL     1      28.081 -52.716 -10.528  1.00  0.00     0.019 A 
ATOM      8  C   UNL     1      28.954 -51.655 -10.296  1.00  0.00     0.094 A 
ATOM      9  C   UNL     1      30.318 -51.832 -10.549  1.00  0.00     0.336 A 
ATOM     10  O   UNL     1      31.123 -50.886 -10.347  1.00  0.00    -0.246 OA
ATOM     11  O   UNL     1      30.773 -52.997 -11.006  1.00  0.00    -0.423 OA
ENDROOT
BRANCH   1  12
ATOM     12  O   UNL     1      27.481 -57.354 -12.003  1.00  0.00    -0.493 OA
ATOM     13  C   UNL     1      26.912 -57.660 -13.272  1.00  0.00     0.278 C 
ENDBRANCH   1  12
BRANCH   2  14
ATOM     14  O   UNL     1      30.245 -57.509 -12.449  1.00  0.00    -0.504 OA
ATOM     15  H   UNL     1      30.566 -57.605 -13.405  1.00  0.00     0.293 HD
ENDBRANCH   2  14
TORSDOF 2
ENDMDL
