MODEL 1
REMARK VINA RESULT:    -5.437      0.000      0.000
REMARK INTER + INTRA:         -11.667
REMARK INTER:                 -10.523
REMARK INTRA:                  -1.144
REMARK UNBOUND:                -1.144
REMARK SMILES CCCCCCCCCCCCCCCCCC(=O)[O-]
REMARK SMILES IDX 10 1 11 2 12 3 13 4 14 5 15 6 16 7 17 8 18 9 19 10 20 11
REMARK SMILES IDX 9 12 8 13 7 14 6 15 5 16 4 17 3 18 2 19 1 20
REMARK H PARENT
REMARK Flexibility Score: inf
ROOT
ATOM      1  C   UNL     1      47.745  30.212  17.125  1.00  0.00     0.000 C 
ENDROOT
BRANCH   1   2
ATOM      2  C   UNL     1      49.160  30.816  16.992  1.00  0.00     0.000 C 
BRANCH   2   3
ATOM      3  C   UNL     1      49.395  32.045  17.892  1.00  0.00     0.000 C 
BRANCH   3   4
ATOM      4  C   UNL     1      49.115  33.403  17.221  1.00  0.00     0.000 C 
BRANCH   4   5
ATOM      5  C   UNL     1      47.621  33.766  17.091  1.00  0.00     0.000 C 
BRANCH   5   6
ATOM      6  C   UNL     1      47.164  33.988  15.633  1.00  0.00     0.000 C 
BRANCH   6   7
ATOM      7  C   UNL     1      48.168  33.418  14.612  1.00  0.00     0.006 C 
BRANCH   7   8
ATOM      8  C   UNL     1      48.497  34.425  13.501  1.00  0.00     0.053 C 
BRANCH   8   9
ATOM      9  C   UNL     1      48.965  33.735  12.253  1.00  0.00     0.041 C 
ATOM     10  O   UNL     1      48.167  33.025  11.583  1.00  0.00    -0.550 OA
ATOM     11  O   UNL     1      50.272  33.911  11.808  1.00  0.00    -0.550 OA
ENDBRANCH   8   9
ENDBRANCH   7   8
ENDBRANCH   6   7
ENDBRANCH   5   6
ENDBRANCH   4   5
ENDBRANCH   3   4
ENDBRANCH   2   3
ENDBRANCH   1   2
BRANCH   1  12
ATOM     12  C   UNL     1      47.580  28.927  16.292  1.00  0.00     0.000 C 
BRANCH  12  13
ATOM     13  C   UNL     1      48.782  27.977  16.428  1.00  0.00    -0.000 C 
BRANCH  13  14
ATOM     14  C   UNL     1      48.370  26.496  16.371  1.00  0.00    -0.000 C 
BRANCH  14  15
ATOM     15  C   UNL     1      49.097  25.635  17.419  1.00  0.00    -0.000 C 
BRANCH  15  16
ATOM     16  C   UNL     1      49.239  26.287  18.808  1.00  0.00    -0.000 C 
BRANCH  16  17
ATOM     17  C   UNL     1      48.556  25.476  19.923  1.00  0.00    -0.000 C 
BRANCH  17  18
ATOM     18  C   UNL     1      49.571  24.886  20.926  1.00  0.00    -0.000 C 
BRANCH  18  19
ATOM     19  C   UNL     1      49.958  25.862  22.052  1.00  0.00    -0.003 C 
ATOM     20  C   UNL     1      48.768  26.648  22.602  1.00  0.00     0.004 C 
ENDBRANCH  18  19
ENDBRANCH  17  18
ENDBRANCH  16  17
ENDBRANCH  15  16
ENDBRANCH  14  15
ENDBRANCH  13  14
ENDBRANCH  12  13
ENDBRANCH   1  12
TORSDOF 16
ENDMDL
MODEL 2
REMARK VINA RESULT:    -5.339      5.881     11.384
REMARK INTER + INTRA:         -11.478
REMARK INTER:                  -9.919
REMARK INTRA:                  -1.559
REMARK UNBOUND:                -1.144
REMARK SMILES CCCCCCCCCCCCCCCCCC(=O)[O-]
REMARK SMILES IDX 10 1 11 2 12 3 13 4 14 5 15 6 16 7 17 8 18 9 19 10 20 11
REMARK SMILES IDX 9 12 8 13 7 14 6 15 5 16 4 17 3 18 2 19 1 20
REMARK H PARENT
REMARK Flexibility Score: inf
ROOT
ATOM      1  C   UNL     1      44.560  35.735  13.269  1.00  0.00     0.000 C 
ENDROOT
BRANCH   1   2
ATOM      2  C   UNL     1      46.088  35.771  13.049  1.00  0.00     0.000 C 
BRANCH   2   3
ATOM      3  C   UNL     1      46.573  34.842  11.919  1.00  0.00     0.000 C 
BRANCH   3   4
ATOM      4  C   UNL     1      47.759  33.933  12.291  1.00  0.00     0.000 C 
BRANCH   4   5
ATOM      5  C   UNL     1      48.444  34.277  13.630  1.00  0.00     0.000 C 
BRANCH   5   6
ATOM      6  C   UNL     1      48.162  33.252  14.750  1.00  0.00     0.000 C 
BRANCH   6   7
ATOM      7  C   UNL     1      47.580  33.912  16.015  1.00  0.00     0.006 C 
BRANCH   7   8
ATOM      8  C   UNL     1      48.584  33.923  17.176  1.00  0.00     0.053 C 
BRANCH   8   9
ATOM      9  C   UNL     1      48.891  32.534  17.652  1.00  0.00     0.041 C 
ATOM     10  O   UNL     1      50.087  32.165  17.809  1.00  0.00    -0.550 OA
ATOM     11  O   UNL     1      47.855  31.658  17.963  1.00  0.00    -0.550 OA
ENDBRANCH   8   9
ENDBRANCH   7   8
ENDBRANCH   6   7
ENDBRANCH   5   6
ENDBRANCH   4   5
ENDBRANCH   3   4
ENDBRANCH   2   3
ENDBRANCH   1   2
BRANCH   1  12
ATOM     12  C   UNL     1      43.833  36.848  12.492  1.00  0.00     0.000 C 
BRANCH  12  13
ATOM     13  C   UNL     1      42.581  36.336  11.761  1.00  0.00    -0.000 C 
BRANCH  13  14
ATOM     14  C   UNL     1      42.177  37.240  10.583  1.00  0.00    -0.000 C 
BRANCH  14  15
ATOM     15  C   UNL     1      42.901  38.598  10.599  1.00  0.00    -0.000 C 
BRANCH  15  16
ATOM     16  C   UNL     1      41.973  39.827  10.638  1.00  0.00    -0.000 C 
BRANCH  16  17
ATOM     17  C   UNL     1      40.588  39.515  11.232  1.00  0.00    -0.000 C 
BRANCH  17  18
ATOM     18  C   UNL     1      40.580  39.592  12.774  1.00  0.00    -0.000 C 
BRANCH  18  19
ATOM     19  C   UNL     1      39.828  38.426  13.441  1.00  0.00    -0.003 C 
ATOM     20  C   UNL     1      40.568  37.843  14.644  1.00  0.00     0.004 C 
ENDBRANCH  18  19
ENDBRANCH  17  18
ENDBRANCH  16  17
ENDBRANCH  15  16
ENDBRANCH  14  15
ENDBRANCH  13  14
ENDBRANCH  12  13
ENDBRANCH   1  12
TORSDOF 16
ENDMDL
MODEL 3
REMARK VINA RESULT:    -5.313      5.161     10.289
REMARK INTER + INTRA:         -11.428
REMARK INTER:                 -10.380
REMARK INTRA:                  -1.048
REMARK UNBOUND:                -1.144
REMARK SMILES CCCCCCCCCCCCCCCCCC(=O)[O-]
REMARK SMILES IDX 10 1 11 2 12 3 13 4 14 5 15 6 16 7 17 8 18 9 19 10 20 11
REMARK SMILES IDX 9 12 8 13 7 14 6 15 5 16 4 17 3 18 2 19 1 20
REMARK H PARENT
REMARK Flexibility Score: inf
ROOT
ATOM      1  C   UNL     1      44.890  35.391  15.009  1.00  0.00     0.000 C 
ENDROOT
BRANCH   1   2
ATOM      2  C   UNL     1      45.874  34.898  16.092  1.00  0.00     0.000 C 
BRANCH   2   3
ATOM      3  C   UNL     1      46.975  33.965  15.550  1.00  0.00     0.000 C 
BRANCH   3   4
ATOM      4  C   UNL     1      48.390  34.253  16.086  1.00  0.00     0.000 C 
BRANCH   4   5
ATOM      5  C   UNL     1      48.592  33.944  17.584  1.00  0.00     0.000 C 
BRANCH   5   6
ATOM      6  C   UNL     1      49.424  32.670  17.845  1.00  0.00     0.000 C 
BRANCH   6   7
ATOM      7  C   UNL     1      48.576  31.387  17.749  1.00  0.00     0.006 C 
BRANCH   7   8
ATOM      8  C   UNL     1      49.056  30.459  16.624  1.00  0.00     0.053 C 
BRANCH   8   9
ATOM      9  C   UNL     1      48.121  30.486  15.451  1.00  0.00     0.041 C 
ATOM     10  O   UNL     1      47.014  29.884  15.507  1.00  0.00    -0.550 OA
ATOM     11  O   UNL     1      48.453  31.211  14.311  1.00  0.00    -0.550 OA
ENDBRANCH   8   9
ENDBRANCH   7   8
ENDBRANCH   6   7
ENDBRANCH   5   6
ENDBRANCH   4   5
ENDBRANCH   3   4
ENDBRANCH   2   3
ENDBRANCH   1   2
BRANCH   1  12
ATOM     12  C   UNL     1      45.541  35.454  13.615  1.00  0.00     0.000 C 
BRANCH  12  13
ATOM     13  C   UNL     1      44.516  35.706  12.497  1.00  0.00    -0.000 C 
BRANCH  13  14
ATOM     14  C   UNL     1      43.440  36.728  12.904  1.00  0.00    -0.000 C 
BRANCH  14  15
ATOM     15  C   UNL     1      42.824  37.458  11.697  1.00  0.00    -0.000 C 
BRANCH  15  16
ATOM     16  C   UNL     1      41.421  36.968  11.291  1.00  0.00    -0.000 C 
BRANCH  16  17
ATOM     17  C   UNL     1      41.386  36.349   9.882  1.00  0.00    -0.000 C 
BRANCH  17  18
ATOM     18  C   UNL     1      40.752  34.941   9.875  1.00  0.00    -0.000 C 
BRANCH  18  19
ATOM     19  C   UNL     1      39.261  34.939  10.257  1.00  0.00    -0.003 C 
ATOM     20  C   UNL     1      38.987  34.281  11.609  1.00  0.00     0.004 C 
ENDBRANCH  18  19
ENDBRANCH  17  18
ENDBRANCH  16  17
ENDBRANCH  15  16
ENDBRANCH  14  15
ENDBRANCH  13  14
ENDBRANCH  12  13
ENDBRANCH   1  12
TORSDOF 16
ENDMDL
MODEL 4
REMARK VINA RESULT:    -5.306      4.087      9.388
REMARK INTER + INTRA:         -11.413
REMARK INTER:                 -10.447
REMARK INTRA:                  -0.966
REMARK UNBOUND:                -1.144
REMARK SMILES CCCCCCCCCCCCCCCCCC(=O)[O-]
REMARK SMILES IDX 10 1 11 2 12 3 13 4 14 5 15 6 16 7 17 8 18 9 19 10 20 11
REMARK SMILES IDX 9 12 8 13 7 14 6 15 5 16 4 17 3 18 2 19 1 20
REMARK H PARENT
REMARK Flexibility Score: inf
ROOT
ATOM      1  C   UNL     1      48.884  29.448  16.842  1.00  0.00     0.000 C 
ENDROOT
BRANCH   1   2
ATOM      2  C   UNL     1      48.449  27.999  16.532  1.00  0.00     0.000 C 
BRANCH   2   3
ATOM      3  C   UNL     1      49.628  27.042  16.269  1.00  0.00     0.000 C 
BRANCH   3   4
ATOM      4  C   UNL     1      49.499  25.658  16.934  1.00  0.00     0.000 C 
BRANCH   4   5
ATOM      5  C   UNL     1      48.685  25.642  18.245  1.00  0.00     0.000 C 
BRANCH   5   6
ATOM      6  C   UNL     1      49.561  25.677  19.516  1.00  0.00     0.000 C 
BRANCH   6   7
ATOM      7  C   UNL     1      48.766  25.311  20.785  1.00  0.00     0.006 C 
BRANCH   7   8
ATOM      8  C   UNL     1      49.654  25.290  22.037  1.00  0.00     0.053 C 
BRANCH   8   9
ATOM      9  C   UNL     1      50.025  26.677  22.473  1.00  0.00     0.041 C 
ATOM     10  O   UNL     1      49.135  27.477  22.871  1.00  0.00    -0.550 OA
ATOM     11  O   UNL     1      51.359  27.072  22.478  1.00  0.00    -0.550 OA
ENDBRANCH   8   9
ENDBRANCH   7   8
ENDBRANCH   6   7
ENDBRANCH   5   6
ENDBRANCH   4   5
ENDBRANCH   3   4
ENDBRANCH   2   3
ENDBRANCH   1   2
BRANCH   1  12
ATOM     12  C   UNL     1      47.728  30.298  17.399  1.00  0.00     0.000 C 
BRANCH  12  13
ATOM     13  C   UNL     1      48.222  31.517  18.195  1.00  0.00    -0.000 C 
BRANCH  13  14
ATOM     14  C   UNL     1      48.979  32.527  17.315  1.00  0.00    -0.000 C 
BRANCH  14  15
ATOM     15  C   UNL     1      48.193  33.831  17.094  1.00  0.00    -0.000 C 
BRANCH  15  16
ATOM     16  C   UNL     1      47.441  33.915  15.751  1.00  0.00    -0.000 C 
BRANCH  16  17
ATOM     17  C   UNL     1      48.233  33.305  14.581  1.00  0.00    -0.000 C 
BRANCH  17  18
ATOM     18  C   UNL     1      48.414  34.299  13.413  1.00  0.00    -0.000 C 
BRANCH  18  19
ATOM     19  C   UNL     1      48.494  33.617  12.036  1.00  0.00    -0.003 C 
ATOM     20  C   UNL     1      49.914  33.562  11.473  1.00  0.00     0.004 C 
ENDBRANCH  18  19
ENDBRANCH  17  18
ENDBRANCH  16  17
ENDBRANCH  15  16
ENDBRANCH  14  15
ENDBRANCH  13  14
ENDBRANCH  12  13
ENDBRANCH   1  12
TORSDOF 16
ENDMDL
MODEL 5
REMARK VINA RESULT:    -5.230      2.635      5.367
REMARK INTER + INTRA:         -11.267
REMARK INTER:                  -9.394
REMARK INTRA:                  -1.873
REMARK UNBOUND:                -1.144
REMARK SMILES CCCCCCCCCCCCCCCCCC(=O)[O-]
REMARK SMILES IDX 10 1 11 2 12 3 13 4 14 5 15 6 16 7 17 8 18 9 19 10 20 11
REMARK SMILES IDX 9 12 8 13 7 14 6 15 5 16 4 17 3 18 2 19 1 20
REMARK H PARENT
REMARK Flexibility Score: inf
ROOT
ATOM      1  C   UNL     1      49.767  25.062  18.987  1.00  0.00     0.000 C 
ENDROOT
BRANCH   1   2
ATOM      2  C   UNL     1      49.856  25.307  17.465  1.00  0.00     0.000 C 
BRANCH   2   3
ATOM      3  C   UNL     1      48.616  26.012  16.879  1.00  0.00     0.000 C 
BRANCH   3   4
ATOM      4  C   UNL     1      48.889  26.869  15.629  1.00  0.00     0.000 C 
BRANCH   4   5
ATOM      5  C   UNL     1      49.722  28.143  15.886  1.00  0.00     0.000 C 
BRANCH   5   6
ATOM      6  C   UNL     1      49.303  28.909  17.159  1.00  0.00     0.000 C 
BRANCH   6   7
ATOM      7  C   UNL     1      48.013  29.726  16.953  1.00  0.00     0.006 C 
BRANCH   7   8
ATOM      8  C   UNL     1      47.910  30.901  17.936  1.00  0.00     0.053 C 
BRANCH   8   9
ATOM      9  C   UNL     1      48.664  32.100  17.442  1.00  0.00     0.041 C 
ATOM     10  O   UNL     1      49.817  32.353  17.887  1.00  0.00    -0.550 OA
ATOM     11  O   UNL     1      48.110  32.916  16.460  1.00  0.00    -0.550 OA
ENDBRANCH   8   9
ENDBRANCH   7   8
ENDBRANCH   6   7
ENDBRANCH   5   6
ENDBRANCH   4   5
ENDBRANCH   3   4
ENDBRANCH   2   3
ENDBRANCH   1   2
BRANCH   1  12
ATOM     12  C   UNL     1      48.464  25.616  19.593  1.00  0.00     0.000 C 
BRANCH  12  13
ATOM     13  C   UNL     1      48.400  25.438  21.119  1.00  0.00    -0.000 C 
BRANCH  13  14
ATOM     14  C   UNL     1      48.661  26.752  21.875  1.00  0.00    -0.000 C 
BRANCH  14  15
ATOM     15  C   UNL     1      50.004  26.751  22.626  1.00  0.00    -0.000 C 
BRANCH  15  16
ATOM     16  C   UNL     1      50.741  25.398  22.634  1.00  0.00    -0.000 C 
BRANCH  16  17
ATOM     17  C   UNL     1      52.193  25.503  22.135  1.00  0.00    -0.000 C 
BRANCH  17  18
ATOM     18  C   UNL     1      52.486  26.861  21.462  1.00  0.00    -0.000 C 
BRANCH  18  19
ATOM     19  C   UNL     1      52.692  26.758  19.940  1.00  0.00    -0.003 C 
ATOM     20  C   UNL     1      53.417  27.965  19.347  1.00  0.00     0.004 C 
ENDBRANCH  18  19
ENDBRANCH  17  18
ENDBRANCH  16  17
ENDBRANCH  15  16
ENDBRANCH  14  15
ENDBRANCH  13  14
ENDBRANCH  12  13
ENDBRANCH   1  12
TORSDOF 16
ENDMDL
MODEL 6
REMARK VINA RESULT:    -5.189      3.652      7.897
REMARK INTER + INTRA:         -11.188
REMARK INTER:                  -9.783
REMARK INTRA:                  -1.405
REMARK UNBOUND:                -1.144
REMARK SMILES CCCCCCCCCCCCCCCCCC(=O)[O-]
REMARK SMILES IDX 10 1 11 2 12 3 13 4 14 5 15 6 16 7 17 8 18 9 19 10 20 11
REMARK SMILES IDX 9 12 8 13 7 14 6 15 5 16 4 17 3 18 2 19 1 20
REMARK H PARENT
REMARK Flexibility Score: inf
ROOT
ATOM      1  C   UNL     1      48.467  25.594  19.312  1.00  0.00     0.000 C 
ENDROOT
BRANCH   1   2
ATOM      2  C   UNL     1      48.706  25.317  20.812  1.00  0.00     0.000 C 
BRANCH   2   3
ATOM      3  C   UNL     1      48.337  26.502  21.727  1.00  0.00     0.000 C 
BRANCH   3   4
ATOM      4  C   UNL     1      49.471  26.982  22.653  1.00  0.00     0.000 C 
BRANCH   4   5
ATOM      5  C   UNL     1      50.758  26.134  22.596  1.00  0.00     0.000 C 
BRANCH   5   6
ATOM      6  C   UNL     1      52.037  26.966  22.358  1.00  0.00     0.000 C 
BRANCH   6   7
ATOM      7  C   UNL     1      52.957  26.334  21.296  1.00  0.00     0.006 C 
BRANCH   7   8
ATOM      8  C   UNL     1      52.551  26.729  19.869  1.00  0.00     0.053 C 
BRANCH   8   9
ATOM      9  C   UNL     1      53.676  27.405  19.143  1.00  0.00     0.041 C 
ATOM     10  O   UNL     1      54.628  26.724  18.673  1.00  0.00    -0.550 OA
ATOM     11  O   UNL     1      53.653  28.782  18.948  1.00  0.00    -0.550 OA
ENDBRANCH   8   9
ENDBRANCH   7   8
ENDBRANCH   6   7
ENDBRANCH   5   6
ENDBRANCH   4   5
ENDBRANCH   3   4
ENDBRANCH   2   3
ENDBRANCH   1   2
BRANCH   1  12
ATOM     12  C   UNL     1      49.654  25.146  18.440  1.00  0.00     0.000 C 
BRANCH  12  13
ATOM     13  C   UNL     1      49.523  25.612  16.980  1.00  0.00    -0.000 C 
BRANCH  13  14
ATOM     14  C   UNL     1      48.220  26.390  16.726  1.00  0.00    -0.000 C 
BRANCH  14  15
ATOM     15  C   UNL     1      48.438  27.654  15.875  1.00  0.00    -0.000 C 
BRANCH  15  16
ATOM     16  C   UNL     1      47.580  28.867  16.285  1.00  0.00    -0.000 C 
BRANCH  16  17
ATOM     17  C   UNL     1      47.579  29.985  15.229  1.00  0.00    -0.000 C 
BRANCH  17  18
ATOM     18  C   UNL     1      48.491  31.167  15.624  1.00  0.00    -0.000 C 
BRANCH  18  19
ATOM     19  C   UNL     1      48.934  31.133  17.098  1.00  0.00    -0.003 C 
ATOM     20  C   UNL     1      49.369  32.498  17.628  1.00  0.00     0.004 C 
ENDBRANCH  18  19
ENDBRANCH  17  18
ENDBRANCH  16  17
ENDBRANCH  15  16
ENDBRANCH  14  15
ENDBRANCH  13  14
ENDBRANCH  12  13
ENDBRANCH   1  12
TORSDOF 16
ENDMDL
MODEL 7
REMARK VINA RESULT:    -5.181      1.946      4.293
REMARK INTER + INTRA:         -11.172
REMARK INTER:                  -9.597
REMARK INTRA:                  -1.575
REMARK UNBOUND:                -1.144
REMARK SMILES CCCCCCCCCCCCCCCCCC(=O)[O-]
REMARK SMILES IDX 10 1 11 2 12 3 13 4 14 5 15 6 16 7 17 8 18 9 19 10 20 11
REMARK SMILES IDX 9 12 8 13 7 14 6 15 5 16 4 17 3 18 2 19 1 20
REMARK H PARENT
REMARK Flexibility Score: inf
ROOT
ATOM      1  C   UNL     1      50.027  25.241  17.249  1.00  0.00     0.000 C 
ENDROOT
BRANCH   1   2
ATOM      2  C   UNL     1      50.052  26.705  16.761  1.00  0.00     0.000 C 
BRANCH   2   3
ATOM      3  C   UNL     1      48.837  27.091  15.895  1.00  0.00     0.000 C 
BRANCH   3   4
ATOM      4  C   UNL     1      48.421  28.572  15.986  1.00  0.00     0.000 C 
BRANCH   4   5
ATOM      5  C   UNL     1      48.915  29.308  17.248  1.00  0.00     0.000 C 
BRANCH   5   6
ATOM      6  C   UNL     1      49.227  30.802  17.010  1.00  0.00     0.000 C 
BRANCH   6   7
ATOM      7  C   UNL     1      48.231  31.730  17.733  1.00  0.00     0.006 C 
BRANCH   7   8
ATOM      8  C   UNL     1      48.460  33.207  17.383  1.00  0.00     0.053 C 
BRANCH   8   9
ATOM      9  C   UNL     1      47.657  33.619  16.184  1.00  0.00     0.041 C 
ATOM     10  O   UNL     1      46.619  34.320  16.325  1.00  0.00    -0.550 OA
ATOM     11  O   UNL     1      48.080  33.265  14.906  1.00  0.00    -0.550 OA
ENDBRANCH   8   9
ENDBRANCH   7   8
ENDBRANCH   6   7
ENDBRANCH   5   6
ENDBRANCH   4   5
ENDBRANCH   3   4
ENDBRANCH   2   3
ENDBRANCH   1   2
BRANCH   1  12
ATOM     12  C   UNL     1      49.881  25.138  18.778  1.00  0.00     0.000 C 
BRANCH  12  13
ATOM     13  C   UNL     1      48.502  25.607  19.272  1.00  0.00    -0.000 C 
BRANCH  13  14
ATOM     14  C   UNL     1      48.299  25.354  20.776  1.00  0.00    -0.000 C 
BRANCH  14  15
ATOM     15  C   UNL     1      48.456  26.630  21.622  1.00  0.00    -0.000 C 
BRANCH  15  16
ATOM     16  C   UNL     1      49.612  26.594  22.640  1.00  0.00    -0.000 C 
BRANCH  16  17
ATOM     17  C   UNL     1      50.362  25.250  22.650  1.00  0.00    -0.000 C 
BRANCH  17  18
ATOM     18  C   UNL     1      51.830  25.394  22.194  1.00  0.00    -0.000 C 
BRANCH  18  19
ATOM     19  C   UNL     1      52.136  26.749  21.533  1.00  0.00    -0.003 C 
ATOM     20  C   UNL     1      52.992  26.625  20.273  1.00  0.00     0.004 C 
ENDBRANCH  18  19
ENDBRANCH  17  18
ENDBRANCH  16  17
ENDBRANCH  15  16
ENDBRANCH  14  15
ENDBRANCH  13  14
ENDBRANCH  12  13
ENDBRANCH   1  12
TORSDOF 16
ENDMDL
MODEL 8
REMARK VINA RESULT:    -5.136      6.462     11.334
REMARK INTER + INTRA:         -11.085
REMARK INTER:                  -9.155
REMARK INTRA:                  -1.930
REMARK UNBOUND:                -1.144
REMARK SMILES CCCCCCCCCCCCCCCCCC(=O)[O-]
REMARK SMILES IDX 10 1 11 2 12 3 13 4 14 5 15 6 16 7 17 8 18 9 19 10 20 11
REMARK SMILES IDX 9 12 8 13 7 14 6 15 5 16 4 17 3 18 2 19 1 20
REMARK H PARENT
REMARK Flexibility Score: inf
ROOT
ATOM      1  C   UNL     1      43.162  37.587  11.838  1.00  0.00     0.000 C 
ENDROOT
BRANCH   1   2
ATOM      2  C   UNL     1      43.242  36.424  12.850  1.00  0.00     0.000 C 
BRANCH   2   3
ATOM      3  C   UNL     1      44.677  36.105  13.314  1.00  0.00     0.000 C 
BRANCH   3   4
ATOM      4  C   UNL     1      45.492  35.231  12.343  1.00  0.00     0.000 C 
BRANCH   4   5
ATOM      5  C   UNL     1      47.020  35.275  12.557  1.00  0.00     0.000 C 
BRANCH   5   6
ATOM      6  C   UNL     1      47.749  34.005  12.068  1.00  0.00     0.000 C 
BRANCH   6   7
ATOM      7  C   UNL     1      48.427  33.238  13.220  1.00  0.00     0.006 C 
BRANCH   7   8
ATOM      8  C   UNL     1      48.117  33.859  14.589  1.00  0.00     0.053 C 
BRANCH   8   9
ATOM      9  C   UNL     1      48.120  32.826  15.676  1.00  0.00     0.041 C 
ATOM     10  O   UNL     1      48.265  31.605  15.392  1.00  0.00    -0.550 OA
ATOM     11  O   UNL     1      48.005  33.214  17.008  1.00  0.00    -0.550 OA
ENDBRANCH   8   9
ENDBRANCH   7   8
ENDBRANCH   6   7
ENDBRANCH   5   6
ENDBRANCH   4   5
ENDBRANCH   3   4
ENDBRANCH   2   3
ENDBRANCH   1   2
BRANCH   1  12
ATOM     12  C   UNL     1      42.235  37.265  10.651  1.00  0.00     0.000 C 
BRANCH  12  13
ATOM     13  C   UNL     1      41.897  35.768  10.557  1.00  0.00    -0.000 C 
BRANCH  13  14
ATOM     14  C   UNL     1      40.447  35.520  10.103  1.00  0.00    -0.000 C 
BRANCH  14  15
ATOM     15  C   UNL     1      39.578  34.887  11.204  1.00  0.00    -0.000 C 
BRANCH  15  16
ATOM     16  C   UNL     1      38.392  35.751  11.671  1.00  0.00    -0.000 C 
BRANCH  16  17
ATOM     17  C   UNL     1      38.821  37.147  12.156  1.00  0.00    -0.000 C 
BRANCH  17  18
ATOM     18  C   UNL     1      39.651  37.087  13.457  1.00  0.00    -0.000 C 
BRANCH  18  19
ATOM     19  C   UNL     1      40.140  38.466  13.935  1.00  0.00    -0.003 C 
ATOM     20  C   UNL     1      40.145  39.520  12.829  1.00  0.00     0.004 C 
ENDBRANCH  18  19
ENDBRANCH  17  18
ENDBRANCH  16  17
ENDBRANCH  15  16
ENDBRANCH  14  15
ENDBRANCH  13  14
ENDBRANCH  12  13
ENDBRANCH   1  12
TORSDOF 16
ENDMDL
MODEL 9
REMARK VINA RESULT:    -5.133      2.660      5.798
REMARK INTER + INTRA:         -11.078
REMARK INTER:                  -8.883
REMARK INTRA:                  -2.195
REMARK UNBOUND:                -1.144
REMARK SMILES CCCCCCCCCCCCCCCCCC(=O)[O-]
REMARK SMILES IDX 10 1 11 2 12 3 13 4 14 5 15 6 16 7 17 8 18 9 19 10 20 11
REMARK SMILES IDX 9 12 8 13 7 14 6 15 5 16 4 17 3 18 2 19 1 20
REMARK H PARENT
REMARK Flexibility Score: inf
ROOT
ATOM      1  C   UNL     1      48.621  25.235  20.852  1.00  0.00     0.000 C 
ENDROOT
BRANCH   1   2
ATOM      2  C   UNL     1      49.302  25.204  19.467  1.00  0.00     0.000 C 
BRANCH   2   3
ATOM      3  C   UNL     1      49.030  26.459  18.614  1.00  0.00     0.000 C 
BRANCH   3   4
ATOM      4  C   UNL     1      48.466  26.177  17.209  1.00  0.00     0.000 C 
BRANCH   4   5
ATOM      5  C   UNL     1      48.557  27.361  16.224  1.00  0.00     0.000 C 
BRANCH   5   6
ATOM      6  C   UNL     1      48.915  28.702  16.901  1.00  0.00     0.000 C 
BRANCH   6   7
ATOM      7  C   UNL     1      47.750  29.709  16.858  1.00  0.00     0.006 C 
BRANCH   7   8
ATOM      8  C   UNL     1      47.887  30.797  17.932  1.00  0.00     0.053 C 
BRANCH   8   9
ATOM      9  C   UNL     1      48.620  31.998  17.410  1.00  0.00     0.041 C 
ATOM     10  O   UNL     1      48.030  32.827  16.665  1.00  0.00    -0.550 OA
ATOM     11  O   UNL     1      49.942  32.223  17.780  1.00  0.00    -0.550 OA
ENDBRANCH   8   9
ENDBRANCH   7   8
ENDBRANCH   6   7
ENDBRANCH   5   6
ENDBRANCH   4   5
ENDBRANCH   3   4
ENDBRANCH   2   3
ENDBRANCH   1   2
BRANCH   1  12
ATOM     12  C   UNL     1      48.442  26.670  21.381  1.00  0.00     0.000 C 
BRANCH  12  13
ATOM     13  C   UNL     1      49.335  26.967  22.597  1.00  0.00    -0.000 C 
BRANCH  13  14
ATOM     14  C   UNL     1      50.547  26.023  22.680  1.00  0.00    -0.000 C 
BRANCH  14  15
ATOM     15  C   UNL     1      51.868  26.713  22.294  1.00  0.00    -0.000 C 
BRANCH  15  16
ATOM     16  C   UNL     1      52.599  26.084  21.092  1.00  0.00    -0.000 C 
BRANCH  16  17
ATOM     17  C   UNL     1      52.959  27.112  20.004  1.00  0.00    -0.000 C 
BRANCH  17  18
ATOM     18  C   UNL     1      52.781  26.545  18.579  1.00  0.00    -0.000 C 
BRANCH  18  19
ATOM     19  C   UNL     1      52.382  27.609  17.542  1.00  0.00    -0.003 C 
ATOM     20  C   UNL     1      52.243  27.050  16.127  1.00  0.00     0.004 C 
ENDBRANCH  18  19
ENDBRANCH  17  18
ENDBRANCH  16  17
ENDBRANCH  15  16
ENDBRANCH  14  15
ENDBRANCH  13  14
ENDBRANCH  12  13
ENDBRANCH   1  12
TORSDOF 16
ENDMDL
