MODEL 1
REMARK VINA RESULT:    -3.839      0.000      0.000
REMARK INTER + INTRA:          -5.156
REMARK INTER:                  -4.962
REMARK INTRA:                  -0.194
REMARK UNBOUND:                -0.194
REMARK SMILES CCCCCCC(C)=O
REMARK SMILES IDX 4 1 3 2 2 3 1 4 5 5 6 6 7 7 9 8 8 9
REMARK H PARENT
REMARK Flexibility Score: inf
ROOT
ATOM      1  C   UNL     1      25.134  57.912  -8.685  1.00  0.00     0.000 C 
ENDROOT
BRANCH   1   2
ATOM      2  C   UNL     1      25.607  56.494  -9.038  1.00  0.00    -0.000 C 
BRANCH   2   3
ATOM      3  C   UNL     1      25.148  55.445  -8.014  1.00  0.00    -0.003 C 
ATOM      4  C   UNL     1      23.627  55.327  -7.992  1.00  0.00     0.004 C 
ENDBRANCH   2   3
ENDBRANCH   1   2
BRANCH   1   5
ATOM      5  C   UNL     1      25.964  59.004  -9.378  1.00  0.00     0.008 C 
BRANCH   5   6
ATOM      6  C   UNL     1      27.066  58.384 -10.252  1.00  0.00     0.075 C 
BRANCH   6   7
ATOM      7  C   UNL     1      28.124  59.362 -10.711  1.00  0.00     0.129 C 
ATOM      8  O   UNL     1      29.033  58.945 -11.412  1.00  0.00    -0.300 OA
ATOM      9  C   UNL     1      28.105  60.821 -10.345  1.00  0.00     0.087 C 
ENDBRANCH   6   7
ENDBRANCH   5   6
ENDBRANCH   1   5
TORSDOF 5
ENDMDL
MODEL 2
REMARK VINA RESULT:    -3.764     17.575     19.618
REMARK INTER + INTRA:          -5.058
REMARK INTER:                  -4.524
REMARK INTRA:                  -0.534
REMARK UNBOUND:                -0.194
REMARK SMILES CCCCCCC(C)=O
REMARK SMILES IDX 4 1 3 2 2 3 1 4 5 5 6 6 7 7 9 8 8 9
REMARK H PARENT
REMARK Flexibility Score: inf
ROOT
ATOM      1  C   UNL     1      17.439  42.112   1.270  1.00  0.00     0.000 C 
ENDROOT
BRANCH   1   2
ATOM      2  C   UNL     1      16.121  42.891   1.147  1.00  0.00    -0.000 C 
BRANCH   2   3
ATOM      3  C   UNL     1      16.262  44.363   1.565  1.00  0.00    -0.003 C 
ATOM      4  C   UNL     1      15.782  45.297   0.458  1.00  0.00     0.004 C 
ENDBRANCH   2   3
ENDBRANCH   1   2
BRANCH   1   5
ATOM      5  C   UNL     1      18.349  42.289   0.045  1.00  0.00     0.008 C 
BRANCH   5   6
ATOM      6  C   UNL     1      19.744  42.778   0.464  1.00  0.00     0.075 C 
BRANCH   6   7
ATOM      7  C   UNL     1      19.814  44.249   0.811  1.00  0.00     0.129 C 
ATOM      8  O   UNL     1      20.132  44.561   1.948  1.00  0.00    -0.300 OA
ATOM      9  C   UNL     1      19.511  45.339  -0.180  1.00  0.00     0.087 C 
ENDBRANCH   6   7
ENDBRANCH   5   6
ENDBRANCH   1   5
TORSDOF 5
ENDMDL
MODEL 3
REMARK VINA RESULT:    -3.737      3.814      6.436
REMARK INTER + INTRA:          -5.023
REMARK INTER:                  -4.759
REMARK INTRA:                  -0.265
REMARK UNBOUND:                -0.194
REMARK SMILES CCCCCCC(C)=O
REMARK SMILES IDX 4 1 3 2 2 3 1 4 5 5 6 6 7 7 9 8 8 9
REMARK H PARENT
REMARK Flexibility Score: inf
ROOT
ATOM      1  C   UNL     1      29.996  57.619 -13.128  1.00  0.00     0.000 C 
ENDROOT
BRANCH   1   2
ATOM      2  C   UNL     1      31.259  56.785 -13.393  1.00  0.00    -0.000 C 
BRANCH   2   3
ATOM      3  C   UNL     1      32.424  57.631 -13.930  1.00  0.00    -0.003 C 
ATOM      4  C   UNL     1      33.767  57.068 -13.475  1.00  0.00     0.004 C 
ENDBRANCH   2   3
ENDBRANCH   1   2
BRANCH   1   5
ATOM      5  C   UNL     1      30.314  59.063 -12.712  1.00  0.00     0.008 C 
BRANCH   5   6
ATOM      6  C   UNL     1      29.996  59.289 -11.226  1.00  0.00     0.075 C 
BRANCH   6   7
ATOM      7  C   UNL     1      28.592  59.784 -10.954  1.00  0.00     0.129 C 
ATOM      8  O   UNL     1      28.361  60.975 -11.093  1.00  0.00    -0.300 OA
ATOM      9  C   UNL     1      27.473  58.875 -10.524  1.00  0.00     0.087 C 
ENDBRANCH   6   7
ENDBRANCH   5   6
ENDBRANCH   1   5
TORSDOF 5
ENDMDL
MODEL 4
REMARK VINA RESULT:    -3.678      2.245      5.334
REMARK INTER + INTRA:          -4.947
REMARK INTER:                  -4.809
REMARK INTRA:                  -0.139
REMARK UNBOUND:                -0.194
REMARK SMILES CCCCCCC(C)=O
REMARK SMILES IDX 4 1 3 2 2 3 1 4 5 5 6 6 7 7 9 8 8 9
REMARK H PARENT
REMARK Flexibility Score: inf
ROOT
ATOM      1  C   UNL     1      26.403  58.754  -9.730  1.00  0.00     0.000 C 
ENDROOT
BRANCH   1   2
ATOM      2  C   UNL     1      27.525  58.859 -10.774  1.00  0.00    -0.000 C 
BRANCH   2   3
ATOM      3  C   UNL     1      28.206  60.236 -10.774  1.00  0.00    -0.003 C 
ATOM      4  C   UNL     1      27.859  61.022  -9.513  1.00  0.00     0.004 C 
ENDBRANCH   2   3
ENDBRANCH   1   2
BRANCH   1   5
ATOM      5  C   UNL     1      26.214  57.323  -9.205  1.00  0.00     0.008 C 
BRANCH   5   6
ATOM      6  C   UNL     1      24.796  57.125  -8.648  1.00  0.00     0.075 C 
BRANCH   6   7
ATOM      7  C   UNL     1      24.538  55.754  -8.062  1.00  0.00     0.129 C 
ATOM      8  O   UNL     1      25.490  55.006  -7.899  1.00  0.00    -0.300 OA
ATOM      9  C   UNL     1      23.167  55.275  -7.673  1.00  0.00     0.087 C 
ENDBRANCH   6   7
ENDBRANCH   5   6
ENDBRANCH   1   5
TORSDOF 5
ENDMDL
MODEL 5
REMARK VINA RESULT:    -3.660     17.465     19.345
REMARK INTER + INTRA:          -4.924
REMARK INTER:                  -4.465
REMARK INTRA:                  -0.459
REMARK UNBOUND:                -0.194
REMARK SMILES CCCCCCC(C)=O
REMARK SMILES IDX 4 1 3 2 2 3 1 4 5 5 6 6 7 7 9 8 8 9
REMARK H PARENT
REMARK Flexibility Score: inf
ROOT
ATOM      1  C   UNL     1      16.643  43.341   0.734  1.00  0.00     0.000 C 
ENDROOT
BRANCH   1   2
ATOM      2  C   UNL     1      15.967  44.469   1.528  1.00  0.00    -0.000 C 
BRANCH   2   3
ATOM      3  C   UNL     1      15.242  45.477   0.624  1.00  0.00    -0.003 C 
ATOM      4  C   UNL     1      15.917  45.575  -0.741  1.00  0.00     0.004 C 
ENDBRANCH   2   3
ENDBRANCH   1   2
BRANCH   1   5
ATOM      5  C   UNL     1      17.833  42.719   1.482  1.00  0.00     0.008 C 
BRANCH   5   6
ATOM      6  C   UNL     1      18.900  43.780   1.794  1.00  0.00     0.075 C 
BRANCH   6   7
ATOM      7  C   UNL     1      19.778  44.149   0.619  1.00  0.00     0.129 C 
ATOM      8  O   UNL     1      20.704  43.406   0.332  1.00  0.00    -0.300 OA
ATOM      9  C   UNL     1      19.562  45.387  -0.208  1.00  0.00     0.087 C 
ENDBRANCH   6   7
ENDBRANCH   5   6
ENDBRANCH   1   5
TORSDOF 5
ENDMDL
MODEL 6
REMARK VINA RESULT:    -3.649     15.466     17.413
REMARK INTER + INTRA:          -4.909
REMARK INTER:                  -4.743
REMARK INTRA:                  -0.166
REMARK UNBOUND:                -0.194
REMARK SMILES CCCCCCC(C)=O
REMARK SMILES IDX 4 1 3 2 2 3 1 4 5 5 6 6 7 7 9 8 8 9
REMARK H PARENT
REMARK Flexibility Score: inf
ROOT
ATOM      1  C   UNL     1      32.468  45.519   2.280  1.00  0.00     0.000 C 
ENDROOT
BRANCH   1   2
ATOM      2  C   UNL     1      33.167  46.842   2.629  1.00  0.00    -0.000 C 
BRANCH   2   3
ATOM      3  C   UNL     1      32.705  47.418   3.976  1.00  0.00    -0.003 C 
ATOM      4  C   UNL     1      32.423  48.913   3.867  1.00  0.00     0.004 C 
ENDBRANCH   2   3
ENDBRANCH   1   2
BRANCH   1   5
ATOM      5  C   UNL     1      31.726  45.576   0.936  1.00  0.00     0.008 C 
BRANCH   5   6
ATOM      6  C   UNL     1      30.205  45.614   1.151  1.00  0.00     0.075 C 
BRANCH   6   7
ATOM      7  C   UNL     1      29.392  45.186  -0.052  1.00  0.00     0.129 C 
ATOM      8  O   UNL     1      29.673  44.129  -0.594  1.00  0.00    -0.300 OA
ATOM      9  C   UNL     1      28.256  46.003  -0.605  1.00  0.00     0.087 C 
ENDBRANCH   6   7
ENDBRANCH   5   6
ENDBRANCH   1   5
TORSDOF 5
ENDMDL
MODEL 7
REMARK VINA RESULT:    -3.528     15.846     17.566
REMARK INTER + INTRA:          -4.753
REMARK INTER:                  -4.562
REMARK INTRA:                  -0.192
REMARK UNBOUND:                -0.194
REMARK SMILES CCCCCCC(C)=O
REMARK SMILES IDX 4 1 3 2 2 3 1 4 5 5 6 6 7 7 9 8 8 9
REMARK H PARENT
REMARK Flexibility Score: inf
ROOT
ATOM      1  C   UNL     1      31.495  44.395   1.164  1.00  0.00     0.000 C 
ENDROOT
BRANCH   1   2
ATOM      2  C   UNL     1      30.273  45.320   1.052  1.00  0.00    -0.000 C 
BRANCH   2   3
ATOM      3  C   UNL     1      29.341  44.932  -0.106  1.00  0.00    -0.003 C 
ATOM      4  C   UNL     1      28.311  46.025  -0.372  1.00  0.00     0.004 C 
ENDBRANCH   2   3
ENDBRANCH   1   2
BRANCH   1   5
ATOM      5  C   UNL     1      32.537  44.908   2.169  1.00  0.00     0.008 C 
BRANCH   5   6
ATOM      6  C   UNL     1      32.745  46.423   2.020  1.00  0.00     0.075 C 
BRANCH   6   7
ATOM      7  C   UNL     1      32.956  47.158   3.325  1.00  0.00     0.129 C 
ATOM      8  O   UNL     1      33.757  46.700   4.125  1.00  0.00    -0.300 OA
ATOM      9  C   UNL     1      32.225  48.424   3.680  1.00  0.00     0.087 C 
ENDBRANCH   6   7
ENDBRANCH   5   6
ENDBRANCH   1   5
TORSDOF 5
ENDMDL
MODEL 8
REMARK VINA RESULT:    -3.519     17.790     19.692
REMARK INTER + INTRA:          -4.742
REMARK INTER:                  -4.160
REMARK INTRA:                  -0.582
REMARK UNBOUND:                -0.194
REMARK SMILES CCCCCCC(C)=O
REMARK SMILES IDX 4 1 3 2 2 3 1 4 5 5 6 6 7 7 9 8 8 9
REMARK H PARENT
REMARK Flexibility Score: inf
ROOT
ATOM      1  C   UNL     1      18.532  42.642   0.131  1.00  0.00     0.000 C 
ENDROOT
BRANCH   1   2
ATOM      2  C   UNL     1      19.115  43.072   1.485  1.00  0.00    -0.000 C 
BRANCH   2   3
ATOM      3  C   UNL     1      19.838  44.426   1.415  1.00  0.00    -0.003 C 
ATOM      4  C   UNL     1      19.620  45.096   0.062  1.00  0.00     0.004 C 
ENDBRANCH   2   3
ENDBRANCH   1   2
BRANCH   1   5
ATOM      5  C   UNL     1      17.040  42.286   0.213  1.00  0.00     0.008 C 
BRANCH   5   6
ATOM      6  C   UNL     1      16.192  43.280  -0.595  1.00  0.00     0.075 C 
BRANCH   6   7
ATOM      7  C   UNL     1      16.033  44.638   0.053  1.00  0.00     0.129 C 
ATOM      8  O   UNL     1      16.135  45.631  -0.651  1.00  0.00    -0.300 OA
ATOM      9  C   UNL     1      15.756  44.818   1.521  1.00  0.00     0.087 C 
ENDBRANCH   6   7
ENDBRANCH   5   6
ENDBRANCH   1   5
TORSDOF 5
ENDMDL
MODEL 9
REMARK VINA RESULT:    -3.513      5.330      7.290
REMARK INTER + INTRA:          -4.734
REMARK INTER:                  -4.245
REMARK INTRA:                  -0.489
REMARK UNBOUND:                -0.194
REMARK SMILES CCCCCCC(C)=O
REMARK SMILES IDX 4 1 3 2 2 3 1 4 5 5 6 6 7 7 9 8 8 9
REMARK H PARENT
REMARK Flexibility Score: inf
ROOT
ATOM      1  C   UNL     1      31.778  56.830 -13.879  1.00  0.00     0.000 C 
ENDROOT
BRANCH   1   2
ATOM      2  C   UNL     1      32.696  58.025 -14.180  1.00  0.00    -0.000 C 
BRANCH   2   3
ATOM      3  C   UNL     1      34.115  57.835 -13.623  1.00  0.00    -0.003 C 
ATOM      4  C   UNL     1      34.125  56.834 -12.472  1.00  0.00     0.004 C 
ENDBRANCH   2   3
ENDBRANCH   1   2
BRANCH   1   5
ATOM      5  C   UNL     1      30.492  57.241 -13.145  1.00  0.00     0.008 C 
BRANCH   5   6
ATOM      6  C   UNL     1      30.363  58.770 -13.076  1.00  0.00     0.075 C 
BRANCH   6   7
ATOM      7  C   UNL     1      30.286  59.330 -11.673  1.00  0.00     0.129 C 
ATOM      8  O   UNL     1      29.234  59.828 -11.305  1.00  0.00    -0.300 OA
ATOM      9  C   UNL     1      31.445  59.298 -10.714  1.00  0.00     0.087 C 
ENDBRANCH   6   7
ENDBRANCH   5   6
ENDBRANCH   1   5
TORSDOF 5
ENDMDL
