MODEL 1
REMARK VINA RESULT:    -3.788      0.000      0.000
REMARK INTER + INTRA:          -9.293
REMARK INTER:                  -6.668
REMARK INTRA:                  -2.626
REMARK UNBOUND:                -2.626
REMARK SMILES CCCCCCCCCCCCCCC(=O)[O-]
REMARK SMILES IDX 9 1 10 2 11 3 12 4 13 5 14 6 15 7 16 8 17 9 8 10 7 11 6 12
REMARK SMILES IDX 5 13 4 14 3 15 2 16 1 17
REMARK H PARENT
REMARK Flexibility Score: inf
ROOT
ATOM      1  C   UNL     1     -11.648   5.608  18.375  1.00  0.00     0.000 C 
ENDROOT
BRANCH   1   2
ATOM      2  C   UNL     1     -11.841   4.813  17.072  1.00  0.00     0.000 C 
BRANCH   2   3
ATOM      3  C   UNL     1     -12.748   3.585  17.259  1.00  0.00     0.000 C 
BRANCH   3   4
ATOM      4  C   UNL     1     -12.341   2.408  16.355  1.00  0.00     0.000 C 
BRANCH   4   5
ATOM      5  C   UNL     1     -11.005   2.650  15.636  1.00  0.00     0.006 C 
BRANCH   5   6
ATOM      6  C   UNL     1     -10.084   1.424  15.669  1.00  0.00     0.053 C 
BRANCH   6   7
ATOM      7  C   UNL     1     -10.155   0.683  14.371  1.00  0.00     0.041 C 
ATOM      8  O   UNL     1     -11.269   0.320  13.908  1.00  0.00    -0.550 OA
ATOM      9  O   UNL     1      -8.987   0.347  13.697  1.00  0.00    -0.550 OA
ENDBRANCH   6   7
ENDBRANCH   5   6
ENDBRANCH   4   5
ENDBRANCH   3   4
ENDBRANCH   2   3
ENDBRANCH   1   2
BRANCH   1  10
ATOM     10  C   UNL     1     -10.238   5.444  18.971  1.00  0.00     0.000 C 
BRANCH  10  11
ATOM     11  C   UNL     1      -9.208   4.768  18.044  1.00  0.00    -0.000 C 
BRANCH  11  12
ATOM     12  C   UNL     1      -8.646   3.430  18.557  1.00  0.00    -0.000 C 
BRANCH  12  13
ATOM     13  C   UNL     1      -9.428   2.874  19.756  1.00  0.00    -0.000 C 
BRANCH  13  14
ATOM     14  C   UNL     1     -10.136   1.563  19.387  1.00  0.00    -0.000 C 
BRANCH  14  15
ATOM     15  C   UNL     1     -11.556   1.472  19.970  1.00  0.00    -0.000 C 
BRANCH  15  16
ATOM     16  C   UNL     1     -11.804   2.495  21.086  1.00  0.00    -0.003 C 
ATOM     17  C   UNL     1     -13.122   3.235  20.871  1.00  0.00     0.004 C 
ENDBRANCH  15  16
ENDBRANCH  14  15
ENDBRANCH  13  14
ENDBRANCH  12  13
ENDBRANCH  11  12
ENDBRANCH  10  11
ENDBRANCH   1  10
TORSDOF 13
ENDMDL
MODEL 2
REMARK VINA RESULT:    -3.751      1.501      2.276
REMARK INTER + INTRA:          -9.227
REMARK INTER:                  -7.254
REMARK INTRA:                  -1.973
REMARK UNBOUND:                -2.626
REMARK SMILES CCCCCCCCCCCCCCC(=O)[O-]
REMARK SMILES IDX 9 1 10 2 11 3 12 4 13 5 14 6 15 7 16 8 17 9 8 10 7 11 6 12
REMARK SMILES IDX 5 13 4 14 3 15 2 16 1 17
REMARK H PARENT
REMARK Flexibility Score: inf
ROOT
ATOM      1  C   UNL     1     -10.978   5.192  17.563  1.00  0.00     0.000 C 
ENDROOT
BRANCH   1   2
ATOM      2  C   UNL     1     -12.042   4.645  18.530  1.00  0.00     0.000 C 
BRANCH   2   3
ATOM      3  C   UNL     1     -12.870   3.505  17.911  1.00  0.00     0.000 C 
BRANCH   3   4
ATOM      4  C   UNL     1     -12.440   3.178  16.470  1.00  0.00     0.000 C 
BRANCH   4   5
ATOM      5  C   UNL     1     -11.845   1.768  16.337  1.00  0.00     0.006 C 
BRANCH   5   6
ATOM      6  C   UNL     1     -10.571   1.740  15.483  1.00  0.00     0.053 C 
BRANCH   6   7
ATOM      7  C   UNL     1     -10.659   0.663  14.449  1.00  0.00     0.041 C 
ATOM      8  O   UNL     1      -9.611   0.139  13.988  1.00  0.00    -0.550 OA
ATOM      9  O   UNL     1     -11.898   0.272  13.955  1.00  0.00    -0.550 OA
ENDBRANCH   6   7
ENDBRANCH   5   6
ENDBRANCH   4   5
ENDBRANCH   3   4
ENDBRANCH   2   3
ENDBRANCH   1   2
BRANCH   1  10
ATOM     10  C   UNL     1      -9.541   4.935  18.051  1.00  0.00     0.000 C 
BRANCH  10  11
ATOM     11  C   UNL     1      -9.384   3.766  19.045  1.00  0.00    -0.000 C 
BRANCH  11  12
ATOM     12  C   UNL     1      -8.567   2.570  18.524  1.00  0.00    -0.000 C 
BRANCH  12  13
ATOM     13  C   UNL     1      -9.170   1.215  18.924  1.00  0.00    -0.000 C 
BRANCH  13  14
ATOM     14  C   UNL     1     -10.342   1.405  19.898  1.00  0.00    -0.000 C 
BRANCH  14  15
ATOM     15  C   UNL     1     -10.279   0.442  21.095  1.00  0.00    -0.000 C 
BRANCH  15  16
ATOM     16  C   UNL     1      -9.246  -0.676  20.901  1.00  0.00    -0.003 C 
ATOM     17  C   UNL     1      -8.611  -1.075  22.231  1.00  0.00     0.004 C 
ENDBRANCH  15  16
ENDBRANCH  14  15
ENDBRANCH  13  14
ENDBRANCH  12  13
ENDBRANCH  11  12
ENDBRANCH  10  11
ENDBRANCH   1  10
TORSDOF 13
ENDMDL
MODEL 3
REMARK VINA RESULT:    -3.612      0.967      2.901
REMARK INTER + INTRA:          -8.984
REMARK INTER:                  -6.979
REMARK INTRA:                  -2.004
REMARK UNBOUND:                -2.626
REMARK SMILES CCCCCCCCCCCCCCC(=O)[O-]
REMARK SMILES IDX 9 1 10 2 11 3 12 4 13 5 14 6 15 7 16 8 17 9 8 10 7 11 6 12
REMARK SMILES IDX 5 13 4 14 3 15 2 16 1 17
REMARK H PARENT
REMARK Flexibility Score: inf
ROOT
ATOM      1  C   UNL     1     -12.859   4.885  19.889  1.00  0.00     0.000 C 
ENDROOT
BRANCH   1   2
ATOM      2  C   UNL     1     -12.262   4.794  18.473  1.00  0.00     0.000 C 
BRANCH   2   3
ATOM      3  C   UNL     1     -12.878   3.654  17.646  1.00  0.00     0.000 C 
BRANCH   3   4
ATOM      4  C   UNL     1     -12.057   3.328  16.386  1.00  0.00     0.000 C 
BRANCH   4   5
ATOM      5  C   UNL     1     -11.908   1.816  16.152  1.00  0.00     0.006 C 
BRANCH   5   6
ATOM      6  C   UNL     1     -10.484   1.417  15.744  1.00  0.00     0.053 C 
BRANCH   6   7
ATOM      7  C   UNL     1     -10.502   0.669  14.449  1.00  0.00     0.041 C 
ATOM      8  O   UNL     1     -11.598   0.328  13.929  1.00  0.00    -0.550 OA
ATOM      9  O   UNL     1      -9.308   0.304  13.839  1.00  0.00    -0.550 OA
ENDBRANCH   6   7
ENDBRANCH   5   6
ENDBRANCH   4   5
ENDBRANCH   3   4
ENDBRANCH   2   3
ENDBRANCH   1   2
BRANCH   1  10
ATOM     10  C   UNL     1     -13.430   3.544  20.382  1.00  0.00     0.000 C 
BRANCH  10  11
ATOM     11  C   UNL     1     -12.841   3.027  21.710  1.00  0.00    -0.000 C 
BRANCH  11  12
ATOM     12  C   UNL     1     -11.962   1.768  21.590  1.00  0.00    -0.000 C 
BRANCH  12  13
ATOM     13  C   UNL     1     -11.642   1.401  20.133  1.00  0.00    -0.000 C 
BRANCH  13  14
ATOM     14  C   UNL     1     -10.125   1.367  19.898  1.00  0.00    -0.000 C 
BRANCH  14  15
ATOM     15  C   UNL     1      -9.492   2.768  19.918  1.00  0.00    -0.000 C 
BRANCH  15  16
ATOM     16  C   UNL     1      -8.804   3.125  18.593  1.00  0.00    -0.003 C 
ATOM     17  C   UNL     1      -7.544   3.955  18.834  1.00  0.00     0.004 C 
ENDBRANCH  15  16
ENDBRANCH  14  15
ENDBRANCH  13  14
ENDBRANCH  12  13
ENDBRANCH  11  12
ENDBRANCH  10  11
ENDBRANCH   1  10
TORSDOF 13
ENDMDL
MODEL 4
REMARK VINA RESULT:    -3.586      2.064      4.016
REMARK INTER + INTRA:          -8.938
REMARK INTER:                  -7.544
REMARK INTRA:                  -1.394
REMARK UNBOUND:                -2.626
REMARK SMILES CCCCCCCCCCCCCCC(=O)[O-]
REMARK SMILES IDX 9 1 10 2 11 3 12 4 13 5 14 6 15 7 16 8 17 9 8 10 7 11 6 12
REMARK SMILES IDX 5 13 4 14 3 15 2 16 1 17
REMARK H PARENT
REMARK Flexibility Score: inf
ROOT
ATOM      1  C   UNL     1     -11.734   2.560  19.741  1.00  0.00     0.000 C 
ENDROOT
BRANCH   1   2
ATOM      2  C   UNL     1     -12.161   3.864  19.044  1.00  0.00     0.000 C 
BRANCH   2   3
ATOM      3  C   UNL     1     -12.874   3.610  17.705  1.00  0.00     0.000 C 
BRANCH   3   4
ATOM      4  C   UNL     1     -11.891   3.483  16.527  1.00  0.00     0.000 C 
BRANCH   4   5
ATOM      5  C   UNL     1     -11.729   2.032  16.048  1.00  0.00     0.006 C 
BRANCH   5   6
ATOM      6  C   UNL     1     -10.445   1.816  15.238  1.00  0.00     0.053 C 
BRANCH   6   7
ATOM      7  C   UNL     1     -10.594   0.636  14.329  1.00  0.00     0.041 C 
ATOM      8  O   UNL     1     -11.729   0.317  13.885  1.00  0.00    -0.550 OA
ATOM      9  O   UNL     1      -9.487  -0.141  14.012  1.00  0.00    -0.550 OA
ENDBRANCH   6   7
ENDBRANCH   5   6
ENDBRANCH   4   5
ENDBRANCH   3   4
ENDBRANCH   2   3
ENDBRANCH   1   2
BRANCH   1  10
ATOM     10  C   UNL     1     -10.252   2.564  20.157  1.00  0.00     0.000 C 
BRANCH  10  11
ATOM     11  C   UNL     1      -9.276   1.976  19.118  1.00  0.00    -0.000 C 
BRANCH  11  12
ATOM     12  C   UNL     1      -8.565   3.013  18.229  1.00  0.00    -0.000 C 
BRANCH  12  13
ATOM     13  C   UNL     1      -8.142   4.272  19.002  1.00  0.00    -0.000 C 
BRANCH  13  14
ATOM     14  C   UNL     1      -6.843   4.855  18.428  1.00  0.00    -0.000 C 
BRANCH  14  15
ATOM     15  C   UNL     1      -5.601   4.445  19.237  1.00  0.00    -0.000 C 
BRANCH  15  16
ATOM     16  C   UNL     1      -4.386   4.152  18.347  1.00  0.00    -0.003 C 
ATOM     17  C   UNL     1      -4.070   5.340  17.441  1.00  0.00     0.004 C 
ENDBRANCH  15  16
ENDBRANCH  14  15
ENDBRANCH  13  14
ENDBRANCH  12  13
ENDBRANCH  11  12
ENDBRANCH  10  11
ENDBRANCH   1  10
TORSDOF 13
ENDMDL
MODEL 5
REMARK VINA RESULT:    -3.582      3.011      5.528
REMARK INTER + INTRA:          -8.930
REMARK INTER:                  -6.999
REMARK INTRA:                  -1.931
REMARK UNBOUND:                -2.626
REMARK SMILES CCCCCCCCCCCCCCC(=O)[O-]
REMARK SMILES IDX 9 1 10 2 11 3 12 4 13 5 14 6 15 7 16 8 17 9 8 10 7 11 6 12
REMARK SMILES IDX 5 13 4 14 3 15 2 16 1 17
REMARK H PARENT
REMARK Flexibility Score: inf
ROOT
ATOM      1  C   UNL     1     -11.678   1.991  19.481  1.00  0.00     0.000 C 
ENDROOT
BRANCH   1   2
ATOM      2  C   UNL     1     -10.246   2.029  20.044  1.00  0.00     0.000 C 
BRANCH   2   3
ATOM      3  C   UNL     1      -9.190   1.640  18.995  1.00  0.00     0.000 C 
BRANCH   3   4
ATOM      4  C   UNL     1      -8.348   2.843  18.532  1.00  0.00     0.000 C 
BRANCH   4   5
ATOM      5  C   UNL     1      -8.719   4.141  19.267  1.00  0.00     0.006 C 
BRANCH   5   6
ATOM      6  C   UNL     1      -7.531   4.755  20.019  1.00  0.00     0.053 C 
BRANCH   6   7
ATOM      7  C   UNL     1      -6.405   5.037  19.076  1.00  0.00     0.041 C 
ATOM      8  O   UNL     1      -6.459   6.030  18.303  1.00  0.00    -0.550 OA
ATOM      9  O   UNL     1      -5.317   4.174  19.014  1.00  0.00    -0.550 OA
ENDBRANCH   6   7
ENDBRANCH   5   6
ENDBRANCH   4   5
ENDBRANCH   3   4
ENDBRANCH   2   3
ENDBRANCH   1   2
BRANCH   1  10
ATOM     10  C   UNL     1     -12.465   3.282  19.768  1.00  0.00     0.000 C 
BRANCH  10  11
ATOM     11  C   UNL     1     -13.166   3.909  18.546  1.00  0.00    -0.000 C 
BRANCH  11  12
ATOM     12  C   UNL     1     -12.718   3.356  17.180  1.00  0.00    -0.000 C 
BRANCH  12  13
ATOM     13  C   UNL     1     -11.665   4.240  16.495  1.00  0.00    -0.000 C 
BRANCH  13  14
ATOM     14  C   UNL     1     -10.597   3.381  15.804  1.00  0.00    -0.000 C 
BRANCH  14  15
ATOM     15  C   UNL     1     -11.029   1.914  15.641  1.00  0.00    -0.000 C 
BRANCH  15  16
ATOM     16  C   UNL     1      -9.838   0.961  15.478  1.00  0.00    -0.003 C 
ATOM     17  C   UNL     1      -9.747   0.435  14.048  1.00  0.00     0.004 C 
ENDBRANCH  15  16
ENDBRANCH  14  15
ENDBRANCH  13  14
ENDBRANCH  12  13
ENDBRANCH  11  12
ENDBRANCH  10  11
ENDBRANCH   1  10
TORSDOF 13
ENDMDL
MODEL 6
REMARK VINA RESULT:    -3.544      1.408      3.063
REMARK INTER + INTRA:          -8.864
REMARK INTER:                  -7.015
REMARK INTRA:                  -1.848
REMARK UNBOUND:                -2.626
REMARK SMILES CCCCCCCCCCCCCCC(=O)[O-]
REMARK SMILES IDX 9 1 10 2 11 3 12 4 13 5 14 6 15 7 16 8 17 9 8 10 7 11 6 12
REMARK SMILES IDX 5 13 4 14 3 15 2 16 1 17
REMARK H PARENT
REMARK Flexibility Score: inf
ROOT
ATOM      1  C   UNL     1     -12.969   3.646  17.962  1.00  0.00     0.000 C 
ENDROOT
BRANCH   1   2
ATOM      2  C   UNL     1     -12.240   2.776  16.922  1.00  0.00     0.000 C 
BRANCH   2   3
ATOM      3  C   UNL     1     -11.316   3.600  16.009  1.00  0.00     0.000 C 
BRANCH   3   4
ATOM      4  C   UNL     1     -10.143   2.771  15.455  1.00  0.00     0.000 C 
BRANCH   4   5
ATOM      5  C   UNL     1     -10.394   1.258  15.546  1.00  0.00     0.006 C 
BRANCH   5   6
ATOM      6  C   UNL     1     -10.667   0.619  14.179  1.00  0.00     0.053 C 
BRANCH   6   7
ATOM      7  C   UNL     1     -12.012  -0.036  14.168  1.00  0.00     0.041 C 
ATOM      8  O   UNL     1     -12.907   0.341  14.971  1.00  0.00    -0.550 OA
ATOM      9  O   UNL     1     -12.262  -1.097  13.307  1.00  0.00    -0.550 OA
ENDBRANCH   6   7
ENDBRANCH   5   6
ENDBRANCH   4   5
ENDBRANCH   3   4
ENDBRANCH   2   3
ENDBRANCH   1   2
BRANCH   1  10
ATOM     10  C   UNL     1     -12.138   3.875  19.236  1.00  0.00     0.000 C 
BRANCH  10  11
ATOM     11  C   UNL     1     -12.166   2.719  20.256  1.00  0.00    -0.000 C 
BRANCH  11  12
ATOM     12  C   UNL     1     -11.156   1.588  19.991  1.00  0.00    -0.000 C 
BRANCH  12  13
ATOM     13  C   UNL     1      -9.697   2.039  20.157  1.00  0.00    -0.000 C 
BRANCH  13  14
ATOM     14  C   UNL     1      -8.968   2.042  18.806  1.00  0.00    -0.000 C 
BRANCH  14  15
ATOM     15  C   UNL     1      -8.059   3.269  18.625  1.00  0.00    -0.000 C 
BRANCH  15  16
ATOM     16  C   UNL     1      -8.837   4.591  18.653  1.00  0.00    -0.003 C 
ATOM     17  C   UNL     1      -8.411   5.504  17.505  1.00  0.00     0.004 C 
ENDBRANCH  15  16
ENDBRANCH  14  15
ENDBRANCH  13  14
ENDBRANCH  12  13
ENDBRANCH  11  12
ENDBRANCH  10  11
ENDBRANCH   1  10
TORSDOF 13
ENDMDL
MODEL 7
REMARK VINA RESULT:    -3.521      3.605      5.963
REMARK INTER + INTRA:          -8.823
REMARK INTER:                  -7.509
REMARK INTRA:                  -1.314
REMARK UNBOUND:                -2.626
REMARK SMILES CCCCCCCCCCCCCCC(=O)[O-]
REMARK SMILES IDX 9 1 10 2 11 3 12 4 13 5 14 6 15 7 16 8 17 9 8 10 7 11 6 12
REMARK SMILES IDX 5 13 4 14 3 15 2 16 1 17
REMARK H PARENT
REMARK Flexibility Score: inf
ROOT
ATOM      1  C   UNL     1     -12.464   2.939  16.757  1.00  0.00     0.000 C 
ENDROOT
BRANCH   1   2
ATOM      2  C   UNL     1     -12.871   3.646  18.062  1.00  0.00     0.000 C 
BRANCH   2   3
ATOM      3  C   UNL     1     -11.909   3.340  19.223  1.00  0.00     0.000 C 
BRANCH   3   4
ATOM      4  C   UNL     1     -11.456   1.869  19.242  1.00  0.00     0.000 C 
BRANCH   4   5
ATOM      5  C   UNL     1     -10.137   1.667  20.005  1.00  0.00     0.006 C 
BRANCH   5   6
ATOM      6  C   UNL     1     -10.157   0.424  20.903  1.00  0.00     0.053 C 
BRANCH   6   7
ATOM      7  C   UNL     1     -10.350   0.817  22.334  1.00  0.00     0.041 C 
ATOM      8  O   UNL     1      -9.546   1.614  22.887  1.00  0.00    -0.550 OA
ATOM      9  O   UNL     1     -11.389   0.264  23.073  1.00  0.00    -0.550 OA
ENDBRANCH   6   7
ENDBRANCH   5   6
ENDBRANCH   4   5
ENDBRANCH   3   4
ENDBRANCH   2   3
ENDBRANCH   1   2
BRANCH   1  10
ATOM     10  C   UNL     1     -11.339   3.675  16.007  1.00  0.00     0.000 C 
BRANCH  10  11
ATOM     11  C   UNL     1     -10.055   2.852  15.778  1.00  0.00    -0.000 C 
BRANCH  11  12
ATOM     12  C   UNL     1     -10.233   1.325  15.863  1.00  0.00    -0.000 C 
BRANCH  12  13
ATOM     13  C   UNL     1      -9.851   0.607  14.560  1.00  0.00    -0.000 C 
BRANCH  13  14
ATOM     14  C   UNL     1     -11.097   0.304  13.717  1.00  0.00    -0.000 C 
BRANCH  14  15
ATOM     15  C   UNL     1     -12.364   0.131  14.572  1.00  0.00    -0.000 C 
BRANCH  15  16
ATOM     16  C   UNL     1     -13.198  -1.087  14.154  1.00  0.00    -0.003 C 
ATOM     17  C   UNL     1     -12.416  -1.986  13.198  1.00  0.00     0.004 C 
ENDBRANCH  15  16
ENDBRANCH  14  15
ENDBRANCH  13  14
ENDBRANCH  12  13
ENDBRANCH  11  12
ENDBRANCH  10  11
ENDBRANCH   1  10
TORSDOF 13
ENDMDL
MODEL 8
REMARK VINA RESULT:    -3.421      2.885      5.267
REMARK INTER + INTRA:          -8.646
REMARK INTER:                  -6.782
REMARK INTRA:                  -1.864
REMARK UNBOUND:                -2.626
REMARK SMILES CCCCCCCCCCCCCCC(=O)[O-]
REMARK SMILES IDX 9 1 10 2 11 3 12 4 13 5 14 6 15 7 16 8 17 9 8 10 7 11 6 12
REMARK SMILES IDX 5 13 4 14 3 15 2 16 1 17
REMARK H PARENT
REMARK Flexibility Score: inf
ROOT
ATOM      1  C   UNL     1     -11.612   5.281  20.316  1.00  0.00     0.000 C 
ENDROOT
BRANCH   1   2
ATOM      2  C   UNL     1     -10.322   5.007  19.523  1.00  0.00     0.000 C 
BRANCH   2   3
ATOM      3  C   UNL     1      -9.511   3.836  20.103  1.00  0.00     0.000 C 
BRANCH   3   4
ATOM      4  C   UNL     1      -8.937   2.916  19.010  1.00  0.00     0.000 C 
BRANCH   4   5
ATOM      5  C   UNL     1      -9.570   1.516  19.025  1.00  0.00     0.006 C 
BRANCH   5   6
ATOM      6  C   UNL     1     -10.359   1.236  20.311  1.00  0.00     0.053 C 
BRANCH   6   7
ATOM      7  C   UNL     1      -9.745   0.098  21.063  1.00  0.00     0.041 C 
ATOM      8  O   UNL     1      -8.998  -0.725  20.469  1.00  0.00    -0.550 OA
ATOM      9  O   UNL     1     -10.038  -0.085  22.408  1.00  0.00    -0.550 OA
ENDBRANCH   6   7
ENDBRANCH   5   6
ENDBRANCH   4   5
ENDBRANCH   3   4
ENDBRANCH   2   3
ENDBRANCH   1   2
BRANCH   1  10
ATOM     10  C   UNL     1     -12.885   4.944  19.518  1.00  0.00     0.000 C 
BRANCH  10  11
ATOM     11  C   UNL     1     -12.843   3.610  18.746  1.00  0.00    -0.000 C 
BRANCH  11  12
ATOM     12  C   UNL     1     -12.929   3.738  17.214  1.00  0.00    -0.000 C 
BRANCH  12  13
ATOM     13  C   UNL     1     -12.112   2.666  16.479  1.00  0.00    -0.000 C 
BRANCH  13  14
ATOM     14  C   UNL     1     -10.866   3.280  15.825  1.00  0.00    -0.000 C 
BRANCH  14  15
ATOM     15  C   UNL     1      -9.814   2.225  15.446  1.00  0.00    -0.000 C 
BRANCH  15  16
ATOM     16  C   UNL     1     -10.441   0.932  14.906  1.00  0.00    -0.003 C 
ATOM     17  C   UNL     1      -9.477   0.200  13.976  1.00  0.00     0.004 C 
ENDBRANCH  15  16
ENDBRANCH  14  15
ENDBRANCH  13  14
ENDBRANCH  12  13
ENDBRANCH  11  12
ENDBRANCH  10  11
ENDBRANCH   1  10
TORSDOF 13
ENDMDL
MODEL 9
REMARK VINA RESULT:    -3.360      1.707      3.029
REMARK INTER + INTRA:          -8.540
REMARK INTER:                  -7.047
REMARK INTRA:                  -1.493
REMARK UNBOUND:                -2.626
REMARK SMILES CCCCCCCCCCCCCCC(=O)[O-]
REMARK SMILES IDX 9 1 10 2 11 3 12 4 13 5 14 6 15 7 16 8 17 9 8 10 7 11 6 12
REMARK SMILES IDX 5 13 4 14 3 15 2 16 1 17
REMARK H PARENT
REMARK Flexibility Score: inf
ROOT
ATOM      1  C   UNL     1     -13.518   4.210  19.780  1.00  0.00     0.000 C 
ENDROOT
BRANCH   1   2
ATOM      2  C   UNL     1     -13.245   3.636  18.378  1.00  0.00     0.000 C 
BRANCH   2   3
ATOM      3  C   UNL     1     -11.959   4.201  17.751  1.00  0.00     0.000 C 
BRANCH   3   4
ATOM      4  C   UNL     1     -11.633   3.556  16.392  1.00  0.00     0.000 C 
BRANCH   4   5
ATOM      5  C   UNL     1     -11.445   2.034  16.491  1.00  0.00     0.006 C 
BRANCH   5   6
ATOM      6  C   UNL     1     -12.435   1.256  15.614  1.00  0.00     0.053 C 
BRANCH   6   7
ATOM      7  C   UNL     1     -11.715   0.565  14.500  1.00  0.00     0.041 C 
ATOM      8  O   UNL     1     -10.459   0.629  14.421  1.00  0.00    -0.550 OA
ATOM      9  O   UNL     1     -12.433  -0.108  13.519  1.00  0.00    -0.550 OA
ENDBRANCH   6   7
ENDBRANCH   5   6
ENDBRANCH   4   5
ENDBRANCH   3   4
ENDBRANCH   2   3
ENDBRANCH   1   2
BRANCH   1  10
ATOM     10  C   UNL     1     -13.136   3.234  20.908  1.00  0.00     0.000 C 
BRANCH  10  11
ATOM     11  C   UNL     1     -11.981   3.701  21.816  1.00  0.00    -0.000 C 
BRANCH  11  12
ATOM     12  C   UNL     1     -10.777   2.743  21.888  1.00  0.00    -0.000 C 
BRANCH  12  13
ATOM     13  C   UNL     1      -9.989   2.676  20.571  1.00  0.00    -0.000 C 
BRANCH  13  14
ATOM     14  C   UNL     1     -10.128   1.292  19.921  1.00  0.00    -0.000 C 
BRANCH  14  15
ATOM     15  C   UNL     1     -10.463   0.190  20.940  1.00  0.00    -0.000 C 
BRANCH  15  16
ATOM     16  C   UNL     1      -9.400  -0.916  20.986  1.00  0.00    -0.003 C 
ATOM     17  C   UNL     1      -8.658  -0.909  22.321  1.00  0.00     0.004 C 
ENDBRANCH  15  16
ENDBRANCH  14  15
ENDBRANCH  13  14
ENDBRANCH  12  13
ENDBRANCH  11  12
ENDBRANCH  10  11
ENDBRANCH   1  10
TORSDOF 13
ENDMDL
