MODEL 1
REMARK VINA RESULT:    -5.119      0.000      0.000
REMARK INTER + INTRA:          -5.848
REMARK INTER:                  -5.717
REMARK INTRA:                  -0.131
REMARK UNBOUND:                -0.131
REMARK SMILES O=C([O-])C=Cc1ccccc1
REMARK SMILES IDX 4 1 5 2 2 3 1 4 3 5 6 6 7 7 11 8 8 9 10 10 9 11
REMARK H PARENT
REMARK Flexibility Score: inf
ROOT
ATOM      1  C   UNL     1     -11.621   1.413  -9.409  1.00  0.00     0.025 C 
ATOM      2  C   UNL     1     -10.698   0.539  -9.837  1.00  0.00     0.010 C 
ENDROOT
BRANCH   1   3
ATOM      3  C   UNL     1     -11.388   2.867  -9.415  1.00  0.00     0.064 C 
ATOM      4  O   UNL     1     -12.342   3.681  -9.290  1.00  0.00    -0.545 OA
ATOM      5  O   UNL     1     -10.095   3.350  -9.562  1.00  0.00    -0.545 OA
ENDBRANCH   1   3
BRANCH   2   6
ATOM      6  C   UNL     1     -10.870  -0.940  -9.857  1.00  0.00    -0.026 A 
ATOM      7  C   UNL     1      -9.743  -1.742  -9.597  1.00  0.00     0.008 A 
ATOM      8  C   UNL     1     -12.104  -1.574 -10.122  1.00  0.00     0.008 A 
ATOM      9  C   UNL     1      -9.843  -3.137  -9.602  1.00  0.00     0.001 A 
ATOM     10  C   UNL     1     -12.197  -2.969 -10.125  1.00  0.00     0.001 A 
ATOM     11  C   UNL     1     -11.069  -3.750  -9.866  1.00  0.00     0.000 A 
ENDBRANCH   2   6
TORSDOF 2
ENDMDL
MODEL 2
REMARK VINA RESULT:    -4.642     17.075     17.996
REMARK INTER + INTRA:          -5.316
REMARK INTER:                  -5.169
REMARK INTRA:                  -0.147
REMARK UNBOUND:                -0.131
REMARK SMILES O=C([O-])C=Cc1ccccc1
REMARK SMILES IDX 4 1 5 2 2 3 1 4 3 5 6 6 7 7 11 8 8 9 10 10 9 11
REMARK H PARENT
REMARK Flexibility Score: inf
ROOT
ATOM      1  C   UNL     1     -10.069   6.000   6.414  1.00  0.00     0.025 C 
ATOM      2  C   UNL     1     -10.683   4.808   6.462  1.00  0.00     0.010 C 
ENDROOT
BRANCH   1   3
ATOM      3  C   UNL     1      -9.605   6.594   5.149  1.00  0.00     0.064 C 
ATOM      4  O   UNL     1      -9.382   5.878   4.135  1.00  0.00    -0.545 OA
ATOM      5  O   UNL     1      -9.409   7.966   5.071  1.00  0.00    -0.545 OA
ENDBRANCH   1   3
BRANCH   2   6
ATOM      6  C   UNL     1     -11.175   4.154   7.705  1.00  0.00    -0.026 A 
ATOM      7  C   UNL     1     -11.066   4.864   8.916  1.00  0.00     0.008 A 
ATOM      8  C   UNL     1     -11.745   2.863   7.730  1.00  0.00     0.008 A 
ATOM      9  C   UNL     1     -11.511   4.302  10.116  1.00  0.00     0.001 A 
ATOM     10  C   UNL     1     -12.188   2.307   8.934  1.00  0.00     0.001 A 
ATOM     11  C   UNL     1     -12.072   3.024  10.125  1.00  0.00     0.000 A 
ENDBRANCH   2   6
TORSDOF 2
ENDMDL
MODEL 3
REMARK VINA RESULT:    -4.626     15.751     16.776
REMARK INTER + INTRA:          -5.298
REMARK INTER:                  -5.154
REMARK INTRA:                  -0.145
REMARK UNBOUND:                -0.131
REMARK SMILES O=C([O-])C=Cc1ccccc1
REMARK SMILES IDX 4 1 5 2 2 3 1 4 3 5 6 6 7 7 11 8 8 9 10 10 9 11
REMARK H PARENT
REMARK Flexibility Score: inf
ROOT
ATOM      1  C   UNL     1      -9.810   7.341   5.423  1.00  0.00     0.025 C 
ATOM      2  C   UNL     1      -9.707   6.288   6.249  1.00  0.00     0.010 C 
ENDROOT
BRANCH   1   3
ATOM      3  C   UNL     1      -9.014   8.565   5.610  1.00  0.00     0.064 C 
ATOM      4  O   UNL     1      -8.010   8.581   6.372  1.00  0.00    -0.545 OA
ATOM      5  O   UNL     1      -9.376   9.723   4.935  1.00  0.00    -0.545 OA
ENDBRANCH   1   3
BRANCH   2   6
ATOM      6  C   UNL     1     -10.481   5.023   6.115  1.00  0.00    -0.026 A 
ATOM      7  C   UNL     1     -10.956   4.669   4.837  1.00  0.00     0.008 A 
ATOM      8  C   UNL     1     -10.760   4.165   7.200  1.00  0.00     0.008 A 
ATOM      9  C   UNL     1     -11.688   3.493   4.649  1.00  0.00     0.001 A 
ATOM     10  C   UNL     1     -11.493   2.991   7.005  1.00  0.00     0.001 A 
ATOM     11  C   UNL     1     -11.957   2.654   5.732  1.00  0.00     0.000 A 
ENDBRANCH   2   6
TORSDOF 2
ENDMDL
MODEL 4
REMARK VINA RESULT:    -4.595     15.775     16.774
REMARK INTER + INTRA:          -5.263
REMARK INTER:                  -5.130
REMARK INTRA:                  -0.133
REMARK UNBOUND:                -0.131
REMARK SMILES O=C([O-])C=Cc1ccccc1
REMARK SMILES IDX 4 1 5 2 2 3 1 4 3 5 6 6 7 7 11 8 8 9 10 10 9 11
REMARK H PARENT
REMARK Flexibility Score: inf
ROOT
ATOM      1  C   UNL     1      -9.798   7.330   5.375  1.00  0.00     0.025 C 
ATOM      2  C   UNL     1      -9.724   6.289   6.219  1.00  0.00     0.010 C 
ENDROOT
BRANCH   1   3
ATOM      3  C   UNL     1      -9.012   8.559   5.575  1.00  0.00     0.064 C 
ATOM      4  O   UNL     1      -8.016   8.578   6.347  1.00  0.00    -0.545 OA
ATOM      5  O   UNL     1      -9.374   9.717   4.900  1.00  0.00    -0.545 OA
ENDBRANCH   1   3
BRANCH   2   6
ATOM      6  C   UNL     1     -10.490   5.021   6.074  1.00  0.00    -0.026 A 
ATOM      7  C   UNL     1     -10.699   4.237   7.225  1.00  0.00     0.008 A 
ATOM      8  C   UNL     1     -11.015   4.567   4.844  1.00  0.00     0.008 A 
ATOM      9  C   UNL     1     -11.411   3.037   7.151  1.00  0.00     0.001 A 
ATOM     10  C   UNL     1     -11.726   3.365   4.778  1.00  0.00     0.001 A 
ATOM     11  C   UNL     1     -11.925   2.601   5.929  1.00  0.00     0.000 A 
ENDBRANCH   2   6
TORSDOF 2
ENDMDL
MODEL 5
REMARK VINA RESULT:    -4.591      2.386      3.179
REMARK INTER + INTRA:          -5.259
REMARK INTER:                  -5.127
REMARK INTRA:                  -0.133
REMARK UNBOUND:                -0.131
REMARK SMILES O=C([O-])C=Cc1ccccc1
REMARK SMILES IDX 4 1 5 2 2 3 1 4 3 5 6 6 7 7 11 8 8 9 10 10 9 11
REMARK H PARENT
REMARK Flexibility Score: inf
ROOT
ATOM      1  C   UNL     1     -12.700   1.402  -9.428  1.00  0.00     0.025 C 
ATOM      2  C   UNL     1     -12.683   0.126  -9.840  1.00  0.00     0.010 C 
ENDROOT
BRANCH   1   3
ATOM      3  C   UNL     1     -11.534   2.290  -9.574  1.00  0.00     0.064 C 
ATOM      4  O   UNL     1     -11.673   3.504  -9.880  1.00  0.00    -0.545 OA
ATOM      5  O   UNL     1     -10.259   1.780  -9.369  1.00  0.00    -0.545 OA
ENDBRANCH   1   3
BRANCH   2   6
ATOM      6  C   UNL     1     -13.825  -0.821  -9.723  1.00  0.00    -0.026 A 
ATOM      7  C   UNL     1     -13.624  -2.156 -10.125  1.00  0.00     0.008 A 
ATOM      8  C   UNL     1     -15.094  -0.450  -9.228  1.00  0.00     0.008 A 
ATOM      9  C   UNL     1     -14.659  -3.091 -10.038  1.00  0.00     0.001 A 
ATOM     10  C   UNL     1     -16.125  -1.391  -9.144  1.00  0.00     0.001 A 
ATOM     11  C   UNL     1     -15.909  -2.709  -9.547  1.00  0.00     0.000 A 
ENDBRANCH   2   6
TORSDOF 2
ENDMDL
MODEL 6
REMARK VINA RESULT:    -4.364     15.647     16.896
REMARK INTER + INTRA:          -5.005
REMARK INTER:                  -4.877
REMARK INTRA:                  -0.128
REMARK UNBOUND:                -0.131
REMARK SMILES O=C([O-])C=Cc1ccccc1
REMARK SMILES IDX 4 1 5 2 2 3 1 4 3 5 6 6 7 7 11 8 8 9 10 10 9 11
REMARK H PARENT
REMARK Flexibility Score: inf
ROOT
ATOM      1  C   UNL     1      -9.524   8.395   5.478  1.00  0.00     0.025 C 
ATOM      2  C   UNL     1      -9.519   7.086   5.771  1.00  0.00     0.010 C 
ENDROOT
BRANCH   1   3
ATOM      3  C   UNL     1      -8.363   9.262   5.739  1.00  0.00     0.064 C 
ATOM      4  O   UNL     1      -7.938   9.448   6.911  1.00  0.00    -0.545 OA
ATOM      5  O   UNL     1      -7.725   9.886   4.675  1.00  0.00    -0.545 OA
ENDBRANCH   1   3
BRANCH   2   6
ATOM      6  C   UNL     1     -10.657   6.156   5.533  1.00  0.00    -0.026 A 
ATOM      7  C   UNL     1     -10.389   4.931   4.891  1.00  0.00     0.008 A 
ATOM      8  C   UNL     1     -11.985   6.440   5.918  1.00  0.00     0.008 A 
ATOM      9  C   UNL     1     -11.417   4.018   4.640  1.00  0.00     0.001 A 
ATOM     10  C   UNL     1     -13.008   5.521   5.663  1.00  0.00     0.001 A 
ATOM     11  C   UNL     1     -12.725   4.312   5.026  1.00  0.00     0.000 A 
ENDBRANCH   2   6
TORSDOF 2
ENDMDL
MODEL 7
REMARK VINA RESULT:    -4.287     16.091     17.826
REMARK INTER + INTRA:          -4.920
REMARK INTER:                  -4.778
REMARK INTRA:                  -0.142
REMARK UNBOUND:                -0.131
REMARK SMILES O=C([O-])C=Cc1ccccc1
REMARK SMILES IDX 4 1 5 2 2 3 1 4 3 5 6 6 7 7 11 8 8 9 10 10 9 11
REMARK H PARENT
REMARK Flexibility Score: inf
ROOT
ATOM      1  C   UNL     1     -10.843   6.069   5.663  1.00  0.00     0.025 C 
ATOM      2  C   UNL     1      -9.754   6.712   5.213  1.00  0.00     0.010 C 
ENDROOT
BRANCH   1   3
ATOM      3  C   UNL     1     -10.970   4.604   5.603  1.00  0.00     0.064 C 
ATOM      4  O   UNL     1     -11.193   4.012   4.512  1.00  0.00    -0.545 OA
ATOM      5  O   UNL     1     -10.841   3.859   6.767  1.00  0.00    -0.545 OA
ENDBRANCH   1   3
BRANCH   2   6
ATOM      6  C   UNL     1      -9.564   8.188   5.245  1.00  0.00    -0.026 A 
ATOM      7  C   UNL     1     -10.710   9.005   5.215  1.00  0.00     0.008 A 
ATOM      8  C   UNL     1      -8.296   8.806   5.306  1.00  0.00     0.008 A 
ATOM      9  C   UNL     1     -10.594  10.398   5.242  1.00  0.00     0.001 A 
ATOM     10  C   UNL     1      -8.188  10.200   5.334  1.00  0.00     0.001 A 
ATOM     11  C   UNL     1      -9.334  10.995   5.302  1.00  0.00     0.000 A 
ENDBRANCH   2   6
TORSDOF 2
ENDMDL
MODEL 8
REMARK VINA RESULT:    -4.286     16.188     18.171
REMARK INTER + INTRA:          -4.918
REMARK INTER:                  -4.790
REMARK INTRA:                  -0.129
REMARK UNBOUND:                -0.131
REMARK SMILES O=C([O-])C=Cc1ccccc1
REMARK SMILES IDX 4 1 5 2 2 3 1 4 3 5 6 6 7 7 11 8 8 9 10 10 9 11
REMARK H PARENT
REMARK Flexibility Score: inf
ROOT
ATOM      1  C   UNL     1      -9.762   6.501   5.551  1.00  0.00     0.025 C 
ATOM      2  C   UNL     1      -9.399   7.586   4.850  1.00  0.00     0.010 C 
ENDROOT
BRANCH   1   3
ATOM      3  C   UNL     1     -10.139   5.236   4.899  1.00  0.00     0.064 C 
ATOM      4  O   UNL     1     -11.149   4.583   5.277  1.00  0.00    -0.545 OA
ATOM      5  O   UNL     1      -9.368   4.753   3.851  1.00  0.00    -0.545 OA
ENDBRANCH   1   3
BRANCH   2   6
ATOM      6  C   UNL     1      -9.008   8.893   5.447  1.00  0.00    -0.026 A 
ATOM      7  C   UNL     1      -7.670   9.062   5.853  1.00  0.00     0.008 A 
ATOM      8  C   UNL     1      -9.907   9.966   5.625  1.00  0.00     0.008 A 
ATOM      9  C   UNL     1      -7.243  10.266   6.421  1.00  0.00     0.001 A 
ATOM     10  C   UNL     1      -9.473  11.168   6.192  1.00  0.00     0.001 A 
ATOM     11  C   UNL     1      -8.144  11.319   6.589  1.00  0.00     0.000 A 
ENDBRANCH   2   6
TORSDOF 2
ENDMDL
MODEL 9
REMARK VINA RESULT:    -4.085     16.266     17.471
REMARK INTER + INTRA:          -4.693
REMARK INTER:                  -4.567
REMARK INTRA:                  -0.126
REMARK UNBOUND:                -0.131
REMARK SMILES O=C([O-])C=Cc1ccccc1
REMARK SMILES IDX 4 1 5 2 2 3 1 4 3 5 6 6 7 7 11 8 8 9 10 10 9 11
REMARK H PARENT
REMARK Flexibility Score: inf
ROOT
ATOM      1  C   UNL     1      -8.383   8.690   6.153  1.00  0.00     0.025 C 
ATOM      2  C   UNL     1      -9.405   8.423   5.326  1.00  0.00     0.010 C 
ENDROOT
BRANCH   1   3
ATOM      3  C   UNL     1      -7.629   9.953   6.086  1.00  0.00     0.064 C 
ATOM      4  O   UNL     1      -6.372   9.958   5.992  1.00  0.00    -0.545 OA
ATOM      5  O   UNL     1      -8.314  11.160   6.126  1.00  0.00    -0.545 OA
ENDBRANCH   1   3
BRANCH   2   6
ATOM      6  C   UNL     1     -10.206   7.168   5.341  1.00  0.00    -0.026 A 
ATOM      7  C   UNL     1     -11.534   7.235   5.806  1.00  0.00     0.008 A 
ATOM      8  C   UNL     1      -9.703   5.920   4.915  1.00  0.00     0.008 A 
ATOM      9  C   UNL     1     -12.335   6.091   5.844  1.00  0.00     0.001 A 
ATOM     10  C   UNL     1     -10.511   4.779   4.956  1.00  0.00     0.001 A 
ATOM     11  C   UNL     1     -11.824   4.863   5.419  1.00  0.00     0.000 A 
ENDBRANCH   2   6
TORSDOF 2
ENDMDL
