MODEL 1
REMARK VINA RESULT:    -2.159      0.000      0.000
REMARK INTER + INTRA:          -2.159
REMARK INTER:                  -2.159
REMARK INTRA:                   0.000
REMARK UNBOUND:                 0.000
REMARK SMILES CC(=O)[O-]
REMARK SMILES IDX 1 1 2 2 3 3 4 4
REMARK H PARENT
REMARK Flexibility Score: inf
ROOT
ATOM      1  C   UNL     1     185.633 187.766 191.615  1.00  0.00     0.063 C 
ATOM      2  C   UNL     1     184.918 187.046 192.708  1.00  0.00     0.038 C 
ATOM      3  O   UNL     1     183.663 186.949 192.683  1.00  0.00    -0.550 OA
ATOM      4  O   UNL     1     185.628 186.530 193.783  1.00  0.00    -0.550 OA
ENDROOT
TORSDOF 0
ENDMDL
MODEL 2
REMARK VINA RESULT:    -2.118      1.364      1.608
REMARK INTER + INTRA:          -2.118
REMARK INTER:                  -2.118
REMARK INTRA:                   0.000
REMARK UNBOUND:                 0.000
REMARK SMILES CC(=O)[O-]
REMARK SMILES IDX 1 1 2 2 3 3 4 4
REMARK H PARENT
REMARK Flexibility Score: inf
ROOT
ATOM      1  C   UNL     1     185.377 187.911 191.502  1.00  0.00     0.063 C 
ATOM      2  C   UNL     1     185.768 186.648 192.193  1.00  0.00     0.038 C 
ATOM      3  O   UNL     1     186.107 185.640 191.520  1.00  0.00    -0.550 OA
ATOM      4  O   UNL     1     185.704 186.564 193.577  1.00  0.00    -0.550 OA
ENDROOT
TORSDOF 0
ENDMDL
MODEL 3
REMARK VINA RESULT:    -2.106      9.406     10.018
REMARK INTER + INTRA:          -2.106
REMARK INTER:                  -2.106
REMARK INTRA:                   0.000
REMARK UNBOUND:                 0.000
REMARK SMILES CC(=O)[O-]
REMARK SMILES IDX 1 1 2 2 3 3 4 4
REMARK H PARENT
REMARK Flexibility Score: inf
ROOT
ATOM      1  C   UNL     1     192.998 190.867 191.682  1.00  0.00     0.063 C 
ATOM      2  C   UNL     1     193.864 191.443 192.751  1.00  0.00     0.038 C 
ATOM      3  O   UNL     1     193.344 191.962 193.773  1.00  0.00    -0.550 OA
ATOM      4  O   UNL     1     195.243 191.459 192.595  1.00  0.00    -0.550 OA
ENDROOT
TORSDOF 0
ENDMDL
MODEL 4
REMARK VINA RESULT:    -2.096      9.364     10.010
REMARK INTER + INTRA:          -2.096
REMARK INTER:                  -2.096
REMARK INTRA:                   0.000
REMARK UNBOUND:                 0.000
REMARK SMILES CC(=O)[O-]
REMARK SMILES IDX 1 1 2 2 3 3 4 4
REMARK H PARENT
REMARK Flexibility Score: inf
ROOT
ATOM      1  C   UNL     1     192.975 190.864 191.656  1.00  0.00     0.063 C 
ATOM      2  C   UNL     1     193.805 191.501 192.719  1.00  0.00     0.038 C 
ATOM      3  O   UNL     1     195.061 191.469 192.643  1.00  0.00    -0.550 OA
ATOM      4  O   UNL     1     193.196 192.082 193.823  1.00  0.00    -0.550 OA
ENDROOT
TORSDOF 0
ENDMDL
MODEL 5
REMARK VINA RESULT:    -2.081      0.210      1.633
REMARK INTER + INTRA:          -2.081
REMARK INTER:                  -2.081
REMARK INTRA:                   0.000
REMARK UNBOUND:                 0.000
REMARK SMILES CC(=O)[O-]
REMARK SMILES IDX 1 1 2 2 3 3 4 4
REMARK H PARENT
REMARK Flexibility Score: inf
ROOT
ATOM      1  C   UNL     1     185.650 187.514 191.477  1.00  0.00     0.063 C 
ATOM      2  C   UNL     1     184.869 187.049 192.660  1.00  0.00     0.038 C 
ATOM      3  O   UNL     1     185.467 186.642 193.690  1.00  0.00    -0.550 OA
ATOM      4  O   UNL     1     183.483 187.012 192.607  1.00  0.00    -0.550 OA
ENDROOT
TORSDOF 0
ENDMDL
MODEL 6
REMARK VINA RESULT:    -2.056      9.154      9.724
REMARK INTER + INTRA:          -2.056
REMARK INTER:                  -2.056
REMARK INTRA:                   0.000
REMARK UNBOUND:                 0.000
REMARK SMILES CC(=O)[O-]
REMARK SMILES IDX 1 1 2 2 3 3 4 4
REMARK H PARENT
REMARK Flexibility Score: inf
ROOT
ATOM      1  C   UNL     1     194.679 191.558 192.608  1.00  0.00     0.063 C 
ATOM      2  C   UNL     1     193.299 191.619 192.045  1.00  0.00     0.038 C 
ATOM      3  O   UNL     1     192.643 190.559 191.869  1.00  0.00    -0.550 OA
ATOM      4  O   UNL     1     192.757 192.838 191.662  1.00  0.00    -0.550 OA
ENDROOT
TORSDOF 0
ENDMDL
MODEL 7
REMARK VINA RESULT:    -2.021      9.943     10.275
REMARK INTER + INTRA:          -2.021
REMARK INTER:                  -2.021
REMARK INTRA:                   0.000
REMARK UNBOUND:                 0.000
REMARK SMILES CC(=O)[O-]
REMARK SMILES IDX 1 1 2 2 3 3 4 4
REMARK H PARENT
REMARK Flexibility Score: inf
ROOT
ATOM      1  C   UNL     1     184.447 196.249 190.393  1.00  0.00     0.063 C 
ATOM      2  C   UNL     1     185.795 196.821 190.109  1.00  0.00     0.038 C 
ATOM      3  O   UNL     1     186.070 197.997 190.465  1.00  0.00    -0.550 OA
ATOM      4  O   UNL     1     186.731 196.078 189.402  1.00  0.00    -0.550 OA
ENDROOT
TORSDOF 0
ENDMDL
MODEL 8
REMARK VINA RESULT:    -2.006     10.218     10.477
REMARK INTER + INTRA:          -2.006
REMARK INTER:                  -2.006
REMARK INTRA:                   0.000
REMARK UNBOUND:                 0.000
REMARK SMILES CC(=O)[O-]
REMARK SMILES IDX 1 1 2 2 3 3 4 4
REMARK H PARENT
REMARK Flexibility Score: inf
ROOT
ATOM      1  C   UNL     1     181.528 195.703 194.901  1.00  0.00     0.063 C 
ATOM      2  C   UNL     1     181.577 196.795 193.886  1.00  0.00     0.038 C 
ATOM      3  O   UNL     1     180.638 197.630 193.810  1.00  0.00    -0.550 OA
ATOM      4  O   UNL     1     182.632 196.861 192.986  1.00  0.00    -0.550 OA
ENDROOT
TORSDOF 0
ENDMDL
MODEL 9
REMARK VINA RESULT:    -1.930      7.382      7.880
REMARK INTER + INTRA:          -1.930
REMARK INTER:                  -1.930
REMARK INTRA:                   0.000
REMARK UNBOUND:                 0.000
REMARK SMILES CC(=O)[O-]
REMARK SMILES IDX 1 1 2 2 3 3 4 4
REMARK H PARENT
REMARK Flexibility Score: inf
ROOT
ATOM      1  C   UNL     1     192.423 184.751 190.487  1.00  0.00     0.063 C 
ATOM      2  C   UNL     1     191.372 183.920 189.831  1.00  0.00     0.038 C 
ATOM      3  O   UNL     1     191.700 183.003 189.033  1.00  0.00    -0.550 OA
ATOM      4  O   UNL     1     190.030 184.191 190.057  1.00  0.00    -0.550 OA
ENDROOT
TORSDOF 0
ENDMDL
