MODEL 1
REMARK VINA RESULT:    -2.453      0.000      0.000
REMARK INTER + INTRA:          -5.657
REMARK INTER:                  -4.461
REMARK INTRA:                  -1.196
REMARK UNBOUND:                -1.196
REMARK SMILES CCCCCC=CCC=CCCCCCCCC(=O)[O-]
REMARK SMILES IDX 11 1 12 2 13 3 14 4 15 5 16 6 17 7 18 8 19 9 20 10 10 11
REMARK SMILES IDX 9 12 8 13 7 14 6 15 5 16 4 17 3 18 2 19 1 20
REMARK H PARENT
REMARK Flexibility Score: inf
ROOT
ATOM      1  C   UNL     1       0.558 -15.835 -18.446  1.00  0.00     0.027 C 
ENDROOT
BRANCH   1   2
ATOM      2  C   UNL     1       1.610 -14.794 -18.038  1.00  0.00     0.004 C 
BRANCH   2   3
ATOM      3  C   UNL     1       1.672 -13.607 -19.014  1.00  0.00     0.000 C 
BRANCH   3   4
ATOM      4  C   UNL     1       3.012 -12.858 -18.950  1.00  0.00     0.000 C 
BRANCH   4   5
ATOM      5  C   UNL     1       2.809 -11.412 -18.470  1.00  0.00     0.000 C 
BRANCH   5   6
ATOM      6  C   UNL     1       3.820 -10.433 -19.087  1.00  0.00     0.006 C 
BRANCH   6   7
ATOM      7  C   UNL     1       4.789 -11.116 -20.061  1.00  0.00     0.053 C 
BRANCH   7   8
ATOM      8  C   UNL     1       6.149 -11.236 -19.449  1.00  0.00     0.041 C 
ATOM      9  O   UNL     1       6.295 -11.811 -18.337  1.00  0.00    -0.550 OA
ATOM     10  O   UNL     1       7.259 -10.731 -20.115  1.00  0.00    -0.550 OA
ENDBRANCH   7   8
ENDBRANCH   6   7
ENDBRANCH   5   6
ENDBRANCH   4   5
ENDBRANCH   3   4
ENDBRANCH   2   3
ENDBRANCH   1   2
BRANCH   1  11
ATOM     11  C   UNL     1      -0.794 -15.194 -18.645  1.00  0.00    -0.031 C 
ATOM     12  C   UNL     1      -1.936 -15.899 -18.742  1.00  0.00    -0.027 C 
BRANCH  12  13
ATOM     13  C   UNL     1      -2.002 -17.403 -18.682  1.00  0.00     0.054 C 
BRANCH  13  14
ATOM     14  C   UNL     1      -1.872 -18.006 -20.060  1.00  0.00    -0.027 C 
ATOM     15  C   UNL     1      -1.312 -19.203 -20.307  1.00  0.00    -0.031 C 
BRANCH  15  16
ATOM     16  C   UNL     1      -0.746 -20.124 -19.253  1.00  0.00     0.027 C 
BRANCH  16  17
ATOM     17  C   UNL     1       0.555 -19.594 -18.629  1.00  0.00     0.004 C 
BRANCH  17  18
ATOM     18  C   UNL     1       0.634 -19.736 -17.095  1.00  0.00     0.000 C 
BRANCH  18  19
ATOM     19  C   UNL     1      -0.690 -20.122 -16.412  1.00  0.00    -0.003 C 
ATOM     20  C   UNL     1      -0.598 -20.125 -14.887  1.00  0.00     0.004 C 
ENDBRANCH  18  19
ENDBRANCH  17  18
ENDBRANCH  16  17
ENDBRANCH  15  16
ENDBRANCH  13  14
ENDBRANCH  12  13
ENDBRANCH   1  11
TORSDOF 14
ENDMDL
MODEL 2
REMARK VINA RESULT:    -2.169      2.894      4.058
REMARK INTER + INTRA:          -5.140
REMARK INTER:                  -3.976
REMARK INTRA:                  -1.164
REMARK UNBOUND:                -1.196
REMARK SMILES CCCCCC=CCC=CCCCCCCCC(=O)[O-]
REMARK SMILES IDX 11 1 12 2 13 3 14 4 15 5 16 6 17 7 18 8 19 9 20 10 10 11
REMARK SMILES IDX 9 12 8 13 7 14 6 15 5 16 4 17 3 18 2 19 1 20
REMARK H PARENT
REMARK Flexibility Score: inf
ROOT
ATOM      1  C   UNL     1       2.001 -13.387 -19.078  1.00  0.00     0.027 C 
ENDROOT
BRANCH   1   2
ATOM      2  C   UNL     1       3.146 -12.427 -18.728  1.00  0.00     0.004 C 
BRANCH   2   3
ATOM      3  C   UNL     1       2.834 -10.972 -19.115  1.00  0.00     0.000 C 
BRANCH   3   4
ATOM      4  C   UNL     1       3.530  -9.954 -18.198  1.00  0.00     0.000 C 
BRANCH   4   5
ATOM      5  C   UNL     1       2.504  -9.212 -17.326  1.00  0.00     0.000 C 
BRANCH   5   6
ATOM      6  C   UNL     1       3.161  -8.268 -16.307  1.00  0.00     0.006 C 
BRANCH   6   7
ATOM      7  C   UNL     1       3.950  -9.019 -15.225  1.00  0.00     0.053 C 
BRANCH   7   8
ATOM      8  C   UNL     1       3.780  -8.354 -13.896  1.00  0.00     0.041 C 
ATOM      9  O   UNL     1       3.602  -7.108 -13.829  1.00  0.00    -0.550 OA
ATOM     10  O   UNL     1       3.800  -9.111 -12.732  1.00  0.00    -0.550 OA
ENDBRANCH   7   8
ENDBRANCH   6   7
ENDBRANCH   5   6
ENDBRANCH   4   5
ENDBRANCH   3   4
ENDBRANCH   2   3
ENDBRANCH   1   2
BRANCH   1  11
ATOM     11  C   UNL     1       1.922 -14.525 -18.090  1.00  0.00    -0.031 C 
ATOM     12  C   UNL     1       0.861 -15.347 -17.997  1.00  0.00    -0.027 C 
BRANCH  12  13
ATOM     13  C   UNL     1      -0.375 -15.223 -18.849  1.00  0.00     0.054 C 
BRANCH  13  14
ATOM     14  C   UNL     1      -1.515 -16.027 -18.271  1.00  0.00    -0.027 C 
ATOM     15  C   UNL     1      -2.104 -17.058 -18.902  1.00  0.00    -0.031 C 
BRANCH  15  16
ATOM     16  C   UNL     1      -1.709 -17.574 -20.265  1.00  0.00     0.027 C 
BRANCH  16  17
ATOM     17  C   UNL     1      -1.604 -19.107 -20.319  1.00  0.00     0.004 C 
BRANCH  17  18
ATOM     18  C   UNL     1      -1.065 -19.759 -19.029  1.00  0.00     0.000 C 
BRANCH  18  19
ATOM     19  C   UNL     1       0.462 -19.950 -18.991  1.00  0.00    -0.003 C 
ATOM     20  C   UNL     1       1.160 -19.000 -18.020  1.00  0.00     0.004 C 
ENDBRANCH  18  19
ENDBRANCH  17  18
ENDBRANCH  16  17
ENDBRANCH  15  16
ENDBRANCH  13  14
ENDBRANCH  12  13
ENDBRANCH   1  11
TORSDOF 14
ENDMDL
MODEL 3
REMARK VINA RESULT:    -2.001      1.802      2.273
REMARK INTER + INTRA:          -4.836
REMARK INTER:                  -4.386
REMARK INTRA:                  -0.450
REMARK UNBOUND:                -1.196
REMARK SMILES CCCCCC=CCC=CCCCCCCCC(=O)[O-]
REMARK SMILES IDX 11 1 12 2 13 3 14 4 15 5 16 6 17 7 18 8 19 9 20 10 10 11
REMARK SMILES IDX 9 12 8 13 7 14 6 15 5 16 4 17 3 18 2 19 1 20
REMARK H PARENT
REMARK Flexibility Score: inf
ROOT
ATOM      1  C   UNL     1       0.274 -15.880 -18.638  1.00  0.00     0.027 C 
ENDROOT
BRANCH   1   2
ATOM      2  C   UNL     1       0.906 -14.612 -18.048  1.00  0.00     0.004 C 
BRANCH   2   3
ATOM      3  C   UNL     1       2.243 -14.254 -18.719  1.00  0.00     0.000 C 
BRANCH   3   4
ATOM      4  C   UNL     1       2.504 -12.741 -18.748  1.00  0.00     0.000 C 
BRANCH   4   5
ATOM      5  C   UNL     1       3.964 -12.444 -19.124  1.00  0.00     0.000 C 
BRANCH   5   6
ATOM      6  C   UNL     1       4.440 -11.070 -18.627  1.00  0.00     0.006 C 
BRANCH   6   7
ATOM      7  C   UNL     1       3.519  -9.926 -19.072  1.00  0.00     0.053 C 
BRANCH   7   8
ATOM      8  C   UNL     1       2.639  -9.491 -17.943  1.00  0.00     0.041 C 
ATOM      9  O   UNL     1       1.389  -9.620 -18.028  1.00  0.00    -0.550 OA
ATOM     10  O   UNL     1       3.201  -8.962 -16.788  1.00  0.00    -0.550 OA
ENDBRANCH   7   8
ENDBRANCH   6   7
ENDBRANCH   5   6
ENDBRANCH   4   5
ENDBRANCH   3   4
ENDBRANCH   2   3
ENDBRANCH   1   2
BRANCH   1  11
ATOM     11  C   UNL     1      -1.215 -15.910 -18.396  1.00  0.00    -0.031 C 
ATOM     12  C   UNL     1      -2.077 -16.579 -19.184  1.00  0.00    -0.027 C 
BRANCH  12  13
ATOM     13  C   UNL     1      -1.664 -17.361 -20.404  1.00  0.00     0.054 C 
BRANCH  13  14
ATOM     14  C   UNL     1      -1.813 -18.846 -20.172  1.00  0.00    -0.027 C 
ATOM     15  C   UNL     1      -0.967 -19.579 -19.427  1.00  0.00    -0.031 C 
BRANCH  15  16
ATOM     16  C   UNL     1       0.241 -19.033 -18.706  1.00  0.00     0.027 C 
BRANCH  16  17
ATOM     17  C   UNL     1       0.522 -19.752 -17.376  1.00  0.00     0.004 C 
BRANCH  17  18
ATOM     18  C   UNL     1      -0.706 -19.894 -16.453  1.00  0.00     0.000 C 
BRANCH  18  19
ATOM     19  C   UNL     1      -0.376 -20.125 -14.968  1.00  0.00    -0.003 C 
ATOM     20  C   UNL     1      -1.535 -19.773 -14.036  1.00  0.00     0.004 C 
ENDBRANCH  18  19
ENDBRANCH  17  18
ENDBRANCH  16  17
ENDBRANCH  15  16
ENDBRANCH  13  14
ENDBRANCH  12  13
ENDBRANCH   1  11
TORSDOF 14
ENDMDL
MODEL 4
REMARK VINA RESULT:    -1.826      4.023      9.253
REMARK INTER + INTRA:          -4.517
REMARK INTER:                  -3.618
REMARK INTRA:                  -0.899
REMARK UNBOUND:                -1.196
REMARK SMILES CCCCCC=CCC=CCCCCCCCC(=O)[O-]
REMARK SMILES IDX 11 1 12 2 13 3 14 4 15 5 16 6 17 7 18 8 19 9 20 10 10 11
REMARK SMILES IDX 9 12 8 13 7 14 6 15 5 16 4 17 3 18 2 19 1 20
REMARK H PARENT
REMARK Flexibility Score: inf
ROOT
ATOM      1  C   UNL     1       1.091 -14.512 -17.842  1.00  0.00     0.027 C 
ENDROOT
BRANCH   1   2
ATOM      2  C   UNL     1       0.331 -15.832 -18.027  1.00  0.00     0.004 C 
BRANCH   2   3
ATOM      3  C   UNL     1      -1.015 -15.641 -18.746  1.00  0.00     0.000 C 
BRANCH   3   4
ATOM      4  C   UNL     1      -1.799 -16.954 -18.892  1.00  0.00     0.000 C 
BRANCH   4   5
ATOM      5  C   UNL     1      -1.167 -17.853 -19.967  1.00  0.00     0.000 C 
BRANCH   5   6
ATOM      6  C   UNL     1      -1.034 -19.315 -19.517  1.00  0.00     0.006 C 
BRANCH   6   7
ATOM      7  C   UNL     1       0.386 -19.667 -19.050  1.00  0.00     0.053 C 
BRANCH   7   8
ATOM      8  C   UNL     1       0.426 -19.818 -17.562  1.00  0.00     0.041 C 
ATOM      9  O   UNL     1       1.524 -19.749 -16.947  1.00  0.00    -0.550 OA
ATOM     10  O   UNL     1      -0.751 -20.018 -16.852  1.00  0.00    -0.550 OA
ENDBRANCH   7   8
ENDBRANCH   6   7
ENDBRANCH   5   6
ENDBRANCH   4   5
ENDBRANCH   3   4
ENDBRANCH   2   3
ENDBRANCH   1   2
BRANCH   1  11
ATOM     11  C   UNL     1       2.326 -14.468 -18.710  1.00  0.00    -0.031 C 
ATOM     12  C   UNL     1       2.908 -13.322 -19.106  1.00  0.00    -0.027 C 
BRANCH  12  13
ATOM     13  C   UNL     1       2.393 -11.952 -18.747  1.00  0.00     0.054 C 
BRANCH  13  14
ATOM     14  C   UNL     1       3.401 -10.885 -19.104  1.00  0.00    -0.027 C 
ATOM     15  C   UNL     1       3.534  -9.724 -18.439  1.00  0.00    -0.031 C 
BRANCH  15  16
ATOM     16  C   UNL     1       2.715  -9.320 -17.237  1.00  0.00     0.027 C 
BRANCH  16  17
ATOM     17  C   UNL     1       3.576  -8.997 -16.005  1.00  0.00     0.004 C 
BRANCH  17  18
ATOM     18  C   UNL     1       3.285  -7.625 -15.361  1.00  0.00     0.000 C 
BRANCH  18  19
ATOM     19  C   UNL     1       3.712  -7.498 -13.888  1.00  0.00    -0.003 C 
ATOM     20  C   UNL     1       4.160  -8.826 -13.279  1.00  0.00     0.004 C 
ENDBRANCH  18  19
ENDBRANCH  17  18
ENDBRANCH  16  17
ENDBRANCH  15  16
ENDBRANCH  13  14
ENDBRANCH  12  13
ENDBRANCH   1  11
TORSDOF 14
ENDMDL
MODEL 5
REMARK VINA RESULT:    -1.755      3.514      9.209
REMARK INTER + INTRA:          -4.387
REMARK INTER:                  -3.334
REMARK INTRA:                  -1.053
REMARK UNBOUND:                -1.196
REMARK SMILES CCCCCC=CCC=CCCCCCCCC(=O)[O-]
REMARK SMILES IDX 11 1 12 2 13 3 14 4 15 5 16 6 17 7 18 8 19 9 20 10 10 11
REMARK SMILES IDX 9 12 8 13 7 14 6 15 5 16 4 17 3 18 2 19 1 20
REMARK H PARENT
REMARK Flexibility Score: inf
ROOT
ATOM      1  C   UNL     1       0.851 -14.604 -17.824  1.00  0.00     0.027 C 
ENDROOT
BRANCH   1   2
ATOM      2  C   UNL     1       0.256 -15.899 -18.392  1.00  0.00     0.004 C 
BRANCH   2   3
ATOM      3  C   UNL     1      -1.281 -15.884 -18.408  1.00  0.00     0.000 C 
BRANCH   3   4
ATOM      4  C   UNL     1      -1.876 -17.045 -19.219  1.00  0.00     0.000 C 
BRANCH   4   5
ATOM      5  C   UNL     1      -0.767 -17.857 -19.907  1.00  0.00     0.000 C 
BRANCH   5   6
ATOM      6  C   UNL     1      -0.801 -19.347 -19.533  1.00  0.00     0.006 C 
BRANCH   6   7
ATOM      7  C   UNL     1       0.510 -19.829 -18.895  1.00  0.00     0.053 C 
BRANCH   7   8
ATOM      8  C   UNL     1       0.372 -19.904 -17.407  1.00  0.00     0.041 C 
ATOM      9  O   UNL     1      -0.762 -19.798 -16.870  1.00  0.00    -0.550 OA
ATOM     10  O   UNL     1       1.494 -20.110 -16.615  1.00  0.00    -0.550 OA
ENDBRANCH   7   8
ENDBRANCH   6   7
ENDBRANCH   5   6
ENDBRANCH   4   5
ENDBRANCH   3   4
ENDBRANCH   2   3
ENDBRANCH   1   2
BRANCH   1  11
ATOM     11  C   UNL     1       2.321 -14.490 -18.147  1.00  0.00    -0.031 C 
ATOM     12  C   UNL     1       2.862 -13.417 -18.750  1.00  0.00    -0.027 C 
BRANCH  12  13
ATOM     13  C   UNL     1       2.070 -12.212 -19.188  1.00  0.00     0.054 C 
BRANCH  13  14
ATOM     14  C   UNL     1       2.452 -10.992 -18.384  1.00  0.00    -0.027 C 
ATOM     15  C   UNL     1       3.487 -10.188 -18.683  1.00  0.00    -0.031 C 
BRANCH  15  16
ATOM     16  C   UNL     1       4.408 -10.371 -19.866  1.00  0.00     0.027 C 
BRANCH  16  17
ATOM     17  C   UNL     1       5.641 -11.229 -19.538  1.00  0.00     0.004 C 
BRANCH  17  18
ATOM     18  C   UNL     1       6.762 -11.171 -20.596  1.00  0.00     0.000 C 
BRANCH  18  19
ATOM     19  C   UNL     1       8.045 -10.452 -20.142  1.00  0.00    -0.003 C 
ATOM     20  C   UNL     1       8.964 -10.077 -21.303  1.00  0.00     0.004 C 
ENDBRANCH  18  19
ENDBRANCH  17  18
ENDBRANCH  16  17
ENDBRANCH  15  16
ENDBRANCH  13  14
ENDBRANCH  12  13
ENDBRANCH   1  11
TORSDOF 14
ENDMDL
MODEL 6
REMARK VINA RESULT:    -1.520      4.335      9.448
REMARK INTER + INTRA:          -3.960
REMARK INTER:                  -3.731
REMARK INTRA:                  -0.230
REMARK UNBOUND:                -1.196
REMARK SMILES CCCCCC=CCC=CCCCCCCCC(=O)[O-]
REMARK SMILES IDX 11 1 12 2 13 3 14 4 15 5 16 6 17 7 18 8 19 9 20 10 10 11
REMARK SMILES IDX 9 12 8 13 7 14 6 15 5 16 4 17 3 18 2 19 1 20
REMARK H PARENT
REMARK Flexibility Score: inf
ROOT
ATOM      1  C   UNL     1       2.548 -12.641 -18.757  1.00  0.00     0.027 C 
ENDROOT
BRANCH   1   2
ATOM      2  C   UNL     1       2.384 -14.159 -18.602  1.00  0.00     0.004 C 
BRANCH   2   3
ATOM      3  C   UNL     1       1.049 -14.543 -17.941  1.00  0.00     0.000 C 
BRANCH   3   4
ATOM      4  C   UNL     1       0.604 -15.970 -18.292  1.00  0.00     0.000 C 
BRANCH   4   5
ATOM      5  C   UNL     1      -0.907 -16.020 -18.573  1.00  0.00     0.000 C 
BRANCH   5   6
ATOM      6  C   UNL     1      -1.387 -17.415 -19.001  1.00  0.00     0.006 C 
BRANCH   6   7
ATOM      7  C   UNL     1      -0.241 -18.429 -19.116  1.00  0.00     0.053 C 
BRANCH   7   8
ATOM      8  C   UNL     1      -0.249 -19.364 -17.948  1.00  0.00     0.041 C 
ATOM      9  O   UNL     1       0.827 -19.653 -17.360  1.00  0.00    -0.550 OA
ATOM     10  O   UNL     1      -1.448 -19.903 -17.498  1.00  0.00    -0.550 OA
ENDBRANCH   7   8
ENDBRANCH   6   7
ENDBRANCH   5   6
ENDBRANCH   4   5
ENDBRANCH   3   4
ENDBRANCH   2   3
ENDBRANCH   1   2
BRANCH   1  11
ATOM     11  C   UNL     1       4.006 -12.250 -18.775  1.00  0.00    -0.031 C 
ATOM     12  C   UNL     1       4.426 -10.983 -18.939  1.00  0.00    -0.027 C 
BRANCH  12  13
ATOM     13  C   UNL     1       3.501  -9.810 -19.139  1.00  0.00     0.054 C 
BRANCH  13  14
ATOM     14  C   UNL     1       2.345  -9.862 -18.170  1.00  0.00    -0.027 C 
ATOM     15  C   UNL     1       2.365  -9.308 -16.944  1.00  0.00    -0.031 C 
BRANCH  15  16
ATOM     16  C   UNL     1       3.531  -8.546 -16.362  1.00  0.00     0.027 C 
BRANCH  16  17
ATOM     17  C   UNL     1       3.098  -7.306 -15.564  1.00  0.00     0.004 C 
BRANCH  17  18
ATOM     18  C   UNL     1       3.511  -7.324 -14.077  1.00  0.00     0.000 C 
BRANCH  18  19
ATOM     19  C   UNL     1       4.249  -8.597 -13.627  1.00  0.00    -0.003 C 
ATOM     20  C   UNL     1       3.394  -9.504 -12.743  1.00  0.00     0.004 C 
ENDBRANCH  18  19
ENDBRANCH  17  18
ENDBRANCH  16  17
ENDBRANCH  15  16
ENDBRANCH  13  14
ENDBRANCH  12  13
ENDBRANCH   1  11
TORSDOF 14
ENDMDL
MODEL 7
REMARK VINA RESULT:    -1.452      1.507      2.594
REMARK INTER + INTRA:          -3.836
REMARK INTER:                  -2.723
REMARK INTRA:                  -1.113
REMARK UNBOUND:                -1.196
REMARK SMILES CCCCCC=CCC=CCCCCCCCC(=O)[O-]
REMARK SMILES IDX 11 1 12 2 13 3 14 4 15 5 16 6 17 7 18 8 19 9 20 10 10 11
REMARK SMILES IDX 9 12 8 13 7 14 6 15 5 16 4 17 3 18 2 19 1 20
REMARK H PARENT
REMARK Flexibility Score: inf
ROOT
ATOM      1  C   UNL     1       1.546 -13.733 -18.418  1.00  0.00     0.027 C 
ENDROOT
BRANCH   1   2
ATOM      2  C   UNL     1       2.809 -13.026 -18.929  1.00  0.00     0.004 C 
BRANCH   2   3
ATOM      3  C   UNL     1       2.723 -11.497 -18.791  1.00  0.00     0.000 C 
BRANCH   3   4
ATOM      4  C   UNL     1       3.866 -10.773 -19.518  1.00  0.00     0.000 C 
BRANCH   4   5
ATOM      5  C   UNL     1       5.177 -11.569 -19.408  1.00  0.00     0.000 C 
BRANCH   5   6
ATOM      6  C   UNL     1       6.286 -11.018 -20.317  1.00  0.00     0.006 C 
BRANCH   6   7
ATOM      7  C   UNL     1       7.640 -10.907 -19.602  1.00  0.00     0.053 C 
BRANCH   7   8
ATOM      8  C   UNL     1       8.543  -9.964 -20.333  1.00  0.00     0.041 C 
ATOM      9  O   UNL     1       9.047  -8.977 -19.735  1.00  0.00    -0.550 OA
ATOM     10  O   UNL     1       8.843 -10.187 -21.671  1.00  0.00    -0.550 OA
ENDBRANCH   7   8
ENDBRANCH   6   7
ENDBRANCH   5   6
ENDBRANCH   4   5
ENDBRANCH   3   4
ENDBRANCH   2   3
ENDBRANCH   1   2
BRANCH   1  11
ATOM     11  C   UNL     1       1.726 -15.232 -18.411  1.00  0.00    -0.031 C 
ATOM     12  C   UNL     1       0.696 -16.097 -18.389  1.00  0.00    -0.027 C 
BRANCH  12  13
ATOM     13  C   UNL     1      -0.751 -15.679 -18.351  1.00  0.00     0.054 C 
BRANCH  13  14
ATOM     14  C   UNL     1      -1.402 -15.859 -19.702  1.00  0.00    -0.027 C 
ATOM     15  C   UNL     1      -1.905 -17.025 -20.145  1.00  0.00    -0.031 C 
BRANCH  15  16
ATOM     16  C   UNL     1      -1.909 -18.316 -19.362  1.00  0.00     0.027 C 
BRANCH  16  17
ATOM     17  C   UNL     1      -1.280 -19.488 -20.134  1.00  0.00     0.004 C 
BRANCH  17  18
ATOM     18  C   UNL     1       0.077 -19.966 -19.579  1.00  0.00     0.000 C 
BRANCH  18  19
ATOM     19  C   UNL     1       0.132 -20.121 -18.049  1.00  0.00    -0.003 C 
ATOM     20  C   UNL     1       1.350 -19.444 -17.422  1.00  0.00     0.004 C 
ENDBRANCH  18  19
ENDBRANCH  17  18
ENDBRANCH  16  17
ENDBRANCH  15  16
ENDBRANCH  13  14
ENDBRANCH  12  13
ENDBRANCH   1  11
TORSDOF 14
ENDMDL
MODEL 8
REMARK VINA RESULT:    -1.279      3.499      8.815
REMARK INTER + INTRA:          -3.522
REMARK INTER:                  -2.549
REMARK INTRA:                  -0.974
REMARK UNBOUND:                -1.196
REMARK SMILES CCCCCC=CCC=CCCCCCCCC(=O)[O-]
REMARK SMILES IDX 11 1 12 2 13 3 14 4 15 5 16 6 17 7 18 8 19 9 20 10 10 11
REMARK SMILES IDX 9 12 8 13 7 14 6 15 5 16 4 17 3 18 2 19 1 20
REMARK H PARENT
REMARK Flexibility Score: inf
ROOT
ATOM      1  C   UNL     1       1.895 -14.907 -17.911  1.00  0.00     0.027 C 
ENDROOT
BRANCH   1   2
ATOM      2  C   UNL     1       0.860 -16.032 -18.045  1.00  0.00     0.004 C 
BRANCH   2   3
ATOM      3  C   UNL     1      -0.488 -15.531 -18.589  1.00  0.00     0.000 C 
BRANCH   3   4
ATOM      4  C   UNL     1      -1.519 -16.659 -18.747  1.00  0.00     0.000 C 
BRANCH   4   5
ATOM      5  C   UNL     1      -1.079 -17.654 -19.833  1.00  0.00     0.000 C 
BRANCH   5   6
ATOM      6  C   UNL     1      -1.156 -19.116 -19.366  1.00  0.00     0.006 C 
BRANCH   6   7
ATOM      7  C   UNL     1       0.226 -19.729 -19.102  1.00  0.00     0.053 C 
BRANCH   7   8
ATOM      8  C   UNL     1       0.509 -19.771 -17.634  1.00  0.00     0.041 C 
ATOM      9  O   UNL     1       1.654 -19.472 -17.200  1.00  0.00    -0.550 OA
ATOM     10  O   UNL     1      -0.496 -20.122 -16.742  1.00  0.00    -0.550 OA
ENDBRANCH   7   8
ENDBRANCH   6   7
ENDBRANCH   5   6
ENDBRANCH   4   5
ENDBRANCH   3   4
ENDBRANCH   2   3
ENDBRANCH   1   2
BRANCH   1  11
ATOM     11  C   UNL     1       1.631 -13.803 -18.907  1.00  0.00    -0.031 C 
ATOM     12  C   UNL     1       2.486 -12.788 -19.125  1.00  0.00    -0.027 C 
BRANCH  12  13
ATOM     13  C   UNL     1       3.795 -12.621 -18.397  1.00  0.00     0.054 C 
BRANCH  13  14
ATOM     14  C   UNL     1       4.789 -11.856 -19.238  1.00  0.00    -0.027 C 
ATOM     15  C   UNL     1       4.634 -10.571 -19.602  1.00  0.00    -0.031 C 
BRANCH  15  16
ATOM     16  C   UNL     1       3.463  -9.701 -19.217  1.00  0.00     0.027 C 
BRANCH  16  17
ATOM     17  C   UNL     1       3.354  -9.477 -17.700  1.00  0.00     0.004 C 
BRANCH  17  18
ATOM     18  C   UNL     1       1.927  -9.182 -17.196  1.00  0.00     0.000 C 
BRANCH  18  19
ATOM     19  C   UNL     1       0.828  -9.288 -18.268  1.00  0.00    -0.003 C 
ATOM     20  C   UNL     1      -0.446  -8.530 -17.896  1.00  0.00     0.004 C 
ENDBRANCH  18  19
ENDBRANCH  17  18
ENDBRANCH  16  17
ENDBRANCH  15  16
ENDBRANCH  13  14
ENDBRANCH  12  13
ENDBRANCH   1  11
TORSDOF 14
ENDMDL
MODEL 9
REMARK VINA RESULT:    -1.009      3.100      4.643
REMARK INTER + INTRA:          -3.031
REMARK INTER:                  -2.721
REMARK INTRA:                  -0.310
REMARK UNBOUND:                -1.196
REMARK SMILES CCCCCC=CCC=CCCCCCCCC(=O)[O-]
REMARK SMILES IDX 11 1 12 2 13 3 14 4 15 5 16 6 17 7 18 8 19 9 20 10 10 11
REMARK SMILES IDX 9 12 8 13 7 14 6 15 5 16 4 17 3 18 2 19 1 20
REMARK H PARENT
REMARK Flexibility Score: inf
ROOT
ATOM      1  C   UNL     1       3.824 -12.688 -18.434  1.00  0.00     0.027 C 
ENDROOT
BRANCH   1   2
ATOM      2  C   UNL     1       4.695 -11.460 -18.731  1.00  0.00     0.004 C 
BRANCH   2   3
ATOM      3  C   UNL     1       3.862 -10.225 -19.113  1.00  0.00     0.000 C 
BRANCH   3   4
ATOM      4  C   UNL     1       2.660 -10.010 -18.180  1.00  0.00     0.000 C 
BRANCH   4   5
ATOM      5  C   UNL     1       2.840  -8.735 -17.340  1.00  0.00     0.000 C 
BRANCH   5   6
ATOM      6  C   UNL     1       3.118  -9.032 -15.859  1.00  0.00     0.006 C 
BRANCH   6   7
ATOM      7  C   UNL     1       3.812  -7.867 -15.140  1.00  0.00     0.053 C 
BRANCH   7   8
ATOM      8  C   UNL     1       3.734  -8.047 -13.656  1.00  0.00     0.041 C 
ATOM      9  O   UNL     1       4.238  -9.067 -13.115  1.00  0.00    -0.550 OA
ATOM     10  O   UNL     1       3.123  -7.079 -12.870  1.00  0.00    -0.550 OA
ENDBRANCH   7   8
ENDBRANCH   6   7
ENDBRANCH   5   6
ENDBRANCH   4   5
ENDBRANCH   3   4
ENDBRANCH   2   3
ENDBRANCH   1   2
BRANCH   1  11
ATOM     11  C   UNL     1       2.525 -12.633 -19.202  1.00  0.00    -0.031 C 
ATOM     12  C   UNL     1       1.569 -13.574 -19.101  1.00  0.00    -0.027 C 
BRANCH  12  13
ATOM     13  C   UNL     1       1.684 -14.797 -18.228  1.00  0.00     0.054 C 
BRANCH  13  14
ATOM     14  C   UNL     1       0.343 -15.471 -18.062  1.00  0.00    -0.027 C 
ATOM     15  C   UNL     1       0.151 -16.798 -18.160  1.00  0.00    -0.031 C 
BRANCH  15  16
ATOM     16  C   UNL     1       1.239 -17.809 -18.433  1.00  0.00     0.027 C 
BRANCH  16  17
ATOM     17  C   UNL     1       0.697 -19.233 -18.638  1.00  0.00     0.004 C 
BRANCH  17  18
ATOM     18  C   UNL     1      -0.670 -19.501 -17.974  1.00  0.00     0.000 C 
BRANCH  18  19
ATOM     19  C   UNL     1      -1.784 -19.939 -18.941  1.00  0.00    -0.003 C 
ATOM     20  C   UNL     1      -1.660 -19.302 -20.325  1.00  0.00     0.004 C 
ENDBRANCH  18  19
ENDBRANCH  17  18
ENDBRANCH  16  17
ENDBRANCH  15  16
ENDBRANCH  13  14
ENDBRANCH  12  13
ENDBRANCH   1  11
TORSDOF 14
ENDMDL
