MODEL 1
REMARK VINA RESULT:    -3.655      0.000      0.000
REMARK INTER + INTRA:          -5.676
REMARK INTER:                  -5.151
REMARK INTRA:                  -0.525
REMARK UNBOUND:                -0.525
REMARK SMILES CCCCCCCCC(=O)[O-]
REMARK SMILES IDX 6 1 7 2 8 3 9 4 10 5 11 6 5 7 4 8 3 9 2 10 1 11
REMARK H PARENT
REMARK Flexibility Score: inf
ROOT
ATOM      1  C   UNL     1      33.006  76.304   8.301  1.00  0.00     0.000 C 
ENDROOT
BRANCH   1   2
ATOM      2  C   UNL     1      33.748  75.123   7.653  1.00  0.00     0.006 C 
BRANCH   2   3
ATOM      3  C   UNL     1      34.895  75.588   6.745  1.00  0.00     0.053 C 
BRANCH   3   4
ATOM      4  C   UNL     1      36.159  74.830   7.017  1.00  0.00     0.041 C 
ATOM      5  O   UNL     1      36.503  73.881   6.265  1.00  0.00    -0.550 OA
ATOM      6  O   UNL     1      36.973  75.195   8.081  1.00  0.00    -0.550 OA
ENDBRANCH   3   4
ENDBRANCH   2   3
ENDBRANCH   1   2
BRANCH   1   7
ATOM      7  C   UNL     1      33.949  77.458   8.676  1.00  0.00     0.000 C 
BRANCH   7   8
ATOM      8  C   UNL     1      33.564  78.126  10.008  1.00  0.00    -0.000 C 
BRANCH   8   9
ATOM      9  C   UNL     1      34.180  77.415  11.224  1.00  0.00    -0.000 C 
BRANCH   9  10
ATOM     10  C   UNL     1      35.577  76.849  10.931  1.00  0.00    -0.003 C 
ATOM     11  C   UNL     1      36.662  77.689  11.602  1.00  0.00     0.004 C 
ENDBRANCH   9  10
ENDBRANCH   8   9
ENDBRANCH   7   8
ENDBRANCH   1   7
TORSDOF 7
ENDMDL
MODEL 2
REMARK VINA RESULT:    -3.644      9.374     11.124
REMARK INTER + INTRA:          -5.660
REMARK INTER:                  -5.168
REMARK INTRA:                  -0.493
REMARK UNBOUND:                -0.525
REMARK SMILES CCCCCCCCC(=O)[O-]
REMARK SMILES IDX 6 1 7 2 8 3 9 4 10 5 11 6 5 7 4 8 3 9 2 10 1 11
REMARK H PARENT
REMARK Flexibility Score: inf
ROOT
ATOM      1  C   UNL     1      46.440  72.249  11.275  1.00  0.00     0.000 C 
ENDROOT
BRANCH   1   2
ATOM      2  C   UNL     1      45.207  73.063  10.850  1.00  0.00     0.006 C 
BRANCH   2   3
ATOM      3  C   UNL     1      44.663  72.618   9.485  1.00  0.00     0.053 C 
BRANCH   3   4
ATOM      4  C   UNL     1      43.419  73.367   9.114  1.00  0.00     0.041 C 
ATOM      5  O   UNL     1      42.835  73.125   8.025  1.00  0.00    -0.550 OA
ATOM      6  O   UNL     1      42.886  74.306   9.987  1.00  0.00    -0.550 OA
ENDBRANCH   3   4
ENDBRANCH   2   3
ENDBRANCH   1   2
BRANCH   1   7
ATOM      7  C   UNL     1      46.351  71.761  12.730  1.00  0.00     0.000 C 
BRANCH   7   8
ATOM      8  C   UNL     1      46.844  72.814  13.738  1.00  0.00    -0.000 C 
BRANCH   8   9
ATOM      9  C   UNL     1      45.711  73.360  14.622  1.00  0.00    -0.000 C 
BRANCH   9  10
ATOM     10  C   UNL     1      45.273  74.774  14.214  1.00  0.00    -0.003 C 
ATOM     11  C   UNL     1      43.789  74.810  13.860  1.00  0.00     0.004 C 
ENDBRANCH   9  10
ENDBRANCH   8   9
ENDBRANCH   7   8
ENDBRANCH   1   7
TORSDOF 7
ENDMDL
MODEL 3
REMARK VINA RESULT:    -3.640      3.252      5.390
REMARK INTER + INTRA:          -5.654
REMARK INTER:                  -5.162
REMARK INTRA:                  -0.492
REMARK UNBOUND:                -0.525
REMARK SMILES CCCCCCCCC(=O)[O-]
REMARK SMILES IDX 6 1 7 2 8 3 9 4 10 5 11 6 5 7 4 8 3 9 2 10 1 11
REMARK H PARENT
REMARK Flexibility Score: inf
ROOT
ATOM      1  C   UNL     1      35.567  77.763  11.141  1.00  0.00     0.000 C 
ENDROOT
BRANCH   1   2
ATOM      2  C   UNL     1      34.218  77.894  10.413  1.00  0.00     0.006 C 
BRANCH   2   3
ATOM      3  C   UNL     1      33.139  78.524  11.303  1.00  0.00     0.053 C 
BRANCH   3   4
ATOM      4  C   UNL     1      33.046  77.837  12.631  1.00  0.00     0.041 C 
ATOM      5  O   UNL     1      32.755  76.614  12.693  1.00  0.00    -0.550 OA
ATOM      6  O   UNL     1      33.313  78.541  13.798  1.00  0.00    -0.550 OA
ENDBRANCH   3   4
ENDBRANCH   2   3
ENDBRANCH   1   2
BRANCH   1   7
ATOM      7  C   UNL     1      36.331  76.491  10.743  1.00  0.00     0.000 C 
BRANCH   7   8
ATOM      8  C   UNL     1      35.628  75.706   9.621  1.00  0.00    -0.000 C 
BRANCH   8   9
ATOM      9  C   UNL     1      36.592  75.290   8.499  1.00  0.00    -0.000 C 
BRANCH   9  10
ATOM     10  C   UNL     1      35.883  75.113   7.148  1.00  0.00    -0.003 C 
ATOM     11  C   UNL     1      34.489  75.735   7.173  1.00  0.00     0.004 C 
ENDBRANCH   9  10
ENDBRANCH   8   9
ENDBRANCH   7   8
ENDBRANCH   1   7
TORSDOF 7
ENDMDL
MODEL 4
REMARK VINA RESULT:    -3.635      2.395      3.063
REMARK INTER + INTRA:          -5.648
REMARK INTER:                  -4.887
REMARK INTRA:                  -0.761
REMARK UNBOUND:                -0.525
REMARK SMILES CCCCCCCCC(=O)[O-]
REMARK SMILES IDX 6 1 7 2 8 3 9 4 10 5 11 6 5 7 4 8 3 9 2 10 1 11
REMARK H PARENT
REMARK Flexibility Score: inf
ROOT
ATOM      1  C   UNL     1      33.703  77.730   8.806  1.00  0.00     0.000 C 
ENDROOT
BRANCH   1   2
ATOM      2  C   UNL     1      34.165  76.362   8.278  1.00  0.00     0.006 C 
BRANCH   2   3
ATOM      3  C   UNL     1      35.513  75.937   8.877  1.00  0.00     0.053 C 
BRANCH   3   4
ATOM      4  C   UNL     1      35.491  75.975  10.375  1.00  0.00     0.041 C 
ATOM      5  O   UNL     1      34.781  75.160  11.019  1.00  0.00    -0.550 OA
ATOM      6  O   UNL     1      36.281  76.890  11.058  1.00  0.00    -0.550 OA
ENDBRANCH   3   4
ENDBRANCH   2   3
ENDBRANCH   1   2
BRANCH   1   7
ATOM      7  C   UNL     1      32.180  77.803   9.001  1.00  0.00     0.000 C 
BRANCH   7   8
ATOM      8  C   UNL     1      31.787  78.201  10.435  1.00  0.00    -0.000 C 
BRANCH   8   9
ATOM      9  C   UNL     1      32.959  78.812  11.221  1.00  0.00    -0.000 C 
BRANCH   9  10
ATOM     10  C   UNL     1      33.247  78.060  12.529  1.00  0.00    -0.003 C 
ATOM     11  C   UNL     1      32.261  76.913  12.732  1.00  0.00     0.004 C 
ENDBRANCH   9  10
ENDBRANCH   8   9
ENDBRANCH   7   8
ENDBRANCH   1   7
TORSDOF 7
ENDMDL
MODEL 5
REMARK VINA RESULT:    -3.628      1.550      2.281
REMARK INTER + INTRA:          -5.637
REMARK INTER:                  -4.919
REMARK INTRA:                  -0.718
REMARK UNBOUND:                -0.525
REMARK SMILES CCCCCCCCC(=O)[O-]
REMARK SMILES IDX 6 1 7 2 8 3 9 4 10 5 11 6 5 7 4 8 3 9 2 10 1 11
REMARK H PARENT
REMARK Flexibility Score: inf
ROOT
ATOM      1  C   UNL     1      33.193  77.618   9.231  1.00  0.00     0.000 C 
ENDROOT
BRANCH   1   2
ATOM      2  C   UNL     1      34.266  77.198   8.212  1.00  0.00     0.006 C 
BRANCH   2   3
ATOM      3  C   UNL     1      34.567  75.694   8.277  1.00  0.00     0.053 C 
BRANCH   3   4
ATOM      4  C   UNL     1      36.029  75.430   8.470  1.00  0.00     0.041 C 
ATOM      5  O   UNL     1      36.720  74.966   7.526  1.00  0.00    -0.550 OA
ATOM      6  O   UNL     1      36.635  75.729   9.684  1.00  0.00    -0.550 OA
ENDBRANCH   3   4
ENDBRANCH   2   3
ENDBRANCH   1   2
BRANCH   1   7
ATOM      7  C   UNL     1      33.781  78.389  10.422  1.00  0.00     0.000 C 
BRANCH   7   8
ATOM      8  C   UNL     1      34.229  77.460  11.564  1.00  0.00    -0.000 C 
BRANCH   8   9
ATOM      9  C   UNL     1      33.060  77.017  12.458  1.00  0.00    -0.000 C 
BRANCH   9  10
ATOM     10  C   UNL     1      32.641  75.561  12.201  1.00  0.00    -0.003 C 
ATOM     11  C   UNL     1      33.840  74.707  11.797  1.00  0.00     0.004 C 
ENDBRANCH   9  10
ENDBRANCH   8   9
ENDBRANCH   7   8
ENDBRANCH   1   7
TORSDOF 7
ENDMDL
MODEL 6
REMARK VINA RESULT:    -3.603      2.208      4.442
REMARK INTER + INTRA:          -5.603
REMARK INTER:                  -5.007
REMARK INTRA:                  -0.595
REMARK UNBOUND:                -0.525
REMARK SMILES CCCCCCCCC(=O)[O-]
REMARK SMILES IDX 6 1 7 2 8 3 9 4 10 5 11 6 5 7 4 8 3 9 2 10 1 11
REMARK H PARENT
REMARK Flexibility Score: inf
ROOT
ATOM      1  C   UNL     1      33.670  77.311   8.405  1.00  0.00     0.000 C 
ENDROOT
BRANCH   1   2
ATOM      2  C   UNL     1      33.273  77.564   9.869  1.00  0.00     0.006 C 
BRANCH   2   3
ATOM      3  C   UNL     1      34.433  78.145  10.691  1.00  0.00     0.053 C 
BRANCH   3   4
ATOM      4  C   UNL     1      35.375  77.076  11.152  1.00  0.00     0.041 C 
ATOM      5  O   UNL     1      36.577  77.355  11.403  1.00  0.00    -0.550 OA
ATOM      6  O   UNL     1      34.917  75.778  11.337  1.00  0.00    -0.550 OA
ENDBRANCH   3   4
ENDBRANCH   2   3
ENDBRANCH   1   2
BRANCH   1   7
ATOM      7  C   UNL     1      33.162  75.959   7.882  1.00  0.00     0.000 C 
BRANCH   7   8
ATOM      8  C   UNL     1      34.241  74.863   7.930  1.00  0.00    -0.000 C 
BRANCH   8   9
ATOM      9  C   UNL     1      35.666  75.434   7.849  1.00  0.00    -0.000 C 
BRANCH   9  10
ATOM     10  C   UNL     1      36.575  74.622   6.915  1.00  0.00    -0.003 C 
ATOM     11  C   UNL     1      35.792  73.520   6.207  1.00  0.00     0.004 C 
ENDBRANCH   9  10
ENDBRANCH   8   9
ENDBRANCH   7   8
ENDBRANCH   1   7
TORSDOF 7
ENDMDL
MODEL 7
REMARK VINA RESULT:    -3.591      3.591      5.037
REMARK INTER + INTRA:          -5.585
REMARK INTER:                  -4.995
REMARK INTRA:                  -0.590
REMARK UNBOUND:                -0.525
REMARK SMILES CCCCCCCCC(=O)[O-]
REMARK SMILES IDX 6 1 7 2 8 3 9 4 10 5 11 6 5 7 4 8 3 9 2 10 1 11
REMARK H PARENT
REMARK Flexibility Score: inf
ROOT
ATOM      1  C   UNL     1      32.228  77.685   8.998  1.00  0.00     0.000 C 
ENDROOT
BRANCH   1   2
ATOM      2  C   UNL     1      31.576  78.251  10.270  1.00  0.00     0.006 C 
BRANCH   2   3
ATOM      3  C   UNL     1      32.591  78.972  11.168  1.00  0.00     0.053 C 
BRANCH   3   4
ATOM      4  C   UNL     1      32.432  78.584  12.606  1.00  0.00     0.041 C 
ATOM      5  O   UNL     1      32.734  77.422  12.986  1.00  0.00    -0.550 OA
ATOM      6  O   UNL     1      31.982  79.515  13.532  1.00  0.00    -0.550 OA
ENDBRANCH   3   4
ENDBRANCH   2   3
ENDBRANCH   1   2
BRANCH   1   7
ATOM      7  C   UNL     1      33.759  77.818   9.011  1.00  0.00     0.000 C 
BRANCH   7   8
ATOM      8  C   UNL     1      34.464  76.597   8.393  1.00  0.00    -0.000 C 
BRANCH   8   9
ATOM      9  C   UNL     1      35.517  75.986   9.331  1.00  0.00    -0.000 C 
BRANCH   9  10
ATOM     10  C   UNL     1      35.338  76.435  10.790  1.00  0.00    -0.003 C 
ATOM     11  C   UNL     1      36.492  77.328  11.236  1.00  0.00     0.004 C 
ENDBRANCH   9  10
ENDBRANCH   8   9
ENDBRANCH   7   8
ENDBRANCH   1   7
TORSDOF 7
ENDMDL
MODEL 8
REMARK VINA RESULT:    -3.572      1.391      2.436
REMARK INTER + INTRA:          -5.559
REMARK INTER:                  -5.155
REMARK INTRA:                  -0.404
REMARK UNBOUND:                -0.525
REMARK SMILES CCCCCCCCC(=O)[O-]
REMARK SMILES IDX 6 1 7 2 8 3 9 4 10 5 11 6 5 7 4 8 3 9 2 10 1 11
REMARK H PARENT
REMARK Flexibility Score: inf
ROOT
ATOM      1  C   UNL     1      34.624  76.019   8.950  1.00  0.00     0.000 C 
ENDROOT
BRANCH   1   2
ATOM      2  C   UNL     1      35.313  75.696   7.614  1.00  0.00     0.006 C 
BRANCH   2   3
ATOM      3  C   UNL     1      36.719  75.112   7.816  1.00  0.00     0.053 C 
BRANCH   3   4
ATOM      4  C   UNL     1      37.028  74.051   6.804  1.00  0.00     0.041 C 
ATOM      5  O   UNL     1      38.211  73.651   6.647  1.00  0.00    -0.550 OA
ATOM      6  O   UNL     1      36.004  73.480   6.060  1.00  0.00    -0.550 OA
ENDBRANCH   3   4
ENDBRANCH   2   3
ENDBRANCH   1   2
BRANCH   1   7
ATOM      7  C   UNL     1      35.529  75.747  10.162  1.00  0.00     0.000 C 
BRANCH   7   8
ATOM      8  C   UNL     1      35.726  76.994  11.043  1.00  0.00    -0.000 C 
BRANCH   8   9
ATOM      9  C   UNL     1      34.661  78.072  10.786  1.00  0.00    -0.000 C 
BRANCH   9  10
ATOM     10  C   UNL     1      33.541  78.057  11.837  1.00  0.00    -0.003 C 
ATOM     11  C   UNL     1      32.313  78.818  11.343  1.00  0.00     0.004 C 
ENDBRANCH   9  10
ENDBRANCH   8   9
ENDBRANCH   7   8
ENDBRANCH   1   7
TORSDOF 7
ENDMDL
MODEL 9
REMARK VINA RESULT:    -3.546      1.945      2.944
REMARK INTER + INTRA:          -5.522
REMARK INTER:                  -5.176
REMARK INTRA:                  -0.346
REMARK UNBOUND:                -0.525
REMARK SMILES CCCCCCCCC(=O)[O-]
REMARK SMILES IDX 6 1 7 2 8 3 9 4 10 5 11 6 5 7 4 8 3 9 2 10 1 11
REMARK H PARENT
REMARK Flexibility Score: inf
ROOT
ATOM      1  C   UNL     1      35.292  77.256  11.097  1.00  0.00     0.000 C 
ENDROOT
BRANCH   1   2
ATOM      2  C   UNL     1      35.961  76.239  10.157  1.00  0.00     0.006 C 
BRANCH   2   3
ATOM      3  C   UNL     1      35.184  76.068   8.844  1.00  0.00     0.053 C 
BRANCH   3   4
ATOM      4  C   UNL     1      35.932  75.215   7.865  1.00  0.00     0.041 C 
ATOM      5  O   UNL     1      37.169  75.029   8.002  1.00  0.00    -0.550 OA
ATOM      6  O   UNL     1      35.255  74.599   6.820  1.00  0.00    -0.550 OA
ENDBRANCH   3   4
ENDBRANCH   2   3
ENDBRANCH   1   2
BRANCH   1   7
ATOM      7  C   UNL     1      34.277  78.152  10.370  1.00  0.00     0.000 C 
BRANCH   7   8
ATOM      8  C   UNL     1      33.108  78.577  11.276  1.00  0.00    -0.000 C 
BRANCH   8   9
ATOM      9  C   UNL     1      33.095  77.822  12.615  1.00  0.00    -0.000 C 
BRANCH   9  10
ATOM     10  C   UNL     1      32.375  78.602  13.725  1.00  0.00    -0.003 C 
ATOM     11  C   UNL     1      33.277  78.786  14.942  1.00  0.00     0.004 C 
ENDBRANCH   9  10
ENDBRANCH   8   9
ENDBRANCH   7   8
ENDBRANCH   1   7
TORSDOF 7
ENDMDL
