MODEL 1
REMARK VINA RESULT:    -7.501      0.000      0.000
REMARK INTER + INTRA:          -9.409
REMARK INTER:                  -9.036
REMARK INTRA:                  -0.373
REMARK UNBOUND:                -0.373
REMARK SMILES Oc1cc(O)c2c(c1)O[C@@H](c1ccc(O)c(O)c1)[C@H](O)C2
REMARK SMILES IDX 21 1 19 2 10 3 9 4 7 5 8 6 2 7 3 8 4 9 6 10 20 11 11 13
REMARK SMILES IDX 18 14 12 15 16 16 13 17 14 18 17 19 15 21 5 23 1 25
REMARK H PARENT 20 12 17 20 15 22 5 24 1 26
REMARK Flexibility Score: inf
ROOT
ATOM      1  C   UNL     1     -34.125  -4.104 -17.797  1.00  0.00     0.079 C 
ATOM      2  C   UNL     1     -35.224  -4.772 -18.640  1.00  0.00     0.164 C 
ATOM      3  C   UNL     1     -35.648  -3.831 -19.785  1.00  0.00     0.232 C 
ATOM      4  O   UNL     1     -34.509  -3.485 -20.573  1.00  0.00    -0.482 OA
ATOM      5  C   UNL     1     -33.254  -3.243 -20.007  1.00  0.00     0.131 A 
ATOM      6  C   UNL     1     -32.234  -2.731 -20.813  1.00  0.00     0.093 A 
ATOM      7  C   UNL     1     -30.974  -2.466 -20.273  1.00  0.00     0.122 A 
ATOM      8  C   UNL     1     -30.735  -2.704 -18.915  1.00  0.00     0.092 A 
ATOM      9  C   UNL     1     -31.746  -3.216 -18.093  1.00  0.00     0.126 A 
ATOM     10  C   UNL     1     -33.010  -3.528 -18.646  1.00  0.00     0.039 A 
ENDROOT
BRANCH   2  11
ATOM     11  O   UNL     1     -36.322  -5.059 -17.810  1.00  0.00    -0.389 OA
ATOM     12  H   UNL     1     -36.126  -4.658 -16.923  1.00  0.00     0.211 HD
ENDBRANCH   2  11
BRANCH   3  13
ATOM     13  C   UNL     1     -36.693  -4.474 -20.668  1.00  0.00    -0.001 A 
ATOM     14  C   UNL     1     -36.420  -5.691 -21.315  1.00  0.00     0.057 A 
ATOM     15  C   UNL     1     -37.927  -3.841 -20.891  1.00  0.00     0.012 A 
ATOM     16  C   UNL     1     -37.371  -6.278 -22.158  1.00  0.00     0.157 A 
ATOM     17  C   UNL     1     -38.879  -4.425 -21.730  1.00  0.00     0.050 A 
ATOM     18  C   UNL     1     -38.607  -5.644 -22.366  1.00  0.00     0.157 A 
BRANCH  16  19
ATOM     19  O   UNL     1     -37.068  -7.490 -22.780  1.00  0.00    -0.504 OA
ATOM     20  H   UNL     1     -37.218  -7.637 -23.771  1.00  0.00     0.293 HD
ENDBRANCH  16  19
BRANCH  18  21
ATOM     21  O   UNL     1     -39.559  -6.225 -23.202  1.00  0.00    -0.504 OA
ATOM     22  H   UNL     1     -39.899  -7.167 -23.046  1.00  0.00     0.293 HD
ENDBRANCH  18  21
ENDBRANCH   3  13
BRANCH   9  23
ATOM     23  O   UNL     1     -31.463  -3.389 -16.736  1.00  0.00    -0.507 OA
ATOM     24  H   UNL     1     -30.529  -3.336 -16.351  1.00  0.00     0.293 HD
ENDBRANCH   9  23
BRANCH   7  25
ATOM     25  O   UNL     1     -29.969  -1.957 -21.093  1.00  0.00    -0.508 OA
ATOM     26  H   UNL     1     -30.107  -1.840 -22.091  1.00  0.00     0.293 HD
ENDBRANCH   7  25
TORSDOF 6
ENDMDL
MODEL 2
REMARK VINA RESULT:    -7.409      3.580      6.873
REMARK INTER + INTRA:          -9.297
REMARK INTER:                  -8.933
REMARK INTRA:                  -0.365
REMARK UNBOUND:                -0.373
REMARK SMILES Oc1cc(O)c2c(c1)O[C@@H](c1ccc(O)c(O)c1)[C@H](O)C2
REMARK SMILES IDX 21 1 19 2 10 3 9 4 7 5 8 6 2 7 3 8 4 9 6 10 20 11 11 13
REMARK SMILES IDX 18 14 12 15 16 16 13 17 14 18 17 19 15 21 5 23 1 25
REMARK H PARENT 20 12 17 20 15 22 5 24 1 26
REMARK Flexibility Score: inf
ROOT
ATOM      1  C   UNL     1     -36.804  -3.297 -14.885  1.00  0.00     0.079 C 
ATOM      2  C   UNL     1     -36.156  -2.994 -16.247  1.00  0.00     0.164 C 
ATOM      3  C   UNL     1     -35.012  -3.993 -16.515  1.00  0.00     0.232 C 
ATOM      4  O   UNL     1     -35.512  -5.328 -16.448  1.00  0.00    -0.482 OA
ATOM      5  C   UNL     1     -36.469  -5.723 -15.508  1.00  0.00     0.131 A 
ATOM      6  C   UNL     1     -36.774  -7.081 -15.379  1.00  0.00     0.093 A 
ATOM      7  C   UNL     1     -37.715  -7.506 -14.440  1.00  0.00     0.122 A 
ATOM      8  C   UNL     1     -38.349  -6.569 -13.616  1.00  0.00     0.092 A 
ATOM      9  C   UNL     1     -38.055  -5.205 -13.731  1.00  0.00     0.126 A 
ATOM     10  C   UNL     1     -37.134  -4.765 -14.712  1.00  0.00     0.039 A 
ENDROOT
BRANCH   2  11
ATOM     11  O   UNL     1     -35.664  -1.678 -16.233  1.00  0.00    -0.389 OA
ATOM     12  H   UNL     1     -35.349  -1.477 -17.154  1.00  0.00     0.211 HD
ENDBRANCH   2  11
BRANCH   3  13
ATOM     13  C   UNL     1     -34.383  -3.759 -17.869  1.00  0.00    -0.001 A 
ATOM     14  C   UNL     1     -33.012  -3.472 -17.972  1.00  0.00     0.057 A 
ATOM     15  C   UNL     1     -35.169  -3.778 -19.033  1.00  0.00     0.012 A 
ATOM     16  C   UNL     1     -32.428  -3.226 -19.220  1.00  0.00     0.157 A 
ATOM     17  C   UNL     1     -34.589  -3.534 -20.280  1.00  0.00     0.050 A 
ATOM     18  C   UNL     1     -33.219  -3.258 -20.381  1.00  0.00     0.157 A 
BRANCH  16  19
ATOM     19  O   UNL     1     -31.062  -2.949 -19.286  1.00  0.00    -0.504 OA
ATOM     20  H   UNL     1     -30.706  -2.001 -19.309  1.00  0.00     0.293 HD
ENDBRANCH  16  19
BRANCH  18  21
ATOM     21  O   UNL     1     -32.642  -3.016 -21.627  1.00  0.00    -0.504 OA
ATOM     22  H   UNL     1     -32.887  -2.199 -22.175  1.00  0.00     0.293 HD
ENDBRANCH  18  21
ENDBRANCH   3  13
BRANCH   9  23
ATOM     23  O   UNL     1     -38.684  -4.321 -12.851  1.00  0.00    -0.507 OA
ATOM     24  H   UNL     1     -38.898  -3.361 -13.085  1.00  0.00     0.293 HD
ENDBRANCH   9  23
BRANCH   7  25
ATOM     25  O   UNL     1     -38.008  -8.864 -14.328  1.00  0.00    -0.508 OA
ATOM     26  H   UNL     1     -37.578  -9.550 -14.937  1.00  0.00     0.293 HD
ENDBRANCH   7  25
TORSDOF 6
ENDMDL
MODEL 3
REMARK VINA RESULT:    -7.360      3.653      6.801
REMARK INTER + INTRA:          -9.239
REMARK INTER:                  -9.121
REMARK INTRA:                  -0.117
REMARK UNBOUND:                -0.373
REMARK SMILES Oc1cc(O)c2c(c1)O[C@@H](c1ccc(O)c(O)c1)[C@H](O)C2
REMARK SMILES IDX 21 1 19 2 10 3 9 4 7 5 8 6 2 7 3 8 4 9 6 10 20 11 11 13
REMARK SMILES IDX 18 14 12 15 16 16 13 17 14 18 17 19 15 21 5 23 1 25
REMARK H PARENT 20 12 17 20 15 22 5 24 1 26
REMARK Flexibility Score: inf
ROOT
ATOM      1  C   UNL     1     -37.068  -3.863 -14.990  1.00  0.00     0.079 C 
ATOM      2  C   UNL     1     -36.345  -3.523 -16.305  1.00  0.00     0.164 C 
ATOM      3  C   UNL     1     -35.409  -4.682 -16.702  1.00  0.00     0.232 C 
ATOM      4  O   UNL     1     -36.157  -5.894 -16.803  1.00  0.00    -0.482 OA
ATOM      5  C   UNL     1     -37.192  -6.210 -15.917  1.00  0.00     0.131 A 
ATOM      6  C   UNL     1     -37.755  -7.489 -15.961  1.00  0.00     0.093 A 
ATOM      7  C   UNL     1     -38.779  -7.838 -15.079  1.00  0.00     0.122 A 
ATOM      8  C   UNL     1     -39.238  -6.908 -14.141  1.00  0.00     0.092 A 
ATOM      9  C   UNL     1     -38.686  -5.623 -14.083  1.00  0.00     0.126 A 
ATOM     10  C   UNL     1     -37.677  -5.250 -15.003  1.00  0.00     0.039 A 
ENDROOT
BRANCH   2  11
ATOM     11  O   UNL     1     -35.610  -2.338 -16.126  1.00  0.00    -0.389 OA
ATOM     12  H   UNL     1     -35.760  -1.781 -16.934  1.00  0.00     0.211 HD
ENDBRANCH   2  11
BRANCH   3  13
ATOM     13  C   UNL     1     -34.719  -4.406 -18.018  1.00  0.00    -0.001 A 
ATOM     14  C   UNL     1     -35.172  -5.023 -19.196  1.00  0.00     0.057 A 
ATOM     15  C   UNL     1     -33.591  -3.572 -18.070  1.00  0.00     0.012 A 
ATOM     16  C   UNL     1     -34.520  -4.796 -20.414  1.00  0.00     0.157 A 
ATOM     17  C   UNL     1     -32.939  -3.342 -19.285  1.00  0.00     0.050 A 
ATOM     18  C   UNL     1     -33.399  -3.951 -20.460  1.00  0.00     0.157 A 
BRANCH  16  19
ATOM     19  O   UNL     1     -35.000  -5.420 -21.565  1.00  0.00    -0.504 OA
ATOM     20  H   UNL     1     -35.310  -4.893 -22.373  1.00  0.00     0.293 HD
ENDBRANCH  16  19
BRANCH  18  21
ATOM     21  O   UNL     1     -32.747  -3.719 -21.670  1.00  0.00    -0.504 OA
ATOM     22  H   UNL     1     -31.735  -3.714 -21.736  1.00  0.00     0.293 HD
ENDBRANCH  18  21
ENDBRANCH   3  13
BRANCH   9  23
ATOM     23  O   UNL     1     -39.151  -4.752 -13.095  1.00  0.00    -0.507 OA
ATOM     24  H   UNL     1     -38.989  -3.754 -13.112  1.00  0.00     0.293 HD
ENDBRANCH   9  23
BRANCH   7  25
ATOM     25  O   UNL     1     -39.329  -9.118 -15.139  1.00  0.00    -0.508 OA
ATOM     26  H   UNL     1     -39.537  -9.645 -14.299  1.00  0.00     0.293 HD
ENDBRANCH   7  25
TORSDOF 6
ENDMDL
MODEL 4
REMARK VINA RESULT:    -7.310      7.409     10.272
REMARK INTER + INTRA:          -9.178
REMARK INTER:                  -8.807
REMARK INTRA:                  -0.371
REMARK UNBOUND:                -0.373
REMARK SMILES Oc1cc(O)c2c(c1)O[C@@H](c1ccc(O)c(O)c1)[C@H](O)C2
REMARK SMILES IDX 21 1 19 2 10 3 9 4 7 5 8 6 2 7 3 8 4 9 6 10 20 11 11 13
REMARK SMILES IDX 18 14 12 15 16 16 13 17 14 18 17 19 15 21 5 23 1 25
REMARK H PARENT 20 12 17 20 15 22 5 24 1 26
REMARK Flexibility Score: inf
ROOT
ATOM      1  C   UNL     1     -36.003  -6.325 -13.946  1.00  0.00     0.079 C 
ATOM      2  C   UNL     1     -36.048  -5.165 -12.937  1.00  0.00     0.164 C 
ATOM      3  C   UNL     1     -37.315  -4.318 -13.171  1.00  0.00     0.232 C 
ATOM      4  O   UNL     1     -38.474  -5.147 -13.082  1.00  0.00    -0.482 OA
ATOM      5  C   UNL     1     -38.501  -6.452 -13.585  1.00  0.00     0.131 A 
ATOM      6  C   UNL     1     -39.718  -7.136 -13.630  1.00  0.00     0.093 A 
ATOM      7  C   UNL     1     -39.779  -8.434 -14.140  1.00  0.00     0.122 A 
ATOM      8  C   UNL     1     -38.617  -9.049 -14.619  1.00  0.00     0.092 A 
ATOM      9  C   UNL     1     -37.389  -8.378 -14.582  1.00  0.00     0.126 A 
ATOM     10  C   UNL     1     -37.315  -7.079 -14.025  1.00  0.00     0.039 A 
ENDROOT
BRANCH   2  11
ATOM     11  O   UNL     1     -34.895  -4.378 -13.098  1.00  0.00    -0.389 OA
ATOM     12  H   UNL     1     -34.930  -3.669 -12.403  1.00  0.00     0.211 HD
ENDBRANCH   2  11
BRANCH   3  13
ATOM     13  C   UNL     1     -37.421  -3.197 -12.163  1.00  0.00    -0.001 A 
ATOM     14  C   UNL     1     -37.389  -1.858 -12.588  1.00  0.00     0.057 A 
ATOM     15  C   UNL     1     -37.504  -3.478 -10.789  1.00  0.00     0.012 A 
ATOM     16  C   UNL     1     -37.457  -0.814 -11.658  1.00  0.00     0.157 A 
ATOM     17  C   UNL     1     -37.574  -2.438  -9.859  1.00  0.00     0.050 A 
ATOM     18  C   UNL     1     -37.552  -1.104 -10.287  1.00  0.00     0.157 A 
BRANCH  16  19
ATOM     19  O   UNL     1     -37.428   0.503 -12.116  1.00  0.00    -0.504 OA
ATOM     20  H   UNL     1     -38.244   1.101 -12.084  1.00  0.00     0.293 HD
ENDBRANCH  16  19
BRANCH  18  21
ATOM     21  O   UNL     1     -37.623  -0.069  -9.357  1.00  0.00    -0.504 OA
ATOM     22  H   UNL     1     -37.415   0.890  -9.612  1.00  0.00     0.293 HD
ENDBRANCH  18  21
ENDBRANCH   3  13
BRANCH   9  23
ATOM     23  O   UNL     1     -36.272  -9.023 -15.117  1.00  0.00    -0.507 OA
ATOM     24  H   UNL     1     -35.551  -8.545 -15.642  1.00  0.00     0.293 HD
ENDBRANCH   9  23
BRANCH   7  25
ATOM     25  O   UNL     1     -41.002  -9.102 -14.174  1.00  0.00    -0.508 OA
ATOM     26  H   UNL     1     -41.390  -9.539 -13.346  1.00  0.00     0.293 HD
ENDBRANCH   7  25
TORSDOF 6
ENDMDL
MODEL 5
REMARK VINA RESULT:    -7.261      2.887      6.710
REMARK INTER + INTRA:          -9.119
REMARK INTER:                  -9.054
REMARK INTRA:                  -0.065
REMARK UNBOUND:                -0.373
REMARK SMILES Oc1cc(O)c2c(c1)O[C@@H](c1ccc(O)c(O)c1)[C@H](O)C2
REMARK SMILES IDX 21 1 19 2 10 3 9 4 7 5 8 6 2 7 3 8 4 9 6 10 20 11 11 13
REMARK SMILES IDX 18 14 12 15 16 16 13 17 14 18 17 19 15 21 5 23 1 25
REMARK H PARENT 20 12 17 20 15 22 5 24 1 26
REMARK Flexibility Score: inf
ROOT
ATOM      1  C   UNL     1     -36.744  -5.769 -17.665  1.00  0.00     0.079 C 
ATOM      2  C   UNL     1     -35.462  -5.334 -18.394  1.00  0.00     0.164 C 
ATOM      3  C   UNL     1     -35.099  -3.890 -17.997  1.00  0.00     0.232 C 
ATOM      4  O   UNL     1     -34.962  -3.799 -16.579  1.00  0.00    -0.482 OA
ATOM      5  C   UNL     1     -35.803  -4.489 -15.700  1.00  0.00     0.131 A 
ATOM      6  C   UNL     1     -35.731  -4.210 -14.332  1.00  0.00     0.093 A 
ATOM      7  C   UNL     1     -36.568  -4.873 -13.433  1.00  0.00     0.122 A 
ATOM      8  C   UNL     1     -37.491  -5.814 -13.904  1.00  0.00     0.092 A 
ATOM      9  C   UNL     1     -37.577  -6.105 -15.271  1.00  0.00     0.126 A 
ATOM     10  C   UNL     1     -36.700  -5.467 -16.181  1.00  0.00     0.039 A 
ENDROOT
BRANCH   2  11
ATOM     11  O   UNL     1     -35.676  -5.422 -19.781  1.00  0.00    -0.389 OA
ATOM     12  H   UNL     1     -35.001  -4.836 -20.215  1.00  0.00     0.211 HD
ENDBRANCH   2  11
BRANCH   3  13
ATOM     13  C   UNL     1     -33.813  -3.444 -18.655  1.00  0.00    -0.001 A 
ATOM     14  C   UNL     1     -33.806  -3.066 -20.008  1.00  0.00     0.057 A 
ATOM     15  C   UNL     1     -32.606  -3.448 -17.937  1.00  0.00     0.012 A 
ATOM     16  C   UNL     1     -32.613  -2.680 -20.632  1.00  0.00     0.157 A 
ATOM     17  C   UNL     1     -31.415  -3.061 -18.557  1.00  0.00     0.050 A 
ATOM     18  C   UNL     1     -31.412  -2.676 -19.904  1.00  0.00     0.157 A 
BRANCH  16  19
ATOM     19  O   UNL     1     -32.643  -2.307 -21.976  1.00  0.00    -0.504 OA
ATOM     20  H   UNL     1     -31.806  -2.279 -22.545  1.00  0.00     0.293 HD
ENDBRANCH  16  19
BRANCH  18  21
ATOM     21  O   UNL     1     -30.223  -2.290 -20.520  1.00  0.00    -0.504 OA
ATOM     22  H   UNL     1     -29.384  -2.102 -19.983  1.00  0.00     0.293 HD
ENDBRANCH  18  21
ENDBRANCH   3  13
BRANCH   9  23
ATOM     23  O   UNL     1     -38.548  -7.017 -15.688  1.00  0.00    -0.507 OA
ATOM     24  H   UNL     1     -39.539  -6.815 -15.686  1.00  0.00     0.293 HD
ENDBRANCH   9  23
BRANCH   7  25
ATOM     25  O   UNL     1     -36.480  -4.583 -12.072  1.00  0.00    -0.508 OA
ATOM     26  H   UNL     1     -36.221  -5.292 -11.396  1.00  0.00     0.293 HD
ENDBRANCH   7  25
TORSDOF 6
ENDMDL
MODEL 6
REMARK VINA RESULT:    -6.885      5.239      7.713
REMARK INTER + INTRA:          -8.667
REMARK INTER:                  -8.382
REMARK INTRA:                  -0.285
REMARK UNBOUND:                -0.373
REMARK SMILES Oc1cc(O)c2c(c1)O[C@@H](c1ccc(O)c(O)c1)[C@H](O)C2
REMARK SMILES IDX 21 1 19 2 10 3 9 4 7 5 8 6 2 7 3 8 4 9 6 10 20 11 11 13
REMARK SMILES IDX 18 14 12 15 16 16 13 17 14 18 17 19 15 21 5 23 1 25
REMARK H PARENT 20 12 17 20 15 22 5 24 1 26
REMARK Flexibility Score: inf
ROOT
ATOM      1  C   UNL     1     -39.297  -6.035 -14.572  1.00  0.00     0.079 C 
ATOM      2  C   UNL     1     -38.313  -5.737 -15.716  1.00  0.00     0.164 C 
ATOM      3  C   UNL     1     -38.389  -4.245 -16.095  1.00  0.00     0.232 C 
ATOM      4  O   UNL     1     -38.127  -3.440 -14.945  1.00  0.00    -0.482 OA
ATOM      5  C   UNL     1     -38.597  -3.780 -13.673  1.00  0.00     0.131 A 
ATOM      6  C   UNL     1     -38.463  -2.857 -12.631  1.00  0.00     0.093 A 
ATOM      7  C   UNL     1     -38.935  -3.162 -11.354  1.00  0.00     0.122 A 
ATOM      8  C   UNL     1     -39.556  -4.394 -11.117  1.00  0.00     0.092 A 
ATOM      9  C   UNL     1     -39.699  -5.329 -12.148  1.00  0.00     0.126 A 
ATOM     10  C   UNL     1     -39.182  -5.042 -13.434  1.00  0.00     0.039 A 
ENDROOT
BRANCH   2  11
ATOM     11  O   UNL     1     -38.644  -6.541 -16.821  1.00  0.00    -0.389 OA
ATOM     12  H   UNL     1     -37.959  -6.370 -17.519  1.00  0.00     0.211 HD
ENDBRANCH   2  11
BRANCH   3  13
ATOM     13  C   UNL     1     -37.398  -3.902 -17.183  1.00  0.00    -0.001 A 
ATOM     14  C   UNL     1     -37.812  -3.843 -18.525  1.00  0.00     0.057 A 
ATOM     15  C   UNL     1     -36.044  -3.686 -16.874  1.00  0.00     0.012 A 
ATOM     16  C   UNL     1     -36.893  -3.555 -19.541  1.00  0.00     0.157 A 
ATOM     17  C   UNL     1     -35.126  -3.397 -17.886  1.00  0.00     0.050 A 
ATOM     18  C   UNL     1     -35.544  -3.329 -19.222  1.00  0.00     0.157 A 
BRANCH  16  19
ATOM     19  O   UNL     1     -37.341  -3.499 -20.861  1.00  0.00    -0.504 OA
ATOM     20  H   UNL     1     -38.296  -3.254 -21.095  1.00  0.00     0.293 HD
ENDBRANCH  16  19
BRANCH  18  21
ATOM     21  O   UNL     1     -34.626  -3.040 -20.230  1.00  0.00    -0.504 OA
ATOM     22  H   UNL     1     -34.189  -3.773 -20.777  1.00  0.00     0.293 HD
ENDBRANCH  18  21
ENDBRANCH   3  13
BRANCH   9  23
ATOM     23  O   UNL     1     -40.369  -6.522 -11.864  1.00  0.00    -0.507 OA
ATOM     24  H   UNL     1     -40.169  -7.093 -11.053  1.00  0.00     0.293 HD
ENDBRANCH   9  23
BRANCH   7  25
ATOM     25  O   UNL     1     -38.790  -2.230 -10.328  1.00  0.00    -0.508 OA
ATOM     26  H   UNL     1     -38.208  -2.419  -9.520  1.00  0.00     0.293 HD
ENDBRANCH   7  25
TORSDOF 6
ENDMDL
MODEL 7
REMARK VINA RESULT:    -6.866      2.809      4.590
REMARK INTER + INTRA:          -8.643
REMARK INTER:                  -8.279
REMARK INTRA:                  -0.364
REMARK UNBOUND:                -0.373
REMARK SMILES Oc1cc(O)c2c(c1)O[C@@H](c1ccc(O)c(O)c1)[C@H](O)C2
REMARK SMILES IDX 21 1 19 2 10 3 9 4 7 5 8 6 2 7 3 8 4 9 6 10 20 11 11 13
REMARK SMILES IDX 18 14 12 15 16 16 13 17 14 18 17 19 15 21 5 23 1 25
REMARK H PARENT 20 12 17 20 15 22 5 24 1 26
REMARK Flexibility Score: inf
ROOT
ATOM      1  C   UNL     1     -35.274  -3.479 -20.127  1.00  0.00     0.079 C 
ATOM      2  C   UNL     1     -36.323  -3.704 -19.025  1.00  0.00     0.164 C 
ATOM      3  C   UNL     1     -35.840  -4.807 -18.061  1.00  0.00     0.232 C 
ATOM      4  O   UNL     1     -34.568  -4.452 -17.521  1.00  0.00    -0.482 OA
ATOM      5  C   UNL     1     -33.579  -3.823 -18.284  1.00  0.00     0.131 A 
ATOM      6  C   UNL     1     -32.298  -3.673 -17.745  1.00  0.00     0.093 A 
ATOM      7  C   UNL     1     -31.288  -3.061 -18.489  1.00  0.00     0.122 A 
ATOM      8  C   UNL     1     -31.556  -2.604 -19.784  1.00  0.00     0.092 A 
ATOM      9  C   UNL     1     -32.833  -2.746 -20.340  1.00  0.00     0.126 A 
ATOM     10  C   UNL     1     -33.872  -3.326 -19.573  1.00  0.00     0.039 A 
ENDROOT
BRANCH   2  11
ATOM     11  O   UNL     1     -37.539  -4.075 -19.624  1.00  0.00    -0.389 OA
ATOM     12  H   UNL     1     -37.798  -3.335 -20.234  1.00  0.00     0.211 HD
ENDBRANCH   2  11
BRANCH   3  13
ATOM     13  C   UNL     1     -36.823  -5.021 -16.933  1.00  0.00    -0.001 A 
ATOM     14  C   UNL     1     -37.397  -6.287 -16.726  1.00  0.00     0.057 A 
ATOM     15  C   UNL     1     -37.210  -3.950 -16.111  1.00  0.00     0.012 A 
ATOM     16  C   UNL     1     -38.330  -6.486 -15.702  1.00  0.00     0.157 A 
ATOM     17  C   UNL     1     -38.140  -4.146 -15.087  1.00  0.00     0.050 A 
ATOM     18  C   UNL     1     -38.703  -5.412 -14.877  1.00  0.00     0.157 A 
BRANCH  16  19
ATOM     19  O   UNL     1     -38.876  -7.757 -15.522  1.00  0.00    -0.504 OA
ATOM     20  H   UNL     1     -39.857  -7.949 -15.684  1.00  0.00     0.293 HD
ENDBRANCH  16  19
BRANCH  18  21
ATOM     21  O   UNL     1     -39.630  -5.605 -13.854  1.00  0.00    -0.504 OA
ATOM     22  H   UNL     1     -39.720  -4.948 -13.088  1.00  0.00     0.293 HD
ENDBRANCH  18  21
ENDBRANCH   3  13
BRANCH   9  23
ATOM     23  O   UNL     1     -33.030  -2.314 -21.653  1.00  0.00    -0.507 OA
ATOM     24  H   UNL     1     -33.720  -1.622 -21.914  1.00  0.00     0.293 HD
ENDBRANCH   9  23
BRANCH   7  25
ATOM     25  O   UNL     1     -30.017  -2.919 -17.934  1.00  0.00    -0.508 OA
ATOM     26  H   UNL     1     -29.866  -2.379 -17.090  1.00  0.00     0.293 HD
ENDBRANCH   7  25
TORSDOF 6
ENDMDL
MODEL 8
REMARK VINA RESULT:    -6.727      3.763      5.768
REMARK INTER + INTRA:          -8.476
REMARK INTER:                  -8.099
REMARK INTRA:                  -0.377
REMARK UNBOUND:                -0.373
REMARK SMILES Oc1cc(O)c2c(c1)O[C@@H](c1ccc(O)c(O)c1)[C@H](O)C2
REMARK SMILES IDX 21 1 19 2 10 3 9 4 7 5 8 6 2 7 3 8 4 9 6 10 20 11 11 13
REMARK SMILES IDX 18 14 12 15 16 16 13 17 14 18 17 19 15 21 5 23 1 25
REMARK H PARENT 20 12 17 20 15 22 5 24 1 26
REMARK Flexibility Score: inf
ROOT
ATOM      1  C   UNL     1     -34.370  -3.805 -17.154  1.00  0.00     0.079 C 
ATOM      2  C   UNL     1     -35.226  -4.463 -16.059  1.00  0.00     0.164 C 
ATOM      3  C   UNL     1     -36.706  -4.476 -16.489  1.00  0.00     0.232 C 
ATOM      4  O   UNL     1     -36.838  -5.146 -17.743  1.00  0.00    -0.482 OA
ATOM      5  C   UNL     1     -35.897  -5.008 -18.768  1.00  0.00     0.131 A 
ATOM      6  C   UNL     1     -36.183  -5.543 -20.027  1.00  0.00     0.093 A 
ATOM      7  C   UNL     1     -35.269  -5.408 -21.074  1.00  0.00     0.122 A 
ATOM      8  C   UNL     1     -34.066  -4.726 -20.864  1.00  0.00     0.092 A 
ATOM      9  C   UNL     1     -33.763  -4.184 -19.609  1.00  0.00     0.126 A 
ATOM     10  C   UNL     1     -34.667  -4.356 -18.534  1.00  0.00     0.039 A 
ENDROOT
BRANCH   2  11
ATOM     11  O   UNL     1     -35.069  -3.739 -14.864  1.00  0.00    -0.389 OA
ATOM     12  H   UNL     1     -34.575  -4.326 -14.233  1.00  0.00     0.211 HD
ENDBRANCH   2  11
BRANCH   3  13
ATOM     13  C   UNL     1     -37.573  -5.161 -15.459  1.00  0.00    -0.001 A 
ATOM     14  C   UNL     1     -37.445  -6.542 -15.232  1.00  0.00     0.057 A 
ATOM     15  C   UNL     1     -38.549  -4.439 -14.754  1.00  0.00     0.012 A 
ATOM     16  C   UNL     1     -38.265  -7.190 -14.301  1.00  0.00     0.157 A 
ATOM     17  C   UNL     1     -39.368  -5.082 -13.822  1.00  0.00     0.050 A 
ATOM     18  C   UNL     1     -39.231  -6.457 -13.591  1.00  0.00     0.157 A 
BRANCH  16  19
ATOM     19  O   UNL     1     -38.106  -8.561 -14.097  1.00  0.00    -0.504 OA
ATOM     20  H   UNL     1     -38.874  -9.213 -14.204  1.00  0.00     0.293 HD
ENDBRANCH  16  19
BRANCH  18  21
ATOM     21  O   UNL     1     -40.049  -7.096 -12.661  1.00  0.00    -0.504 OA
ATOM     22  H   UNL     1     -40.612  -7.900 -12.912  1.00  0.00     0.293 HD
ENDBRANCH  18  21
ENDBRANCH   3  13
BRANCH   9  23
ATOM     23  O   UNL     1     -32.569  -3.474 -19.471  1.00  0.00    -0.507 OA
ATOM     24  H   UNL     1     -32.155  -2.930 -20.218  1.00  0.00     0.293 HD
ENDBRANCH   9  23
BRANCH   7  25
ATOM     25  O   UNL     1     -35.571  -5.950 -22.322  1.00  0.00    -0.508 OA
ATOM     26  H   UNL     1     -34.987  -6.662 -22.746  1.00  0.00     0.293 HD
ENDBRANCH   7  25
TORSDOF 6
ENDMDL
MODEL 9
REMARK VINA RESULT:    -6.717      3.909      6.267
REMARK INTER + INTRA:          -8.464
REMARK INTER:                  -8.155
REMARK INTRA:                  -0.309
REMARK UNBOUND:                -0.373
REMARK SMILES Oc1cc(O)c2c(c1)O[C@@H](c1ccc(O)c(O)c1)[C@H](O)C2
REMARK SMILES IDX 21 1 19 2 10 3 9 4 7 5 8 6 2 7 3 8 4 9 6 10 20 11 11 13
REMARK SMILES IDX 18 14 12 15 16 16 13 17 14 18 17 19 15 21 5 23 1 25
REMARK H PARENT 20 12 17 20 15 22 5 24 1 26
REMARK Flexibility Score: inf
ROOT
ATOM      1  C   UNL     1     -36.908  -5.376 -14.748  1.00  0.00     0.079 C 
ATOM      2  C   UNL     1     -36.002  -5.497 -15.985  1.00  0.00     0.164 C 
ATOM      3  C   UNL     1     -36.392  -4.428 -17.025  1.00  0.00     0.232 C 
ATOM      4  O   UNL     1     -36.317  -3.130 -16.436  1.00  0.00    -0.482 OA
ATOM      5  C   UNL     1     -36.714  -2.884 -15.117  1.00  0.00     0.131 A 
ATOM      6  C   UNL     1     -36.788  -1.563 -14.667  1.00  0.00     0.093 A 
ATOM      7  C   UNL     1     -37.195  -1.285 -13.361  1.00  0.00     0.122 A 
ATOM      8  C   UNL     1     -37.540  -2.334 -12.501  1.00  0.00     0.092 A 
ATOM      9  C   UNL     1     -37.471  -3.663 -12.936  1.00  0.00     0.126 A 
ATOM     10  C   UNL     1     -37.018  -3.951 -14.245  1.00  0.00     0.039 A 
ENDROOT
BRANCH   2  11
ATOM     11  O   UNL     1     -36.144  -6.785 -16.528  1.00  0.00    -0.389 OA
ATOM     12  H   UNL     1     -35.252  -7.055 -16.872  1.00  0.00     0.211 HD
ENDBRANCH   2  11
BRANCH   3  13
ATOM     13  C   UNL     1     -35.488  -4.482 -18.235  1.00  0.00    -0.001 A 
ATOM     14  C   UNL     1     -34.243  -3.832 -18.218  1.00  0.00     0.057 A 
ATOM     15  C   UNL     1     -35.902  -5.139 -19.406  1.00  0.00     0.012 A 
ATOM     16  C   UNL     1     -33.413  -3.852 -19.346  1.00  0.00     0.157 A 
ATOM     17  C   UNL     1     -35.075  -5.163 -20.532  1.00  0.00     0.050 A 
ATOM     18  C   UNL     1     -33.829  -4.522 -20.508  1.00  0.00     0.157 A 
BRANCH  16  19
ATOM     19  O   UNL     1     -32.181  -3.200 -19.291  1.00  0.00    -0.504 OA
ATOM     20  H   UNL     1     -31.361  -3.634 -18.882  1.00  0.00     0.293 HD
ENDBRANCH  16  19
BRANCH  18  21
ATOM     21  O   UNL     1     -33.007  -4.547 -21.633  1.00  0.00    -0.504 OA
ATOM     22  H   UNL     1     -33.326  -4.206 -22.532  1.00  0.00     0.293 HD
ENDBRANCH  18  21
ENDBRANCH   3  13
BRANCH   9  23
ATOM     23  O   UNL     1     -37.873  -4.665 -12.049  1.00  0.00    -0.507 OA
ATOM     24  H   UNL     1     -38.080  -5.612 -12.337  1.00  0.00     0.293 HD
ENDBRANCH   9  23
BRANCH   7  25
ATOM     25  O   UNL     1     -37.261   0.039 -12.930  1.00  0.00    -0.508 OA
ATOM     26  H   UNL     1     -37.414   0.271 -11.955  1.00  0.00     0.293 HD
ENDBRANCH   7  25
TORSDOF 6
ENDMDL
