MODEL 1
REMARK VINA RESULT:    -2.415      0.000      0.000
REMARK INTER + INTRA:          -3.556
REMARK INTER:                  -3.403
REMARK INTRA:                  -0.153
REMARK UNBOUND:                -0.153
REMARK SMILES CC1=CCC(=C(C)C)C(=O)CC(C)=CCC1
REMARK SMILES IDX 12 1 14 2 13 3 15 4 16 5 2 6 1 7 3 8 11 10 9 11 10 12 5 13
REMARK SMILES IDX 6 14 7 15 8 16 4 17
REMARK H PARENT
REMARK Flexibility Score: 60.00
ROOT
ATOM      1  C   UNL     1      16.335  51.429  37.739  1.00  0.00    -0.070 C 
ATOM      2  C   UNL     1      17.276  50.497  38.015  1.00  0.00    -0.027 C 
ATOM      3  C   UNL     1      14.906  51.136  38.122  1.00  0.00     0.039 C 
ENDROOT
BRANCH   2   4
ATOM      4  C   UNL     1      18.763  50.667  37.820  1.00  0.00     0.032 C 
BRANCH   4   5
ATOM      5  C   UNL     1      19.310  50.163  36.476  1.00  0.00     0.034 C 
BRANCH   5   6
ATOM      6  C   UNL     1      20.211  51.155  35.766  1.00  0.00    -0.077 C 
ATOM      7  C   UNL     1      21.648  51.250  36.218  1.00  0.00     0.039 C 
ATOM      8  C   UNL     1      19.802  52.017  34.800  1.00  0.00    -0.023 CG0
ATOM      9  G   UNL     1      18.476  52.050  34.065  1.00  0.00     0.000 G0
ENDBRANCH   5   6
ENDBRANCH   4   5
ENDBRANCH   2   4
BRANCH   1  10
ATOM     10  C   UNL     1      16.626  52.711  36.991  1.00  0.00     0.111 C 
BRANCH  10  11
ATOM     11  C   UNL     1      16.424  52.534  35.508  1.00  0.00     0.163 C 
ATOM     12  O   UNL     1      15.386  51.945  35.100  1.00  0.00    -0.294 OA
BRANCH  11  13
ATOM     13  C   UNL     1      17.412  53.020  34.509  1.00  0.00    -0.002 C 
ATOM     14  C   UNL     1      17.259  54.242  33.929  1.00  0.00    -0.069 C 
ATOM     15  C   UNL     1      16.178  55.187  34.399  1.00  0.00     0.039 C 
ATOM     16  C   UNL     1      18.170  54.710  32.818  1.00  0.00     0.039 C 
BRANCH  13  17
ATOM     17  C   UNL     1      18.471  52.032  34.053  1.00  0.00     0.066 CG0
ATOM     18  G   UNL     1      19.793  52.043  34.795  1.00  0.00     0.000 G0
ENDBRANCH  13  17
ENDBRANCH  11  13
ENDBRANCH  10  11
ENDBRANCH   1  10
TORSDOF 0
ENDMDL
MODEL 2
REMARK VINA RESULT:    -2.395      2.247      4.121
REMARK INTER + INTRA:          -3.528
REMARK INTER:                  -3.354
REMARK INTRA:                  -0.174
REMARK UNBOUND:                -0.153
REMARK SMILES CC1=CCC(=C(C)C)C(=O)CC(C)=CCC1
REMARK SMILES IDX 12 1 14 2 13 3 15 4 16 5 2 6 1 7 3 8 11 10 9 11 10 12 5 13
REMARK SMILES IDX 6 14 7 15 8 16 4 17
REMARK H PARENT
REMARK Flexibility Score: 60.00
ROOT
ATOM      1  C   UNL     1      19.058  49.654  37.273  1.00  0.00    -0.070 C 
ATOM      2  C   UNL     1      18.051  50.220  37.978  1.00  0.00    -0.027 C 
ATOM      3  C   UNL     1      19.829  48.525  37.909  1.00  0.00     0.039 C 
ENDROOT
BRANCH   2   4
ATOM      4  C   UNL     1      17.097  51.268  37.459  1.00  0.00     0.032 C 
BRANCH   4   5
ATOM      5  C   UNL     1      17.541  52.723  37.675  1.00  0.00     0.034 C 
BRANCH   5   6
ATOM      6  C   UNL     1      17.429  53.591  36.437  1.00  0.00    -0.077 C 
ATOM      7  C   UNL     1      16.058  54.083  36.043  1.00  0.00     0.039 C 
ATOM      8  C   UNL     1      18.464  53.901  35.614  1.00  0.00    -0.023 CG0
ATOM      9  G   UNL     1      19.946  53.664  35.832  1.00  0.00     0.000 G0
ENDBRANCH   5   6
ENDBRANCH   4   5
ENDBRANCH   2   4
BRANCH   1  10
ATOM     10  C   UNL     1      19.506  50.151  35.916  1.00  0.00     0.111 C 
BRANCH  10  11
ATOM     11  C   UNL     1      20.575  51.206  36.049  1.00  0.00     0.163 C 
ATOM     12  O   UNL     1      21.488  51.045  36.904  1.00  0.00    -0.294 OA
BRANCH  11  13
ATOM     13  C   UNL     1      20.582  52.436  35.214  1.00  0.00    -0.002 C 
ATOM     14  C   UNL     1      21.262  52.461  34.034  1.00  0.00    -0.069 C 
ATOM     15  C   UNL     1      21.886  51.202  33.479  1.00  0.00     0.039 C 
ATOM     16  C   UNL     1      21.398  53.731  33.226  1.00  0.00     0.039 C 
BRANCH  13  17
ATOM     17  C   UNL     1      19.959  53.681  35.817  1.00  0.00     0.066 CG0
ATOM     18  G   UNL     1      18.470  53.881  35.608  1.00  0.00     0.000 G0
ENDBRANCH  13  17
ENDBRANCH  11  13
ENDBRANCH  10  11
ENDBRANCH   1  10
TORSDOF 0
ENDMDL
MODEL 3
REMARK VINA RESULT:    -2.360      2.342      4.091
REMARK INTER + INTRA:          -3.478
REMARK INTER:                  -3.315
REMARK INTRA:                  -0.163
REMARK UNBOUND:                -0.153
REMARK SMILES CC1=CCC(=C(C)C)C(=O)CC(C)=CCC1
REMARK SMILES IDX 12 1 14 2 13 3 15 4 16 5 2 6 1 7 3 8 11 10 9 11 10 12 5 13
REMARK SMILES IDX 6 14 7 15 8 16 4 17
REMARK H PARENT
REMARK Flexibility Score: 60.00
ROOT
ATOM      1  C   UNL     1      17.963  50.749  37.222  1.00  0.00    -0.070 C 
ATOM      2  C   UNL     1      16.772  50.916  37.842  1.00  0.00    -0.027 C 
ATOM      3  C   UNL     1      19.011  49.904  37.902  1.00  0.00     0.039 C 
ENDROOT
BRANCH   2   4
ATOM      4  C   UNL     1      15.570  51.619  37.259  1.00  0.00     0.032 C 
BRANCH   4   5
ATOM      5  C   UNL     1      15.434  53.103  37.632  1.00  0.00     0.034 C 
BRANCH   5   6
ATOM      6  C   UNL     1      15.195  54.017  36.445  1.00  0.00    -0.077 C 
ATOM      7  C   UNL     1      13.787  54.123  35.911  1.00  0.00     0.039 C 
ATOM      8  C   UNL     1      16.167  54.694  35.782  1.00  0.00    -0.023 CG0
ATOM      9  G   UNL     1      17.620  54.881  36.172  1.00  0.00     0.000 G0
ENDBRANCH   5   6
ENDBRANCH   4   5
ENDBRANCH   2   4
BRANCH   1  10
ATOM     10  C   UNL     1      18.330  51.435  35.924  1.00  0.00     0.111 C 
BRANCH  10  11
ATOM     11  C   UNL     1      19.036  52.742  36.180  1.00  0.00     0.163 C 
ATOM     12  O   UNL     1      19.971  52.776  37.025  1.00  0.00    -0.294 OA
BRANCH  11  13
ATOM     13  C   UNL     1      18.659  53.997  35.477  1.00  0.00    -0.002 C 
ATOM     14  C   UNL     1      19.324  54.381  34.352  1.00  0.00    -0.069 C 
ATOM     15  C   UNL     1      20.344  53.469  33.712  1.00  0.00     0.039 C 
ATOM     16  C   UNL     1      19.054  55.712  33.690  1.00  0.00     0.039 C 
BRANCH  13  17
ATOM     17  C   UNL     1      17.642  54.891  36.164  1.00  0.00     0.066 CG0
ATOM     18  G   UNL     1      16.185  54.695  35.792  1.00  0.00     0.000 G0
ENDBRANCH  13  17
ENDBRANCH  11  13
ENDBRANCH  10  11
ENDBRANCH   1  10
TORSDOF 0
ENDMDL
MODEL 4
REMARK VINA RESULT:    -2.353      1.624      2.189
REMARK INTER + INTRA:          -3.469
REMARK INTER:                  -3.280
REMARK INTRA:                  -0.189
REMARK UNBOUND:                -0.153
REMARK SMILES CC1=CCC(=C(C)C)C(=O)CC(C)=CCC1
REMARK SMILES IDX 12 1 14 2 13 3 15 4 16 5 2 6 1 7 3 8 11 10 9 11 10 12 5 13
REMARK SMILES IDX 6 14 7 15 8 16 4 17
REMARK H PARENT
REMARK Flexibility Score: 60.00
ROOT
ATOM      1  C   UNL     1      15.842  51.641  37.257  1.00  0.00    -0.070 C 
ATOM      2  C   UNL     1      17.093  51.129  37.214  1.00  0.00    -0.027 C 
ATOM      3  C   UNL     1      14.788  50.888  38.031  1.00  0.00     0.039 C 
ENDROOT
BRANCH   2   4
ATOM      4  C   UNL     1      18.296  51.802  36.598  1.00  0.00     0.032 C 
BRANCH   4   5
ATOM      5  C   UNL     1      18.541  51.480  35.116  1.00  0.00     0.034 C 
BRANCH   5   6
ATOM      6  C   UNL     1      18.840  52.697  34.262  1.00  0.00    -0.077 C 
ATOM      7  C   UNL     1      20.222  53.298  34.352  1.00  0.00     0.039 C 
ATOM      8  C   UNL     1      17.934  53.331  33.475  1.00  0.00    -0.023 CG0
ATOM      9  G   UNL     1      16.538  52.879  33.091  1.00  0.00     0.000 G0
ENDBRANCH   5   6
ENDBRANCH   4   5
ENDBRANCH   2   4
BRANCH   1  10
ATOM     10  C   UNL     1      15.423  52.882  36.500  1.00  0.00     0.111 C 
BRANCH  10  11
ATOM     11  C   UNL     1      14.994  52.544  35.095  1.00  0.00     0.163 C 
ATOM     12  O   UNL     1      14.305  51.506  34.900  1.00  0.00    -0.294 OA
BRANCH  11  13
ATOM     13  C   UNL     1      15.366  53.387  33.929  1.00  0.00    -0.002 C 
ATOM     14  C   UNL     1      14.593  54.451  33.575  1.00  0.00    -0.069 C 
ATOM     15  C   UNL     1      13.438  54.887  34.448  1.00  0.00     0.039 C 
ATOM     16  C   UNL     1      14.869  55.248  32.322  1.00  0.00     0.039 C 
BRANCH  13  17
ATOM     17  C   UNL     1      16.521  52.904  33.071  1.00  0.00     0.066 CG0
ATOM     18  G   UNL     1      17.915  53.341  33.477  1.00  0.00     0.000 G0
ENDBRANCH  13  17
ENDBRANCH  11  13
ENDBRANCH  10  11
ENDBRANCH   1  10
TORSDOF 0
ENDMDL
MODEL 5
REMARK VINA RESULT:    -2.324      6.503      7.494
REMARK INTER + INTRA:          -3.427
REMARK INTER:                  -3.694
REMARK INTRA:                   0.267
REMARK UNBOUND:                -0.153
REMARK SMILES CC1=CCC(=C(C)C)C(=O)CC(C)=CCC1
REMARK SMILES IDX 12 1 14 2 13 3 15 4 16 5 2 6 1 7 3 8 11 10 9 11 10 12 5 13
REMARK SMILES IDX 6 14 7 15 8 16 4 17
REMARK H PARENT
REMARK Flexibility Score: 60.00
ROOT
ATOM      1  C   UNL     1      13.451  50.300  33.377  1.00  0.00    -0.070 C 
ATOM      2  C   UNL     1      12.973  49.305  34.159  1.00  0.00    -0.027 C 
ATOM      3  C   UNL     1      14.121  51.475  34.045  1.00  0.00     0.039 C 
ENDROOT
BRANCH   2   4
ATOM      4  C   UNL     1      12.389  48.003  33.665  1.00  0.00     0.032 C 
BRANCH   4   5
ATOM      5  C   UNL     1      13.385  47.059  32.975  1.00  0.00     0.034 C 
BRANCH   5   6
ATOM      6  C   UNL     1      12.979  46.655  31.570  1.00  0.00    -0.077 C 
ATOM      7  C   UNL     1      11.697  45.875  31.405  1.00  0.00     0.039 C 
ATOM      8  C   UNL     1      13.721  46.881  30.457  1.00  0.00    -0.023 CG0
ATOM      9  G   UNL     1      14.959  47.744  30.306  1.00  0.00     0.000 G0
ENDBRANCH   5   6
ENDBRANCH   4   5
ENDBRANCH   2   4
BRANCH   1  10
ATOM     10  C   UNL     1      13.275  50.337  31.875  1.00  0.00     0.111 C 
BRANCH  10  11
ATOM     11  C   UNL     1      14.592  50.145  31.167  1.00  0.00     0.163 C 
ATOM     12  O   UNL     1      15.600  50.787  31.569  1.00  0.00    -0.294 OA
BRANCH  11  13
ATOM     13  C   UNL     1      14.740  49.231  30.004  1.00  0.00    -0.002 C 
ATOM     14  C   UNL     1      14.518  49.686  28.740  1.00  0.00    -0.069 C 
ATOM     15  C   UNL     1      14.272  51.155  28.483  1.00  0.00     0.039 C 
ATOM     16  C   UNL     1      14.533  48.755  27.550  1.00  0.00     0.039 C 
BRANCH  13  17
ATOM     17  C   UNL     1      14.970  47.762  30.308  1.00  0.00     0.066 CG0
ATOM     18  G   UNL     1      13.742  46.886  30.462  1.00  0.00     0.000 G0
ENDBRANCH  13  17
ENDBRANCH  11  13
ENDBRANCH  10  11
ENDBRANCH   1  10
TORSDOF 0
ENDMDL
MODEL 6
REMARK VINA RESULT:    -2.265      8.415      9.976
REMARK INTER + INTRA:          -3.344
REMARK INTER:                  -3.218
REMARK INTRA:                  -0.126
REMARK UNBOUND:                -0.153
REMARK SMILES CC1=CCC(=C(C)C)C(=O)CC(C)=CCC1
REMARK SMILES IDX 12 1 14 2 13 3 15 4 16 5 2 6 1 7 3 8 11 10 9 11 10 12 5 13
REMARK SMILES IDX 6 14 7 15 8 16 4 17
REMARK H PARENT
REMARK Flexibility Score: 60.00
ROOT
ATOM      1  C   UNL     1      13.261  47.616  32.196  1.00  0.00    -0.070 C 
ATOM      2  C   UNL     1      13.761  48.762  31.680  1.00  0.00    -0.027 C 
ATOM      3  C   UNL     1      14.183  46.431  32.334  1.00  0.00     0.039 C 
ENDROOT
BRANCH   2   4
ATOM      4  C   UNL     1      13.026  50.077  31.584  1.00  0.00     0.032 C 
BRANCH   4   5
ATOM      5  C   UNL     1      12.404  50.381  30.213  1.00  0.00     0.034 C 
BRANCH   5   6
ATOM      6  C   UNL     1      11.014  50.983  30.286  1.00  0.00    -0.077 C 
ATOM      7  C   UNL     1      10.902  52.474  30.492  1.00  0.00     0.039 C 
ATOM      8  C   UNL     1       9.860  50.269  30.253  1.00  0.00    -0.023 CG0
ATOM      9  G   UNL     1       9.668  48.801  29.923  1.00  0.00     0.000 G0
ENDBRANCH   5   6
ENDBRANCH   4   5
ENDBRANCH   2   4
BRANCH   1  10
ATOM     10  C   UNL     1      11.804  47.434  32.562  1.00  0.00     0.111 C 
BRANCH  10  11
ATOM     11  C   UNL     1      10.971  47.126  31.344  1.00  0.00     0.163 C 
ATOM     12  O   UNL     1      11.389  46.267  30.520  1.00  0.00    -0.294 OA
BRANCH  11  13
ATOM     13  C   UNL     1       9.678  47.808  31.075  1.00  0.00    -0.002 C 
ATOM     14  C   UNL     1       8.549  47.426  31.734  1.00  0.00    -0.069 C 
ATOM     15  C   UNL     1       8.618  46.417  32.857  1.00  0.00     0.039 C 
ATOM     16  C   UNL     1       7.197  48.008  31.391  1.00  0.00     0.039 C 
BRANCH  13  17
ATOM     17  C   UNL     1       9.650  48.801  29.928  1.00  0.00     0.066 CG0
ATOM     18  G   UNL     1       9.861  50.263  30.273  1.00  0.00     0.000 G0
ENDBRANCH  13  17
ENDBRANCH  11  13
ENDBRANCH  10  11
ENDBRANCH   1  10
TORSDOF 0
ENDMDL
MODEL 7
REMARK VINA RESULT:    -2.254      1.984      4.347
REMARK INTER + INTRA:          -3.329
REMARK INTER:                  -3.208
REMARK INTRA:                  -0.121
REMARK UNBOUND:                -0.153
REMARK SMILES CC1=CCC(=C(C)C)C(=O)CC(C)=CCC1
REMARK SMILES IDX 12 1 14 2 13 3 15 4 16 5 2 6 1 7 3 8 11 10 9 11 10 12 5 13
REMARK SMILES IDX 6 14 7 15 8 16 4 17
REMARK H PARENT
REMARK Flexibility Score: 60.00
ROOT
ATOM      1  C   UNL     1      14.277  53.343  34.602  1.00  0.00    -0.070 C 
ATOM      2  C   UNL     1      14.356  53.621  33.280  1.00  0.00    -0.027 C 
ATOM      3  C   UNL     1      13.440  54.246  35.474  1.00  0.00     0.039 C 
ENDROOT
BRANCH   2   4
ATOM      4  C   UNL     1      15.038  52.764  32.242  1.00  0.00     0.032 C 
BRANCH   4   5
ATOM      5  C   UNL     1      16.537  53.039  32.047  1.00  0.00     0.034 C 
BRANCH   5   6
ATOM      6  C   UNL     1      17.405  51.797  32.108  1.00  0.00    -0.077 C 
ATOM      7  C   UNL     1      17.381  50.863  30.923  1.00  0.00     0.039 C 
ATOM      8  C   UNL     1      18.149  51.427  33.181  1.00  0.00    -0.023 CG0
ATOM      9  G   UNL     1      18.466  52.225  34.431  1.00  0.00     0.000 G0
ENDBRANCH   5   6
ENDBRANCH   4   5
ENDBRANCH   2   4
BRANCH   1  10
ATOM     10  C   UNL     1      15.053  52.227  35.266  1.00  0.00     0.111 C 
BRANCH  10  11
ATOM     11  C   UNL     1      16.364  52.729  35.818  1.00  0.00     0.163 C 
ATOM     12  O   UNL     1      16.392  53.844  36.404  1.00  0.00    -0.294 OA
BRANCH  11  13
ATOM     13  C   UNL     1      17.627  51.956  35.684  1.00  0.00    -0.002 C 
ATOM     14  C   UNL     1      18.060  51.163  36.703  1.00  0.00    -0.069 C 
ATOM     15  C   UNL     1      17.192  50.931  37.918  1.00  0.00     0.039 C 
ATOM     16  C   UNL     1      19.401  50.470  36.650  1.00  0.00     0.039 C 
BRANCH  13  17
ATOM     17  C   UNL     1      18.475  52.233  34.455  1.00  0.00     0.066 CG0
ATOM     18  G   UNL     1      18.154  51.444  33.201  1.00  0.00     0.000 G0
ENDBRANCH  13  17
ENDBRANCH  11  13
ENDBRANCH  10  11
ENDBRANCH   1  10
TORSDOF 0
ENDMDL
MODEL 8
REMARK VINA RESULT:    -2.131      7.655      8.845
REMARK INTER + INTRA:          -3.156
REMARK INTER:                  -3.517
REMARK INTRA:                   0.361
REMARK UNBOUND:                -0.153
REMARK SMILES CC1=CCC(=C(C)C)C(=O)CC(C)=CCC1
REMARK SMILES IDX 12 1 14 2 13 3 15 4 16 5 2 6 1 7 3 8 11 10 9 11 10 12 5 13
REMARK SMILES IDX 6 14 7 15 8 16 4 17
REMARK H PARENT
REMARK Flexibility Score: 60.00
ROOT
ATOM      1  C   UNL     1      13.508  49.054  32.458  1.00  0.00    -0.070 C 
ATOM      2  C   UNL     1      12.908  48.154  33.270  1.00  0.00    -0.027 C 
ATOM      3  C   UNL     1      13.698  50.461  32.967  1.00  0.00     0.039 C 
ENDROOT
BRANCH   2   4
ATOM      4  C   UNL     1      12.746  46.682  32.982  1.00  0.00     0.032 C 
BRANCH   4   5
ATOM      5  C   UNL     1      11.753  46.338  31.862  1.00  0.00     0.034 C 
BRANCH   5   6
ATOM      6  C   UNL     1      10.495  47.186  31.871  1.00  0.00    -0.077 C 
ATOM      7  C   UNL     1       9.523  46.992  33.009  1.00  0.00     0.039 C 
ATOM      8  C   UNL     1      10.144  48.058  30.891  1.00  0.00    -0.023 CG0
ATOM      9  G   UNL     1      10.975  48.548  29.721  1.00  0.00     0.000 G0
ENDBRANCH   5   6
ENDBRANCH   4   5
ENDBRANCH   2   4
BRANCH   1  10
ATOM     10  C   UNL     1      13.920  48.747  31.035  1.00  0.00     0.111 C 
BRANCH  10  11
ATOM     11  C   UNL     1      13.262  49.692  30.062  1.00  0.00     0.163 C 
ATOM     12  O   UNL     1      13.989  50.391  29.305  1.00  0.00    -0.294 OA
BRANCH  11  13
ATOM     13  C   UNL     1      11.785  49.835  29.972  1.00  0.00    -0.002 C 
ATOM     14  C   UNL     1      11.192  51.028  30.251  1.00  0.00    -0.069 C 
ATOM     15  C   UNL     1      12.027  52.262  30.503  1.00  0.00     0.039 C 
ATOM     16  C   UNL     1       9.688  51.173  30.296  1.00  0.00     0.039 C 
BRANCH  13  17
ATOM     17  C   UNL     1      10.985  48.567  29.734  1.00  0.00     0.066 CG0
ATOM     18  G   UNL     1      10.146  48.051  30.887  1.00  0.00     0.000 G0
ENDBRANCH  13  17
ENDBRANCH  11  13
ENDBRANCH  10  11
ENDBRANCH   1  10
TORSDOF 0
ENDMDL
MODEL 9
REMARK VINA RESULT:    -2.054      5.953      7.137
REMARK INTER + INTRA:          -3.047
REMARK INTER:                  -2.929
REMARK INTRA:                  -0.118
REMARK UNBOUND:                -0.153
REMARK SMILES CC1=CCC(=C(C)C)C(=O)CC(C)=CCC1
REMARK SMILES IDX 12 1 14 2 13 3 15 4 16 5 2 6 1 7 3 8 11 10 9 11 10 12 5 13
REMARK SMILES IDX 6 14 7 15 8 16 4 17
REMARK H PARENT
REMARK Flexibility Score: 60.00
ROOT
ATOM      1  C   UNL     1      12.855  48.867  33.027  1.00  0.00    -0.070 C 
ATOM      2  C   UNL     1      13.338  50.009  33.570  1.00  0.00    -0.027 C 
ATOM      3  C   UNL     1      12.465  47.744  33.955  1.00  0.00     0.039 C 
ENDROOT
BRANCH   2   4
ATOM      4  C   UNL     1      13.660  51.274  32.811  1.00  0.00     0.032 C 
BRANCH   4   5
ATOM      5  C   UNL     1      15.147  51.487  32.492  1.00  0.00     0.034 C 
BRANCH   5   6
ATOM      6  C   UNL     1      15.427  51.793  31.033  1.00  0.00    -0.077 C 
ATOM      7  C   UNL     1      15.352  53.234  30.590  1.00  0.00     0.039 C 
ATOM      8  C   UNL     1      15.670  50.858  30.080  1.00  0.00    -0.023 CG0
ATOM      9  G   UNL     1      15.936  49.376  30.258  1.00  0.00     0.000 G0
ENDBRANCH   5   6
ENDBRANCH   4   5
ENDBRANCH   2   4
BRANCH   1  10
ATOM     10  C   UNL     1      12.766  48.626  31.536  1.00  0.00     0.111 C 
BRANCH  10  11
ATOM     11  C   UNL     1      13.983  47.895  31.030  1.00  0.00     0.163 C 
ATOM     12  O   UNL     1      14.324  46.817  31.588  1.00  0.00    -0.294 OA
BRANCH  11  13
ATOM     13  C   UNL     1      14.802  48.407  29.900  1.00  0.00    -0.002 C 
ATOM     14  C   UNL     1      14.627  47.912  28.643  1.00  0.00    -0.069 C 
ATOM     15  C   UNL     1      13.498  46.952  28.346  1.00  0.00     0.039 C 
ATOM     16  C   UNL     1      15.529  48.316  27.501  1.00  0.00     0.039 C 
BRANCH  13  17
ATOM     17  C   UNL     1      15.935  49.356  30.246  1.00  0.00     0.066 CG0
ATOM     18  G   UNL     1      15.670  50.840  30.082  1.00  0.00     0.000 G0
ENDBRANCH  13  17
ENDBRANCH  11  13
ENDBRANCH  10  11
ENDBRANCH   1  10
TORSDOF 0
ENDMDL
