MODEL 1
REMARK VINA RESULT:    -6.064      0.000      0.000
REMARK INTER + INTRA:         -10.210
REMARK INTER:                  -9.432
REMARK INTRA:                  -0.779
REMARK UNBOUND:                -0.779
REMARK SMILES COc1cc(CNC(=O)CCCCC=CC(C)C)ccc1O
REMARK SMILES IDX 11 1 12 2 13 3 14 4 15 5 16 6 17 7 18 8 10 9 8 10 9 11 7 12
REMARK SMILES IDX 6 14 5 15 4 16 19 17 3 18 20 19 21 20 2 21 1 22 22 23
REMARK H PARENT 7 13 22 24
REMARK Flexibility Score: inf
ROOT
ATOM      1  C   UNL     1      -0.430   7.029  42.361  1.00  0.00     0.010 C 
ENDROOT
BRANCH   1   2
ATOM      2  C   UNL     1      -1.149   7.235  41.015  1.00  0.00     0.005 C 
BRANCH   2   3
ATOM      3  C   UNL     1      -2.651   6.926  41.085  1.00  0.00     0.027 C 
BRANCH   3   4
ATOM      4  C   UNL     1      -3.003   5.744  40.226  1.00  0.00    -0.031 C 
ATOM      5  C   UNL     1      -2.078   5.175  39.434  1.00  0.00    -0.028 C 
BRANCH   5   6
ATOM      6  C   UNL     1      -2.362   3.955  38.587  1.00  0.00     0.005 C 
ATOM      7  C   UNL     1      -3.010   2.837  39.412  1.00  0.00     0.012 C 
ATOM      8  C   UNL     1      -1.095   3.462  37.883  1.00  0.00     0.012 C 
ENDBRANCH   5   6
ENDBRANCH   3   4
ENDBRANCH   2   3
ENDBRANCH   1   2
BRANCH   1   9
ATOM      9  C   UNL     1      -1.363   6.695  43.536  1.00  0.00     0.100 C 
BRANCH   9  10
ATOM     10  C   UNL     1      -1.443   7.818  44.531  1.00  0.00     0.220 C 
ATOM     11  O   UNL     1      -2.462   7.921  45.266  1.00  0.00    -0.275 OA
ATOM     12  N   UNL     1      -0.373   8.768  44.635  1.00  0.00    -0.352 N 
ATOM     13  H   UNL     1       0.492   8.622  44.066  1.00  0.00     0.163 HD
BRANCH  12  14
ATOM     14  C   UNL     1      -0.521  10.042  45.330  1.00  0.00     0.151 C 
BRANCH  14  15
ATOM     15  C   UNL     1       0.277  10.020  46.605  1.00  0.00    -0.025 A 
ATOM     16  C   UNL     1       1.057  11.128  46.971  1.00  0.00     0.056 A 
ATOM     17  C   UNL     1       0.197   8.918  47.467  1.00  0.00     0.009 A 
ATOM     18  C   UNL     1       1.786  11.125  48.177  1.00  0.00     0.160 A 
ATOM     19  C   UNL     1       0.903   8.914  48.671  1.00  0.00     0.050 A 
ATOM     20  C   UNL     1       1.703  10.006  49.027  1.00  0.00     0.157 A 
BRANCH  18  21
ATOM     21  O   UNL     1       2.600  12.205  48.555  1.00  0.00    -0.493 OA
ATOM     22  C   UNL     1       3.936  12.407  48.111  1.00  0.00     0.278 C 
ENDBRANCH  18  21
BRANCH  20  23
ATOM     23  O   UNL     1       2.405   9.963  50.231  1.00  0.00    -0.504 OA
ATOM     24  H   UNL     1       2.516   9.108  50.762  1.00  0.00     0.293 HD
ENDBRANCH  20  23
ENDBRANCH  14  15
ENDBRANCH  12  14
ENDBRANCH   9  10
ENDBRANCH   1   9
TORSDOF 10
ENDMDL
MODEL 2
REMARK VINA RESULT:    -5.844     10.289     13.116
REMARK INTER + INTRA:          -9.868
REMARK INTER:                  -9.107
REMARK INTRA:                  -0.761
REMARK UNBOUND:                -0.779
REMARK SMILES COc1cc(CNC(=O)CCCCC=CC(C)C)ccc1O
REMARK SMILES IDX 11 1 12 2 13 3 14 4 15 5 16 6 17 7 18 8 10 9 8 10 9 11 7 12
REMARK SMILES IDX 6 14 5 15 4 16 19 17 3 18 20 19 21 20 2 21 1 22 22 23
REMARK H PARENT 7 13 22 24
REMARK Flexibility Score: inf
ROOT
ATOM      1  C   UNL     1       7.151   5.898  53.385  1.00  0.00     0.010 C 
ENDROOT
BRANCH   1   2
ATOM      2  C   UNL     1       5.971   5.084  52.821  1.00  0.00     0.005 C 
BRANCH   2   3
ATOM      3  C   UNL     1       6.068   3.587  53.145  1.00  0.00     0.027 C 
BRANCH   3   4
ATOM      4  C   UNL     1       7.416   3.240  53.712  1.00  0.00    -0.031 C 
ATOM      5  C   UNL     1       7.569   2.168  54.506  1.00  0.00    -0.028 C 
BRANCH   5   6
ATOM      6  C   UNL     1       8.910   1.743  55.062  1.00  0.00     0.005 C 
ATOM      7  C   UNL     1      10.060   2.168  54.142  1.00  0.00     0.012 C 
ATOM      8  C   UNL     1       8.945   0.237  55.335  1.00  0.00     0.012 C 
ENDBRANCH   5   6
ENDBRANCH   3   4
ENDBRANCH   2   3
ENDBRANCH   1   2
BRANCH   1   9
ATOM      9  C   UNL     1       6.915   7.416  53.423  1.00  0.00     0.100 C 
BRANCH   9  10
ATOM     10  C   UNL     1       7.990   8.173  52.698  1.00  0.00     0.220 C 
ATOM     11  O   UNL     1       8.179   9.390  52.968  1.00  0.00    -0.275 OA
ATOM     12  N   UNL     1       8.786   7.519  51.700  1.00  0.00    -0.352 N 
ATOM     13  H   UNL     1       8.660   6.493  51.542  1.00  0.00     0.163 HD
BRANCH  12  14
ATOM     14  C   UNL     1       9.608   8.256  50.745  1.00  0.00     0.151 C 
BRANCH  14  15
ATOM     15  C   UNL     1       9.200   7.896  49.343  1.00  0.00    -0.025 A 
ATOM     16  C   UNL     1       8.762   8.892  48.456  1.00  0.00     0.056 A 
ATOM     17  C   UNL     1       9.317   6.574  48.892  1.00  0.00     0.009 A 
ATOM     18  C   UNL     1       8.403   8.566  47.132  1.00  0.00     0.160 A 
ATOM     19  C   UNL     1       8.979   6.246  47.578  1.00  0.00     0.050 A 
ATOM     20  C   UNL     1       8.517   7.232  46.699  1.00  0.00     0.157 A 
BRANCH  18  21
ATOM     21  O   UNL     1       7.931   9.534  46.231  1.00  0.00    -0.493 OA
ATOM     22  C   UNL     1       8.754  10.287  45.348  1.00  0.00     0.278 C 
ENDBRANCH  18  21
BRANCH  20  23
ATOM     23  O   UNL     1       8.177   6.867  45.396  1.00  0.00    -0.504 OA
ATOM     24  H   UNL     1       8.367   7.464  44.601  1.00  0.00     0.293 HD
ENDBRANCH  20  23
ENDBRANCH  14  15
ENDBRANCH  12  14
ENDBRANCH   9  10
ENDBRANCH   1   9
TORSDOF 10
ENDMDL
MODEL 3
REMARK VINA RESULT:    -5.844     11.970     14.628
REMARK INTER + INTRA:          -9.868
REMARK INTER:                  -7.817
REMARK INTRA:                  -2.051
REMARK UNBOUND:                -0.779
REMARK SMILES COc1cc(CNC(=O)CCCCC=CC(C)C)ccc1O
REMARK SMILES IDX 11 1 12 2 13 3 14 4 15 5 16 6 17 7 18 8 10 9 8 10 9 11 7 12
REMARK SMILES IDX 6 14 5 15 4 16 19 17 3 18 20 19 21 20 2 21 1 22 22 23
REMARK H PARENT 7 13 22 24
REMARK Flexibility Score: inf
ROOT
ATOM      1  C   UNL     1      10.581   1.816  54.614  1.00  0.00     0.010 C 
ENDROOT
BRANCH   1   2
ATOM      2  C   UNL     1       9.219   1.115  54.449  1.00  0.00     0.005 C 
BRANCH   2   3
ATOM      3  C   UNL     1       8.061   1.905  55.074  1.00  0.00     0.027 C 
BRANCH   3   4
ATOM      4  C   UNL     1       7.389   2.781  54.055  1.00  0.00    -0.031 C 
ATOM      5  C   UNL     1       7.699   4.085  53.963  1.00  0.00    -0.028 C 
BRANCH   5   6
ATOM      6  C   UNL     1       7.092   5.002  52.925  1.00  0.00     0.005 C 
ATOM      7  C   UNL     1       7.250   6.476  53.315  1.00  0.00     0.012 C 
ATOM      8  C   UNL     1       5.623   4.651  52.667  1.00  0.00     0.012 C 
ENDBRANCH   5   6
ENDBRANCH   3   4
ENDBRANCH   2   3
ENDBRANCH   1   2
BRANCH   1   9
ATOM      9  C   UNL     1      10.658   2.785  55.804  1.00  0.00     0.100 C 
BRANCH   9  10
ATOM     10  C   UNL     1      11.056   4.169  55.380  1.00  0.00     0.220 C 
ATOM     11  O   UNL     1      10.778   5.148  56.125  1.00  0.00    -0.275 OA
ATOM     12  N   UNL     1      11.738   4.376  54.135  1.00  0.00    -0.352 N 
ATOM     13  H   UNL     1      12.021   3.544  53.568  1.00  0.00     0.163 HD
BRANCH  12  14
ATOM     14  C   UNL     1      11.863   5.692  53.517  1.00  0.00     0.151 C 
BRANCH  14  15
ATOM     15  C   UNL     1      10.975   5.769  52.306  1.00  0.00    -0.025 A 
ATOM     16  C   UNL     1      10.529   7.013  51.833  1.00  0.00     0.056 A 
ATOM     17  C   UNL     1      10.641   4.604  51.602  1.00  0.00     0.009 A 
ATOM     18  C   UNL     1       9.719   7.095  50.683  1.00  0.00     0.160 A 
ATOM     19  C   UNL     1       9.853   4.678  50.452  1.00  0.00     0.050 A 
ATOM     20  C   UNL     1       9.384   5.915  49.994  1.00  0.00     0.157 A 
BRANCH  18  21
ATOM     21  O   UNL     1       9.231   8.322  50.205  1.00  0.00    -0.493 OA
ATOM     22  C   UNL     1       9.135   9.512  50.978  1.00  0.00     0.278 C 
ENDBRANCH  18  21
BRANCH  20  23
ATOM     23  O   UNL     1       8.588   5.951  48.849  1.00  0.00    -0.504 OA
ATOM     24  H   UNL     1       8.929   6.312  47.966  1.00  0.00     0.293 HD
ENDBRANCH  20  23
ENDBRANCH  14  15
ENDBRANCH  12  14
ENDBRANCH   9  10
ENDBRANCH   1   9
TORSDOF 10
ENDMDL
MODEL 4
REMARK VINA RESULT:    -5.781     11.320     15.215
REMARK INTER + INTRA:          -9.770
REMARK INTER:                  -8.488
REMARK INTRA:                  -1.282
REMARK UNBOUND:                -0.779
REMARK SMILES COc1cc(CNC(=O)CCCCC=CC(C)C)ccc1O
REMARK SMILES IDX 11 1 12 2 13 3 14 4 15 5 16 6 17 7 18 8 10 9 8 10 9 11 7 12
REMARK SMILES IDX 6 14 5 15 4 16 19 17 3 18 20 19 21 20 2 21 1 22 22 23
REMARK H PARENT 7 13 22 24
REMARK Flexibility Score: inf
ROOT
ATOM      1  C   UNL     1      10.367   1.339  54.560  1.00  0.00     0.010 C 
ENDROOT
BRANCH   1   2
ATOM      2  C   UNL     1       9.066   0.745  55.133  1.00  0.00     0.005 C 
BRANCH   2   3
ATOM      3  C   UNL     1       8.025   1.816  55.486  1.00  0.00     0.027 C 
BRANCH   3   4
ATOM      4  C   UNL     1       7.553   2.540  54.255  1.00  0.00    -0.031 C 
ATOM      5  C   UNL     1       7.735   3.865  54.130  1.00  0.00    -0.028 C 
BRANCH   5   6
ATOM      6  C   UNL     1       7.327   4.636  52.894  1.00  0.00     0.005 C 
ATOM      7  C   UNL     1       7.885   6.063  52.912  1.00  0.00     0.012 C 
ATOM      8  C   UNL     1       5.805   4.638  52.720  1.00  0.00     0.012 C 
ENDBRANCH   5   6
ENDBRANCH   3   4
ENDBRANCH   2   3
ENDBRANCH   1   2
BRANCH   1   9
ATOM      9  C   UNL     1      10.981   2.465  55.408  1.00  0.00     0.100 C 
BRANCH   9  10
ATOM     10  C   UNL     1      11.679   3.491  54.564  1.00  0.00     0.220 C 
ATOM     11  O   UNL     1      12.692   4.084  55.025  1.00  0.00    -0.275 OA
ATOM     12  N   UNL     1      11.192   3.799  53.251  1.00  0.00    -0.352 N 
ATOM     13  H   UNL     1      10.394   3.245  52.863  1.00  0.00     0.163 HD
BRANCH  12  14
ATOM     14  C   UNL     1      11.611   4.989  52.518  1.00  0.00     0.151 C 
BRANCH  14  15
ATOM     15  C   UNL     1      11.556   4.720  51.039  1.00  0.00    -0.025 A 
ATOM     16  C   UNL     1      10.356   4.893  50.333  1.00  0.00     0.056 A 
ATOM     17  C   UNL     1      12.718   4.355  50.345  1.00  0.00     0.009 A 
ATOM     18  C   UNL     1      10.303   4.668  48.942  1.00  0.00     0.160 A 
ATOM     19  C   UNL     1      12.678   4.146  48.966  1.00  0.00     0.050 A 
ATOM     20  C   UNL     1      11.477   4.293  48.263  1.00  0.00     0.157 A 
BRANCH  18  21
ATOM     21  O   UNL     1       9.110   4.802  48.213  1.00  0.00    -0.493 OA
ATOM     22  C   UNL     1       8.591   6.036  47.732  1.00  0.00     0.278 C 
ENDBRANCH  18  21
BRANCH  20  23
ATOM     23  O   UNL     1      11.470   4.064  46.886  1.00  0.00    -0.504 OA
ATOM     24  H   UNL     1      12.303   4.160  46.319  1.00  0.00     0.293 HD
ENDBRANCH  20  23
ENDBRANCH  14  15
ENDBRANCH  12  14
ENDBRANCH   9  10
ENDBRANCH   1   9
TORSDOF 10
ENDMDL
MODEL 5
REMARK VINA RESULT:    -5.759      8.103     12.627
REMARK INTER + INTRA:          -9.736
REMARK INTER:                  -9.152
REMARK INTRA:                  -0.584
REMARK UNBOUND:                -0.779
REMARK SMILES COc1cc(CNC(=O)CCCCC=CC(C)C)ccc1O
REMARK SMILES IDX 11 1 12 2 13 3 14 4 15 5 16 6 17 7 18 8 10 9 8 10 9 11 7 12
REMARK SMILES IDX 6 14 5 15 4 16 19 17 3 18 20 19 21 20 2 21 1 22 22 23
REMARK H PARENT 7 13 22 24
REMARK Flexibility Score: inf
ROOT
ATOM      1  C   UNL     1       7.812   5.993  53.081  1.00  0.00     0.010 C 
ENDROOT
BRANCH   1   2
ATOM      2  C   UNL     1       6.433   5.310  53.143  1.00  0.00     0.005 C 
BRANCH   2   3
ATOM      3  C   UNL     1       6.526   3.778  53.191  1.00  0.00     0.027 C 
BRANCH   3   4
ATOM      4  C   UNL     1       7.783   3.332  53.884  1.00  0.00    -0.031 C 
ATOM      5  C   UNL     1       7.856   2.116  54.450  1.00  0.00    -0.028 C 
BRANCH   5   6
ATOM      6  C   UNL     1       9.111   1.595  55.116  1.00  0.00     0.005 C 
ATOM      7  C   UNL     1      10.343   1.793  54.226  1.00  0.00     0.012 C 
ATOM      8  C   UNL     1       8.952   0.128  55.526  1.00  0.00     0.012 C 
ENDBRANCH   5   6
ENDBRANCH   3   4
ENDBRANCH   2   3
ENDBRANCH   1   2
BRANCH   1   9
ATOM      9  C   UNL     1       7.766   7.528  53.146  1.00  0.00     0.100 C 
BRANCH   9  10
ATOM     10  C   UNL     1       8.394   8.164  51.940  1.00  0.00     0.220 C 
ATOM     11  O   UNL     1       9.538   7.785  51.567  1.00  0.00    -0.275 OA
ATOM     12  N   UNL     1       7.704   9.199  51.226  1.00  0.00    -0.352 N 
ATOM     13  H   UNL     1       6.728   9.448  51.510  1.00  0.00     0.163 HD
BRANCH  12  14
ATOM     14  C   UNL     1       8.373  10.070  50.265  1.00  0.00     0.151 C 
BRANCH  14  15
ATOM     15  C   UNL     1       7.555  10.158  49.006  1.00  0.00    -0.025 A 
ATOM     16  C   UNL     1       6.347  10.873  48.995  1.00  0.00     0.056 A 
ATOM     17  C   UNL     1       8.026   9.582  47.818  1.00  0.00     0.009 A 
ATOM     18  C   UNL     1       5.589  10.982  47.813  1.00  0.00     0.160 A 
ATOM     19  C   UNL     1       7.289   9.700  46.639  1.00  0.00     0.050 A 
ATOM     20  C   UNL     1       6.071  10.389  46.631  1.00  0.00     0.157 A 
BRANCH  18  21
ATOM     21  O   UNL     1       4.361  11.663  47.778  1.00  0.00    -0.493 OA
ATOM     22  C   UNL     1       3.140  11.157  48.304  1.00  0.00     0.278 C 
ENDBRANCH  18  21
BRANCH  20  23
ATOM     23  O   UNL     1       5.354  10.477  45.437  1.00  0.00    -0.504 OA
ATOM     24  H   UNL     1       4.683   9.772  45.157  1.00  0.00     0.293 HD
ENDBRANCH  20  23
ENDBRANCH  14  15
ENDBRANCH  12  14
ENDBRANCH   9  10
ENDBRANCH   1   9
TORSDOF 10
ENDMDL
MODEL 6
REMARK VINA RESULT:    -5.735     12.769     15.499
REMARK INTER + INTRA:          -9.699
REMARK INTER:                  -8.293
REMARK INTRA:                  -1.406
REMARK UNBOUND:                -0.779
REMARK SMILES COc1cc(CNC(=O)CCCCC=CC(C)C)ccc1O
REMARK SMILES IDX 11 1 12 2 13 3 14 4 15 5 16 6 17 7 18 8 10 9 8 10 9 11 7 12
REMARK SMILES IDX 6 14 5 15 4 16 19 17 3 18 20 19 21 20 2 21 1 22 22 23
REMARK H PARENT 7 13 22 24
REMARK Flexibility Score: inf
ROOT
ATOM      1  C   UNL     1       7.292   1.968  54.762  1.00  0.00     0.010 C 
ENDROOT
BRANCH   1   2
ATOM      2  C   UNL     1       8.342   0.944  54.293  1.00  0.00     0.005 C 
BRANCH   2   3
ATOM      3  C   UNL     1       9.229   0.431  55.437  1.00  0.00     0.027 C 
BRANCH   3   4
ATOM      4  C   UNL     1       9.967   1.560  56.099  1.00  0.00    -0.031 C 
ATOM      5  C   UNL     1      10.777   2.360  55.385  1.00  0.00    -0.028 C 
BRANCH   5   6
ATOM      6  C   UNL     1      11.504   3.541  55.989  1.00  0.00     0.005 C 
ATOM      7  C   UNL     1      10.745   4.851  55.749  1.00  0.00     0.012 C 
ATOM      8  C   UNL     1      12.942   3.631  55.469  1.00  0.00     0.012 C 
ENDBRANCH   5   6
ENDBRANCH   3   4
ENDBRANCH   2   3
ENDBRANCH   1   2
BRANCH   1   9
ATOM      9  C   UNL     1       6.301   2.407  53.672  1.00  0.00     0.100 C 
BRANCH   9  10
ATOM     10  C   UNL     1       6.678   3.727  53.065  1.00  0.00     0.220 C 
ATOM     11  O   UNL     1       5.775   4.478  52.608  1.00  0.00    -0.275 OA
ATOM     12  N   UNL     1       8.055   4.125  52.997  1.00  0.00    -0.352 N 
ATOM     13  H   UNL     1       8.781   3.519  53.445  1.00  0.00     0.163 HD
BRANCH  12  14
ATOM     14  C   UNL     1       8.516   5.218  52.147  1.00  0.00     0.151 C 
BRANCH  14  15
ATOM     15  C   UNL     1       9.785   4.816  51.447  1.00  0.00    -0.025 A 
ATOM     16  C   UNL     1      10.070   5.306  50.163  1.00  0.00     0.056 A 
ATOM     17  C   UNL     1      10.721   4.001  52.098  1.00  0.00     0.009 A 
ATOM     18  C   UNL     1      11.269   4.954  49.512  1.00  0.00     0.160 A 
ATOM     19  C   UNL     1      11.918   3.662  51.466  1.00  0.00     0.050 A 
ATOM     20  C   UNL     1      12.194   4.126  50.175  1.00  0.00     0.157 A 
BRANCH  18  21
ATOM     21  O   UNL     1      11.568   5.402  48.215  1.00  0.00    -0.493 OA
ATOM     22  C   UNL     1      12.069   6.697  47.901  1.00  0.00     0.278 C 
ENDBRANCH  18  21
BRANCH  20  23
ATOM     23  O   UNL     1      13.395   3.758  49.569  1.00  0.00    -0.504 OA
ATOM     24  H   UNL     1      14.288   4.125  49.873  1.00  0.00     0.293 HD
ENDBRANCH  20  23
ENDBRANCH  14  15
ENDBRANCH  12  14
ENDBRANCH   9  10
ENDBRANCH   1   9
TORSDOF 10
ENDMDL
MODEL 7
REMARK VINA RESULT:    -5.711      8.939     12.854
REMARK INTER + INTRA:          -9.661
REMARK INTER:                  -9.022
REMARK INTRA:                  -0.639
REMARK UNBOUND:                -0.779
REMARK SMILES COc1cc(CNC(=O)CCCCC=CC(C)C)ccc1O
REMARK SMILES IDX 11 1 12 2 13 3 14 4 15 5 16 6 17 7 18 8 10 9 8 10 9 11 7 12
REMARK SMILES IDX 6 14 5 15 4 16 19 17 3 18 20 19 21 20 2 21 1 22 22 23
REMARK H PARENT 7 13 22 24
REMARK Flexibility Score: inf
ROOT
ATOM      1  C   UNL     1       7.850   5.756  52.978  1.00  0.00     0.010 C 
ENDROOT
BRANCH   1   2
ATOM      2  C   UNL     1       6.451   5.113  53.010  1.00  0.00     0.005 C 
BRANCH   2   3
ATOM      3  C   UNL     1       6.497   3.587  53.169  1.00  0.00     0.027 C 
BRANCH   3   4
ATOM      4  C   UNL     1       7.735   3.156  53.906  1.00  0.00    -0.031 C 
ATOM      5  C   UNL     1       7.794   1.950  54.496  1.00  0.00    -0.028 C 
BRANCH   5   6
ATOM      6  C   UNL     1       9.030   1.445  55.207  1.00  0.00     0.005 C 
ATOM      7  C   UNL     1      10.306   1.795  54.433  1.00  0.00     0.012 C 
ATOM      8  C   UNL     1       8.938  -0.061  55.474  1.00  0.00     0.012 C 
ENDBRANCH   5   6
ENDBRANCH   3   4
ENDBRANCH   2   3
ENDBRANCH   1   2
BRANCH   1   9
ATOM      9  C   UNL     1       7.850   7.287  53.115  1.00  0.00     0.100 C 
BRANCH   9  10
ATOM     10  C   UNL     1       8.437   7.963  51.910  1.00  0.00     0.220 C 
ATOM     11  O   UNL     1       9.422   7.436  51.325  1.00  0.00    -0.275 OA
ATOM     12  N   UNL     1       7.888   9.200  51.436  1.00  0.00    -0.352 N 
ATOM     13  H   UNL     1       7.028   9.582  51.893  1.00  0.00     0.163 HD
BRANCH  12  14
ATOM     14  C   UNL     1       8.594  10.061  50.492  1.00  0.00     0.151 C 
BRANCH  14  15
ATOM     15  C   UNL     1       7.821  10.143  49.205  1.00  0.00    -0.025 A 
ATOM     16  C   UNL     1       8.307   9.515  48.047  1.00  0.00     0.056 A 
ATOM     17  C   UNL     1       6.579  10.791  49.167  1.00  0.00     0.009 A 
ATOM     18  C   UNL     1       7.576   9.565  46.843  1.00  0.00     0.160 A 
ATOM     19  C   UNL     1       5.841  10.830  47.983  1.00  0.00     0.050 A 
ATOM     20  C   UNL     1       6.335  10.228  46.821  1.00  0.00     0.157 A 
BRANCH  18  21
ATOM     21  O   UNL     1       8.051   8.974  45.661  1.00  0.00    -0.493 OA
ATOM     22  C   UNL     1       8.753   7.738  45.599  1.00  0.00     0.278 C 
ENDBRANCH  18  21
BRANCH  20  23
ATOM     23  O   UNL     1       5.577  10.297  45.652  1.00  0.00    -0.504 OA
ATOM     24  H   UNL     1       5.022   9.517  45.321  1.00  0.00     0.293 HD
ENDBRANCH  20  23
ENDBRANCH  14  15
ENDBRANCH  12  14
ENDBRANCH   9  10
ENDBRANCH   1   9
TORSDOF 10
ENDMDL
MODEL 8
REMARK VINA RESULT:    -5.690      6.124     10.829
REMARK INTER + INTRA:          -9.629
REMARK INTER:                  -8.901
REMARK INTRA:                  -0.728
REMARK UNBOUND:                -0.779
REMARK SMILES COc1cc(CNC(=O)CCCCC=CC(C)C)ccc1O
REMARK SMILES IDX 11 1 12 2 13 3 14 4 15 5 16 6 17 7 18 8 10 9 8 10 9 11 7 12
REMARK SMILES IDX 6 14 5 15 4 16 19 17 3 18 20 19 21 20 2 21 1 22 22 23
REMARK H PARENT 7 13 22 24
REMARK Flexibility Score: inf
ROOT
ATOM      1  C   UNL     1       8.909   7.118  48.012  1.00  0.00     0.010 C 
ENDROOT
BRANCH   1   2
ATOM      2  C   UNL     1       8.862   5.594  48.231  1.00  0.00     0.005 C 
BRANCH   2   3
ATOM      3  C   UNL     1       9.708   5.135  49.428  1.00  0.00     0.027 C 
BRANCH   3   4
ATOM      4  C   UNL     1       8.894   5.114  50.691  1.00  0.00    -0.031 C 
ATOM      5  C   UNL     1       9.309   5.778  51.783  1.00  0.00    -0.028 C 
BRANCH   5   6
ATOM      6  C   UNL     1       8.507   5.833  53.064  1.00  0.00     0.005 C 
ATOM      7  C   UNL     1       7.612   4.598  53.221  1.00  0.00     0.012 C 
ATOM      8  C   UNL     1       7.689   7.125  53.150  1.00  0.00     0.012 C 
ENDBRANCH   5   6
ENDBRANCH   3   4
ENDBRANCH   2   3
ENDBRANCH   1   2
BRANCH   1   9
ATOM      9  C   UNL     1       8.432   7.576  46.624  1.00  0.00     0.100 C 
BRANCH   9  10
ATOM     10  C   UNL     1       8.231   9.062  46.558  1.00  0.00     0.220 C 
ATOM     11  O   UNL     1       9.114   9.827  47.031  1.00  0.00    -0.275 OA
ATOM     12  N   UNL     1       7.040   9.604  45.970  1.00  0.00    -0.352 N 
ATOM     13  H   UNL     1       6.354   8.954  45.522  1.00  0.00     0.163 HD
BRANCH  12  14
ATOM     14  C   UNL     1       6.633  10.993  46.161  1.00  0.00     0.151 C 
BRANCH  14  15
ATOM     15  C   UNL     1       5.497  11.058  47.144  1.00  0.00    -0.025 A 
ATOM     16  C   UNL     1       4.186  10.777  46.729  1.00  0.00     0.056 A 
ATOM     17  C   UNL     1       5.748  11.337  48.494  1.00  0.00     0.009 A 
ATOM     18  C   UNL     1       3.119  10.811  47.650  1.00  0.00     0.160 A 
ATOM     19  C   UNL     1       4.700  11.355  49.416  1.00  0.00     0.050 A 
ATOM     20  C   UNL     1       3.388  11.102  49.000  1.00  0.00     0.157 A 
BRANCH  18  21
ATOM     21  O   UNL     1       1.793  10.565  47.260  1.00  0.00    -0.493 OA
ATOM     22  C   UNL     1       1.222   9.272  47.100  1.00  0.00     0.278 C 
ENDBRANCH  18  21
BRANCH  20  23
ATOM     23  O   UNL     1       2.363  11.141  49.946  1.00  0.00    -0.504 OA
ATOM     24  H   UNL     1       2.547  11.153  50.942  1.00  0.00     0.293 HD
ENDBRANCH  20  23
ENDBRANCH  14  15
ENDBRANCH  12  14
ENDBRANCH   9  10
ENDBRANCH   1   9
TORSDOF 10
ENDMDL
MODEL 9
REMARK VINA RESULT:    -5.669     12.510     15.471
REMARK INTER + INTRA:          -9.596
REMARK INTER:                  -8.478
REMARK INTRA:                  -1.117
REMARK UNBOUND:                -0.779
REMARK SMILES COc1cc(CNC(=O)CCCCC=CC(C)C)ccc1O
REMARK SMILES IDX 11 1 12 2 13 3 14 4 15 5 16 6 17 7 18 8 10 9 8 10 9 11 7 12
REMARK SMILES IDX 6 14 5 15 4 16 19 17 3 18 20 19 21 20 2 21 1 22 22 23
REMARK H PARENT 7 13 22 24
REMARK Flexibility Score: inf
ROOT
ATOM      1  C   UNL     1      10.389   1.395  54.309  1.00  0.00     0.010 C 
ENDROOT
BRANCH   1   2
ATOM      2  C   UNL     1       9.099   0.722  54.815  1.00  0.00     0.005 C 
BRANCH   2   3
ATOM      3  C   UNL     1       8.015   1.732  55.216  1.00  0.00     0.027 C 
BRANCH   3   4
ATOM      4  C   UNL     1       7.549   2.527  54.029  1.00  0.00    -0.031 C 
ATOM      5  C   UNL     1       7.697   3.862  53.999  1.00  0.00    -0.028 C 
BRANCH   5   6
ATOM      6  C   UNL     1       7.292   4.706  52.811  1.00  0.00     0.005 C 
ATOM      7  C   UNL     1       8.017   6.057  52.809  1.00  0.00     0.012 C 
ATOM      8  C   UNL     1       5.773   4.892  52.755  1.00  0.00     0.012 C 
ENDBRANCH   5   6
ENDBRANCH   3   4
ENDBRANCH   2   3
ENDBRANCH   1   2
BRANCH   1   9
ATOM      9  C   UNL     1      10.925   2.509  55.223  1.00  0.00     0.100 C 
BRANCH   9  10
ATOM     10  C   UNL     1      11.616   3.593  54.446  1.00  0.00     0.220 C 
ATOM     11  O   UNL     1      12.493   4.298  55.015  1.00  0.00    -0.275 OA
ATOM     12  N   UNL     1      11.273   3.828  53.073  1.00  0.00    -0.352 N 
ATOM     13  H   UNL     1      10.595   3.187  52.602  1.00  0.00     0.163 HD
BRANCH  12  14
ATOM     14  C   UNL     1      11.657   5.046  52.367  1.00  0.00     0.151 C 
BRANCH  14  15
ATOM     15  C   UNL     1      11.607   4.809  50.883  1.00  0.00    -0.025 A 
ATOM     16  C   UNL     1      12.790   4.586  50.162  1.00  0.00     0.056 A 
ATOM     17  C   UNL     1      10.373   4.744  50.221  1.00  0.00     0.009 A 
ATOM     18  C   UNL     1      12.749   4.336  48.775  1.00  0.00     0.160 A 
ATOM     19  C   UNL     1      10.323   4.480  48.851  1.00  0.00     0.050 A 
ATOM     20  C   UNL     1      11.502   4.284  48.124  1.00  0.00     0.157 A 
BRANCH  18  21
ATOM     21  O   UNL     1      13.917   4.141  48.020  1.00  0.00    -0.493 OA
ATOM     22  C   UNL     1      14.336   2.890  47.487  1.00  0.00     0.278 C 
ENDBRANCH  18  21
BRANCH  20  23
ATOM     23  O   UNL     1      11.416   4.035  46.754  1.00  0.00    -0.504 OA
ATOM     24  H   UNL     1      11.138   3.134  46.385  1.00  0.00     0.293 HD
ENDBRANCH  20  23
ENDBRANCH  14  15
ENDBRANCH  12  14
ENDBRANCH   9  10
ENDBRANCH   1   9
TORSDOF 10
ENDMDL
