MODEL 1
REMARK VINA RESULT:    -6.819      0.000      0.000
REMARK INTER + INTRA:          -8.400
REMARK INTER:                  -8.214
REMARK INTRA:                  -0.186
REMARK UNBOUND:                -0.186
REMARK SMILES O=c1c(O)c(-c2ccc(O)c(O)c2)oc2cc(O)cc(O)c12
REMARK SMILES IDX 5 1 3 2 2 3 1 4 22 5 20 6 19 7 17 8 16 9 15 10 14 11 6 12
REMARK SMILES IDX 7 13 8 14 9 15 13 16 11 17 10 18 12 20 4 22 21 24 18 26
REMARK H PARENT 10 19 12 21 4 23 21 25 18 27
REMARK Flexibility Score: inf
ROOT
ATOM      1  C   UNL     1      22.945  44.914  10.702  1.00  0.00     0.180 A 
ATOM      2  C   UNL     1      21.815  44.924  11.544  1.00  0.00     0.208 A 
ATOM      3  C   UNL     1      20.631  45.517  11.081  1.00  0.00     0.238 A 
ATOM      4  O   UNL     1      19.616  45.542  11.830  1.00  0.00    -0.285 OA
ATOM      5  C   UNL     1      20.587  46.070   9.784  1.00  0.00     0.111 A 
ATOM      6  C   UNL     1      19.432  46.682   9.242  1.00  0.00     0.134 A 
ATOM      7  C   UNL     1      19.466  47.201   7.939  1.00  0.00     0.093 A 
ATOM      8  C   UNL     1      20.629  47.119   7.170  1.00  0.00     0.123 A 
ATOM      9  C   UNL     1      21.774  46.515   7.701  1.00  0.00     0.094 A 
ATOM     10  C   UNL     1      21.761  45.994   8.997  1.00  0.00     0.146 A 
ATOM     11  O   UNL     1      22.862  45.431   9.480  1.00  0.00    -0.452 OA
ENDROOT
BRANCH   1  12
ATOM     12  C   UNL     1      24.236  44.324  11.124  1.00  0.00     0.025 A 
ATOM     13  C   UNL     1      24.970  44.862  12.196  1.00  0.00     0.016 A 
ATOM     14  C   UNL     1      26.199  44.303  12.560  1.00  0.00     0.051 A 
ATOM     15  C   UNL     1      26.715  43.210  11.853  1.00  0.00     0.157 A 
ATOM     16  C   UNL     1      24.769  43.241  10.406  1.00  0.00     0.062 A 
ATOM     17  C   UNL     1      26.000  42.680  10.772  1.00  0.00     0.158 A 
BRANCH  15  18
ATOM     18  O   UNL     1      27.939  42.649  12.215  1.00  0.00    -0.504 OA
ATOM     19  H   UNL     1      27.995  41.871  12.862  1.00  0.00     0.293 HD
ENDBRANCH  15  18
BRANCH  17  20
ATOM     20  O   UNL     1      26.520  41.597  10.065  1.00  0.00    -0.504 OA
ATOM     21  H   UNL     1      26.135  41.312   9.173  1.00  0.00     0.293 HD
ENDBRANCH  17  20
ENDBRANCH   1  12
BRANCH   2  22
ATOM     22  O   UNL     1      21.870  44.326  12.805  1.00  0.00    -0.502 OA
ATOM     23  H   UNL     1      21.294  44.636  13.578  1.00  0.00     0.293 HD
ENDBRANCH   2  22
BRANCH   6  24
ATOM     24  O   UNL     1      18.254  46.779   9.985  1.00  0.00    -0.507 OA
ATOM     25  H   UNL     1      18.113  47.515  10.667  1.00  0.00     0.293 HD
ENDBRANCH   6  24
BRANCH   8  26
ATOM     26  O   UNL     1      20.636  47.641   5.878  1.00  0.00    -0.508 OA
ATOM     27  H   UNL     1      21.496  47.736   5.350  1.00  0.00     0.293 HD
ENDBRANCH   8  26
TORSDOF 6
ENDMDL
MODEL 2
REMARK VINA RESULT:    -6.770      3.033      3.483
REMARK INTER + INTRA:          -8.342
REMARK INTER:                  -8.038
REMARK INTRA:                  -0.304
REMARK UNBOUND:                -0.186
REMARK SMILES O=c1c(O)c(-c2ccc(O)c(O)c2)oc2cc(O)cc(O)c12
REMARK SMILES IDX 5 1 3 2 2 3 1 4 22 5 20 6 19 7 17 8 16 9 15 10 14 11 6 12
REMARK SMILES IDX 7 13 8 14 9 15 13 16 11 17 10 18 12 20 4 22 21 24 18 26
REMARK H PARENT 10 19 12 21 4 23 21 25 18 27
REMARK Flexibility Score: inf
ROOT
ATOM      1  C   UNL     1      24.406  46.031   9.300  1.00  0.00     0.180 A 
ATOM      2  C   UNL     1      23.897  45.122  10.248  1.00  0.00     0.208 A 
ATOM      3  C   UNL     1      22.512  44.897  10.297  1.00  0.00     0.238 A 
ATOM      4  O   UNL     1      22.044  44.094  11.150  1.00  0.00    -0.285 OA
ATOM      5  C   UNL     1      21.665  45.566   9.389  1.00  0.00     0.111 A 
ATOM      6  C   UNL     1      20.260  45.393   9.370  1.00  0.00     0.134 A 
ATOM      7  C   UNL     1      19.485  46.088   8.429  1.00  0.00     0.093 A 
ATOM      8  C   UNL     1      20.087  46.950   7.509  1.00  0.00     0.123 A 
ATOM      9  C   UNL     1      21.475  47.125   7.524  1.00  0.00     0.094 A 
ATOM     10  C   UNL     1      22.264  46.443   8.454  1.00  0.00     0.146 A 
ATOM     11  O   UNL     1      23.578  46.631   8.450  1.00  0.00    -0.452 OA
ENDROOT
BRANCH   1  12
ATOM     12  C   UNL     1      25.852  46.335   9.198  1.00  0.00     0.025 A 
ATOM     13  C   UNL     1      26.672  45.679   8.263  1.00  0.00     0.016 A 
ATOM     14  C   UNL     1      28.039  45.965   8.202  1.00  0.00     0.051 A 
ATOM     15  C   UNL     1      28.607  46.897   9.080  1.00  0.00     0.157 A 
ATOM     16  C   UNL     1      26.430  47.252  10.090  1.00  0.00     0.062 A 
ATOM     17  C   UNL     1      27.800  47.540  10.028  1.00  0.00     0.158 A 
BRANCH  15  18
ATOM     18  O   UNL     1      29.969  47.185   9.021  1.00  0.00    -0.504 OA
ATOM     19  H   UNL     1      30.381  47.628   8.208  1.00  0.00     0.293 HD
ENDBRANCH  15  18
BRANCH  17  20
ATOM     20  O   UNL     1      28.368  48.461  10.906  1.00  0.00    -0.504 OA
ATOM     21  H   UNL     1      28.798  48.170  11.776  1.00  0.00     0.293 HD
ENDBRANCH  17  20
ENDBRANCH   1  12
BRANCH   2  22
ATOM     22  O   UNL     1      24.762  44.435  11.103  1.00  0.00    -0.502 OA
ATOM     23  H   UNL     1      24.757  44.572  12.107  1.00  0.00     0.293 HD
ENDBRANCH   2  22
BRANCH   6  24
ATOM     24  O   UNL     1      19.629  44.538  10.276  1.00  0.00    -0.507 OA
ATOM     25  H   UNL     1      19.809  43.541  10.282  1.00  0.00     0.293 HD
ENDBRANCH   6  24
BRANCH   8  26
ATOM     26  O   UNL     1      19.295  47.627   6.584  1.00  0.00    -0.508 OA
ATOM     27  H   UNL     1      19.113  48.621   6.670  1.00  0.00     0.293 HD
ENDBRANCH   8  26
TORSDOF 6
ENDMDL
MODEL 3
REMARK VINA RESULT:    -6.660      9.121     10.808
REMARK INTER + INTRA:          -8.209
REMARK INTER:                  -7.925
REMARK INTRA:                  -0.284
REMARK UNBOUND:                -0.186
REMARK SMILES O=c1c(O)c(-c2ccc(O)c(O)c2)oc2cc(O)cc(O)c12
REMARK SMILES IDX 5 1 3 2 2 3 1 4 22 5 20 6 19 7 17 8 16 9 15 10 14 11 6 12
REMARK SMILES IDX 7 13 8 14 9 15 13 16 11 17 10 18 12 20 4 22 21 24 18 26
REMARK H PARENT 10 19 12 21 4 23 21 25 18 27
REMARK Flexibility Score: inf
ROOT
ATOM      1  C   UNL     1      26.127  39.021   3.036  1.00  0.00     0.180 A 
ATOM      2  C   UNL     1      25.305  39.939   3.718  1.00  0.00     0.208 A 
ATOM      3  C   UNL     1      25.424  41.306   3.423  1.00  0.00     0.238 A 
ATOM      4  O   UNL     1      24.700  42.138   4.036  1.00  0.00    -0.285 OA
ATOM      5  C   UNL     1      26.344  41.730   2.442  1.00  0.00     0.111 A 
ATOM      6  C   UNL     1      26.522  43.088   2.083  1.00  0.00     0.134 A 
ATOM      7  C   UNL     1      27.452  43.429   1.090  1.00  0.00     0.093 A 
ATOM      8  C   UNL     1      28.205  42.442   0.450  1.00  0.00     0.123 A 
ATOM      9  C   UNL     1      28.033  41.098   0.800  1.00  0.00     0.094 A 
ATOM     10  C   UNL     1      27.113  40.738   1.788  1.00  0.00     0.146 A 
ATOM     11  O   UNL     1      26.972  39.456   2.106  1.00  0.00    -0.452 OA
ENDROOT
BRANCH   1  12
ATOM     12  C   UNL     1      26.074  37.566   3.304  1.00  0.00     0.025 A 
ATOM     13  C   UNL     1      26.658  37.013   4.458  1.00  0.00     0.016 A 
ATOM     14  C   UNL     1      26.617  35.633   4.677  1.00  0.00     0.051 A 
ATOM     15  C   UNL     1      26.005  34.787   3.744  1.00  0.00     0.157 A 
ATOM     16  C   UNL     1      25.480  36.710   2.362  1.00  0.00     0.062 A 
ATOM     17  C   UNL     1      25.438  35.327   2.582  1.00  0.00     0.158 A 
BRANCH  15  18
ATOM     18  O   UNL     1      25.961  33.411   3.961  1.00  0.00    -0.504 OA
ATOM     19  H   UNL     1      26.806  32.868   4.090  1.00  0.00     0.293 HD
ENDBRANCH  15  18
BRANCH  17  20
ATOM     20  O   UNL     1      24.836  34.482   1.651  1.00  0.00    -0.504 OA
ATOM     21  H   UNL     1      25.195  33.553   1.469  1.00  0.00     0.293 HD
ENDBRANCH  17  20
ENDBRANCH   1  12
BRANCH   2  22
ATOM     22  O   UNL     1      24.366  39.488   4.650  1.00  0.00    -0.502 OA
ATOM     23  H   UNL     1      24.514  38.657   5.210  1.00  0.00     0.293 HD
ENDBRANCH   2  22
BRANCH   6  24
ATOM     24  O   UNL     1      25.785  44.098   2.704  1.00  0.00    -0.507 OA
ATOM     25  H   UNL     1      24.782  44.177   2.582  1.00  0.00     0.293 HD
ENDBRANCH   6  24
BRANCH   8  26
ATOM     26  O   UNL     1      29.121  42.807  -0.535  1.00  0.00    -0.508 OA
ATOM     27  H   UNL     1      29.810  43.532  -0.374  1.00  0.00     0.293 HD
ENDBRANCH   8  26
TORSDOF 6
ENDMDL
MODEL 4
REMARK VINA RESULT:    -6.629      9.495     11.705
REMARK INTER + INTRA:          -8.172
REMARK INTER:                  -7.854
REMARK INTRA:                  -0.318
REMARK UNBOUND:                -0.186
REMARK SMILES O=c1c(O)c(-c2ccc(O)c(O)c2)oc2cc(O)cc(O)c12
REMARK SMILES IDX 5 1 3 2 2 3 1 4 22 5 20 6 19 7 17 8 16 9 15 10 14 11 6 12
REMARK SMILES IDX 7 13 8 14 9 15 13 16 11 17 10 18 12 20 4 22 21 24 18 26
REMARK H PARENT 10 19 12 21 4 23 21 25 18 27
REMARK Flexibility Score: inf
ROOT
ATOM      1  C   UNL     1      27.255  39.097   2.275  1.00  0.00     0.180 A 
ATOM      2  C   UNL     1      28.399  39.170   1.456  1.00  0.00     0.208 A 
ATOM      3  C   UNL     1      28.796  40.420   0.956  1.00  0.00     0.238 A 
ATOM      4  O   UNL     1      29.812  40.497   0.212  1.00  0.00    -0.285 OA
ATOM      5  C   UNL     1      28.059  41.574   1.296  1.00  0.00     0.111 A 
ATOM      6  C   UNL     1      28.394  42.870   0.837  1.00  0.00     0.134 A 
ATOM      7  C   UNL     1      27.616  43.970   1.228  1.00  0.00     0.093 A 
ATOM      8  C   UNL     1      26.512  43.799   2.067  1.00  0.00     0.123 A 
ATOM      9  C   UNL     1      26.176  42.520   2.523  1.00  0.00     0.094 A 
ATOM     10  C   UNL     1      26.937  41.411   2.144  1.00  0.00     0.146 A 
ATOM     11  O   UNL     1      26.594  40.207   2.587  1.00  0.00    -0.452 OA
ENDROOT
BRANCH   1  12
ATOM     12  C   UNL     1      26.762  37.814   2.826  1.00  0.00     0.025 A 
ATOM     13  C   UNL     1      27.153  37.367   4.101  1.00  0.00     0.016 A 
ATOM     14  C   UNL     1      26.695  36.140   4.590  1.00  0.00     0.051 A 
ATOM     15  C   UNL     1      25.852  35.339   3.809  1.00  0.00     0.157 A 
ATOM     16  C   UNL     1      25.934  36.996   2.040  1.00  0.00     0.062 A 
ATOM     17  C   UNL     1      25.474  35.766   2.530  1.00  0.00     0.158 A 
BRANCH  15  18
ATOM     18  O   UNL     1      25.392  34.116   4.295  1.00  0.00    -0.504 OA
ATOM     19  H   UNL     1      24.718  34.066   5.050  1.00  0.00     0.293 HD
ENDBRANCH  15  18
BRANCH  17  20
ATOM     20  O   UNL     1      24.641  34.963   1.752  1.00  0.00    -0.504 OA
ATOM     21  H   UNL     1      23.825  34.509   2.145  1.00  0.00     0.293 HD
ENDBRANCH  17  20
ENDBRANCH   1  12
BRANCH   2  22
ATOM     22  O   UNL     1      29.140  38.020   1.174  1.00  0.00    -0.502 OA
ATOM     23  H   UNL     1      28.703  37.143   0.914  1.00  0.00     0.293 HD
ENDBRANCH   2  22
BRANCH   6  24
ATOM     24  O   UNL     1      29.491  43.074  -0.002  1.00  0.00    -0.507 OA
ATOM     25  H   UNL     1      29.686  43.979  -0.413  1.00  0.00     0.293 HD
ENDBRANCH   6  24
BRANCH   8  26
ATOM     26  O   UNL     1      25.756  44.908   2.442  1.00  0.00    -0.508 OA
ATOM     27  H   UNL     1      25.125  45.363   1.792  1.00  0.00     0.293 HD
ENDBRANCH   8  26
TORSDOF 6
ENDMDL
MODEL 5
REMARK VINA RESULT:    -6.537      7.914     10.728
REMARK INTER + INTRA:          -8.061
REMARK INTER:                  -7.736
REMARK INTRA:                  -0.324
REMARK UNBOUND:                -0.186
REMARK SMILES O=c1c(O)c(-c2ccc(O)c(O)c2)oc2cc(O)cc(O)c12
REMARK SMILES IDX 5 1 3 2 2 3 1 4 22 5 20 6 19 7 17 8 16 9 15 10 14 11 6 12
REMARK SMILES IDX 7 13 8 14 9 15 13 16 11 17 10 18 12 20 4 22 21 24 18 26
REMARK H PARENT 10 19 12 21 4 23 21 25 18 27
REMARK Flexibility Score: inf
ROOT
ATOM      1  C   UNL     1      27.027  43.785   2.236  1.00  0.00     0.180 A 
ATOM      2  C   UNL     1      26.703  42.781   1.303  1.00  0.00     0.208 A 
ATOM      3  C   UNL     1      26.326  41.514   1.775  1.00  0.00     0.238 A 
ATOM      4  O   UNL     1      26.046  40.603   0.949  1.00  0.00    -0.285 OA
ATOM      5  C   UNL     1      26.259  41.278   3.164  1.00  0.00     0.111 A 
ATOM      6  C   UNL     1      25.885  40.032   3.720  1.00  0.00     0.134 A 
ATOM      7  C   UNL     1      25.832  39.879   5.114  1.00  0.00     0.093 A 
ATOM      8  C   UNL     1      26.146  40.945   5.959  1.00  0.00     0.123 A 
ATOM      9  C   UNL     1      26.518  42.179   5.415  1.00  0.00     0.094 A 
ATOM     10  C   UNL     1      26.577  42.351   4.029  1.00  0.00     0.146 A 
ATOM     11  O   UNL     1      26.937  43.531   3.538  1.00  0.00    -0.452 OA
ENDROOT
BRANCH   1  12
ATOM     12  C   UNL     1      27.451  45.141   1.818  1.00  0.00     0.025 A 
ATOM     13  C   UNL     1      28.785  45.414   1.468  1.00  0.00     0.016 A 
ATOM     14  C   UNL     1      29.168  46.708   1.100  1.00  0.00     0.051 A 
ATOM     15  C   UNL     1      28.227  47.746   1.088  1.00  0.00     0.157 A 
ATOM     16  C   UNL     1      26.518  46.191   1.824  1.00  0.00     0.062 A 
ATOM     17  C   UNL     1      26.901  47.487   1.455  1.00  0.00     0.158 A 
BRANCH  15  18
ATOM     18  O   UNL     1      28.605  49.036   0.720  1.00  0.00    -0.504 OA
ATOM     19  H   UNL     1      28.584  49.339  -0.246  1.00  0.00     0.293 HD
ENDBRANCH  15  18
BRANCH  17  20
ATOM     20  O   UNL     1      25.969  48.524   1.450  1.00  0.00    -0.504 OA
ATOM     21  H   UNL     1      25.484  48.796   0.603  1.00  0.00     0.293 HD
ENDBRANCH  17  20
ENDBRANCH   1  12
BRANCH   2  22
ATOM     22  O   UNL     1      26.730  43.055  -0.066  1.00  0.00    -0.502 OA
ATOM     23  H   UNL     1      27.340  42.561  -0.707  1.00  0.00     0.293 HD
ENDBRANCH   2  22
BRANCH   6  24
ATOM     24  O   UNL     1      25.564  38.947   2.902  1.00  0.00    -0.507 OA
ATOM     25  H   UNL     1      24.710  38.925   2.357  1.00  0.00     0.293 HD
ENDBRANCH   6  24
BRANCH   8  26
ATOM     26  O   UNL     1      26.086  40.768   7.340  1.00  0.00    -0.508 OA
ATOM     27  H   UNL     1      25.584  39.990   7.753  1.00  0.00     0.293 HD
ENDBRANCH   8  26
TORSDOF 6
ENDMDL
MODEL 6
REMARK VINA RESULT:    -6.407      9.599     10.942
REMARK INTER + INTRA:          -7.904
REMARK INTER:                  -7.977
REMARK INTRA:                   0.073
REMARK UNBOUND:                -0.186
REMARK SMILES O=c1c(O)c(-c2ccc(O)c(O)c2)oc2cc(O)cc(O)c12
REMARK SMILES IDX 5 1 3 2 2 3 1 4 22 5 20 6 19 7 17 8 16 9 15 10 14 11 6 12
REMARK SMILES IDX 7 13 8 14 9 15 13 16 11 17 10 18 12 20 4 22 21 24 18 26
REMARK H PARENT 10 19 12 21 4 23 21 25 18 27
REMARK Flexibility Score: inf
ROOT
ATOM      1  C   UNL     1      26.603  38.108   3.945  1.00  0.00     0.180 A 
ATOM      2  C   UNL     1      27.437  38.728   4.896  1.00  0.00     0.208 A 
ATOM      3  C   UNL     1      27.903  40.028   4.644  1.00  0.00     0.238 A 
ATOM      4  O   UNL     1      28.659  40.589   5.483  1.00  0.00    -0.285 OA
ATOM      5  C   UNL     1      27.515  40.692   3.461  1.00  0.00     0.111 A 
ATOM      6  C   UNL     1      27.937  42.002   3.134  1.00  0.00     0.134 A 
ATOM      7  C   UNL     1      27.500  42.598   1.942  1.00  0.00     0.093 A 
ATOM      8  C   UNL     1      26.650  41.910   1.073  1.00  0.00     0.123 A 
ATOM      9  C   UNL     1      26.229  40.614   1.390  1.00  0.00     0.094 A 
ATOM     10  C   UNL     1      26.655  40.003   2.573  1.00  0.00     0.146 A 
ATOM     11  O   UNL     1      26.245  38.770   2.848  1.00  0.00    -0.452 OA
ENDROOT
BRANCH   1  12
ATOM     12  C   UNL     1      26.085  36.733   4.129  1.00  0.00     0.025 A 
ATOM     13  C   UNL     1      24.723  36.435   3.952  1.00  0.00     0.016 A 
ATOM     14  C   UNL     1      24.253  35.134   4.156  1.00  0.00     0.051 A 
ATOM     15  C   UNL     1      25.133  34.118   4.551  1.00  0.00     0.157 A 
ATOM     16  C   UNL     1      26.959  35.715   4.546  1.00  0.00     0.062 A 
ATOM     17  C   UNL     1      26.488  34.411   4.750  1.00  0.00     0.158 A 
BRANCH  15  18
ATOM     18  O   UNL     1      24.668  32.820   4.753  1.00  0.00    -0.504 OA
ATOM     19  H   UNL     1      25.175  32.160   5.330  1.00  0.00     0.293 HD
ENDBRANCH  15  18
BRANCH  17  20
ATOM     20  O   UNL     1      27.361  33.401   5.150  1.00  0.00    -0.504 OA
ATOM     21  H   UNL     1      27.023  32.551   5.586  1.00  0.00     0.293 HD
ENDBRANCH  17  20
ENDBRANCH   1  12
BRANCH   2  22
ATOM     22  O   UNL     1      27.766  38.069   6.082  1.00  0.00    -0.502 OA
ATOM     23  H   UNL     1      28.305  38.511   6.818  1.00  0.00     0.293 HD
ENDBRANCH   2  22
BRANCH   6  24
ATOM     24  O   UNL     1      28.786  42.716   3.982  1.00  0.00    -0.507 OA
ATOM     25  H   UNL     1      28.438  43.191   4.808  1.00  0.00     0.293 HD
ENDBRANCH   6  24
BRANCH   8  26
ATOM     26  O   UNL     1      26.228  42.524  -0.105  1.00  0.00    -0.508 OA
ATOM     27  H   UNL     1      25.250  42.732  -0.273  1.00  0.00     0.293 HD
ENDBRANCH   8  26
TORSDOF 6
ENDMDL
MODEL 7
REMARK VINA RESULT:    -6.389      8.613     10.962
REMARK INTER + INTRA:          -7.883
REMARK INTER:                  -7.559
REMARK INTRA:                  -0.323
REMARK UNBOUND:                -0.186
REMARK SMILES O=c1c(O)c(-c2ccc(O)c(O)c2)oc2cc(O)cc(O)c12
REMARK SMILES IDX 5 1 3 2 2 3 1 4 22 5 20 6 19 7 17 8 16 9 15 10 14 11 6 12
REMARK SMILES IDX 7 13 8 14 9 15 13 16 11 17 10 18 12 20 4 22 21 24 18 26
REMARK H PARENT 10 19 12 21 4 23 21 25 18 27
REMARK Flexibility Score: inf
ROOT
ATOM      1  C   UNL     1      25.882  37.703   3.746  1.00  0.00     0.180 A 
ATOM      2  C   UNL     1      26.070  38.177   2.433  1.00  0.00     0.208 A 
ATOM      3  C   UNL     1      26.289  39.549   2.233  1.00  0.00     0.238 A 
ATOM      4  O   UNL     1      26.447  39.988   1.061  1.00  0.00    -0.285 OA
ATOM      5  C   UNL     1      26.337  40.417   3.344  1.00  0.00     0.111 A 
ATOM      6  C   UNL     1      26.556  41.811   3.229  1.00  0.00     0.134 A 
ATOM      7  C   UNL     1      26.600  42.607   4.383  1.00  0.00     0.093 A 
ATOM      8  C   UNL     1      26.428  42.038   5.647  1.00  0.00     0.123 A 
ATOM      9  C   UNL     1      26.210  40.661   5.767  1.00  0.00     0.094 A 
ATOM     10  C   UNL     1      26.162  39.851   4.629  1.00  0.00     0.146 A 
ATOM     11  O   UNL     1      25.949  38.548   4.770  1.00  0.00    -0.452 OA
ENDROOT
BRANCH   1  12
ATOM     12  C   UNL     1      25.628  36.273   4.037  1.00  0.00     0.025 A 
ATOM     13  C   UNL     1      24.337  35.725   3.938  1.00  0.00     0.016 A 
ATOM     14  C   UNL     1      24.116  34.379   4.242  1.00  0.00     0.051 A 
ATOM     15  C   UNL     1      25.178  33.566   4.661  1.00  0.00     0.157 A 
ATOM     16  C   UNL     1      26.684  35.459   4.478  1.00  0.00     0.062 A 
ATOM     17  C   UNL     1      26.464  34.108   4.782  1.00  0.00     0.158 A 
BRANCH  15  18
ATOM     18  O   UNL     1      24.962  32.223   4.963  1.00  0.00    -0.504 OA
ATOM     19  H   UNL     1      24.029  31.828   4.987  1.00  0.00     0.293 HD
ENDBRANCH  15  18
BRANCH  17  20
ATOM     20  O   UNL     1      27.516  33.300   5.207  1.00  0.00    -0.504 OA
ATOM     21  H   UNL     1      28.177  32.902   4.550  1.00  0.00     0.293 HD
ENDBRANCH  17  20
ENDBRANCH   1  12
BRANCH   2  22
ATOM     22  O   UNL     1      26.068  37.289   1.355  1.00  0.00    -0.502 OA
ATOM     23  H   UNL     1      25.838  36.308   1.460  1.00  0.00     0.293 HD
ENDBRANCH   2  22
BRANCH   6  24
ATOM     24  O   UNL     1      26.732  42.409   1.979  1.00  0.00    -0.507 OA
ATOM     25  H   UNL     1      27.635  42.758   1.678  1.00  0.00     0.293 HD
ENDBRANCH   6  24
BRANCH   8  26
ATOM     26  O   UNL     1      26.477  42.850   6.778  1.00  0.00    -0.508 OA
ATOM     27  H   UNL     1      26.109  43.795   6.768  1.00  0.00     0.293 HD
ENDBRANCH   8  26
TORSDOF 6
ENDMDL
MODEL 8
REMARK VINA RESULT:    -6.360      8.913     11.311
REMARK INTER + INTRA:          -7.847
REMARK INTER:                  -7.522
REMARK INTRA:                  -0.325
REMARK UNBOUND:                -0.186
REMARK SMILES O=c1c(O)c(-c2ccc(O)c(O)c2)oc2cc(O)cc(O)c12
REMARK SMILES IDX 5 1 3 2 2 3 1 4 22 5 20 6 19 7 17 8 16 9 15 10 14 11 6 12
REMARK SMILES IDX 7 13 8 14 9 15 13 16 11 17 10 18 12 20 4 22 21 24 18 26
REMARK H PARENT 10 19 12 21 4 23 21 25 18 27
REMARK Flexibility Score: inf
ROOT
ATOM      1  C   UNL     1      27.459  41.614   2.739  1.00  0.00     0.180 A 
ATOM      2  C   UNL     1      27.949  41.447   4.049  1.00  0.00     0.208 A 
ATOM      3  C   UNL     1      27.853  40.184   4.653  1.00  0.00     0.238 A 
ATOM      4  O   UNL     1      28.279  40.025   5.830  1.00  0.00    -0.285 OA
ATOM      5  C   UNL     1      27.290  39.108   3.936  1.00  0.00     0.111 A 
ATOM      6  C   UNL     1      27.160  37.804   4.470  1.00  0.00     0.134 A 
ATOM      7  C   UNL     1      26.597  36.784   3.689  1.00  0.00     0.093 A 
ATOM      8  C   UNL     1      26.163  37.042   2.387  1.00  0.00     0.123 A 
ATOM      9  C   UNL     1      26.288  38.329   1.853  1.00  0.00     0.094 A 
ATOM     10  C   UNL     1      26.845  39.359   2.616  1.00  0.00     0.146 A 
ATOM     11  O   UNL     1      26.948  40.573   2.088  1.00  0.00    -0.452 OA
ENDROOT
BRANCH   1  12
ATOM     12  C   UNL     1      27.507  42.919   2.041  1.00  0.00     0.025 A 
ATOM     13  C   UNL     1      28.625  43.299   1.277  1.00  0.00     0.016 A 
ATOM     14  C   UNL     1      28.659  44.546   0.647  1.00  0.00     0.051 A 
ATOM     15  C   UNL     1      27.583  45.434   0.781  1.00  0.00     0.157 A 
ATOM     16  C   UNL     1      26.442  43.822   2.189  1.00  0.00     0.062 A 
ATOM     17  C   UNL     1      26.475  45.073   1.556  1.00  0.00     0.158 A 
BRANCH  15  18
ATOM     18  O   UNL     1      27.613  46.678   0.153  1.00  0.00    -0.504 OA
ATOM     19  H   UNL     1      27.620  47.540   0.684  1.00  0.00     0.293 HD
ENDBRANCH  15  18
BRANCH  17  20
ATOM     20  O   UNL     1      25.410  45.961   1.694  1.00  0.00    -0.504 OA
ATOM     21  H   UNL     1      24.948  46.364   0.888  1.00  0.00     0.293 HD
ENDBRANCH  17  20
ENDBRANCH   1  12
BRANCH   2  22
ATOM     22  O   UNL     1      28.547  42.516   4.720  1.00  0.00    -0.502 OA
ATOM     23  H   UNL     1      28.564  42.582   5.731  1.00  0.00     0.293 HD
ENDBRANCH   2  22
BRANCH   6  24
ATOM     24  O   UNL     1      27.586  37.514   5.768  1.00  0.00    -0.507 OA
ATOM     25  H   UNL     1      27.076  37.839   6.581  1.00  0.00     0.293 HD
ENDBRANCH   6  24
BRANCH   8  26
ATOM     26  O   UNL     1      25.608  36.011   1.631  1.00  0.00    -0.508 OA
ATOM     27  H   UNL     1      24.878  35.415   2.003  1.00  0.00     0.293 HD
ENDBRANCH   8  26
TORSDOF 6
ENDMDL
MODEL 9
REMARK VINA RESULT:    -6.254     10.641     12.663
REMARK INTER + INTRA:          -7.720
REMARK INTER:                  -7.389
REMARK INTRA:                  -0.330
REMARK UNBOUND:                -0.186
REMARK SMILES O=c1c(O)c(-c2ccc(O)c(O)c2)oc2cc(O)cc(O)c12
REMARK SMILES IDX 5 1 3 2 2 3 1 4 22 5 20 6 19 7 17 8 16 9 15 10 14 11 6 12
REMARK SMILES IDX 7 13 8 14 9 15 13 16 11 17 10 18 12 20 4 22 21 24 18 26
REMARK H PARENT 10 19 12 21 4 23 21 25 18 27
REMARK Flexibility Score: inf
ROOT
ATOM      1  C   UNL     1      27.229  38.458   2.167  1.00  0.00     0.180 A 
ATOM      2  C   UNL     1      26.705  39.756   2.323  1.00  0.00     0.208 A 
ATOM      3  C   UNL     1      27.396  40.839   1.757  1.00  0.00     0.238 A 
ATOM      4  O   UNL     1      26.942  42.007   1.900  1.00  0.00    -0.285 OA
ATOM      5  C   UNL     1      28.582  40.607   1.031  1.00  0.00     0.111 A 
ATOM      6  C   UNL     1      29.336  41.642   0.427  1.00  0.00     0.134 A 
ATOM      7  C   UNL     1      30.502  41.329  -0.287  1.00  0.00     0.093 A 
ATOM      8  C   UNL     1      30.928  40.004  -0.409  1.00  0.00     0.123 A 
ATOM      9  C   UNL     1      30.188  38.977   0.186  1.00  0.00     0.094 A 
ATOM     10  C   UNL     1      29.024  39.268   0.903  1.00  0.00     0.146 A 
ATOM     11  O   UNL     1      28.342  38.276   1.463  1.00  0.00    -0.452 OA
ENDROOT
BRANCH   1  12
ATOM     12  C   UNL     1      26.569  37.267   2.749  1.00  0.00     0.025 A 
ATOM     13  C   UNL     1      26.810  36.874   4.078  1.00  0.00     0.016 A 
ATOM     14  C   UNL     1      26.195  35.732   4.598  1.00  0.00     0.051 A 
ATOM     15  C   UNL     1      25.342  34.961   3.797  1.00  0.00     0.157 A 
ATOM     16  C   UNL     1      25.730  36.479   1.945  1.00  0.00     0.062 A 
ATOM     17  C   UNL     1      25.112  35.334   2.467  1.00  0.00     0.158 A 
BRANCH  15  18
ATOM     18  O   UNL     1      24.725  33.823   4.313  1.00  0.00    -0.504 OA
ATOM     19  H   UNL     1      23.720  33.706   4.284  1.00  0.00     0.293 HD
ENDBRANCH  15  18
BRANCH  17  20
ATOM     20  O   UNL     1      24.270  34.562   1.669  1.00  0.00    -0.504 OA
ATOM     21  H   UNL     1      24.544  34.265   0.740  1.00  0.00     0.293 HD
ENDBRANCH  17  20
ENDBRANCH   1  12
BRANCH   2  22
ATOM     22  O   UNL     1      25.502  39.954   3.004  1.00  0.00    -0.502 OA
ATOM     23  H   UNL     1      25.417  39.824   4.006  1.00  0.00     0.293 HD
ENDBRANCH   2  22
BRANCH   6  24
ATOM     24  O   UNL     1      28.936  42.975   0.530  1.00  0.00    -0.507 OA
ATOM     25  H   UNL     1      29.571  43.739   0.327  1.00  0.00     0.293 HD
ENDBRANCH   6  24
BRANCH   8  26
ATOM     26  O   UNL     1      32.089  39.719  -1.125  1.00  0.00    -0.508 OA
ATOM     27  H   UNL     1      32.503  38.794  -1.117  1.00  0.00     0.293 HD
ENDBRANCH   8  26
TORSDOF 6
ENDMDL
