MODEL 1
REMARK VINA RESULT:    -4.829      0.000      0.000
REMARK INTER + INTRA:          -6.346
REMARK INTER:                  -6.805
REMARK INTRA:                   0.459
REMARK UNBOUND:                 0.459
REMARK SMILES CC1=CCC(=C(C)C)C(=O)CC(C)=CCC1
REMARK SMILES IDX 12 1 14 2 13 3 15 4 16 5 2 6 1 7 3 8 11 10 9 11 10 12 5 13
REMARK SMILES IDX 6 14 7 15 8 16 4 17
REMARK H PARENT
REMARK Flexibility Score: 60.00
ROOT
ATOM      1  C   UNL     1     128.272 -13.970 193.553  1.00  0.00    -0.070 C 
ATOM      2  C   UNL     1     127.639 -14.229 192.383  1.00  0.00    -0.027 C 
ATOM      3  C   UNL     1     129.322 -14.953 194.009  1.00  0.00     0.039 C 
ENDROOT
BRANCH   2   4
ATOM      4  C   UNL     1     126.638 -13.337 191.691  1.00  0.00     0.032 C 
BRANCH   4   5
ATOM      5  C   UNL     1     127.301 -12.360 190.700  1.00  0.00     0.034 C 
BRANCH   5   6
ATOM      6  C   UNL     1     126.889 -10.922 190.952  1.00  0.00    -0.077 C 
ATOM      7  C   UNL     1     125.553 -10.460 190.427  1.00  0.00     0.039 C 
ATOM      8  C   UNL     1     127.663 -10.022 191.599  1.00  0.00    -0.023 CG0
ATOM      9  G   UNL     1     129.039 -10.284 192.162  1.00  0.00     0.000 G0
ENDBRANCH   5   6
ENDBRANCH   4   5
ENDBRANCH   2   4
BRANCH   1  10
ATOM     10  C   UNL     1     128.030 -12.721 194.384  1.00  0.00     0.111 C 
BRANCH  10  11
ATOM     11  C   UNL     1     129.173 -11.745 194.265  1.00  0.00     0.163 C 
ATOM     12  O   UNL     1     130.299 -12.090 194.717  1.00  0.00    -0.294 OA
BRANCH  11  13
ATOM     13  C   UNL     1     128.991 -10.379 193.680  1.00  0.00    -0.002 C 
ATOM     14  C   UNL     1     128.847  -9.272 194.471  1.00  0.00    -0.069 C 
ATOM     15  C   UNL     1     128.939  -9.357 195.977  1.00  0.00     0.039 C 
ATOM     16  C   UNL     1     128.625  -7.900 193.872  1.00  0.00     0.039 C 
BRANCH  13  17
ATOM     17  C   UNL     1     129.047 -10.264 192.168  1.00  0.00     0.066 CG0
ATOM     18  G   UNL     1     127.659 -10.032 191.621  1.00  0.00     0.000 G0
ENDBRANCH  13  17
ENDBRANCH  11  13
ENDBRANCH  10  11
ENDBRANCH   1  10
TORSDOF 0
ENDMDL
MODEL 2
REMARK VINA RESULT:    -4.726      1.599      3.887
REMARK INTER + INTRA:          -6.202
REMARK INTER:                  -6.724
REMARK INTRA:                   0.522
REMARK UNBOUND:                 0.459
REMARK SMILES CC1=CCC(=C(C)C)C(=O)CC(C)=CCC1
REMARK SMILES IDX 12 1 14 2 13 3 15 4 16 5 2 6 1 7 3 8 11 10 9 11 10 12 5 13
REMARK SMILES IDX 6 14 7 15 8 16 4 17
REMARK H PARENT
REMARK Flexibility Score: 60.00
ROOT
ATOM      1  C   UNL     1     128.473 -13.189 194.032  1.00  0.00    -0.070 C 
ATOM      2  C   UNL     1     129.322 -12.244 194.502  1.00  0.00    -0.027 C 
ATOM      3  C   UNL     1     128.959 -14.618 194.019  1.00  0.00     0.039 C 
ENDROOT
BRANCH   2   4
ATOM      4  C   UNL     1     129.011 -10.781 194.702  1.00  0.00     0.032 C 
BRANCH   4   5
ATOM      5  C   UNL     1     129.383  -9.923 193.477  1.00  0.00     0.034 C 
BRANCH   5   6
ATOM      6  C   UNL     1     128.173  -9.238 192.870  1.00  0.00    -0.077 C 
ATOM      7  C   UNL     1     127.677  -7.966 193.509  1.00  0.00     0.039 C 
ATOM      8  C   UNL     1     127.497  -9.718 191.802  1.00  0.00    -0.023 CG0
ATOM      9  G   UNL     1     127.817 -10.988 191.052  1.00  0.00     0.000 G0
ENDBRANCH   5   6
ENDBRANCH   4   5
ENDBRANCH   2   4
BRANCH   1  10
ATOM     10  C   UNL     1     127.050 -12.898 193.586  1.00  0.00     0.111 C 
BRANCH  10  11
ATOM     11  C   UNL     1     126.876 -13.120 192.105  1.00  0.00     0.163 C 
ATOM     12  O   UNL     1     126.940 -14.301 191.669  1.00  0.00    -0.294 OA
BRANCH  11  13
ATOM     13  C   UNL     1     126.686 -11.982 191.150  1.00  0.00    -0.002 C 
ATOM     14  C   UNL     1     125.515 -11.806 190.466  1.00  0.00    -0.069 C 
ATOM     15  C   UNL     1     124.323 -12.708 190.691  1.00  0.00     0.039 C 
ATOM     16  C   UNL     1     125.344 -10.675 189.474  1.00  0.00     0.039 C 
BRANCH  13  17
ATOM     17  C   UNL     1     127.824 -10.985 191.030  1.00  0.00     0.066 CG0
ATOM     18  G   UNL     1     127.487  -9.729 191.796  1.00  0.00     0.000 G0
ENDBRANCH  13  17
ENDBRANCH  11  13
ENDBRANCH  10  11
ENDBRANCH   1  10
TORSDOF 0
ENDMDL
MODEL 3
REMARK VINA RESULT:    -4.603      1.839      3.492
REMARK INTER + INTRA:          -6.028
REMARK INTER:                  -6.869
REMARK INTRA:                   0.841
REMARK UNBOUND:                 0.459
REMARK SMILES CC1=CCC(=C(C)C)C(=O)CC(C)=CCC1
REMARK SMILES IDX 12 1 14 2 13 3 15 4 16 5 2 6 1 7 3 8 11 10 9 11 10 12 5 13
REMARK SMILES IDX 6 14 7 15 8 16 4 17
REMARK H PARENT
REMARK Flexibility Score: 60.00
ROOT
ATOM      1  C   UNL     1     127.112 -13.350 192.460  1.00  0.00    -0.070 C 
ATOM      2  C   UNL     1     126.657 -12.224 191.861  1.00  0.00    -0.027 C 
ATOM      3  C   UNL     1     127.114 -14.620 191.644  1.00  0.00     0.039 C 
ENDROOT
BRANCH   2   4
ATOM      4  C   UNL     1     126.662 -10.834 192.449  1.00  0.00     0.032 C 
BRANCH   4   5
ATOM      5  C   UNL     1     127.938 -10.045 192.094  1.00  0.00     0.034 C 
BRANCH   5   6
ATOM      6  C   UNL     1     128.825  -9.819 193.302  1.00  0.00    -0.077 C 
ATOM      7  C   UNL     1     128.582  -8.595 194.148  1.00  0.00     0.039 C 
ATOM      8  C   UNL     1     129.841 -10.640 193.651  1.00  0.00    -0.023 CG0
ATOM      9  G   UNL     1     130.261 -11.889 192.914  1.00  0.00     0.000 G0
ENDBRANCH   5   6
ENDBRANCH   4   5
ENDBRANCH   2   4
BRANCH   1  10
ATOM     10  C   UNL     1     127.677 -13.388 193.870  1.00  0.00     0.111 C 
BRANCH  10  11
ATOM     11  C   UNL     1     129.072 -13.959 193.894  1.00  0.00     0.163 C 
ATOM     12  O   UNL     1     129.200 -15.212 193.964  1.00  0.00    -0.294 OA
BRANCH  11  13
ATOM     13  C   UNL     1     130.287 -13.084 193.891  1.00  0.00    -0.002 C 
ATOM     14  C   UNL     1     131.379 -13.368 194.664  1.00  0.00    -0.069 C 
ATOM     15  C   UNL     1     131.449 -14.620 195.508  1.00  0.00     0.039 C 
ATOM     16  C   UNL     1     132.588 -12.457 194.683  1.00  0.00     0.039 C 
BRANCH  13  17
ATOM     17  C   UNL     1     130.285 -11.906 192.935  1.00  0.00     0.066 CG0
ATOM     18  G   UNL     1     129.848 -10.657 193.662  1.00  0.00     0.000 G0
ENDBRANCH  13  17
ENDBRANCH  11  13
ENDBRANCH  10  11
ENDBRANCH   1  10
TORSDOF 0
ENDMDL
MODEL 4
REMARK VINA RESULT:    -4.590      1.924      4.345
REMARK INTER + INTRA:          -6.010
REMARK INTER:                  -6.734
REMARK INTRA:                   0.724
REMARK UNBOUND:                 0.459
REMARK SMILES CC1=CCC(=C(C)C)C(=O)CC(C)=CCC1
REMARK SMILES IDX 12 1 14 2 13 3 15 4 16 5 2 6 1 7 3 8 11 10 9 11 10 12 5 13
REMARK SMILES IDX 6 14 7 15 8 16 4 17
REMARK H PARENT
REMARK Flexibility Score: 60.00
ROOT
ATOM      1  C   UNL     1     131.034 -13.117 194.948  1.00  0.00    -0.070 C 
ATOM      2  C   UNL     1     131.315 -11.996 195.655  1.00  0.00    -0.027 C 
ATOM      3  C   UNL     1     131.403 -14.442 195.569  1.00  0.00     0.039 C 
ENDROOT
BRANCH   2   4
ATOM      4  C   UNL     1     130.941 -10.583 195.277  1.00  0.00     0.032 C 
BRANCH   4   5
ATOM      5  C   UNL     1     129.492 -10.229 195.664  1.00  0.00     0.034 C 
BRANCH   5   6
ATOM      6  C   UNL     1     128.646  -9.881 194.455  1.00  0.00    -0.077 C 
ATOM      7  C   UNL     1     128.860  -8.544 193.793  1.00  0.00     0.039 C 
ATOM      8  C   UNL     1     127.689 -10.693 193.951  1.00  0.00    -0.023 CG0
ATOM      9  G   UNL     1     127.304 -12.048 194.494  1.00  0.00     0.000 G0
ENDBRANCH   5   6
ENDBRANCH   4   5
ENDBRANCH   2   4
BRANCH   1  10
ATOM     10  C   UNL     1     130.314 -13.113 193.609  1.00  0.00     0.111 C 
BRANCH  10  11
ATOM     11  C   UNL     1     128.991 -13.832 193.689  1.00  0.00     0.163 C 
ATOM     12  O   UNL     1     129.001 -15.074 193.904  1.00  0.00    -0.294 OA
BRANCH  11  13
ATOM     13  C   UNL     1     127.690 -13.123 193.470  1.00  0.00    -0.002 C 
ATOM     14  C   UNL     1     126.850 -13.463 192.445  1.00  0.00    -0.069 C 
ATOM     15  C   UNL     1     127.154 -14.622 191.523  1.00  0.00     0.039 C 
ATOM     16  C   UNL     1     125.555 -12.717 192.208  1.00  0.00     0.039 C 
BRANCH  13  17
ATOM     17  C   UNL     1     127.307 -12.057 194.479  1.00  0.00     0.066 CG0
ATOM     18  G   UNL     1     127.692 -10.694 193.956  1.00  0.00     0.000 G0
ENDBRANCH  13  17
ENDBRANCH  11  13
ENDBRANCH  10  11
ENDBRANCH   1  10
TORSDOF 0
ENDMDL
MODEL 5
REMARK VINA RESULT:    -4.582      1.868      3.954
REMARK INTER + INTRA:          -5.998
REMARK INTER:                  -6.727
REMARK INTRA:                   0.729
REMARK UNBOUND:                 0.459
REMARK SMILES CC1=CCC(=C(C)C)C(=O)CC(C)=CCC1
REMARK SMILES IDX 12 1 14 2 13 3 15 4 16 5 2 6 1 7 3 8 11 10 9 11 10 12 5 13
REMARK SMILES IDX 6 14 7 15 8 16 4 17
REMARK H PARENT
REMARK Flexibility Score: 60.00
ROOT
ATOM      1  C   UNL     1     127.635 -13.533 193.329  1.00  0.00    -0.070 C 
ATOM      2  C   UNL     1     128.622 -14.446 193.490  1.00  0.00    -0.027 C 
ATOM      3  C   UNL     1     126.807 -13.619 192.070  1.00  0.00     0.039 C 
ENDROOT
BRANCH   2   4
ATOM      4  C   UNL     1     129.497 -14.611 194.709  1.00  0.00     0.032 C 
BRANCH   4   5
ATOM      5  C   UNL     1     130.968 -14.238 194.438  1.00  0.00     0.034 C 
BRANCH   5   6
ATOM      6  C   UNL     1     131.335 -12.892 195.035  1.00  0.00    -0.077 C 
ATOM      7  C   UNL     1     131.961 -12.865 196.406  1.00  0.00     0.039 C 
ATOM      8  C   UNL     1     131.110 -11.711 194.416  1.00  0.00    -0.023 CG0
ATOM      9  G   UNL     1     130.465 -11.532 193.063  1.00  0.00     0.000 G0
ENDBRANCH   5   6
ENDBRANCH   4   5
ENDBRANCH   2   4
BRANCH   1  10
ATOM     10  C   UNL     1     127.277 -12.483 194.368  1.00  0.00     0.111 C 
BRANCH  10  11
ATOM     11  C   UNL     1     128.298 -11.374 194.410  1.00  0.00     0.163 C 
ATOM     12  O   UNL     1     128.462 -10.759 195.498  1.00  0.00    -0.294 OA
BRANCH  11  13
ATOM     13  C   UNL     1     129.068 -10.959 193.194  1.00  0.00    -0.002 C 
ATOM     14  C   UNL     1     128.558 -10.069 192.289  1.00  0.00    -0.069 C 
ATOM     15  C   UNL     1     127.220  -9.399 192.505  1.00  0.00     0.039 C 
ATOM     16  C   UNL     1     129.327  -9.685 191.044  1.00  0.00     0.039 C 
BRANCH  13  17
ATOM     17  C   UNL     1     130.473 -11.513 193.047  1.00  0.00     0.066 CG0
ATOM     18  G   UNL     1     131.097 -11.697 194.409  1.00  0.00     0.000 G0
ENDBRANCH  13  17
ENDBRANCH  11  13
ENDBRANCH  10  11
ENDBRANCH   1  10
TORSDOF 0
ENDMDL
MODEL 6
REMARK VINA RESULT:    -4.481      1.801      3.754
REMARK INTER + INTRA:          -5.857
REMARK INTER:                  -6.294
REMARK INTRA:                   0.437
REMARK UNBOUND:                 0.459
REMARK SMILES CC1=CCC(=C(C)C)C(=O)CC(C)=CCC1
REMARK SMILES IDX 12 1 14 2 13 3 15 4 16 5 2 6 1 7 3 8 11 10 9 11 10 12 5 13
REMARK SMILES IDX 6 14 7 15 8 16 4 17
REMARK H PARENT
REMARK Flexibility Score: 60.00
ROOT
ATOM      1  C   UNL     1     128.801 -11.067 194.375  1.00  0.00    -0.070 C 
ATOM      2  C   UNL     1     127.897 -12.010 194.732  1.00  0.00    -0.027 C 
ATOM      3  C   UNL     1     129.293 -10.131 195.452  1.00  0.00     0.039 C 
ENDROOT
BRANCH   2   4
ATOM      4  C   UNL     1     127.353 -13.107 193.850  1.00  0.00     0.032 C 
BRANCH   4   5
ATOM      5  C   UNL     1     126.022 -12.722 193.176  1.00  0.00     0.034 C 
BRANCH   5   6
ATOM      6  C   UNL     1     126.048 -12.960 191.678  1.00  0.00    -0.077 C 
ATOM      7  C   UNL     1     125.861 -14.369 191.175  1.00  0.00     0.039 C 
ATOM      8  C   UNL     1     126.257 -11.983 190.767  1.00  0.00    -0.023 CG0
ATOM      9  G   UNL     1     126.500 -10.525 191.076  1.00  0.00     0.000 G0
ENDBRANCH   5   6
ENDBRANCH   4   5
ENDBRANCH   2   4
BRANCH   1  10
ATOM     10  C   UNL     1     129.391 -10.948 192.979  1.00  0.00     0.111 C 
BRANCH  10  11
ATOM     11  C   UNL     1     128.709  -9.868 192.179  1.00  0.00     0.163 C 
ATOM     12  O   UNL     1     128.743  -8.688 192.623  1.00  0.00    -0.294 OA
BRANCH  11  13
ATOM     13  C   UNL     1     127.959 -10.169 190.918  1.00  0.00    -0.002 C 
ATOM     14  C   UNL     1     128.582 -10.200 189.701  1.00  0.00    -0.069 C 
ATOM     15  C   UNL     1     130.076 -10.005 189.571  1.00  0.00     0.039 C 
ATOM     16  C   UNL     1     127.810 -10.467 188.427  1.00  0.00     0.039 C 
BRANCH  13  17
ATOM     17  C   UNL     1     126.488 -10.512 191.057  1.00  0.00     0.066 CG0
ATOM     18  G   UNL     1     126.275 -11.979 190.770  1.00  0.00     0.000 G0
ENDBRANCH  13  17
ENDBRANCH  11  13
ENDBRANCH  10  11
ENDBRANCH   1  10
TORSDOF 0
ENDMDL
MODEL 7
REMARK VINA RESULT:    -4.368      1.784      4.113
REMARK INTER + INTRA:          -5.697
REMARK INTER:                  -6.395
REMARK INTRA:                   0.698
REMARK UNBOUND:                 0.459
REMARK SMILES CC1=CCC(=C(C)C)C(=O)CC(C)=CCC1
REMARK SMILES IDX 12 1 14 2 13 3 15 4 16 5 2 6 1 7 3 8 11 10 9 11 10 12 5 13
REMARK SMILES IDX 6 14 7 15 8 16 4 17
REMARK H PARENT
REMARK Flexibility Score: 60.00
ROOT
ATOM      1  C   UNL     1     126.416 -13.132 192.245  1.00  0.00    -0.070 C 
ATOM      2  C   UNL     1     127.376 -13.520 193.118  1.00  0.00    -0.027 C 
ATOM      3  C   UNL     1     126.084 -14.072 191.112  1.00  0.00     0.039 C 
ENDROOT
BRANCH   2   4
ATOM      4  C   UNL     1     127.792 -12.791 194.373  1.00  0.00     0.032 C 
BRANCH   4   5
ATOM      5  C   UNL     1     129.168 -12.112 194.236  1.00  0.00     0.034 C 
BRANCH   5   6
ATOM      6  C   UNL     1     129.048 -10.620 193.993  1.00  0.00    -0.077 C 
ATOM      7  C   UNL     1     129.025  -9.701 195.188  1.00  0.00     0.039 C 
ATOM      8  C   UNL     1     128.933 -10.067 192.765  1.00  0.00    -0.023 CG0
ATOM      9  G   UNL     1     128.899 -10.820 191.457  1.00  0.00     0.000 G0
ENDBRANCH   5   6
ENDBRANCH   4   5
ENDBRANCH   2   4
BRANCH   1  10
ATOM     10  C   UNL     1     125.618 -11.846 192.384  1.00  0.00     0.111 C 
BRANCH  10  11
ATOM     11  C   UNL     1     126.376 -10.661 191.841  1.00  0.00     0.163 C 
ATOM     12  O   UNL     1     126.006  -9.508 192.191  1.00  0.00    -0.294 OA
BRANCH  11  13
ATOM     13  C   UNL     1     127.505 -10.820 190.871  1.00  0.00    -0.002 C 
ATOM     14  C   UNL     1     127.289 -10.911 189.524  1.00  0.00    -0.069 C 
ATOM     15  C   UNL     1     125.902 -10.781 188.935  1.00  0.00     0.039 C 
ATOM     16  C   UNL     1     128.433 -11.109 188.553  1.00  0.00     0.039 C 
BRANCH  13  17
ATOM     17  C   UNL     1     128.912 -10.801 191.441  1.00  0.00     0.066 CG0
ATOM     18  G   UNL     1     128.920 -10.065 192.759  1.00  0.00     0.000 G0
ENDBRANCH  13  17
ENDBRANCH  11  13
ENDBRANCH  10  11
ENDBRANCH   1  10
TORSDOF 0
ENDMDL
MODEL 8
REMARK VINA RESULT:    -4.353      1.755      4.003
REMARK INTER + INTRA:          -5.676
REMARK INTER:                  -6.306
REMARK INTRA:                   0.630
REMARK UNBOUND:                 0.459
REMARK SMILES CC1=CCC(=C(C)C)C(=O)CC(C)=CCC1
REMARK SMILES IDX 12 1 14 2 13 3 15 4 16 5 2 6 1 7 3 8 11 10 9 11 10 12 5 13
REMARK SMILES IDX 6 14 7 15 8 16 4 17
REMARK H PARENT
REMARK Flexibility Score: 60.00
ROOT
ATOM      1  C   UNL     1     128.112  -9.276 192.980  1.00  0.00    -0.070 C 
ATOM      2  C   UNL     1     126.889  -9.445 192.423  1.00  0.00    -0.027 C 
ATOM      3  C   UNL     1     128.289  -8.122 193.935  1.00  0.00     0.039 C 
ENDROOT
BRANCH   2   4
ATOM      4  C   UNL     1     126.462 -10.584 191.529  1.00  0.00     0.032 C 
BRANCH   4   5
ATOM      5  C   UNL     1     125.975 -11.811 192.324  1.00  0.00     0.034 C 
BRANCH   5   6
ATOM      6  C   UNL     1     126.792 -13.052 192.017  1.00  0.00    -0.077 C 
ATOM      7  C   UNL     1     126.521 -13.785 190.728  1.00  0.00     0.039 C 
ATOM      8  C   UNL     1     127.733 -13.554 192.848  1.00  0.00    -0.023 CG0
ATOM      9  G   UNL     1     128.119 -12.985 194.192  1.00  0.00     0.000 G0
ENDBRANCH   5   6
ENDBRANCH   4   5
ENDBRANCH   2   4
BRANCH   1  10
ATOM     10  C   UNL     1     129.283 -10.218 192.748  1.00  0.00     0.111 C 
BRANCH  10  11
ATOM     11  C   UNL     1     129.668 -10.946 194.011  1.00  0.00     0.163 C 
ATOM     12  O   UNL     1     130.160 -10.274 194.958  1.00  0.00    -0.294 OA
BRANCH  11  13
ATOM     13  C   UNL     1     129.531 -12.431 194.143  1.00  0.00    -0.002 C 
ATOM     14  C   UNL     1     130.622 -13.245 194.277  1.00  0.00    -0.069 C 
ATOM     15  C   UNL     1     132.022 -12.683 194.374  1.00  0.00     0.039 C 
ATOM     16  C   UNL     1     130.476 -14.748 194.371  1.00  0.00     0.039 C 
BRANCH  13  17
ATOM     17  C   UNL     1     128.121 -12.991 194.196  1.00  0.00     0.066 CG0
ATOM     18  G   UNL     1     127.741 -13.551 192.847  1.00  0.00     0.000 G0
ENDBRANCH  13  17
ENDBRANCH  11  13
ENDBRANCH  10  11
ENDBRANCH   1  10
TORSDOF 0
ENDMDL
MODEL 9
REMARK VINA RESULT:    -4.185      2.646      4.400
REMARK INTER + INTRA:          -5.440
REMARK INTER:                  -6.370
REMARK INTRA:                   0.930
REMARK UNBOUND:                 0.459
REMARK SMILES CC1=CCC(=C(C)C)C(=O)CC(C)=CCC1
REMARK SMILES IDX 12 1 14 2 13 3 15 4 16 5 2 6 1 7 3 8 11 10 9 11 10 12 5 13
REMARK SMILES IDX 6 14 7 15 8 16 4 17
REMARK H PARENT
REMARK Flexibility Score: 60.00
ROOT
ATOM      1  C   UNL     1     127.803 -11.039 190.454  1.00  0.00    -0.070 C 
ATOM      2  C   UNL     1     127.618 -11.666 189.269  1.00  0.00    -0.027 C 
ATOM      3  C   UNL     1     129.199 -10.568 190.783  1.00  0.00     0.039 C 
ENDROOT
BRANCH   2   4
ATOM      4  C   UNL     1     126.299 -12.122 188.694  1.00  0.00     0.032 C 
BRANCH   4   5
ATOM      5  C   UNL     1     126.153 -13.656 188.690  1.00  0.00     0.034 C 
BRANCH   5   6
ATOM      6  C   UNL     1     125.174 -14.141 189.742  1.00  0.00    -0.077 C 
ATOM      7  C   UNL     1     123.719 -14.253 189.367  1.00  0.00     0.039 C 
ATOM      8  C   UNL     1     125.529 -14.453 191.009  1.00  0.00    -0.023 CG0
ATOM      9  G   UNL     1     126.924 -14.371 191.581  1.00  0.00     0.000 G0
ENDBRANCH   5   6
ENDBRANCH   4   5
ENDBRANCH   2   4
BRANCH   1  10
ATOM     10  C   UNL     1     126.679 -10.727 191.429  1.00  0.00     0.111 C 
BRANCH  10  11
ATOM     11  C   UNL     1     126.174 -11.973 192.111  1.00  0.00     0.163 C 
ATOM     12  O   UNL     1     124.962 -12.012 192.457  1.00  0.00    -0.294 OA
BRANCH  11  13
ATOM     13  C   UNL     1     127.077 -13.124 192.427  1.00  0.00    -0.002 C 
ATOM     14  C   UNL     1     127.960 -13.080 193.472  1.00  0.00    -0.069 C 
ATOM     15  C   UNL     1     128.018 -11.895 194.409  1.00  0.00     0.039 C 
ATOM     16  C   UNL     1     128.896 -14.233 193.762  1.00  0.00     0.039 C 
BRANCH  13  17
ATOM     17  C   UNL     1     126.921 -14.376 191.584  1.00  0.00     0.066 CG0
ATOM     18  G   UNL     1     125.525 -14.437 191.013  1.00  0.00     0.000 G0
ENDBRANCH  13  17
ENDBRANCH  11  13
ENDBRANCH  10  11
ENDBRANCH   1  10
TORSDOF 0
ENDMDL
