MODEL 1
REMARK VINA RESULT:    -5.508      0.000      0.000
REMARK INTER + INTRA:          -5.508
REMARK INTER:                  -5.508
REMARK INTRA:                   0.000
REMARK UNBOUND:                 0.000
REMARK SMILES O=c1ccc2ccccc2o1
REMARK SMILES IDX 7 1 8 2 9 3 10 4 5 5 6 6 4 7 3 8 2 9 1 10 11 11
REMARK H PARENT
REMARK Flexibility Score: inf
ROOT
ATOM      1  C   UNL     1      21.365  27.875  29.766  1.00  0.00     0.001 A 
ATOM      2  C   UNL     1      22.470  27.073  30.074  1.00  0.00     0.004 A 
ATOM      3  C   UNL     1      23.452  27.536  30.957  1.00  0.00     0.048 A 
ATOM      4  C   UNL     1      23.332  28.805  31.534  1.00  0.00     0.138 A 
ATOM      5  C   UNL     1      22.216  29.615  31.224  1.00  0.00     0.018 A 
ATOM      6  C   UNL     1      21.235  29.145  30.339  1.00  0.00     0.012 A 
ATOM      7  C   UNL     1      22.123  30.878  31.816  1.00  0.00     0.019 A 
ATOM      8  C   UNL     1      23.126  31.299  32.691  1.00  0.00     0.094 A 
ATOM      9  C   UNL     1      24.202  30.443  32.952  1.00  0.00     0.336 A 
ATOM     10  O   UNL     1      25.115  30.805  33.737  1.00  0.00    -0.246 OA
ATOM     11  O   UNL     1      24.266  29.246  32.374  1.00  0.00    -0.423 OA
ENDROOT
TORSDOF 0
ENDMDL
MODEL 2
REMARK VINA RESULT:    -5.459      1.656      2.948
REMARK INTER + INTRA:          -5.459
REMARK INTER:                  -5.459
REMARK INTRA:                   0.000
REMARK UNBOUND:                 0.000
REMARK SMILES O=c1ccc2ccccc2o1
REMARK SMILES IDX 7 1 8 2 9 3 10 4 5 5 6 6 4 7 3 8 2 9 1 10 11 11
REMARK H PARENT
REMARK Flexibility Score: inf
ROOT
ATOM      1  C   UNL     1      21.340  25.947  28.556  1.00  0.00     0.001 A 
ATOM      2  C   UNL     1      20.228  26.795  28.524  1.00  0.00     0.004 A 
ATOM      3  C   UNL     1      20.217  27.970  29.284  1.00  0.00     0.048 A 
ATOM      4  C   UNL     1      21.320  28.300  30.080  1.00  0.00     0.138 A 
ATOM      5  C   UNL     1      22.443  27.443  30.111  1.00  0.00     0.018 A 
ATOM      6  C   UNL     1      22.449  26.267  29.348  1.00  0.00     0.012 A 
ATOM      7  C   UNL     1      23.530  27.799  30.915  1.00  0.00     0.019 A 
ATOM      8  C   UNL     1      23.476  28.980  31.656  1.00  0.00     0.094 A 
ATOM      9  C   UNL     1      22.330  29.779  31.576  1.00  0.00     0.336 A 
ATOM     10  O   UNL     1      22.262  30.848  32.236  1.00  0.00    -0.246 OA
ATOM     11  O   UNL     1      21.309  29.418  30.802  1.00  0.00    -0.423 OA
ENDROOT
TORSDOF 0
ENDMDL
MODEL 3
REMARK VINA RESULT:    -5.278      1.424      2.440
REMARK INTER + INTRA:          -5.278
REMARK INTER:                  -5.278
REMARK INTRA:                   0.000
REMARK UNBOUND:                 0.000
REMARK SMILES O=c1ccc2ccccc2o1
REMARK SMILES IDX 7 1 8 2 9 3 10 4 5 5 6 6 4 7 3 8 2 9 1 10 11 11
REMARK H PARENT
REMARK Flexibility Score: inf
ROOT
ATOM      1  C   UNL     1      20.638  26.160  28.158  1.00  0.00     0.001 A 
ATOM      2  C   UNL     1      21.918  25.599  28.227  1.00  0.00     0.004 A 
ATOM      3  C   UNL     1      22.896  26.174  29.046  1.00  0.00     0.048 A 
ATOM      4  C   UNL     1      22.596  27.315  29.799  1.00  0.00     0.138 A 
ATOM      5  C   UNL     1      21.304  27.882  29.730  1.00  0.00     0.018 A 
ATOM      6  C   UNL     1      20.328  27.300  28.907  1.00  0.00     0.012 A 
ATOM      7  C   UNL     1      21.034  29.021  30.493  1.00  0.00     0.019 A 
ATOM      8  C   UNL     1      22.039  29.561  31.296  1.00  0.00     0.094 A 
ATOM      9  C   UNL     1      23.296  28.946  31.314  1.00  0.00     0.336 A 
ATOM     10  O   UNL     1      24.216  29.418  32.032  1.00  0.00    -0.246 OA
ATOM     11  O   UNL     1      23.527  27.862  30.578  1.00  0.00    -0.423 OA
ENDROOT
TORSDOF 0
ENDMDL
MODEL 4
REMARK VINA RESULT:    -5.063      1.528      4.281
REMARK INTER + INTRA:          -5.063
REMARK INTER:                  -5.063
REMARK INTRA:                   0.000
REMARK UNBOUND:                 0.000
REMARK SMILES O=c1ccc2ccccc2o1
REMARK SMILES IDX 7 1 8 2 9 3 10 4 5 5 6 6 4 7 3 8 2 9 1 10 11 11
REMARK H PARENT
REMARK Flexibility Score: inf
ROOT
ATOM      1  C   UNL     1      23.168  33.699  33.818  1.00  0.00     0.001 A 
ATOM      2  C   UNL     1      24.289  33.129  34.430  1.00  0.00     0.004 A 
ATOM      3  C   UNL     1      24.670  31.818  34.122  1.00  0.00     0.048 A 
ATOM      4  C   UNL     1      23.929  31.073  33.198  1.00  0.00     0.138 A 
ATOM      5  C   UNL     1      22.797  31.649  32.579  1.00  0.00     0.018 A 
ATOM      6  C   UNL     1      22.420  32.962  32.892  1.00  0.00     0.012 A 
ATOM      7  C   UNL     1      22.077  30.880  31.660  1.00  0.00     0.019 A 
ATOM      8  C   UNL     1      22.492  29.577  31.382  1.00  0.00     0.094 A 
ATOM      9  C   UNL     1      23.624  29.073  32.034  1.00  0.00     0.336 A 
ATOM     10  O   UNL     1      24.015  27.901  31.796  1.00  0.00    -0.246 OA
ATOM     11  O   UNL     1      24.292  29.826  32.904  1.00  0.00    -0.423 OA
ENDROOT
TORSDOF 0
ENDMDL
MODEL 5
REMARK VINA RESULT:    -4.986      3.762      5.841
REMARK INTER + INTRA:          -4.986
REMARK INTER:                  -4.986
REMARK INTRA:                   0.000
REMARK UNBOUND:                 0.000
REMARK SMILES O=c1ccc2ccccc2o1
REMARK SMILES IDX 7 1 8 2 9 3 10 4 5 5 6 6 4 7 3 8 2 9 1 10 11 11
REMARK H PARENT
REMARK Flexibility Score: inf
ROOT
ATOM      1  C   UNL     1      21.102  28.029  30.114  1.00  0.00     0.001 A 
ATOM      2  C   UNL     1      22.484  28.057  30.332  1.00  0.00     0.004 A 
ATOM      3  C   UNL     1      23.348  27.384  29.461  1.00  0.00     0.048 A 
ATOM      4  C   UNL     1      22.831  26.679  28.369  1.00  0.00     0.138 A 
ATOM      5  C   UNL     1      21.436  26.651  28.148  1.00  0.00     0.018 A 
ATOM      6  C   UNL     1      20.575  27.328  29.024  1.00  0.00     0.012 A 
ATOM      7  C   UNL     1      20.949  25.939  27.048  1.00  0.00     0.019 A 
ATOM      8  C   UNL     1      21.847  25.282  26.206  1.00  0.00     0.094 A 
ATOM      9  C   UNL     1      23.216  25.354  26.486  1.00  0.00     0.336 A 
ATOM     10  O   UNL     1      24.042  24.769  25.738  1.00  0.00    -0.246 OA
ATOM     11  O   UNL     1      23.653  26.039  27.540  1.00  0.00    -0.423 OA
ENDROOT
TORSDOF 0
ENDMDL
MODEL 6
REMARK VINA RESULT:    -4.963      2.696      4.762
REMARK INTER + INTRA:          -4.963
REMARK INTER:                  -4.963
REMARK INTRA:                   0.000
REMARK UNBOUND:                 0.000
REMARK SMILES O=c1ccc2ccccc2o1
REMARK SMILES IDX 7 1 8 2 9 3 10 4 5 5 6 6 4 7 3 8 2 9 1 10 11 11
REMARK H PARENT
REMARK Flexibility Score: inf
ROOT
ATOM      1  C   UNL     1      22.125  29.626  31.405  1.00  0.00     0.001 A 
ATOM      2  C   UNL     1      23.325  28.931  31.590  1.00  0.00     0.004 A 
ATOM      3  C   UNL     1      23.563  27.739  30.897  1.00  0.00     0.048 A 
ATOM      4  C   UNL     1      22.599  27.237  30.017  1.00  0.00     0.138 A 
ATOM      5  C   UNL     1      21.386  27.938  29.829  1.00  0.00     0.018 A 
ATOM      6  C   UNL     1      21.154  29.132  30.526  1.00  0.00     0.012 A 
ATOM      7  C   UNL     1      20.442  27.411  28.943  1.00  0.00     0.019 A 
ATOM      8  C   UNL     1      20.721  26.219  28.274  1.00  0.00     0.094 A 
ATOM      9  C   UNL     1      21.943  25.580  28.509  1.00  0.00     0.336 A 
ATOM     10  O   UNL     1      22.214  24.504  27.915  1.00  0.00    -0.246 OA
ATOM     11  O   UNL     1      22.825  26.102  29.357  1.00  0.00    -0.423 OA
ENDROOT
TORSDOF 0
ENDMDL
MODEL 7
REMARK VINA RESULT:    -4.940      2.010      4.724
REMARK INTER + INTRA:          -4.940
REMARK INTER:                  -4.940
REMARK INTRA:                   0.000
REMARK UNBOUND:                 0.000
REMARK SMILES O=c1ccc2ccccc2o1
REMARK SMILES IDX 7 1 8 2 9 3 10 4 5 5 6 6 4 7 3 8 2 9 1 10 11 11
REMARK H PARENT
REMARK Flexibility Score: inf
ROOT
ATOM      1  C   UNL     1      24.188  33.429  35.285  1.00  0.00     0.001 A 
ATOM      2  C   UNL     1      25.117  32.432  35.603  1.00  0.00     0.004 A 
ATOM      3  C   UNL     1      25.180  31.259  34.842  1.00  0.00     0.048 A 
ATOM      4  C   UNL     1      24.311  31.080  33.760  1.00  0.00     0.138 A 
ATOM      5  C   UNL     1      23.373  32.086  33.438  1.00  0.00     0.018 A 
ATOM      6  C   UNL     1      23.315  33.259  34.205  1.00  0.00     0.012 A 
ATOM      7  C   UNL     1      22.519  31.879  32.352  1.00  0.00     0.019 A 
ATOM      8  C   UNL     1      22.616  30.694  31.621  1.00  0.00     0.094 A 
ATOM      9  C   UNL     1      23.570  29.742  31.997  1.00  0.00     0.336 A 
ATOM     10  O   UNL     1      23.673  28.667  31.350  1.00  0.00    -0.246 OA
ATOM     11  O   UNL     1      24.371  29.964  33.036  1.00  0.00    -0.423 OA
ENDROOT
TORSDOF 0
ENDMDL
MODEL 8
REMARK VINA RESULT:    -4.787      3.158      5.860
REMARK INTER + INTRA:          -4.787
REMARK INTER:                  -4.787
REMARK INTRA:                   0.000
REMARK UNBOUND:                 0.000
REMARK SMILES O=c1ccc2ccccc2o1
REMARK SMILES IDX 7 1 8 2 9 3 10 4 5 5 6 6 4 7 3 8 2 9 1 10 11 11
REMARK H PARENT
REMARK Flexibility Score: inf
ROOT
ATOM      1  C   UNL     1      25.296  33.452  37.158  1.00  0.00     0.001 A 
ATOM      2  C   UNL     1      26.002  32.253  37.291  1.00  0.00     0.004 A 
ATOM      3  C   UNL     1      25.906  31.265  36.305  1.00  0.00     0.048 A 
ATOM      4  C   UNL     1      25.100  31.474  35.180  1.00  0.00     0.138 A 
ATOM      5  C   UNL     1      24.386  32.686  35.045  1.00  0.00     0.018 A 
ATOM      6  C   UNL     1      24.487  33.672  36.037  1.00  0.00     0.012 A 
ATOM      7  C   UNL     1      23.589  32.867  33.911  1.00  0.00     0.019 A 
ATOM      8  C   UNL     1      23.522  31.856  32.953  1.00  0.00     0.094 A 
ATOM      9  C   UNL     1      24.258  30.682  33.153  1.00  0.00     0.336 A 
ATOM     10  O   UNL     1      24.211  29.758  32.300  1.00  0.00    -0.246 OA
ATOM     11  O   UNL     1      25.009  30.535  34.242  1.00  0.00    -0.423 OA
ENDROOT
TORSDOF 0
ENDMDL
MODEL 9
REMARK VINA RESULT:    -4.731     14.727     15.743
REMARK INTER + INTRA:          -4.731
REMARK INTER:                  -4.731
REMARK INTRA:                   0.000
REMARK UNBOUND:                 0.000
REMARK SMILES O=c1ccc2ccccc2o1
REMARK SMILES IDX 7 1 8 2 9 3 10 4 5 5 6 6 4 7 3 8 2 9 1 10 11 11
REMARK H PARENT
REMARK Flexibility Score: inf
ROOT
ATOM      1  C   UNL     1      37.127  36.250  36.892  1.00  0.00     0.001 A 
ATOM      2  C   UNL     1      37.692  35.861  35.673  1.00  0.00     0.004 A 
ATOM      3  C   UNL     1      37.693  34.513  35.296  1.00  0.00     0.048 A 
ATOM      4  C   UNL     1      37.128  33.550  36.138  1.00  0.00     0.138 A 
ATOM      5  C   UNL     1      36.557  33.942  37.370  1.00  0.00     0.018 A 
ATOM      6  C   UNL     1      36.560  35.294  37.743  1.00  0.00     0.012 A 
ATOM      7  C   UNL     1      36.001  32.957  38.190  1.00  0.00     0.019 A 
ATOM      8  C   UNL     1      36.023  31.626  37.774  1.00  0.00     0.094 A 
ATOM      9  C   UNL     1      36.606  31.311  36.541  1.00  0.00     0.336 A 
ATOM     10  O   UNL     1      36.636  30.116  36.148  1.00  0.00    -0.246 OA
ATOM     11  O   UNL     1      37.129  32.268  35.779  1.00  0.00    -0.423 OA
ENDROOT
TORSDOF 0
ENDMDL
