MODEL 1
REMARK VINA RESULT:    -7.894      0.000      0.000
REMARK INTER + INTRA:         -11.984
REMARK INTER:                 -10.663
REMARK INTRA:                  -1.321
REMARK UNBOUND:                -1.321
REMARK SMILES CC[C@@H](CC[C@H](C)[C@@H]1CC[C@H]2[C@@H]3CC(=O)C4=CC(=O)CC[C@]4(C)[C@@H]3CC[C@]21C)C(C)C
REMARK SMILES IDX 4 1 3 2 2 3 1 4 29 5 30 6 31 7 5 8 6 9 7 10 8 11 9 12 27 13
REMARK SMILES IDX 10 14 11 15 26 16 28 17 12 18 25 19 24 20 13 21 22 22 14 23
REMARK SMILES IDX 16 24 21 25 23 26 15 27 17 28 20 29 18 30 19 31
REMARK H PARENT
REMARK Flexibility Score: inf
ROOT
ATOM      1  C   UNL     1      14.950 -33.107  21.905  1.00  0.00     0.004 C 
ENDROOT
BRANCH   1   2
ATOM      2  C   UNL     1      14.522 -31.633  22.208  1.00  0.00    -0.009 C 
BRANCH   2   3
ATOM      3  C   UNL     1      13.912 -31.538  23.637  1.00  0.00     0.000 C 
ATOM      4  C   UNL     1      13.872 -32.881  24.374  1.00  0.00     0.004 C 
ENDBRANCH   2   3
BRANCH   2   5
ATOM      5  C   UNL     1      13.518 -31.085  21.127  1.00  0.00    -0.014 C 
ATOM      6  C   UNL     1      13.206 -32.126  20.033  1.00  0.00     0.007 C 
ATOM      7  C   UNL     1      12.184 -30.623  21.742  1.00  0.00     0.007 C 
ENDBRANCH   2   5
ENDBRANCH   1   2
BRANCH   1   8
ATOM      8  C   UNL     1      16.479 -33.292  21.809  1.00  0.00     0.004 C 
BRANCH   8   9
ATOM      9  C   UNL     1      17.134 -32.457  20.658  1.00  0.00    -0.011 C 
ATOM     10  C   UNL     1      17.267 -33.346  19.408  1.00  0.00     0.008 C 
BRANCH   9  11
ATOM     11  C   UNL     1      18.507 -31.845  21.109  1.00  0.00    -0.002 C 
ATOM     12  C   UNL     1      19.086 -32.586  22.314  1.00  0.00     0.005 C 
ATOM     13  C   UNL     1      18.558 -30.345  21.544  1.00  0.00    -0.026 C 
ATOM     14  C   UNL     1      20.148 -31.675  22.899  1.00  0.00     0.005 C 
ATOM     15  C   UNL     1      19.885 -30.243  22.372  1.00  0.00    -0.001 C 
ATOM     16  C   UNL     1      18.569 -29.380  20.328  1.00  0.00     0.007 C 
ATOM     17  C   UNL     1      17.363 -29.985  22.472  1.00  0.00     0.012 C 
ATOM     18  C   UNL     1      21.121 -29.679  21.576  1.00  0.00     0.004 C 
ATOM     19  C   UNL     1      19.309 -28.088  20.657  1.00  0.00     0.005 C 
ATOM     20  C   UNL     1      20.829 -28.336  20.777  1.00  0.00     0.003 C 
ATOM     21  C   UNL     1      22.358 -29.569  22.501  1.00  0.00     0.085 C 
ATOM     22  C   UNL     1      21.668 -27.039  21.206  1.00  0.00    -0.000 C 
ATOM     23  C   UNL     1      22.279 -28.347  23.345  1.00  0.00     0.159 C 
ATOM     24  C   UNL     1      21.994 -27.054  22.703  1.00  0.00     0.005 C 
ATOM     25  C   UNL     1      20.912 -25.706  20.860  1.00  0.00     0.020 C 
ATOM     26  C   UNL     1      23.007 -27.030  20.413  1.00  0.00     0.017 C 
ATOM     27  O   UNL     1      22.483 -28.431  24.589  1.00  0.00    -0.295 OA
ATOM     28  C   UNL     1      22.181 -25.913  23.397  1.00  0.00     0.055 C 
ATOM     29  C   UNL     1      21.652 -24.451  21.336  1.00  0.00     0.081 C 
ATOM     30  C   UNL     1      22.024 -24.586  22.779  1.00  0.00     0.156 C 
ATOM     31  O   UNL     1      22.252 -23.554  23.460  1.00  0.00    -0.295 OA
ENDBRANCH   9  11
ENDBRANCH   8   9
ENDBRANCH   1   8
TORSDOF 6
ENDMDL
MODEL 2
REMARK VINA RESULT:    -7.755      1.189      1.787
REMARK INTER + INTRA:         -11.796
REMARK INTER:                  -9.745
REMARK INTRA:                  -2.050
REMARK UNBOUND:                -1.321
REMARK SMILES CC[C@@H](CC[C@H](C)[C@@H]1CC[C@H]2[C@@H]3CC(=O)C4=CC(=O)CC[C@]4(C)[C@@H]3CC[C@]21C)C(C)C
REMARK SMILES IDX 4 1 3 2 2 3 1 4 29 5 30 6 31 7 5 8 6 9 7 10 8 11 9 12 27 13
REMARK SMILES IDX 10 14 11 15 26 16 28 17 12 18 25 19 24 20 13 21 22 22 14 23
REMARK SMILES IDX 16 24 21 25 23 26 15 27 17 28 20 29 18 30 19 31
REMARK H PARENT
REMARK Flexibility Score: inf
ROOT
ATOM      1  C   UNL     1      16.923 -34.834  22.421  1.00  0.00     0.004 C 
ENDROOT
BRANCH   1   2
ATOM      2  C   UNL     1      16.414 -33.627  23.275  1.00  0.00    -0.009 C 
BRANCH   2   3
ATOM      3  C   UNL     1      16.535 -33.958  24.792  1.00  0.00     0.000 C 
ATOM      4  C   UNL     1      17.717 -33.261  25.475  1.00  0.00     0.004 C 
ENDBRANCH   2   3
BRANCH   2   5
ATOM      5  C   UNL     1      14.938 -33.229  22.900  1.00  0.00    -0.014 C 
ATOM      6  C   UNL     1      14.529 -31.865  23.490  1.00  0.00     0.007 C 
ATOM      7  C   UNL     1      14.710 -33.181  21.379  1.00  0.00     0.007 C 
ENDBRANCH   2   5
ENDBRANCH   1   2
BRANCH   1   8
ATOM      8  C   UNL     1      18.204 -34.521  21.621  1.00  0.00     0.004 C 
BRANCH   8   9
ATOM      9  C   UNL     1      18.214 -33.081  21.005  1.00  0.00    -0.011 C 
ATOM     10  C   UNL     1      18.173 -33.193  19.470  1.00  0.00     0.008 C 
BRANCH   9  11
ATOM     11  C   UNL     1      19.446 -32.252  21.513  1.00  0.00    -0.002 C 
ATOM     12  C   UNL     1      20.024 -32.835  22.803  1.00  0.00     0.005 C 
ATOM     13  C   UNL     1      19.249 -30.739  21.853  1.00  0.00    -0.026 C 
ATOM     14  C   UNL     1      20.896 -31.748  23.403  1.00  0.00     0.005 C 
ATOM     15  C   UNL     1      20.476 -30.400  22.767  1.00  0.00    -0.001 C 
ATOM     16  C   UNL     1      19.221 -29.850  20.581  1.00  0.00     0.007 C 
ATOM     17  C   UNL     1      17.944 -30.508  22.667  1.00  0.00     0.012 C 
ATOM     18  C   UNL     1      21.681 -29.705  22.027  1.00  0.00     0.004 C 
ATOM     19  C   UNL     1      19.742 -28.448  20.878  1.00  0.00     0.005 C 
ATOM     20  C   UNL     1      21.267 -28.464  21.124  1.00  0.00     0.003 C 
ATOM     21  C   UNL     1      22.811 -29.366  23.030  1.00  0.00     0.085 C 
ATOM     22  C   UNL     1      21.876 -27.037  21.527  1.00  0.00    -0.000 C 
ATOM     23  C   UNL     1      22.491 -28.125  23.785  1.00  0.00     0.159 C 
ATOM     24  C   UNL     1      22.078 -26.924  23.041  1.00  0.00     0.005 C 
ATOM     25  C   UNL     1      20.970 -25.850  21.041  1.00  0.00     0.020 C 
ATOM     26  C   UNL     1      23.260 -26.876  20.834  1.00  0.00     0.017 C 
ATOM     27  O   UNL     1      22.603 -28.111  25.043  1.00  0.00    -0.295 OA
ATOM     28  C   UNL     1      22.046 -25.732  23.672  1.00  0.00     0.055 C 
ATOM     29  C   UNL     1      21.483 -24.476  21.487  1.00  0.00     0.081 C 
ATOM     30  C   UNL     1      21.753 -24.478  22.959  1.00  0.00     0.156 C 
ATOM     31  O   UNL     1      21.776 -23.388  23.587  1.00  0.00    -0.295 OA
ENDBRANCH   9  11
ENDBRANCH   8   9
ENDBRANCH   1   8
TORSDOF 6
ENDMDL
MODEL 3
REMARK VINA RESULT:    -7.520      4.282      6.681
REMARK INTER + INTRA:         -11.478
REMARK INTER:                  -9.829
REMARK INTRA:                  -1.649
REMARK UNBOUND:                -1.321
REMARK SMILES CC[C@@H](CC[C@H](C)[C@@H]1CC[C@H]2[C@@H]3CC(=O)C4=CC(=O)CC[C@]4(C)[C@@H]3CC[C@]21C)C(C)C
REMARK SMILES IDX 4 1 3 2 2 3 1 4 29 5 30 6 31 7 5 8 6 9 7 10 8 11 9 12 27 13
REMARK SMILES IDX 10 14 11 15 26 16 28 17 12 18 25 19 24 20 13 21 22 22 14 23
REMARK SMILES IDX 16 24 21 25 23 26 15 27 17 28 20 29 18 30 19 31
REMARK H PARENT
REMARK Flexibility Score: inf
ROOT
ATOM      1  C   UNL     1      14.547 -28.866  22.441  1.00  0.00     0.004 C 
ENDROOT
BRANCH   1   2
ATOM      2  C   UNL     1      13.730 -29.618  23.543  1.00  0.00    -0.009 C 
BRANCH   2   3
ATOM      3  C   UNL     1      13.319 -31.030  23.032  1.00  0.00     0.000 C 
ATOM      4  C   UNL     1      13.776 -32.168  23.951  1.00  0.00     0.004 C 
ENDBRANCH   2   3
BRANCH   2   5
ATOM      5  C   UNL     1      12.469 -28.793  23.998  1.00  0.00    -0.014 C 
ATOM      6  C   UNL     1      12.834 -27.363  24.445  1.00  0.00     0.007 C 
ATOM      7  C   UNL     1      11.401 -28.692  22.895  1.00  0.00     0.007 C 
ENDBRANCH   2   5
ENDBRANCH   1   2
BRANCH   1   8
ATOM      8  C   UNL     1      15.404 -29.804  21.567  1.00  0.00     0.004 C 
BRANCH   8   9
ATOM      9  C   UNL     1      16.923 -29.786  21.945  1.00  0.00    -0.011 C 
ATOM     10  C   UNL     1      17.656 -28.789  21.028  1.00  0.00     0.008 C 
BRANCH   9  11
ATOM     11  C   UNL     1      17.544 -31.227  21.881  1.00  0.00    -0.002 C 
ATOM     12  C   UNL     1      16.493 -32.277  21.522  1.00  0.00     0.005 C 
ATOM     13  C   UNL     1      18.224 -31.813  23.160  1.00  0.00    -0.026 C 
ATOM     14  C   UNL     1      17.092 -33.619  21.899  1.00  0.00     0.005 C 
ATOM     15  C   UNL     1      18.250 -33.357  22.892  1.00  0.00    -0.001 C 
ATOM     16  C   UNL     1      19.653 -31.247  23.378  1.00  0.00     0.007 C 
ATOM     17  C   UNL     1      17.368 -31.542  24.430  1.00  0.00     0.012 C 
ATOM     18  C   UNL     1      19.620 -33.912  22.350  1.00  0.00     0.004 C 
ATOM     19  C   UNL     1      20.540 -32.255  24.101  1.00  0.00     0.005 C 
ATOM     20  C   UNL     1      20.893 -33.444  23.179  1.00  0.00     0.003 C 
ATOM     21  C   UNL     1      19.552 -35.449  22.175  1.00  0.00     0.085 C 
ATOM     22  C   UNL     1      21.754 -34.589  23.896  1.00  0.00    -0.000 C 
ATOM     23  C   UNL     1      19.732 -36.138  23.481  1.00  0.00     0.159 C 
ATOM     24  C   UNL     1      20.871 -35.761  24.334  1.00  0.00     0.005 C 
ATOM     25  C   UNL     1      22.538 -34.045  25.144  1.00  0.00     0.020 C 
ATOM     26  C   UNL     1      22.810 -35.122  22.884  1.00  0.00     0.017 C 
ATOM     27  O   UNL     1      18.927 -37.047  23.825  1.00  0.00    -0.295 OA
ATOM     28  C   UNL     1      21.203 -36.546  25.380  1.00  0.00     0.055 C 
ATOM     29  C   UNL     1      23.303 -35.136  25.901  1.00  0.00     0.081 C 
ATOM     30  C   UNL     1      22.397 -36.289  26.202  1.00  0.00     0.156 C 
ATOM     31  O   UNL     1      22.685 -37.076  27.140  1.00  0.00    -0.295 OA
ENDBRANCH   9  11
ENDBRANCH   8   9
ENDBRANCH   1   8
TORSDOF 6
ENDMDL
MODEL 4
REMARK VINA RESULT:    -7.485      4.478      7.991
REMARK INTER + INTRA:         -11.431
REMARK INTER:                  -9.551
REMARK INTRA:                  -1.880
REMARK UNBOUND:                -1.321
REMARK SMILES CC[C@@H](CC[C@H](C)[C@@H]1CC[C@H]2[C@@H]3CC(=O)C4=CC(=O)CC[C@]4(C)[C@@H]3CC[C@]21C)C(C)C
REMARK SMILES IDX 4 1 3 2 2 3 1 4 29 5 30 6 31 7 5 8 6 9 7 10 8 11 9 12 27 13
REMARK SMILES IDX 10 14 11 15 26 16 28 17 12 18 25 19 24 20 13 21 22 22 14 23
REMARK SMILES IDX 16 24 21 25 23 26 15 27 17 28 20 29 18 30 19 31
REMARK H PARENT
REMARK Flexibility Score: inf
ROOT
ATOM      1  C   UNL     1      21.954 -36.003  25.479  1.00  0.00     0.004 C 
ENDROOT
BRANCH   1   2
ATOM      2  C   UNL     1      23.148 -35.113  24.999  1.00  0.00    -0.009 C 
BRANCH   2   3
ATOM      3  C   UNL     1      22.701 -33.625  24.906  1.00  0.00     0.000 C 
ATOM      4  C   UNL     1      22.639 -32.921  26.266  1.00  0.00     0.004 C 
ENDBRANCH   2   3
BRANCH   2   5
ATOM      5  C   UNL     1      23.733 -35.614  23.627  1.00  0.00    -0.014 C 
ATOM      6  C   UNL     1      23.922 -34.467  22.615  1.00  0.00     0.007 C 
ATOM      7  C   UNL     1      25.083 -36.336  23.790  1.00  0.00     0.007 C 
ENDBRANCH   2   5
ENDBRANCH   1   2
BRANCH   1   8
ATOM      8  C   UNL     1      21.249 -36.752  24.329  1.00  0.00     0.004 C 
BRANCH   8   9
ATOM      9  C   UNL     1      19.687 -36.680  24.409  1.00  0.00    -0.011 C 
ATOM     10  C   UNL     1      19.109 -38.091  24.193  1.00  0.00     0.008 C 
BRANCH   9  11
ATOM     11  C   UNL     1      19.111 -35.633  23.391  1.00  0.00    -0.002 C 
ATOM     12  C   UNL     1      20.215 -35.022  22.527  1.00  0.00     0.005 C 
ATOM     13  C   UNL     1      18.346 -34.386  23.941  1.00  0.00    -0.026 C 
ATOM     14  C   UNL     1      19.622 -33.769  21.911  1.00  0.00     0.005 C 
ATOM     15  C   UNL     1      18.382 -33.372  22.747  1.00  0.00    -0.001 C 
ATOM     16  C   UNL     1      16.890 -34.727  24.358  1.00  0.00     0.007 C 
ATOM     17  C   UNL     1      19.091 -33.757  25.153  1.00  0.00     0.012 C 
ATOM     18  C   UNL     1      17.074 -33.334  21.870  1.00  0.00     0.004 C 
ATOM     19  C   UNL     1      15.975 -33.518  24.198  1.00  0.00     0.005 C 
ATOM     20  C   UNL     1      15.728 -33.204  22.705  1.00  0.00     0.003 C 
ATOM     21  C   UNL     1      17.197 -32.263  20.759  1.00  0.00     0.085 C 
ATOM     22  C   UNL     1      14.842 -31.892  22.454  1.00  0.00    -0.000 C 
ATOM     23  C   UNL     1      16.931 -30.905  21.305  1.00  0.00     0.159 C 
ATOM     24  C   UNL     1      15.718 -30.684  22.108  1.00  0.00     0.005 C 
ATOM     25  C   UNL     1      13.948 -31.538  23.696  1.00  0.00     0.020 C 
ATOM     26  C   UNL     1      13.885 -32.163  21.257  1.00  0.00     0.017 C 
ATOM     27  O   UNL     1      17.729 -29.961  21.049  1.00  0.00    -0.295 OA
ATOM     28  C   UNL     1      15.323 -29.424  22.381  1.00  0.00     0.055 C 
ATOM     29  C   UNL     1      13.153 -30.239  23.517  1.00  0.00     0.081 C 
ATOM     30  C   UNL     1      14.062 -29.133  23.081  1.00  0.00     0.156 C 
ATOM     31  O   UNL     1      13.720 -27.937  23.273  1.00  0.00    -0.295 OA
ENDBRANCH   9  11
ENDBRANCH   8   9
ENDBRANCH   1   8
TORSDOF 6
ENDMDL
MODEL 5
REMARK VINA RESULT:    -7.430      1.892      2.974
REMARK INTER + INTRA:         -11.357
REMARK INTER:                  -9.674
REMARK INTRA:                  -1.683
REMARK UNBOUND:                -1.321
REMARK SMILES CC[C@@H](CC[C@H](C)[C@@H]1CC[C@H]2[C@@H]3CC(=O)C4=CC(=O)CC[C@]4(C)[C@@H]3CC[C@]21C)C(C)C
REMARK SMILES IDX 4 1 3 2 2 3 1 4 29 5 30 6 31 7 5 8 6 9 7 10 8 11 9 12 27 13
REMARK SMILES IDX 10 14 11 15 26 16 28 17 12 18 25 19 24 20 13 21 22 22 14 23
REMARK SMILES IDX 16 24 21 25 23 26 15 27 17 28 20 29 18 30 19 31
REMARK H PARENT
REMARK Flexibility Score: inf
ROOT
ATOM      1  C   UNL     1      14.075 -32.257  20.635  1.00  0.00     0.004 C 
ENDROOT
BRANCH   1   2
ATOM      2  C   UNL     1      13.170 -31.743  21.803  1.00  0.00    -0.009 C 
BRANCH   2   3
ATOM      3  C   UNL     1      12.406 -30.461  21.362  1.00  0.00     0.000 C 
ATOM      4  C   UNL     1      10.882 -30.622  21.382  1.00  0.00     0.004 C 
ENDBRANCH   2   3
BRANCH   2   5
ATOM      5  C   UNL     1      14.002 -31.483  23.113  1.00  0.00    -0.014 C 
ATOM      6  C   UNL     1      13.822 -30.048  23.647  1.00  0.00     0.007 C 
ATOM      7  C   UNL     1      13.643 -32.463  24.244  1.00  0.00     0.007 C 
ENDBRANCH   2   5
ENDBRANCH   1   2
BRANCH   1   8
ATOM      8  C   UNL     1      15.118 -33.301  21.084  1.00  0.00     0.004 C 
BRANCH   8   9
ATOM      9  C   UNL     1      16.553 -33.024  20.522  1.00  0.00    -0.011 C 
ATOM     10  C   UNL     1      16.936 -34.153  19.547  1.00  0.00     0.008 C 
BRANCH   9  11
ATOM     11  C   UNL     1      17.597 -32.854  21.682  1.00  0.00    -0.002 C 
ATOM     12  C   UNL     1      17.012 -33.271  23.031  1.00  0.00     0.005 C 
ATOM     13  C   UNL     1      18.187 -31.434  21.963  1.00  0.00    -0.026 C 
ATOM     14  C   UNL     1      17.926 -32.680  24.088  1.00  0.00     0.005 C 
ATOM     15  C   UNL     1      18.746 -31.547  23.424  1.00  0.00    -0.001 C 
ATOM     16  C   UNL     1      19.302 -31.051  20.954  1.00  0.00     0.007 C 
ATOM     17  C   UNL     1      17.078 -30.345  21.937  1.00  0.00     0.012 C 
ATOM     18  C   UNL     1      20.295 -31.814  23.522  1.00  0.00     0.004 C 
ATOM     19  C   UNL     1      20.318 -30.106  21.588  1.00  0.00     0.005 C 
ATOM     20  C   UNL     1      21.186 -30.844  22.631  1.00  0.00     0.003 C 
ATOM     21  C   UNL     1      20.746 -31.852  25.003  1.00  0.00     0.085 C 
ATOM     22  C   UNL     1      22.221 -29.896  23.404  1.00  0.00    -0.000 C 
ATOM     23  C   UNL     1      20.898 -30.474  25.543  1.00  0.00     0.159 C 
ATOM     24  C   UNL     1      21.689 -29.493  24.782  1.00  0.00     0.005 C 
ATOM     25  C   UNL     1      22.558 -28.599  22.585  1.00  0.00     0.020 C 
ATOM     26  C   UNL     1      23.554 -30.676  23.601  1.00  0.00     0.017 C 
ATOM     27  O   UNL     1      20.372 -30.175  26.651  1.00  0.00    -0.295 OA
ATOM     28  C   UNL     1      22.059 -28.339  25.373  1.00  0.00     0.055 C 
ATOM     29  C   UNL     1      23.480 -27.632  23.336  1.00  0.00     0.081 C 
ATOM     30  C   UNL     1      22.944 -27.368  24.709  1.00  0.00     0.156 C 
ATOM     31  O   UNL     1      23.293 -26.327  25.321  1.00  0.00    -0.295 OA
ENDBRANCH   9  11
ENDBRANCH   8   9
ENDBRANCH   1   8
TORSDOF 6
ENDMDL
MODEL 6
REMARK VINA RESULT:    -7.386      3.957      6.229
REMARK INTER + INTRA:         -11.297
REMARK INTER:                 -10.682
REMARK INTRA:                  -0.615
REMARK UNBOUND:                -1.321
REMARK SMILES CC[C@@H](CC[C@H](C)[C@@H]1CC[C@H]2[C@@H]3CC(=O)C4=CC(=O)CC[C@]4(C)[C@@H]3CC[C@]21C)C(C)C
REMARK SMILES IDX 4 1 3 2 2 3 1 4 29 5 30 6 31 7 5 8 6 9 7 10 8 11 9 12 27 13
REMARK SMILES IDX 10 14 11 15 26 16 28 17 12 18 25 19 24 20 13 21 22 22 14 23
REMARK SMILES IDX 16 24 21 25 23 26 15 27 17 28 20 29 18 30 19 31
REMARK H PARENT
REMARK Flexibility Score: inf
ROOT
ATOM      1  C   UNL     1      14.193 -32.344  22.207  1.00  0.00     0.004 C 
ENDROOT
BRANCH   1   2
ATOM      2  C   UNL     1      13.180 -31.207  22.564  1.00  0.00    -0.009 C 
BRANCH   2   3
ATOM      3  C   UNL     1      12.495 -30.676  21.271  1.00  0.00     0.000 C 
ATOM      4  C   UNL     1      10.977 -30.518  21.406  1.00  0.00     0.004 C 
ENDBRANCH   2   3
BRANCH   2   5
ATOM      5  C   UNL     1      13.872 -30.038  23.358  1.00  0.00    -0.014 C 
ATOM      6  C   UNL     1      14.736 -29.142  22.449  1.00  0.00     0.007 C 
ATOM      7  C   UNL     1      12.857 -29.141  24.090  1.00  0.00     0.007 C 
ENDBRANCH   2   5
ENDBRANCH   1   2
BRANCH   1   8
ATOM      8  C   UNL     1      14.120 -32.787  20.731  1.00  0.00     0.004 C 
BRANCH   8   9
ATOM      9  C   UNL     1      15.420 -33.504  20.235  1.00  0.00    -0.011 C 
ATOM     10  C   UNL     1      15.178 -35.025  20.218  1.00  0.00     0.008 C 
BRANCH   9  11
ATOM     11  C   UNL     1      16.662 -33.104  21.108  1.00  0.00    -0.002 C 
ATOM     12  C   UNL     1      17.011 -31.624  20.947  1.00  0.00     0.005 C 
ATOM     13  C   UNL     1      18.024 -33.829  20.861  1.00  0.00    -0.026 C 
ATOM     14  C   UNL     1      18.423 -31.464  21.476  1.00  0.00     0.005 C 
ATOM     15  C   UNL     1      19.080 -32.866  21.503  1.00  0.00    -0.001 C 
ATOM     16  C   UNL     1      18.066 -35.238  21.511  1.00  0.00     0.007 C 
ATOM     17  C   UNL     1      18.327 -33.959  19.341  1.00  0.00     0.012 C 
ATOM     18  C   UNL     1      19.545 -33.264  22.954  1.00  0.00     0.004 C 
ATOM     19  C   UNL     1      19.489 -35.621  21.903  1.00  0.00     0.005 C 
ATOM     20  C   UNL     1      19.975 -34.787  23.109  1.00  0.00     0.003 C 
ATOM     21  C   UNL     1      20.625 -32.281  23.467  1.00  0.00     0.085 C 
ATOM     22  C   UNL     1      21.496 -35.073  23.527  1.00  0.00    -0.000 C 
ATOM     23  C   UNL     1      21.957 -32.614  22.894  1.00  0.00     0.159 C 
ATOM     24  C   UNL     1      22.439 -34.002  22.970  1.00  0.00     0.005 C 
ATOM     25  C   UNL     1      21.984 -36.486  23.047  1.00  0.00     0.020 C 
ATOM     26  C   UNL     1      21.595 -35.053  25.081  1.00  0.00     0.017 C 
ATOM     27  O   UNL     1      22.661 -31.701  22.378  1.00  0.00    -0.295 OA
ATOM     28  C   UNL     1      23.734 -34.269  22.705  1.00  0.00     0.055 C 
ATOM     29  C   UNL     1      23.461 -36.752  23.358  1.00  0.00     0.081 C 
ATOM     30  C   UNL     1      24.305 -35.615  22.873  1.00  0.00     0.156 C 
ATOM     31  O   UNL     1      25.530 -35.801  22.652  1.00  0.00    -0.295 OA
ENDBRANCH   9  11
ENDBRANCH   8   9
ENDBRANCH   1   8
TORSDOF 6
ENDMDL
MODEL 7
REMARK VINA RESULT:    -7.368      4.224      8.790
REMARK INTER + INTRA:         -11.273
REMARK INTER:                  -9.954
REMARK INTRA:                  -1.318
REMARK UNBOUND:                -1.321
REMARK SMILES CC[C@@H](CC[C@H](C)[C@@H]1CC[C@H]2[C@@H]3CC(=O)C4=CC(=O)CC[C@]4(C)[C@@H]3CC[C@]21C)C(C)C
REMARK SMILES IDX 4 1 3 2 2 3 1 4 29 5 30 6 31 7 5 8 6 9 7 10 8 11 9 12 27 13
REMARK SMILES IDX 10 14 11 15 26 16 28 17 12 18 25 19 24 20 13 21 22 22 14 23
REMARK SMILES IDX 16 24 21 25 23 26 15 27 17 28 20 29 18 30 19 31
REMARK H PARENT
REMARK Flexibility Score: inf
ROOT
ATOM      1  C   UNL     1      24.032 -32.685  22.582  1.00  0.00     0.004 C 
ENDROOT
BRANCH   1   2
ATOM      2  C   UNL     1      25.083 -32.940  23.712  1.00  0.00    -0.009 C 
BRANCH   2   3
ATOM      3  C   UNL     1      24.474 -33.861  24.810  1.00  0.00     0.000 C 
ATOM      4  C   UNL     1      24.410 -33.201  26.192  1.00  0.00     0.004 C 
ENDBRANCH   2   3
BRANCH   2   5
ATOM      5  C   UNL     1      25.609 -31.593  24.332  1.00  0.00    -0.014 C 
ATOM      6  C   UNL     1      27.146 -31.559  24.445  1.00  0.00     0.007 C 
ATOM      7  C   UNL     1      25.161 -30.359  23.528  1.00  0.00     0.007 C 
ENDBRANCH   2   5
ENDBRANCH   1   2
BRANCH   1   8
ATOM      8  C   UNL     1      22.632 -33.246  22.910  1.00  0.00     0.004 C 
BRANCH   8   9
ATOM      9  C   UNL     1      21.533 -32.137  23.028  1.00  0.00    -0.011 C 
ATOM     10  C   UNL     1      21.691 -31.417  24.380  1.00  0.00     0.008 C 
BRANCH   9  11
ATOM     11  C   UNL     1      20.095 -32.737  22.832  1.00  0.00    -0.002 C 
ATOM     12  C   UNL     1      20.080 -33.821  21.754  1.00  0.00     0.005 C 
ATOM     13  C   UNL     1      18.932 -31.783  22.407  1.00  0.00    -0.026 C 
ATOM     14  C   UNL     1      18.625 -34.010  21.367  1.00  0.00     0.005 C 
ATOM     15  C   UNL     1      17.846 -32.756  21.833  1.00  0.00    -0.001 C 
ATOM     16  C   UNL     1      18.384 -30.957  23.602  1.00  0.00     0.007 C 
ATOM     17  C   UNL     1      19.380 -30.814  21.277  1.00  0.00     0.012 C 
ATOM     18  C   UNL     1      16.691 -33.127  22.837  1.00  0.00     0.004 C 
ATOM     19  C   UNL     1      16.910 -30.620  23.407  1.00  0.00     0.005 C 
ATOM     20  C   UNL     1      16.028 -31.879  23.565  1.00  0.00     0.003 C 
ATOM     21  C   UNL     1      15.648 -34.044  22.151  1.00  0.00     0.085 C 
ATOM     22  C   UNL     1      14.471 -31.621  23.291  1.00  0.00    -0.000 C 
ATOM     23  C   UNL     1      14.723 -33.246  21.302  1.00  0.00     0.159 C 
ATOM     24  C   UNL     1      14.072 -32.059  21.878  1.00  0.00     0.005 C 
ATOM     25  C   UNL     1      14.078 -30.113  23.490  1.00  0.00     0.020 C 
ATOM     26  C   UNL     1      13.643 -32.453  24.313  1.00  0.00     0.017 C 
ATOM     27  O   UNL     1      14.489 -33.613  20.117  1.00  0.00    -0.295 OA
ATOM     28  C   UNL     1      13.040 -31.486  21.225  1.00  0.00     0.055 C 
ATOM     29  C   UNL     1      12.612 -29.821  23.151  1.00  0.00     0.081 C 
ATOM     30  C   UNL     1      12.274 -30.368  21.799  1.00  0.00     0.156 C 
ATOM     31  O   UNL     1      11.294 -29.898  21.167  1.00  0.00    -0.295 OA
ENDBRANCH   9  11
ENDBRANCH   8   9
ENDBRANCH   1   8
TORSDOF 6
ENDMDL
MODEL 8
REMARK VINA RESULT:    -7.312      4.183      8.606
REMARK INTER + INTRA:         -11.197
REMARK INTER:                  -9.592
REMARK INTRA:                  -1.605
REMARK UNBOUND:                -1.321
REMARK SMILES CC[C@@H](CC[C@H](C)[C@@H]1CC[C@H]2[C@@H]3CC(=O)C4=CC(=O)CC[C@]4(C)[C@@H]3CC[C@]21C)C(C)C
REMARK SMILES IDX 4 1 3 2 2 3 1 4 29 5 30 6 31 7 5 8 6 9 7 10 8 11 9 12 27 13
REMARK SMILES IDX 10 14 11 15 26 16 28 17 12 18 25 19 24 20 13 21 22 22 14 23
REMARK SMILES IDX 16 24 21 25 23 26 15 27 17 28 20 29 18 30 19 31
REMARK H PARENT
REMARK Flexibility Score: inf
ROOT
ATOM      1  C   UNL     1      23.796 -33.028  24.290  1.00  0.00     0.004 C 
ENDROOT
BRANCH   1   2
ATOM      2  C   UNL     1      24.255 -34.512  24.104  1.00  0.00    -0.009 C 
BRANCH   2   3
ATOM      3  C   UNL     1      24.131 -34.925  22.608  1.00  0.00     0.000 C 
ATOM      4  C   UNL     1      25.475 -34.968  21.874  1.00  0.00     0.004 C 
ENDBRANCH   2   3
BRANCH   2   5
ATOM      5  C   UNL     1      23.445 -35.493  25.030  1.00  0.00    -0.014 C 
ATOM      6  C   UNL     1      22.103 -34.891  25.492  1.00  0.00     0.007 C 
ATOM      7  C   UNL     1      23.156 -36.843  24.349  1.00  0.00     0.007 C 
ENDBRANCH   2   5
ENDBRANCH   1   2
BRANCH   1   8
ATOM      8  C   UNL     1      22.978 -32.487  23.100  1.00  0.00     0.004 C 
BRANCH   8   9
ATOM      9  C   UNL     1      21.746 -31.624  23.536  1.00  0.00    -0.011 C 
ATOM     10  C   UNL     1      21.915 -31.221  25.013  1.00  0.00     0.008 C 
BRANCH   9  11
ATOM     11  C   UNL     1      20.397 -32.381  23.271  1.00  0.00    -0.002 C 
ATOM     12  C   UNL     1      20.577 -33.515  22.261  1.00  0.00     0.005 C 
ATOM     13  C   UNL     1      19.181 -31.578  22.706  1.00  0.00    -0.026 C 
ATOM     14  C   UNL     1      19.184 -33.876  21.781  1.00  0.00     0.005 C 
ATOM     15  C   UNL     1      18.247 -32.689  22.112  1.00  0.00    -0.001 C 
ATOM     16  C   UNL     1      18.459 -30.753  23.805  1.00  0.00     0.007 C 
ATOM     17  C   UNL     1      19.616 -30.627  21.556  1.00  0.00     0.012 C 
ATOM     18  C   UNL     1      17.059 -33.127  23.049  1.00  0.00     0.004 C 
ATOM     19  C   UNL     1      16.978 -30.584  23.483  1.00  0.00     0.005 C 
ATOM     20  C   UNL     1      16.218 -31.919  23.651  1.00  0.00     0.003 C 
ATOM     21  C   UNL     1      16.172 -34.182  22.344  1.00  0.00     0.085 C 
ATOM     22  C   UNL     1      14.670 -31.841  23.247  1.00  0.00    -0.000 C 
ATOM     23  C   UNL     1      15.242 -33.532  21.383  1.00  0.00     0.159 C 
ATOM     24  C   UNL     1      14.431 -32.391  21.838  1.00  0.00     0.005 C 
ATOM     25  C   UNL     1      14.112 -30.375  23.326  1.00  0.00     0.020 C 
ATOM     26  C   UNL     1      13.852 -32.701  24.254  1.00  0.00     0.017 C 
ATOM     27  O   UNL     1      15.141 -33.982  20.208  1.00  0.00    -0.295 OA
ATOM     28  C   UNL     1      13.401 -31.965  21.078  1.00  0.00     0.055 C 
ATOM     29  C   UNL     1      12.655 -30.256  22.864  1.00  0.00     0.081 C 
ATOM     30  C   UNL     1      12.483 -30.905  21.526  1.00  0.00     0.156 C 
ATOM     31  O   UNL     1      11.514 -30.575  20.797  1.00  0.00    -0.295 OA
ENDBRANCH   9  11
ENDBRANCH   8   9
ENDBRANCH   1   8
TORSDOF 6
ENDMDL
MODEL 9
REMARK VINA RESULT:    -7.271      2.413      3.867
REMARK INTER + INTRA:         -11.141
REMARK INTER:                  -9.453
REMARK INTRA:                  -1.689
REMARK UNBOUND:                -1.321
REMARK SMILES CC[C@@H](CC[C@H](C)[C@@H]1CC[C@H]2[C@@H]3CC(=O)C4=CC(=O)CC[C@]4(C)[C@@H]3CC[C@]21C)C(C)C
REMARK SMILES IDX 4 1 3 2 2 3 1 4 29 5 30 6 31 7 5 8 6 9 7 10 8 11 9 12 27 13
REMARK SMILES IDX 10 14 11 15 26 16 28 17 12 18 25 19 24 20 13 21 22 22 14 23
REMARK SMILES IDX 16 24 21 25 23 26 15 27 17 28 20 29 18 30 19 31
REMARK H PARENT
REMARK Flexibility Score: inf
ROOT
ATOM      1  C   UNL     1      18.014 -35.938  23.043  1.00  0.00     0.004 C 
ENDROOT
BRANCH   1   2
ATOM      2  C   UNL     1      18.602 -36.719  24.263  1.00  0.00    -0.009 C 
BRANCH   2   3
ATOM      3  C   UNL     1      18.266 -35.974  25.587  1.00  0.00     0.000 C 
ATOM      4  C   UNL     1      17.437 -36.813  26.566  1.00  0.00     0.004 C 
ENDBRANCH   2   3
BRANCH   2   5
ATOM      5  C   UNL     1      20.154 -36.942  24.119  1.00  0.00    -0.014 C 
ATOM      6  C   UNL     1      20.658 -36.656  22.690  1.00  0.00     0.007 C 
ATOM      7  C   UNL     1      20.967 -36.075  25.096  1.00  0.00     0.007 C 
ENDBRANCH   2   5
ENDBRANCH   1   2
BRANCH   1   8
ATOM      8  C   UNL     1      17.807 -34.435  23.321  1.00  0.00     0.004 C 
BRANCH   8   9
ATOM      9  C   UNL     1      18.026 -33.534  22.059  1.00  0.00    -0.011 C 
ATOM     10  C   UNL     1      18.174 -34.437  20.820  1.00  0.00     0.008 C 
BRANCH   9  11
ATOM     11  C   UNL     1      19.251 -32.572  22.250  1.00  0.00    -0.002 C 
ATOM     12  C   UNL     1      20.004 -32.870  23.547  1.00  0.00     0.005 C 
ATOM     13  C   UNL     1      18.997 -31.032  22.321  1.00  0.00    -0.026 C 
ATOM     14  C   UNL     1      20.865 -31.652  23.824  1.00  0.00     0.005 C 
ATOM     15  C   UNL     1      20.293 -30.472  23.001  1.00  0.00    -0.001 C 
ATOM     16  C   UNL     1      18.772 -30.408  20.918  1.00  0.00     0.007 C 
ATOM     17  C   UNL     1      17.777 -30.702  23.228  1.00  0.00     0.012 C 
ATOM     18  C   UNL     1      21.362 -29.884  22.005  1.00  0.00     0.004 C 
ATOM     19  C   UNL     1      19.233 -28.954  20.882  1.00  0.00     0.005 C 
ATOM     20  C   UNL     1      20.774 -28.859  20.941  1.00  0.00     0.003 C 
ATOM     21  C   UNL     1      22.572 -29.311  22.783  1.00  0.00     0.085 C 
ATOM     22  C   UNL     1      21.331 -27.358  20.994  1.00  0.00    -0.000 C 
ATOM     23  C   UNL     1      22.259 -27.961  23.325  1.00  0.00     0.159 C 
ATOM     24  C   UNL     1      21.692 -26.945  22.424  1.00  0.00     0.005 C 
ATOM     25  C   UNL     1      20.304 -26.326  20.406  1.00  0.00     0.020 C 
ATOM     26  C   UNL     1      22.618 -27.277  20.121  1.00  0.00     0.017 C 
ATOM     27  O   UNL     1      22.508 -27.699  24.535  1.00  0.00    -0.295 OA
ATOM     28  C   UNL     1      21.653 -25.656  22.819  1.00  0.00     0.055 C 
ATOM     29  C   UNL     1      20.775 -24.872  20.521  1.00  0.00     0.081 C 
ATOM     30  C   UNL     1      21.204 -24.577  21.924  1.00  0.00     0.156 C 
ATOM     31  O   UNL     1      21.227 -23.386  22.329  1.00  0.00    -0.295 OA
ENDBRANCH   9  11
ENDBRANCH   8   9
ENDBRANCH   1   8
TORSDOF 6
ENDMDL
