MODEL 1
REMARK VINA RESULT:    -6.490      0.000      0.000
REMARK INTER + INTRA:          -7.059
REMARK INTER:                  -7.059
REMARK INTRA:                   0.000
REMARK UNBOUND:                 0.000
REMARK SMILES Cc1cc(O)c2c(c1)C(=O)c1cc(O)cc(O)c1C2=O
REMARK SMILES IDX 1 1 2 2 8 3 7 4 6 5 4 6 3 7 19 8 20 9 18 10 11 11 9 12 10 13
REMARK SMILES IDX 12 14 13 15 15 16 16 17 5 18 17 20 14 22
REMARK H PARENT 5 19 17 21 14 23
REMARK Flexibility Score: inf
ROOT
ATOM      1  C   UNL     1      -5.729 -14.862  53.477  1.00  0.00     0.044 C 
ATOM      2  C   UNL     1      -5.577 -14.479  52.035  1.00  0.00    -0.047 A 
ATOM      3  C   UNL     1      -4.382 -14.749  51.356  1.00  0.00     0.016 A 
ATOM      4  C   UNL     1      -4.243 -14.428  49.995  1.00  0.00     0.038 A 
ATOM      5  C   UNL     1      -5.317 -13.834  49.300  1.00  0.00     0.076 A 
ATOM      6  C   UNL     1      -6.531 -13.588  49.982  1.00  0.00     0.127 A 
ATOM      7  C   UNL     1      -6.652 -13.916  51.338  1.00  0.00     0.050 A 
ATOM      8  C   UNL     1      -5.140 -13.463  47.872  1.00  0.00     0.201 C 
ATOM      9  O   UNL     1      -5.921 -12.626  47.347  1.00  0.00    -0.288 OA
ATOM     10  C   UNL     1      -3.977 -13.987  47.101  1.00  0.00     0.076 A 
ATOM     11  C   UNL     1      -2.884 -14.526  47.819  1.00  0.00     0.041 A 
ATOM     12  C   UNL     1      -2.974 -14.709  49.287  1.00  0.00     0.194 C 
ATOM     13  O   UNL     1      -1.972 -15.125  49.933  1.00  0.00    -0.289 OA
ATOM     14  C   UNL     1      -1.712 -14.894  47.135  1.00  0.00     0.059 A 
ATOM     15  C   UNL     1      -1.621 -14.751  45.752  1.00  0.00     0.120 A 
ATOM     16  C   UNL     1      -2.714 -14.265  45.032  1.00  0.00     0.093 A 
ATOM     17  C   UNL     1      -3.902 -13.915  45.683  1.00  0.00     0.131 A 
ENDROOT
BRANCH   6  18
ATOM     18  O   UNL     1      -7.622 -13.031  49.314  1.00  0.00    -0.507 OA
ATOM     19  H   UNL     1      -7.634 -12.057  49.032  1.00  0.00     0.293 HD
ENDBRANCH   6  18
BRANCH  17  20
ATOM     20  O   UNL     1      -4.981 -13.541  44.881  1.00  0.00    -0.507 OA
ATOM     21  H   UNL     1      -5.817 -14.097  44.770  1.00  0.00     0.293 HD
ENDBRANCH  17  20
BRANCH  15  22
ATOM     22  O   UNL     1      -0.443 -15.108  45.099  1.00  0.00    -0.508 OA
ATOM     23  H   UNL     1      -0.009 -16.012  45.243  1.00  0.00     0.293 HD
ENDBRANCH  15  22
TORSDOF 3
ENDMDL
MODEL 2
REMARK VINA RESULT:    -3.645      1.796      3.733
REMARK INTER + INTRA:          -3.964
REMARK INTER:                  -3.964
REMARK INTRA:                   0.000
REMARK UNBOUND:                 0.000
REMARK SMILES Cc1cc(O)c2c(c1)C(=O)c1cc(O)cc(O)c1C2=O
REMARK SMILES IDX 1 1 2 2 8 3 7 4 6 5 4 6 3 7 19 8 20 9 18 10 11 11 9 12 10 13
REMARK SMILES IDX 12 14 13 15 15 16 16 17 5 18 17 20 14 22
REMARK H PARENT 5 19 17 21 14 23
REMARK Flexibility Score: inf
ROOT
ATOM      1  C   UNL     1      -8.106 -11.582  47.923  1.00  0.00     0.044 C 
ATOM      2  C   UNL     1      -6.837 -12.333  48.202  1.00  0.00    -0.047 A 
ATOM      3  C   UNL     1      -5.909 -12.553  47.178  1.00  0.00     0.016 A 
ATOM      4  C   UNL     1      -4.700 -13.221  47.438  1.00  0.00     0.038 A 
ATOM      5  C   UNL     1      -4.413 -13.671  48.743  1.00  0.00     0.076 A 
ATOM      6  C   UNL     1      -5.342 -13.423  49.781  1.00  0.00     0.127 A 
ATOM      7  C   UNL     1      -6.540 -12.753  49.504  1.00  0.00     0.050 A 
ATOM      8  C   UNL     1      -3.150 -14.413  48.994  1.00  0.00     0.201 C 
ATOM      9  O   UNL     1      -3.042 -15.124  50.028  1.00  0.00    -0.288 OA
ATOM     10  C   UNL     1      -2.066 -14.411  47.971  1.00  0.00     0.076 A 
ATOM     11  C   UNL     1      -2.387 -14.012  46.652  1.00  0.00     0.041 A 
ATOM     12  C   UNL     1      -3.727 -13.457  46.347  1.00  0.00     0.194 C 
ATOM     13  O   UNL     1      -4.034 -13.168  45.157  1.00  0.00    -0.289 OA
ATOM     14  C   UNL     1      -1.429 -14.135  45.631  1.00  0.00     0.059 A 
ATOM     15  C   UNL     1      -0.156 -14.631  45.907  1.00  0.00     0.120 A 
ATOM     16  C   UNL     1       0.183 -14.981  47.215  1.00  0.00     0.093 A 
ATOM     17  C   UNL     1      -0.742 -14.844  48.256  1.00  0.00     0.131 A 
ENDROOT
BRANCH   6  18
ATOM     18  O   UNL     1      -5.072 -13.828  51.089  1.00  0.00    -0.507 OA
ATOM     19  H   UNL     1      -4.281 -13.463  51.607  1.00  0.00     0.293 HD
ENDBRANCH   6  18
BRANCH  17  20
ATOM     20  O   UNL     1      -0.290 -15.114  49.549  1.00  0.00    -0.507 OA
ATOM     21  H   UNL     1       0.638 -14.888  49.878  1.00  0.00     0.293 HD
ENDBRANCH  17  20
BRANCH  15  22
ATOM     22  O   UNL     1       0.771 -14.760  44.875  1.00  0.00    -0.508 OA
ATOM     23  H   UNL     1       0.598 -14.373  43.955  1.00  0.00     0.293 HD
ENDBRANCH  15  22
TORSDOF 3
ENDMDL
MODEL 3
REMARK VINA RESULT:    -3.643      1.428      5.446
REMARK INTER + INTRA:          -3.963
REMARK INTER:                  -3.963
REMARK INTRA:                   0.000
REMARK UNBOUND:                 0.000
REMARK SMILES Cc1cc(O)c2c(c1)C(=O)c1cc(O)cc(O)c1C2=O
REMARK SMILES IDX 1 1 2 2 8 3 7 4 6 5 4 6 3 7 19 8 20 9 18 10 11 11 9 12 10 13
REMARK SMILES IDX 12 14 13 15 15 16 16 17 5 18 17 20 14 22
REMARK H PARENT 5 19 17 21 14 23
REMARK Flexibility Score: inf
ROOT
ATOM      1  C   UNL     1       1.137 -14.289  46.592  1.00  0.00     0.044 C 
ATOM      2  C   UNL     1      -0.343 -14.131  46.780  1.00  0.00    -0.047 A 
ATOM      3  C   UNL     1      -0.932 -14.427  48.015  1.00  0.00     0.016 A 
ATOM      4  C   UNL     1      -2.311 -14.247  48.214  1.00  0.00     0.038 A 
ATOM      5  C   UNL     1      -3.113 -13.757  47.162  1.00  0.00     0.076 A 
ATOM      6  C   UNL     1      -2.510 -13.433  45.924  1.00  0.00     0.127 A 
ATOM      7  C   UNL     1      -1.133 -13.618  45.746  1.00  0.00     0.050 A 
ATOM      8  C   UNL     1      -4.577 -13.611  47.373  1.00  0.00     0.201 C 
ATOM      9  O   UNL     1      -5.344 -13.533  46.377  1.00  0.00    -0.288 OA
ATOM     10  C   UNL     1      -5.144 -13.675  48.750  1.00  0.00     0.076 A 
ATOM     11  C   UNL     1      -4.345 -14.224  49.781  1.00  0.00     0.041 A 
ATOM     12  C   UNL     1      -2.927 -14.570  49.520  1.00  0.00     0.194 C 
ATOM     13  O   UNL     1      -2.238 -15.123  50.421  1.00  0.00    -0.289 OA
ATOM     14  C   UNL     1      -4.896 -14.435  51.056  1.00  0.00     0.059 A 
ATOM     15  C   UNL     1      -6.220 -14.092  51.324  1.00  0.00     0.120 A 
ATOM     16  C   UNL     1      -7.000 -13.505  50.326  1.00  0.00     0.093 A 
ATOM     17  C   UNL     1      -6.469 -13.260  49.055  1.00  0.00     0.131 A 
ENDROOT
BRANCH   6  18
ATOM     18  O   UNL     1      -3.272 -12.917  44.875  1.00  0.00    -0.507 OA
ATOM     19  H   UNL     1      -3.069 -13.142  43.908  1.00  0.00     0.293 HD
ENDBRANCH   6  18
BRANCH  17  20
ATOM     20  O   UNL     1      -7.279 -12.574  48.148  1.00  0.00    -0.507 OA
ATOM     21  H   UNL     1      -7.337 -11.566  48.098  1.00  0.00     0.293 HD
ENDBRANCH  17  20
BRANCH  15  22
ATOM     22  O   UNL     1      -6.749 -14.326  52.591  1.00  0.00    -0.508 OA
ATOM     23  H   UNL     1      -7.517 -14.970  52.736  1.00  0.00     0.293 HD
ENDBRANCH  15  22
TORSDOF 3
ENDMDL
