MODEL 1
REMARK VINA RESULT:    -4.902      0.000      0.000
REMARK INTER + INTRA:          -5.900
REMARK INTER:                  -5.905
REMARK INTRA:                   0.005
REMARK UNBOUND:                 0.005
REMARK SMILES CC[C@H](C)[C@H]([NH3+])C(=O)[O-]
REMARK SMILES IDX 3 1 4 2 5 3 6 4 7 8 8 9 9 10 2 11 1 12
REMARK H PARENT 6 5 6 6 6 7
REMARK Flexibility Score: inf
ROOT
ATOM      1  C   UNL     1     -20.699  68.202  -1.523  1.00  0.00     0.050 C 
ATOM      2  C   UNL     1     -19.299  68.639  -1.053  1.00  0.00     0.014 C 
ENDROOT
BRANCH   1   3
ATOM      3  C   UNL     1     -21.722  68.075  -0.347  1.00  0.00     0.230 C 
BRANCH   3   4
ATOM      4  N   UNL     1     -23.110  68.238  -0.807  1.00  0.00    -0.350 N 
ATOM      5  H   UNL     1     -23.485  69.164  -0.496  1.00  0.00     0.345 HD
ATOM      6  H   UNL     1     -23.134  68.213  -1.853  1.00  0.00     0.345 HD
ATOM      7  H   UNL     1     -23.727  67.476  -0.446  1.00  0.00     0.345 HD
ENDBRANCH   3   4
BRANCH   3   8
ATOM      8  C   UNL     1     -21.421  69.016   0.794  1.00  0.00     0.099 C 
ATOM      9  O   UNL     1     -21.060  68.575   1.917  1.00  0.00    -0.544 OA
ATOM     10  O   UNL     1     -21.569  70.386   0.617  1.00  0.00    -0.544 OA
ENDBRANCH   3   8
ENDBRANCH   1   3
BRANCH   1  11
ATOM     11  C   UNL     1     -20.578  66.905  -2.362  1.00  0.00     0.006 C 
ATOM     12  C   UNL     1     -19.443  65.988  -1.902  1.00  0.00     0.004 C 
ENDBRANCH   1  11
TORSDOF 4
ENDMDL
MODEL 2
REMARK VINA RESULT:    -4.869      2.890      4.172
REMARK INTER + INTRA:          -5.860
REMARK INTER:                  -5.775
REMARK INTRA:                  -0.085
REMARK UNBOUND:                 0.005
REMARK SMILES CC[C@H](C)[C@H]([NH3+])C(=O)[O-]
REMARK SMILES IDX 3 1 4 2 5 3 6 4 7 8 8 9 9 10 2 11 1 12
REMARK H PARENT 6 5 6 6 6 7
REMARK Flexibility Score: inf
ROOT
ATOM      1  C   UNL     1     -20.909  68.728   0.055  1.00  0.00     0.050 C 
ATOM      2  C   UNL     1     -21.192  68.434   1.540  1.00  0.00     0.014 C 
ENDROOT
BRANCH   1   3
ATOM      3  C   UNL     1     -19.628  68.007  -0.474  1.00  0.00     0.230 C 
BRANCH   3   4
ATOM      4  N   UNL     1     -18.593  68.964  -0.897  1.00  0.00    -0.350 N 
ATOM      5  H   UNL     1     -18.329  69.584  -0.097  1.00  0.00     0.345 HD
ATOM      6  H   UNL     1     -17.738  68.441  -1.197  1.00  0.00     0.345 HD
ATOM      7  H   UNL     1     -18.917  69.552  -1.698  1.00  0.00     0.345 HD
ENDBRANCH   3   4
BRANCH   3   8
ATOM      8  C   UNL     1     -19.925  67.018  -1.576  1.00  0.00     0.099 C 
ATOM      9  O   UNL     1     -20.876  67.212  -2.378  1.00  0.00    -0.544 OA
ATOM     10  O   UNL     1     -19.158  65.866  -1.695  1.00  0.00    -0.544 OA
ENDBRANCH   3   8
ENDBRANCH   1   3
BRANCH   1  11
ATOM     11  C   UNL     1     -20.875  70.262  -0.167  1.00  0.00     0.006 C 
ATOM     12  C   UNL     1     -21.491  71.055   0.987  1.00  0.00     0.004 C 
ENDBRANCH   1  11
TORSDOF 4
ENDMDL
MODEL 3
REMARK VINA RESULT:    -4.650      2.577      3.867
REMARK INTER + INTRA:          -5.597
REMARK INTER:                  -5.675
REMARK INTRA:                   0.078
REMARK UNBOUND:                 0.005
REMARK SMILES CC[C@H](C)[C@H]([NH3+])C(=O)[O-]
REMARK SMILES IDX 3 1 4 2 5 3 6 4 7 8 8 9 9 10 2 11 1 12
REMARK H PARENT 6 5 6 6 6 7
REMARK Flexibility Score: inf
ROOT
ATOM      1  C   UNL     1     -20.916  69.139  -0.608  1.00  0.00     0.050 C 
ATOM      2  C   UNL     1     -21.725  67.979  -1.218  1.00  0.00     0.014 C 
ENDROOT
BRANCH   1   3
ATOM      3  C   UNL     1     -19.393  68.814  -0.477  1.00  0.00     0.230 C 
BRANCH   3   4
ATOM      4  N   UNL     1     -18.628  69.289  -1.641  1.00  0.00    -0.350 N 
ATOM      5  H   UNL     1     -17.765  68.712  -1.764  1.00  0.00     0.345 HD
ATOM      6  H   UNL     1     -19.211  69.188  -2.504  1.00  0.00     0.345 HD
ATOM      7  H   UNL     1     -18.360  70.294  -1.542  1.00  0.00     0.345 HD
ENDBRANCH   3   4
BRANCH   3   8
ATOM      8  C   UNL     1     -19.126  67.350  -0.223  1.00  0.00     0.099 C 
ATOM      9  O   UNL     1     -19.005  66.911   0.952  1.00  0.00    -0.544 OA
ATOM     10  O   UNL     1     -18.985  66.478  -1.294  1.00  0.00    -0.544 OA
ENDBRANCH   3   8
ENDBRANCH   1   3
BRANCH   1  11
ATOM     11  C   UNL     1     -21.561  69.566   0.735  1.00  0.00     0.006 C 
ATOM     12  C   UNL     1     -21.468  71.070   1.002  1.00  0.00     0.004 C 
ENDBRANCH   1  11
TORSDOF 4
ENDMDL
MODEL 4
REMARK VINA RESULT:    -4.572      2.375      3.358
REMARK INTER + INTRA:          -5.502
REMARK INTER:                  -5.342
REMARK INTRA:                  -0.160
REMARK UNBOUND:                 0.005
REMARK SMILES CC[C@H](C)[C@H]([NH3+])C(=O)[O-]
REMARK SMILES IDX 3 1 4 2 5 3 6 4 7 8 8 9 9 10 2 11 1 12
REMARK H PARENT 6 5 6 6 6 7
REMARK Flexibility Score: inf
ROOT
ATOM      1  C   UNL     1     -20.820  69.252   0.174  1.00  0.00     0.050 C 
ATOM      2  C   UNL     1     -21.168  70.748   0.291  1.00  0.00     0.014 C 
ENDROOT
BRANCH   1   3
ATOM      3  C   UNL     1     -21.447  68.580  -1.090  1.00  0.00     0.230 C 
BRANCH   3   4
ATOM      4  N   UNL     1     -22.756  67.976  -0.797  1.00  0.00    -0.350 N 
ATOM      5  H   UNL     1     -23.498  68.713  -0.788  1.00  0.00     0.345 HD
ATOM      6  H   UNL     1     -22.995  67.284  -1.546  1.00  0.00     0.345 HD
ATOM      7  H   UNL     1     -22.754  67.477   0.121  1.00  0.00     0.345 HD
ENDBRANCH   3   4
BRANCH   3   8
ATOM      8  C   UNL     1     -20.526  67.574  -1.736  1.00  0.00     0.099 C 
ATOM      9  O   UNL     1     -20.975  66.699  -2.523  1.00  0.00    -0.544 OA
ATOM     10  O   UNL     1     -19.168  67.593  -1.443  1.00  0.00    -0.544 OA
ENDBRANCH   3   8
ENDBRANCH   1   3
BRANCH   1  11
ATOM     11  C   UNL     1     -21.198  68.532   1.493  1.00  0.00     0.006 C 
ATOM     12  C   UNL     1     -20.096  67.609   2.018  1.00  0.00     0.004 C 
ENDBRANCH   1  11
TORSDOF 4
ENDMDL
MODEL 5
REMARK VINA RESULT:    -4.569      2.049      2.606
REMARK INTER + INTRA:          -5.499
REMARK INTER:                  -5.414
REMARK INTRA:                  -0.085
REMARK UNBOUND:                 0.005
REMARK SMILES CC[C@H](C)[C@H]([NH3+])C(=O)[O-]
REMARK SMILES IDX 3 1 4 2 5 3 6 4 7 8 8 9 9 10 2 11 1 12
REMARK H PARENT 6 5 6 6 6 7
REMARK Flexibility Score: inf
ROOT
ATOM      1  C   UNL     1     -20.303  67.619  -0.972  1.00  0.00     0.050 C 
ATOM      2  C   UNL     1     -20.685  66.958  -2.310  1.00  0.00     0.014 C 
ENDROOT
BRANCH   1   3
ATOM      3  C   UNL     1     -20.206  69.176  -1.070  1.00  0.00     0.230 C 
BRANCH   3   4
ATOM      4  N   UNL     1     -18.816  69.647  -0.961  1.00  0.00    -0.350 N 
ATOM      5  H   UNL     1     -18.746  70.393  -0.232  1.00  0.00     0.345 HD
ATOM      6  H   UNL     1     -18.201  68.851  -0.672  1.00  0.00     0.345 HD
ATOM      7  H   UNL     1     -18.464  70.019  -1.872  1.00  0.00     0.345 HD
ENDBRANCH   3   4
BRANCH   3   8
ATOM      8  C   UNL     1     -21.090  69.881  -0.069  1.00  0.00     0.099 C 
ATOM      9  O   UNL     1     -21.017  71.129   0.090  1.00  0.00    -0.544 OA
ATOM     10  O   UNL     1     -21.978  69.147   0.706  1.00  0.00    -0.544 OA
ENDBRANCH   3   8
ENDBRANCH   1   3
BRANCH   1  11
ATOM     11  C   UNL     1     -19.008  66.965  -0.427  1.00  0.00     0.006 C 
ATOM     12  C   UNL     1     -18.945  66.927   1.101  1.00  0.00     0.004 C 
ENDBRANCH   1  11
TORSDOF 4
ENDMDL
MODEL 6
REMARK VINA RESULT:    -4.526      2.703      3.406
REMARK INTER + INTRA:          -5.447
REMARK INTER:                  -5.357
REMARK INTRA:                  -0.090
REMARK UNBOUND:                 0.005
REMARK SMILES CC[C@H](C)[C@H]([NH3+])C(=O)[O-]
REMARK SMILES IDX 3 1 4 2 5 3 6 4 7 8 8 9 9 10 2 11 1 12
REMARK H PARENT 6 5 6 6 6 7
REMARK Flexibility Score: inf
ROOT
ATOM      1  C   UNL     1     -20.727  69.247  -0.150  1.00  0.00     0.050 C 
ATOM      2  C   UNL     1     -20.888  70.772  -0.008  1.00  0.00     0.014 C 
ENDROOT
BRANCH   1   3
ATOM      3  C   UNL     1     -19.237  68.807  -0.324  1.00  0.00     0.230 C 
BRANCH   3   4
ATOM      4  N   UNL     1     -18.672  69.275  -1.599  1.00  0.00    -0.350 N 
ATOM      5  H   UNL     1     -18.245  70.222  -1.477  1.00  0.00     0.345 HD
ATOM      6  H   UNL     1     -17.919  68.617  -1.908  1.00  0.00     0.345 HD
ATOM      7  H   UNL     1     -19.398  69.318  -2.350  1.00  0.00     0.345 HD
ENDBRANCH   3   4
BRANCH   3   8
ATOM      8  C   UNL     1     -19.044  67.318  -0.168  1.00  0.00     0.099 C 
ATOM      9  O   UNL     1     -18.852  66.807   0.968  1.00  0.00    -0.544 OA
ATOM     10  O   UNL     1     -19.052  66.499  -1.290  1.00  0.00    -0.544 OA
ENDBRANCH   3   8
ENDBRANCH   1   3
BRANCH   1  11
ATOM     11  C   UNL     1     -21.645  68.737  -1.290  1.00  0.00     0.006 C 
ATOM     12  C   UNL     1     -22.806  67.873  -0.792  1.00  0.00     0.004 C 
ENDBRANCH   1  11
TORSDOF 4
ENDMDL
MODEL 7
REMARK VINA RESULT:    -4.150      1.971      2.247
REMARK INTER + INTRA:          -4.994
REMARK INTER:                  -5.025
REMARK INTRA:                   0.031
REMARK UNBOUND:                 0.005
REMARK SMILES CC[C@H](C)[C@H]([NH3+])C(=O)[O-]
REMARK SMILES IDX 3 1 4 2 5 3 6 4 7 8 8 9 9 10 2 11 1 12
REMARK H PARENT 6 5 6 6 6 7
REMARK Flexibility Score: inf
ROOT
ATOM      1  C   UNL     1     -19.848  68.723  -1.365  1.00  0.00     0.050 C 
ATOM      2  C   UNL     1     -18.617  69.562  -0.975  1.00  0.00     0.014 C 
ENDROOT
BRANCH   1   3
ATOM      3  C   UNL     1     -21.194  69.368  -0.903  1.00  0.00     0.230 C 
BRANCH   3   4
ATOM      4  N   UNL     1     -20.974  70.504   0.007  1.00  0.00    -0.350 N 
ATOM      5  H   UNL     1     -20.038  70.932  -0.174  1.00  0.00     0.345 HD
ATOM      6  H   UNL     1     -21.704  71.233  -0.167  1.00  0.00     0.345 HD
ATOM      7  H   UNL     1     -21.034  70.212   1.008  1.00  0.00     0.345 HD
ENDBRANCH   3   4
BRANCH   3   8
ATOM      8  C   UNL     1     -22.143  68.367  -0.289  1.00  0.00     0.099 C 
ATOM      9  O   UNL     1     -22.871  67.638  -1.014  1.00  0.00    -0.544 OA
ATOM     10  O   UNL     1     -22.237  68.261   1.093  1.00  0.00    -0.544 OA
ENDBRANCH   3   8
ENDBRANCH   1   3
BRANCH   1  11
ATOM     11  C   UNL     1     -19.665  67.272  -0.852  1.00  0.00     0.006 C 
ATOM     12  C   UNL     1     -18.814  67.180   0.416  1.00  0.00     0.004 C 
ENDBRANCH   1  11
TORSDOF 4
ENDMDL
MODEL 8
REMARK VINA RESULT:    -4.144      2.232      3.764
REMARK INTER + INTRA:          -4.987
REMARK INTER:                  -5.275
REMARK INTRA:                   0.289
REMARK UNBOUND:                 0.005
REMARK SMILES CC[C@H](C)[C@H]([NH3+])C(=O)[O-]
REMARK SMILES IDX 3 1 4 2 5 3 6 4 7 8 8 9 9 10 2 11 1 12
REMARK H PARENT 6 5 6 6 6 7
REMARK Flexibility Score: inf
ROOT
ATOM      1  C   UNL     1     -21.811  69.286   0.381  1.00  0.00     0.050 C 
ATOM      2  C   UNL     1     -21.005  68.376   1.326  1.00  0.00     0.014 C 
ENDROOT
BRANCH   1   3
ATOM      3  C   UNL     1     -22.084  68.628  -1.010  1.00  0.00     0.230 C 
BRANCH   3   4
ATOM      4  N   UNL     1     -23.166  67.633  -0.944  1.00  0.00    -0.350 N 
ATOM      5  H   UNL     1     -23.477  67.506   0.047  1.00  0.00     0.345 HD
ATOM      6  H   UNL     1     -23.984  67.972  -1.500  1.00  0.00     0.345 HD
ATOM      7  H   UNL     1     -22.865  66.711  -1.332  1.00  0.00     0.345 HD
ENDBRANCH   3   4
BRANCH   3   8
ATOM      8  C   UNL     1     -20.844  68.031  -1.629  1.00  0.00     0.099 C 
ATOM      9  O   UNL     1     -19.750  68.656  -1.615  1.00  0.00    -0.544 OA
ATOM     10  O   UNL     1     -20.909  66.787  -2.244  1.00  0.00    -0.544 OA
ENDBRANCH   3   8
ENDBRANCH   1   3
BRANCH   1  11
ATOM     11  C   UNL     1     -21.109  70.664   0.272  1.00  0.00     0.006 C 
ATOM     12  C   UNL     1     -21.585  71.672   1.320  1.00  0.00     0.004 C 
ENDBRANCH   1  11
TORSDOF 4
ENDMDL
MODEL 9
REMARK VINA RESULT:    -3.774      2.356      3.603
REMARK INTER + INTRA:          -4.541
REMARK INTER:                  -4.492
REMARK INTRA:                  -0.048
REMARK UNBOUND:                 0.005
REMARK SMILES CC[C@H](C)[C@H]([NH3+])C(=O)[O-]
REMARK SMILES IDX 3 1 4 2 5 3 6 4 7 8 8 9 9 10 2 11 1 12
REMARK H PARENT 6 5 6 6 6 7
REMARK Flexibility Score: inf
ROOT
ATOM      1  C   UNL     1     -19.785  69.166  -0.575  1.00  0.00     0.050 C 
ATOM      2  C   UNL     1     -18.603  70.037  -1.042  1.00  0.00     0.014 C 
ENDROOT
BRANCH   1   3
ATOM      3  C   UNL     1     -20.040  67.938  -1.507  1.00  0.00     0.230 C 
BRANCH   3   4
ATOM      4  N   UNL     1     -21.476  67.655  -1.662  1.00  0.00    -0.350 N 
ATOM      5  H   UNL     1     -22.041  68.410  -1.209  1.00  0.00     0.345 HD
ATOM      6  H   UNL     1     -21.718  67.635  -2.680  1.00  0.00     0.345 HD
ATOM      7  H   UNL     1     -21.734  66.733  -1.245  1.00  0.00     0.345 HD
ENDBRANCH   3   4
BRANCH   3   8
ATOM      8  C   UNL     1     -19.296  66.701  -1.064  1.00  0.00     0.099 C 
ATOM      9  O   UNL     1     -19.236  65.684  -1.805  1.00  0.00    -0.544 OA
ATOM     10  O   UNL     1     -18.689  66.671   0.185  1.00  0.00    -0.544 OA
ENDBRANCH   3   8
ENDBRANCH   1   3
BRANCH   1  11
ATOM     11  C   UNL     1     -21.039  70.058  -0.391  1.00  0.00     0.006 C 
ATOM     12  C   UNL     1     -21.709  69.887   0.974  1.00  0.00     0.004 C 
ENDBRANCH   1  11
TORSDOF 4
ENDMDL
