MODEL 1
REMARK VINA RESULT:    -3.486      0.000      0.000
REMARK INTER + INTRA:          -4.506
REMARK INTER:                  -4.301
REMARK INTRA:                  -0.205
REMARK UNBOUND:                -0.205
REMARK SMILES CCCCCC(=O)[O-]
REMARK SMILES IDX 4 1 5 2 6 3 7 4 8 5 3 6 2 7 1 8
REMARK H PARENT
REMARK Flexibility Score: inf
ROOT
ATOM      1  C   UNL     1       8.339  -5.782 -32.858  1.00  0.00     0.006 C 
ENDROOT
BRANCH   1   2
ATOM      2  C   UNL     1       7.340  -5.615 -31.709  1.00  0.00     0.053 C 
BRANCH   2   3
ATOM      3  C   UNL     1       6.330  -6.718 -31.727  1.00  0.00     0.041 C 
ATOM      4  O   UNL     1       6.438  -7.690 -30.935  1.00  0.00    -0.550 OA
ATOM      5  O   UNL     1       5.296  -6.698 -32.654  1.00  0.00    -0.550 OA
ENDBRANCH   2   3
ENDBRANCH   1   2
BRANCH   1   6
ATOM      6  C   UNL     1       8.078  -4.758 -33.968  1.00  0.00     0.000 C 
BRANCH   6   7
ATOM      7  C   UNL     1       7.325  -3.538 -33.425  1.00  0.00    -0.003 C 
ATOM      8  C   UNL     1       6.173  -3.147 -34.347  1.00  0.00     0.004 C 
ENDBRANCH   6   7
ENDBRANCH   1   6
TORSDOF 4
ENDMDL
MODEL 2
REMARK VINA RESULT:    -3.427      2.177      3.603
REMARK INTER + INTRA:          -4.434
REMARK INTER:                  -4.193
REMARK INTRA:                  -0.241
REMARK UNBOUND:                -0.205
REMARK SMILES CCCCCC(=O)[O-]
REMARK SMILES IDX 4 1 5 2 6 3 7 4 8 5 3 6 2 7 1 8
REMARK H PARENT
REMARK Flexibility Score: inf
ROOT
ATOM      1  C   UNL     1       8.078  -5.751 -33.012  1.00  0.00     0.006 C 
ENDROOT
BRANCH   1   2
ATOM      2  C   UNL     1       8.245  -4.402 -33.718  1.00  0.00     0.053 C 
BRANCH   2   3
ATOM      3  C   UNL     1       6.910  -3.822 -34.063  1.00  0.00     0.041 C 
ATOM      4  O   UNL     1       6.562  -2.708 -33.589  1.00  0.00    -0.550 OA
ATOM      5  O   UNL     1       6.028  -4.532 -34.867  1.00  0.00    -0.550 OA
ENDBRANCH   2   3
ENDBRANCH   1   2
BRANCH   1   6
ATOM      6  C   UNL     1       7.352  -5.585 -31.672  1.00  0.00     0.000 C 
BRANCH   6   7
ATOM      7  C   UNL     1       6.472  -6.804 -31.369  1.00  0.00    -0.003 C 
ATOM      8  C   UNL     1       5.458  -7.041 -32.485  1.00  0.00     0.004 C 
ENDBRANCH   6   7
ENDBRANCH   1   6
TORSDOF 4
ENDMDL
MODEL 3
REMARK VINA RESULT:    -3.396     12.443     13.532
REMARK INTER + INTRA:          -4.396
REMARK INTER:                  -4.291
REMARK INTRA:                  -0.104
REMARK UNBOUND:                -0.205
REMARK SMILES CCCCCC(=O)[O-]
REMARK SMILES IDX 4 1 5 2 6 3 7 4 8 5 3 6 2 7 1 8
REMARK H PARENT
REMARK Flexibility Score: inf
ROOT
ATOM      1  C   UNL     1      14.082  -4.842 -22.370  1.00  0.00     0.006 C 
ENDROOT
BRANCH   1   2
ATOM      2  C   UNL     1      13.999  -3.321 -22.529  1.00  0.00     0.053 C 
BRANCH   2   3
ATOM      3  C   UNL     1      14.219  -2.644 -21.213  1.00  0.00     0.041 C 
ATOM      4  O   UNL     1      15.387  -2.489 -20.767  1.00  0.00    -0.550 OA
ATOM      5  O   UNL     1      13.133  -2.228 -20.455  1.00  0.00    -0.550 OA
ENDBRANCH   2   3
ENDBRANCH   1   2
BRANCH   1   6
ATOM      6  C   UNL     1      14.172  -5.534 -23.735  1.00  0.00     0.000 C 
BRANCH   6   7
ATOM      7  C   UNL     1      15.556  -6.162 -23.942  1.00  0.00    -0.003 C 
ATOM      8  C   UNL     1      16.319  -6.257 -22.624  1.00  0.00     0.004 C 
ENDBRANCH   6   7
ENDBRANCH   1   6
TORSDOF 4
ENDMDL
MODEL 4
REMARK VINA RESULT:    -3.393      2.382      3.813
REMARK INTER + INTRA:          -4.391
REMARK INTER:                  -4.246
REMARK INTRA:                  -0.145
REMARK UNBOUND:                -0.205
REMARK SMILES CCCCCC(=O)[O-]
REMARK SMILES IDX 4 1 5 2 6 3 7 4 8 5 3 6 2 7 1 8
REMARK H PARENT
REMARK Flexibility Score: inf
ROOT
ATOM      1  C   UNL     1       7.368  -5.836 -31.482  1.00  0.00     0.006 C 
ENDROOT
BRANCH   1   2
ATOM      2  C   UNL     1       7.094  -4.859 -32.629  1.00  0.00     0.053 C 
BRANCH   2   3
ATOM      3  C   UNL     1       8.202  -4.905 -33.633  1.00  0.00     0.041 C 
ATOM      4  O   UNL     1       8.637  -3.840 -34.146  1.00  0.00    -0.550 OA
ATOM      5  O   UNL     1       8.721  -6.126 -34.042  1.00  0.00    -0.550 OA
ENDBRANCH   2   3
ENDBRANCH   1   2
BRANCH   1   6
ATOM      6  C   UNL     1       6.340  -6.973 -31.471  1.00  0.00     0.000 C 
BRANCH   6   7
ATOM      7  C   UNL     1       5.380  -6.860 -32.660  1.00  0.00    -0.003 C 
ATOM      8  C   UNL     1       5.114  -8.226 -33.285  1.00  0.00     0.004 C 
ENDBRANCH   6   7
ENDBRANCH   1   6
TORSDOF 4
ENDMDL
MODEL 5
REMARK VINA RESULT:    -3.382      3.239      4.495
REMARK INTER + INTRA:          -4.377
REMARK INTER:                  -4.250
REMARK INTRA:                  -0.128
REMARK UNBOUND:                -0.205
REMARK SMILES CCCCCC(=O)[O-]
REMARK SMILES IDX 4 1 5 2 6 3 7 4 8 5 3 6 2 7 1 8
REMARK H PARENT
REMARK Flexibility Score: inf
ROOT
ATOM      1  C   UNL     1       6.668  -4.681 -33.790  1.00  0.00     0.006 C 
ENDROOT
BRANCH   1   2
ATOM      2  C   UNL     1       6.831  -3.187 -33.497  1.00  0.00     0.053 C 
BRANCH   2   3
ATOM      3  C   UNL     1       7.610  -2.521 -34.586  1.00  0.00     0.041 C 
ATOM      4  O   UNL     1       7.083  -2.322 -35.712  1.00  0.00    -0.550 OA
ATOM      5  O   UNL     1       8.935  -2.164 -34.374  1.00  0.00    -0.550 OA
ENDBRANCH   2   3
ENDBRANCH   1   2
BRANCH   1   6
ATOM      6  C   UNL     1       7.735  -5.505 -33.060  1.00  0.00     0.000 C 
BRANCH   6   7
ATOM      7  C   UNL     1       7.372  -5.688 -31.582  1.00  0.00    -0.003 C 
ATOM      8  C   UNL     1       6.295  -6.756 -31.408  1.00  0.00     0.004 C 
ENDBRANCH   6   7
ENDBRANCH   1   6
TORSDOF 4
ENDMDL
MODEL 6
REMARK VINA RESULT:    -3.295     12.496     13.429
REMARK INTER + INTRA:          -4.270
REMARK INTER:                  -4.014
REMARK INTRA:                  -0.257
REMARK UNBOUND:                -0.205
REMARK SMILES CCCCCC(=O)[O-]
REMARK SMILES IDX 4 1 5 2 6 3 7 4 8 5 3 6 2 7 1 8
REMARK H PARENT
REMARK Flexibility Score: inf
ROOT
ATOM      1  C   UNL     1       5.190 -13.081 -20.503  1.00  0.00     0.006 C 
ENDROOT
BRANCH   1   2
ATOM      2  C   UNL     1       5.263 -13.970 -21.748  1.00  0.00     0.053 C 
BRANCH   2   3
ATOM      3  C   UNL     1       5.891 -13.229 -22.885  1.00  0.00     0.041 C 
ATOM      4  O   UNL     1       7.098 -12.875 -22.823  1.00  0.00    -0.550 OA
ATOM      5  O   UNL     1       5.130 -12.883 -23.994  1.00  0.00    -0.550 OA
ENDBRANCH   2   3
ENDBRANCH   1   2
BRANCH   1   6
ATOM      6  C   UNL     1       4.370 -11.816 -20.776  1.00  0.00     0.000 C 
BRANCH   6   7
ATOM      7  C   UNL     1       2.872 -12.134 -20.839  1.00  0.00    -0.003 C 
ATOM      8  C   UNL     1       2.280 -11.732 -22.187  1.00  0.00     0.004 C 
ENDBRANCH   6   7
ENDBRANCH   1   6
TORSDOF 4
ENDMDL
MODEL 7
REMARK VINA RESULT:    -3.289     12.248     13.376
REMARK INTER + INTRA:          -4.264
REMARK INTER:                  -4.135
REMARK INTRA:                  -0.129
REMARK UNBOUND:                -0.205
REMARK SMILES CCCCCC(=O)[O-]
REMARK SMILES IDX 4 1 5 2 6 3 7 4 8 5 3 6 2 7 1 8
REMARK H PARENT
REMARK Flexibility Score: inf
ROOT
ATOM      1  C   UNL     1      14.212  -4.717 -22.127  1.00  0.00     0.006 C 
ENDROOT
BRANCH   1   2
ATOM      2  C   UNL     1      14.437  -5.226 -23.554  1.00  0.00     0.053 C 
BRANCH   2   3
ATOM      3  C   UNL     1      15.518  -6.259 -23.578  1.00  0.00     0.041 C 
ATOM      4  O   UNL     1      15.415  -7.267 -24.326  1.00  0.00    -0.550 OA
ATOM      5  O   UNL     1      16.617  -6.137 -22.738  1.00  0.00    -0.550 OA
ENDBRANCH   2   3
ENDBRANCH   1   2
BRANCH   1   6
ATOM      6  C   UNL     1      13.697  -3.274 -22.131  1.00  0.00     0.000 C 
BRANCH   6   7
ATOM      7  C   UNL     1      14.416  -2.430 -21.072  1.00  0.00    -0.003 C 
ATOM      8  C   UNL     1      15.425  -3.269 -20.293  1.00  0.00     0.004 C 
ENDBRANCH   6   7
ENDBRANCH   1   6
TORSDOF 4
ENDMDL
MODEL 8
REMARK VINA RESULT:    -3.262     12.888     13.552
REMARK INTER + INTRA:          -4.229
REMARK INTER:                  -4.015
REMARK INTRA:                  -0.215
REMARK UNBOUND:                -0.205
REMARK SMILES CCCCCC(=O)[O-]
REMARK SMILES IDX 4 1 5 2 6 3 7 4 8 5 3 6 2 7 1 8
REMARK H PARENT
REMARK Flexibility Score: inf
ROOT
ATOM      1  C   UNL     1       2.730 -12.268 -21.052  1.00  0.00     0.006 C 
ENDROOT
BRANCH   1   2
ATOM      2  C   UNL     1       2.114 -11.716 -22.341  1.00  0.00     0.053 C 
BRANCH   2   3
ATOM      3  C   UNL     1       1.980 -12.798 -23.365  1.00  0.00     0.041 C 
ATOM      4  O   UNL     1       2.631 -13.869 -23.244  1.00  0.00    -0.550 OA
ATOM      5  O   UNL     1       1.175 -12.605 -24.480  1.00  0.00    -0.550 OA
ENDBRANCH   2   3
ENDBRANCH   1   2
BRANCH   1   6
ATOM      6  C   UNL     1       4.132 -11.693 -20.820  1.00  0.00     0.000 C 
BRANCH   6   7
ATOM      7  C   UNL     1       5.154 -12.812 -20.591  1.00  0.00    -0.003 C 
ATOM      8  C   UNL     1       5.879 -13.168 -21.887  1.00  0.00     0.004 C 
ENDBRANCH   6   7
ENDBRANCH   1   6
TORSDOF 4
ENDMDL
MODEL 9
REMARK VINA RESULT:    -3.185      1.983      2.461
REMARK INTER + INTRA:          -4.135
REMARK INTER:                  -3.903
REMARK INTRA:                  -0.232
REMARK UNBOUND:                -0.205
REMARK SMILES CCCCCC(=O)[O-]
REMARK SMILES IDX 4 1 5 2 6 3 7 4 8 5 3 6 2 7 1 8
REMARK H PARENT
REMARK Flexibility Score: inf
ROOT
ATOM      1  C   UNL     1       6.331  -4.985 -34.673  1.00  0.00     0.006 C 
ENDROOT
BRANCH   1   2
ATOM      2  C   UNL     1       6.201  -5.807 -33.388  1.00  0.00     0.053 C 
BRANCH   2   3
ATOM      3  C   UNL     1       7.479  -5.773 -32.612  1.00  0.00     0.041 C 
ATOM      4  O   UNL     1       7.458  -5.651 -31.359  1.00  0.00    -0.550 OA
ATOM      5  O   UNL     1       8.698  -5.826 -33.277  1.00  0.00    -0.550 OA
ENDBRANCH   2   3
ENDBRANCH   1   2
BRANCH   1   6
ATOM      6  C   UNL     1       6.114  -3.493 -34.397  1.00  0.00     0.000 C 
BRANCH   6   7
ATOM      7  C   UNL     1       7.086  -2.636 -35.217  1.00  0.00    -0.003 C 
ATOM      8  C   UNL     1       8.417  -2.465 -34.490  1.00  0.00     0.004 C 
ENDBRANCH   6   7
ENDBRANCH   1   6
TORSDOF 4
ENDMDL
