MODEL 1
REMARK VINA RESULT:    -5.065      0.000      0.000
REMARK INTER + INTRA:          -8.029
REMARK INTER:                  -7.730
REMARK INTRA:                  -0.299
REMARK UNBOUND:                -0.299
REMARK SMILES CCCCCCCCCCC(=O)[O-]
REMARK SMILES IDX 7 1 8 2 9 3 10 4 11 5 12 6 13 7 6 8 5 9 4 10 3 11 2 12 1 13
REMARK H PARENT
REMARK Flexibility Score: inf
ROOT
ATOM      1  C   UNL     1      37.608  67.518  24.423  1.00  0.00     0.000 C 
ENDROOT
BRANCH   1   2
ATOM      2  C   UNL     1      38.939  66.773  24.232  1.00  0.00     0.000 C 
BRANCH   2   3
ATOM      3  C   UNL     1      39.941  67.046  25.367  1.00  0.00     0.006 C 
BRANCH   3   4
ATOM      4  C   UNL     1      41.393  66.829  24.921  1.00  0.00     0.053 C 
BRANCH   4   5
ATOM      5  C   UNL     1      41.816  67.833  23.894  1.00  0.00     0.041 C 
ATOM      6  O   UNL     1      41.542  67.650  22.678  1.00  0.00    -0.550 OA
ATOM      7  O   UNL     1      42.541  68.955  24.274  1.00  0.00    -0.550 OA
ENDBRANCH   4   5
ENDBRANCH   3   4
ENDBRANCH   2   3
ENDBRANCH   1   2
BRANCH   1   8
ATOM      8  C   UNL     1      37.029  67.337  25.838  1.00  0.00     0.000 C 
BRANCH   8   9
ATOM      9  C   UNL     1      35.499  67.489  25.866  1.00  0.00    -0.000 C 
BRANCH   9  10
ATOM     10  C   UNL     1      34.805  66.343  26.623  1.00  0.00    -0.000 C 
BRANCH  10  11
ATOM     11  C   UNL     1      34.609  65.096  25.736  1.00  0.00    -0.000 C 
BRANCH  11  12
ATOM     12  C   UNL     1      34.739  63.769  26.504  1.00  0.00    -0.003 C 
ATOM     13  C   UNL     1      35.021  63.963  27.992  1.00  0.00     0.004 C 
ENDBRANCH  11  12
ENDBRANCH  10  11
ENDBRANCH   9  10
ENDBRANCH   8   9
ENDBRANCH   1   8
TORSDOF 9
ENDMDL
MODEL 2
REMARK VINA RESULT:    -5.033      4.227      7.466
REMARK INTER + INTRA:          -7.979
REMARK INTER:                  -7.600
REMARK INTRA:                  -0.379
REMARK UNBOUND:                -0.299
REMARK SMILES CCCCCCCCCCC(=O)[O-]
REMARK SMILES IDX 7 1 8 2 9 3 10 4 11 5 12 6 13 7 6 8 5 9 4 10 3 11 2 12 1 13
REMARK H PARENT
REMARK Flexibility Score: inf
ROOT
ATOM      1  C   UNL     1      41.744  63.460  24.622  1.00  0.00     0.000 C 
ENDROOT
BRANCH   1   2
ATOM      2  C   UNL     1      41.749  64.934  24.188  1.00  0.00     0.000 C 
BRANCH   2   3
ATOM      3  C   UNL     1      41.198  65.875  25.275  1.00  0.00     0.006 C 
BRANCH   3   4
ATOM      4  C   UNL     1      40.600  67.157  24.680  1.00  0.00     0.053 C 
BRANCH   4   5
ATOM      5  C   UNL     1      41.523  67.791  23.686  1.00  0.00     0.041 C 
ATOM      6  O   UNL     1      42.413  68.596  24.071  1.00  0.00    -0.550 OA
ATOM      7  O   UNL     1      41.380  67.521  22.331  1.00  0.00    -0.550 OA
ENDBRANCH   4   5
ENDBRANCH   3   4
ENDBRANCH   2   3
ENDBRANCH   1   2
BRANCH   1   8
ATOM      8  C   UNL     1      42.458  63.238  25.968  1.00  0.00     0.000 C 
BRANCH   8   9
ATOM      9  C   UNL     1      43.069  61.832  26.081  1.00  0.00    -0.000 C 
BRANCH   9  10
ATOM     10  C   UNL     1      44.546  61.863  26.512  1.00  0.00    -0.000 C 
BRANCH  10  11
ATOM     11  C   UNL     1      45.502  61.944  25.303  1.00  0.00    -0.000 C 
BRANCH  11  12
ATOM     12  C   UNL     1      46.647  62.954  25.492  1.00  0.00    -0.003 C 
ATOM     13  C   UNL     1      46.885  63.324  26.954  1.00  0.00     0.004 C 
ENDBRANCH  11  12
ENDBRANCH  10  11
ENDBRANCH   9  10
ENDBRANCH   8   9
ENDBRANCH   1   8
TORSDOF 9
ENDMDL
MODEL 3
REMARK VINA RESULT:    -5.030      3.976      6.603
REMARK INTER + INTRA:          -7.975
REMARK INTER:                  -7.662
REMARK INTRA:                  -0.313
REMARK UNBOUND:                -0.299
REMARK SMILES CCCCCCCCCCC(=O)[O-]
REMARK SMILES IDX 7 1 8 2 9 3 10 4 11 5 12 6 13 7 6 8 5 9 4 10 3 11 2 12 1 13
REMARK H PARENT
REMARK Flexibility Score: inf
ROOT
ATOM      1  C   UNL     1      40.081  66.647  23.146  1.00  0.00     0.000 C 
ENDROOT
BRANCH   1   2
ATOM      2  C   UNL     1      39.398  66.791  24.516  1.00  0.00     0.000 C 
BRANCH   2   3
ATOM      3  C   UNL     1      37.943  67.277  24.404  1.00  0.00     0.006 C 
BRANCH   3   4
ATOM      4  C   UNL     1      37.286  67.453  25.781  1.00  0.00     0.053 C 
BRANCH   4   5
ATOM      5  C   UNL     1      35.821  67.143  25.741  1.00  0.00     0.041 C 
ATOM      6  O   UNL     1      34.991  68.042  25.439  1.00  0.00    -0.550 OA
ATOM      7  O   UNL     1      35.369  65.872  26.070  1.00  0.00    -0.550 OA
ENDBRANCH   4   5
ENDBRANCH   3   4
ENDBRANCH   2   3
ENDBRANCH   1   2
BRANCH   1   8
ATOM      8  C   UNL     1      41.276  65.677  23.182  1.00  0.00     0.000 C 
BRANCH   8   9
ATOM      9  C   UNL     1      41.561  65.152  24.599  1.00  0.00    -0.000 C 
BRANCH   9  10
ATOM     10  C   UNL     1      41.795  63.632  24.630  1.00  0.00    -0.000 C 
BRANCH  10  11
ATOM     11  C   UNL     1      42.560  63.187  25.893  1.00  0.00    -0.000 C 
BRANCH  11  12
ATOM     12  C   UNL     1      43.321  61.862  25.716  1.00  0.00    -0.003 C 
ATOM     13  C   UNL     1      44.812  61.981  26.023  1.00  0.00     0.004 C 
ENDBRANCH  11  12
ENDBRANCH  10  11
ENDBRANCH   9  10
ENDBRANCH   8   9
ENDBRANCH   1   8
TORSDOF 9
ENDMDL
MODEL 4
REMARK VINA RESULT:    -4.989      3.777      4.807
REMARK INTER + INTRA:          -7.912
REMARK INTER:                  -7.688
REMARK INTRA:                  -0.225
REMARK UNBOUND:                -0.299
REMARK SMILES CCCCCCCCCCC(=O)[O-]
REMARK SMILES IDX 7 1 8 2 9 3 10 4 11 5 12 6 13 7 6 8 5 9 4 10 3 11 2 12 1 13
REMARK H PARENT
REMARK Flexibility Score: inf
ROOT
ATOM      1  C   UNL     1      41.388  66.074  24.499  1.00  0.00     0.000 C 
ENDROOT
BRANCH   1   2
ATOM      2  C   UNL     1      41.722  64.596  24.243  1.00  0.00     0.000 C 
BRANCH   2   3
ATOM      3  C   UNL     1      42.103  63.842  25.529  1.00  0.00     0.006 C 
BRANCH   3   4
ATOM      4  C   UNL     1      42.368  62.352  25.269  1.00  0.00     0.053 C 
BRANCH   4   5
ATOM      5  C   UNL     1      43.527  61.846  26.071  1.00  0.00     0.041 C 
ATOM      6  O   UNL     1      43.329  61.122  27.083  1.00  0.00    -0.550 OA
ATOM      7  O   UNL     1      44.823  62.202  25.723  1.00  0.00    -0.550 OA
ENDBRANCH   4   5
ENDBRANCH   3   4
ENDBRANCH   2   3
ENDBRANCH   1   2
BRANCH   1   8
ATOM      8  C   UNL     1      39.985  66.458  23.995  1.00  0.00     0.000 C 
BRANCH   8   9
ATOM      9  C   UNL     1      39.173  67.223  25.054  1.00  0.00    -0.000 C 
BRANCH   9  10
ATOM     10  C   UNL     1      37.668  67.254  24.735  1.00  0.00    -0.000 C 
BRANCH  10  11
ATOM     11  C   UNL     1      36.822  67.642  25.965  1.00  0.00    -0.000 C 
BRANCH  11  12
ATOM     12  C   UNL     1      35.308  67.479  25.745  1.00  0.00    -0.003 C 
ATOM     13  C   UNL     1      34.792  66.095  26.134  1.00  0.00     0.004 C 
ENDBRANCH  11  12
ENDBRANCH  10  11
ENDBRANCH   9  10
ENDBRANCH   8   9
ENDBRANCH   1   8
TORSDOF 9
ENDMDL
MODEL 5
REMARK VINA RESULT:    -4.953      1.567      1.971
REMARK INTER + INTRA:          -7.857
REMARK INTER:                  -7.438
REMARK INTRA:                  -0.419
REMARK UNBOUND:                -0.299
REMARK SMILES CCCCCCCCCCC(=O)[O-]
REMARK SMILES IDX 7 1 8 2 9 3 10 4 11 5 12 6 13 7 6 8 5 9 4 10 3 11 2 12 1 13
REMARK H PARENT
REMARK Flexibility Score: inf
ROOT
ATOM      1  C   UNL     1      38.443  67.112  24.587  1.00  0.00     0.000 C 
ENDROOT
BRANCH   1   2
ATOM      2  C   UNL     1      39.902  66.875  25.010  1.00  0.00     0.000 C 
BRANCH   2   3
ATOM      3  C   UNL     1      40.910  67.314  23.934  1.00  0.00     0.006 C 
BRANCH   3   4
ATOM      4  C   UNL     1      41.312  66.154  23.012  1.00  0.00     0.053 C 
BRANCH   4   5
ATOM      5  C   UNL     1      40.998  66.451  21.578  1.00  0.00     0.041 C 
ATOM      6  O   UNL     1      39.949  67.080  21.276  1.00  0.00    -0.550 OA
ATOM      7  O   UNL     1      41.846  66.004  20.573  1.00  0.00    -0.550 OA
ENDBRANCH   4   5
ENDBRANCH   3   4
ENDBRANCH   2   3
ENDBRANCH   1   2
BRANCH   1   8
ATOM      8  C   UNL     1      37.477  67.132  25.786  1.00  0.00     0.000 C 
BRANCH   8   9
ATOM      9  C   UNL     1      36.122  67.767  25.432  1.00  0.00    -0.000 C 
BRANCH   9  10
ATOM     10  C   UNL     1      34.954  67.137  26.211  1.00  0.00    -0.000 C 
BRANCH  10  11
ATOM     11  C   UNL     1      34.935  65.599  26.087  1.00  0.00    -0.000 C 
BRANCH  11  12
ATOM     12  C   UNL     1      34.943  64.873  27.443  1.00  0.00    -0.003 C 
ATOM     13  C   UNL     1      34.837  63.355  27.311  1.00  0.00     0.004 C 
ENDBRANCH  11  12
ENDBRANCH  10  11
ENDBRANCH   9  10
ENDBRANCH   8   9
ENDBRANCH   1   8
TORSDOF 9
ENDMDL
MODEL 6
REMARK VINA RESULT:    -4.938      4.421      7.373
REMARK INTER + INTRA:          -7.834
REMARK INTER:                  -7.461
REMARK INTRA:                  -0.373
REMARK UNBOUND:                -0.299
REMARK SMILES CCCCCCCCCCC(=O)[O-]
REMARK SMILES IDX 7 1 8 2 9 3 10 4 11 5 12 6 13 7 6 8 5 9 4 10 3 11 2 12 1 13
REMARK H PARENT
REMARK Flexibility Score: inf
ROOT
ATOM      1  C   UNL     1      41.758  64.556  24.610  1.00  0.00     0.000 C 
ENDROOT
BRANCH   1   2
ATOM      2  C   UNL     1      41.253  65.940  25.048  1.00  0.00     0.000 C 
BRANCH   2   3
ATOM      3  C   UNL     1      40.285  66.568  24.030  1.00  0.00     0.006 C 
BRANCH   3   4
ATOM      4  C   UNL     1      41.018  67.118  22.799  1.00  0.00     0.053 C 
BRANCH   4   5
ATOM      5  C   UNL     1      40.411  66.621  21.524  1.00  0.00     0.041 C 
ATOM      6  O   UNL     1      40.115  67.431  20.605  1.00  0.00    -0.550 OA
ATOM      7  O   UNL     1      40.141  65.269  21.362  1.00  0.00    -0.550 OA
ENDBRANCH   4   5
ENDBRANCH   3   4
ENDBRANCH   2   3
ENDBRANCH   1   2
BRANCH   1   8
ATOM      8  C   UNL     1      42.124  63.656  25.804  1.00  0.00     0.000 C 
BRANCH   8   9
ATOM      9  C   UNL     1      42.651  62.281  25.359  1.00  0.00    -0.000 C 
BRANCH   9  10
ATOM     10  C   UNL     1      43.746  61.738  26.293  1.00  0.00    -0.000 C 
BRANCH  10  11
ATOM     11  C   UNL     1      45.164  62.039  25.764  1.00  0.00    -0.000 C 
BRANCH  11  12
ATOM     12  C   UNL     1      46.054  62.779  26.777  1.00  0.00    -0.003 C 
ATOM     13  C   UNL     1      47.306  63.384  26.145  1.00  0.00     0.004 C 
ENDBRANCH  11  12
ENDBRANCH  10  11
ENDBRANCH   9  10
ENDBRANCH   8   9
ENDBRANCH   1   8
TORSDOF 9
ENDMDL
MODEL 7
REMARK VINA RESULT:    -4.915      3.512      7.512
REMARK INTER + INTRA:          -7.799
REMARK INTER:                  -7.490
REMARK INTRA:                  -0.309
REMARK UNBOUND:                -0.299
REMARK SMILES CCCCCCCCCCC(=O)[O-]
REMARK SMILES IDX 7 1 8 2 9 3 10 4 11 5 12 6 13 7 6 8 5 9 4 10 3 11 2 12 1 13
REMARK H PARENT
REMARK Flexibility Score: inf
ROOT
ATOM      1  C   UNL     1      39.825  66.614  23.108  1.00  0.00     0.000 C 
ENDROOT
BRANCH   1   2
ATOM      2  C   UNL     1      39.292  66.810  24.536  1.00  0.00     0.000 C 
BRANCH   2   3
ATOM      3  C   UNL     1      37.878  67.418  24.563  1.00  0.00     0.006 C 
BRANCH   3   4
ATOM      4  C   UNL     1      37.215  67.276  25.940  1.00  0.00     0.053 C 
BRANCH   4   5
ATOM      5  C   UNL     1      35.737  67.066  25.826  1.00  0.00     0.041 C 
ATOM      6  O   UNL     1      34.995  67.998  25.417  1.00  0.00    -0.550 OA
ATOM      7  O   UNL     1      35.174  65.854  26.203  1.00  0.00    -0.550 OA
ENDBRANCH   4   5
ENDBRANCH   3   4
ENDBRANCH   2   3
ENDBRANCH   1   2
BRANCH   1   8
ATOM      8  C   UNL     1      41.289  67.066  22.957  1.00  0.00     0.000 C 
BRANCH   8   9
ATOM      9  C   UNL     1      41.787  67.851  24.182  1.00  0.00    -0.000 C 
BRANCH   9  10
ATOM     10  C   UNL     1      42.861  68.892  23.819  1.00  0.00    -0.000 C 
BRANCH  10  11
ATOM     11  C   UNL     1      43.232  69.787  25.020  1.00  0.00    -0.000 C 
BRANCH  11  12
ATOM     12  C   UNL     1      44.215  70.915  24.665  1.00  0.00    -0.003 C 
ATOM     13  C   UNL     1      43.594  72.307  24.772  1.00  0.00     0.004 C 
ENDBRANCH  11  12
ENDBRANCH  10  11
ENDBRANCH   9  10
ENDBRANCH   8   9
ENDBRANCH   1   8
TORSDOF 9
ENDMDL
MODEL 8
REMARK VINA RESULT:    -4.900      3.659      6.437
REMARK INTER + INTRA:          -7.777
REMARK INTER:                  -7.391
REMARK INTRA:                  -0.387
REMARK UNBOUND:                -0.299
REMARK SMILES CCCCCCCCCCC(=O)[O-]
REMARK SMILES IDX 7 1 8 2 9 3 10 4 11 5 12 6 13 7 6 8 5 9 4 10 3 11 2 12 1 13
REMARK H PARENT
REMARK Flexibility Score: inf
ROOT
ATOM      1  C   UNL     1      37.760  67.147  24.648  1.00  0.00     0.000 C 
ENDROOT
BRANCH   1   2
ATOM      2  C   UNL     1      36.985  67.591  25.899  1.00  0.00     0.000 C 
BRANCH   2   3
ATOM      3  C   UNL     1      35.462  67.606  25.679  1.00  0.00     0.006 C 
BRANCH   3   4
ATOM      4  C   UNL     1      34.718  66.778  26.735  1.00  0.00     0.053 C 
BRANCH   4   5
ATOM      5  C   UNL     1      34.700  65.321  26.387  1.00  0.00     0.041 C 
ATOM      6  O   UNL     1      34.338  64.948  25.240  1.00  0.00    -0.550 OA
ATOM      7  O   UNL     1      35.051  64.373  27.340  1.00  0.00    -0.550 OA
ENDBRANCH   4   5
ENDBRANCH   3   4
ENDBRANCH   2   3
ENDBRANCH   1   2
BRANCH   1   8
ATOM      8  C   UNL     1      39.285  67.169  24.859  1.00  0.00     0.000 C 
BRANCH   8   9
ATOM      9  C   UNL     1      40.055  66.731  23.602  1.00  0.00    -0.000 C 
BRANCH   9  10
ATOM     10  C   UNL     1      41.473  66.226  23.924  1.00  0.00    -0.000 C 
BRANCH  10  11
ATOM     11  C   UNL     1      41.479  65.216  25.090  1.00  0.00    -0.000 C 
BRANCH  11  12
ATOM     12  C   UNL     1      41.791  63.775  24.652  1.00  0.00    -0.003 C 
ATOM     13  C   UNL     1      42.523  62.968  25.723  1.00  0.00     0.004 C 
ENDBRANCH  11  12
ENDBRANCH  10  11
ENDBRANCH   9  10
ENDBRANCH   8   9
ENDBRANCH   1   8
TORSDOF 9
ENDMDL
MODEL 9
REMARK VINA RESULT:    -4.900      2.217      2.835
REMARK INTER + INTRA:          -7.777
REMARK INTER:                  -7.302
REMARK INTRA:                  -0.475
REMARK UNBOUND:                -0.299
REMARK SMILES CCCCCCCCCCC(=O)[O-]
REMARK SMILES IDX 7 1 8 2 9 3 10 4 11 5 12 6 13 7 6 8 5 9 4 10 3 11 2 12 1 13
REMARK H PARENT
REMARK Flexibility Score: inf
ROOT
ATOM      1  C   UNL     1      39.025  66.775  24.063  1.00  0.00     0.000 C 
ENDROOT
BRANCH   1   2
ATOM      2  C   UNL     1      40.049  66.985  25.189  1.00  0.00     0.000 C 
BRANCH   2   3
ATOM      3  C   UNL     1      41.473  66.568  24.782  1.00  0.00     0.006 C 
BRANCH   3   4
ATOM      4  C   UNL     1      41.497  65.201  24.083  1.00  0.00     0.053 C 
BRANCH   4   5
ATOM      5  C   UNL     1      41.791  64.091  25.044  1.00  0.00     0.041 C 
ATOM      6  O   UNL     1      42.054  64.349  26.249  1.00  0.00    -0.550 OA
ATOM      7  O   UNL     1      41.808  62.774  24.603  1.00  0.00    -0.550 OA
ENDBRANCH   4   5
ENDBRANCH   3   4
ENDBRANCH   2   3
ENDBRANCH   1   2
BRANCH   1   8
ATOM      8  C   UNL     1      37.707  67.530  24.315  1.00  0.00     0.000 C 
BRANCH   8   9
ATOM      9  C   UNL     1      37.071  67.160  25.665  1.00  0.00    -0.000 C 
BRANCH   9  10
ATOM     10  C   UNL     1      35.645  67.719  25.818  1.00  0.00    -0.000 C 
BRANCH  10  11
ATOM     11  C   UNL     1      34.716  66.743  26.570  1.00  0.00    -0.000 C 
BRANCH  11  12
ATOM     12  C   UNL     1      34.839  65.286  26.091  1.00  0.00    -0.003 C 
ATOM     13  C   UNL     1      34.949  64.285  27.239  1.00  0.00     0.004 C 
ENDBRANCH  11  12
ENDBRANCH  10  11
ENDBRANCH   9  10
ENDBRANCH   8   9
ENDBRANCH   1   8
TORSDOF 9
ENDMDL
