MODEL 1
REMARK VINA RESULT:    -3.672      0.000      0.000
REMARK INTER + INTRA:          -5.479
REMARK INTER:                  -4.960
REMARK INTRA:                  -0.518
REMARK UNBOUND:                -0.518
REMARK SMILES [NH3+]CCCC[C@@H]([NH3+])C(=O)[O-]
REMARK SMILES IDX 4 1 3 2 2 3 1 4 5 8 6 9 7 10 8 14 9 15 10 16
REMARK H PARENT 1 5 1 6 1 7 7 11 7 12 7 13
REMARK Flexibility Score: inf
ROOT
ATOM      1  C   UNL     1      55.595  27.958   7.121  1.00  0.00     0.012 C 
ENDROOT
BRANCH   1   2
ATOM      2  C   UNL     1      54.526  27.696   6.054  1.00  0.00     0.061 C 
BRANCH   2   3
ATOM      3  C   UNL     1      53.418  26.780   6.595  1.00  0.00     0.258 C 
BRANCH   3   4
ATOM      4  N   UNL     1      52.257  27.560   7.019  1.00  0.00    -0.358 N 
ATOM      5  H   UNL     1      52.032  27.355   8.020  1.00  0.00     0.344 HD
ATOM      6  H   UNL     1      52.447  28.582   6.900  1.00  0.00     0.344 HD
ATOM      7  H   UNL     1      51.435  27.299   6.427  1.00  0.00     0.344 HD
ENDBRANCH   3   4
ENDBRANCH   2   3
ENDBRANCH   1   2
BRANCH   1   8
ATOM      8  C   UNL     1      55.588  29.435   7.551  1.00  0.00     0.072 C 
BRANCH   8   9
ATOM      9  C   UNL     1      54.622  29.752   8.717  1.00  0.00     0.227 C 
BRANCH   9  10
ATOM     10  N   UNL     1      55.335  30.216   9.916  1.00  0.00    -0.350 N 
ATOM     11  H   UNL     1      54.684  30.223  10.737  1.00  0.00     0.345 HD
ATOM     12  H   UNL     1      55.675  31.193   9.763  1.00  0.00     0.345 HD
ATOM     13  H   UNL     1      56.154  29.606  10.135  1.00  0.00     0.345 HD
ENDBRANCH   9  10
BRANCH   9  14
ATOM     14  C   UNL     1      53.547  30.725   8.300  1.00  0.00     0.099 C 
ATOM     15  O   UNL     1      52.775  30.463   7.339  1.00  0.00    -0.544 OA
ATOM     16  O   UNL     1      53.372  31.903   9.014  1.00  0.00    -0.544 OA
ENDBRANCH   9  14
ENDBRANCH   8   9
ENDBRANCH   1   8
TORSDOF 7
ENDMDL
MODEL 2
REMARK VINA RESULT:    -3.558     13.003     13.571
REMARK INTER + INTRA:          -5.324
REMARK INTER:                  -4.715
REMARK INTRA:                  -0.609
REMARK UNBOUND:                -0.518
REMARK SMILES [NH3+]CCCC[C@@H]([NH3+])C(=O)[O-]
REMARK SMILES IDX 4 1 3 2 2 3 1 4 5 8 6 9 7 10 8 14 9 15 10 16
REMARK H PARENT 1 5 1 6 1 7 7 11 7 12 7 13
REMARK Flexibility Score: inf
ROOT
ATOM      1  C   UNL     1      57.443  17.235  11.389  1.00  0.00     0.012 C 
ENDROOT
BRANCH   1   2
ATOM      2  C   UNL     1      56.394  16.288  11.985  1.00  0.00     0.061 C 
BRANCH   2   3
ATOM      3  C   UNL     1      55.297  17.071  12.719  1.00  0.00     0.258 C 
BRANCH   3   4
ATOM      4  N   UNL     1      55.533  17.071  14.163  1.00  0.00    -0.358 N 
ATOM      5  H   UNL     1      55.762  18.038  14.490  1.00  0.00     0.344 HD
ATOM      6  H   UNL     1      54.685  16.719  14.665  1.00  0.00     0.344 HD
ATOM      7  H   UNL     1      56.339  16.441  14.377  1.00  0.00     0.344 HD
ENDBRANCH   3   4
ENDBRANCH   2   3
ENDBRANCH   1   2
BRANCH   1   8
ATOM      8  C   UNL     1      58.737  17.211  12.221  1.00  0.00     0.072 C 
BRANCH   8   9
ATOM      9  C   UNL     1      58.965  18.478  13.079  1.00  0.00     0.227 C 
BRANCH   9  10
ATOM     10  N   UNL     1      57.982  19.530  12.784  1.00  0.00    -0.350 N 
ATOM     11  H   UNL     1      57.800  20.099  13.643  1.00  0.00     0.345 HD
ATOM     12  H   UNL     1      57.080  19.091  12.488  1.00  0.00     0.345 HD
ATOM     13  H   UNL     1      58.313  20.160  12.019  1.00  0.00     0.345 HD
ENDBRANCH   9  10
BRANCH   9  14
ATOM     14  C   UNL     1      59.003  18.151  14.551  1.00  0.00     0.099 C 
ATOM     15  O   UNL     1      59.512  18.954  15.379  1.00  0.00    -0.544 OA
ATOM     16  O   UNL     1      58.424  16.975  15.009  1.00  0.00    -0.544 OA
ENDBRANCH   9  14
ENDBRANCH   8   9
ENDBRANCH   1   8
TORSDOF 7
ENDMDL
MODEL 3
REMARK VINA RESULT:    -3.437     13.252     13.897
REMARK INTER + INTRA:          -5.161
REMARK INTER:                  -4.655
REMARK INTRA:                  -0.506
REMARK UNBOUND:                -0.518
REMARK SMILES [NH3+]CCCC[C@@H]([NH3+])C(=O)[O-]
REMARK SMILES IDX 4 1 3 2 2 3 1 4 5 8 6 9 7 10 8 14 9 15 10 16
REMARK H PARENT 1 5 1 6 1 7 7 11 7 12 7 13
REMARK Flexibility Score: inf
ROOT
ATOM      1  C   UNL     1      56.282  18.100  13.502  1.00  0.00     0.012 C 
ENDROOT
BRANCH   1   2
ATOM      2  C   UNL     1      55.388  17.044  12.840  1.00  0.00     0.061 C 
BRANCH   2   3
ATOM      3  C   UNL     1      56.084  16.413  11.626  1.00  0.00     0.258 C 
BRANCH   3   4
ATOM      4  N   UNL     1      56.636  15.102  11.964  1.00  0.00    -0.358 N 
ATOM      5  H   UNL     1      57.671  15.173  12.105  1.00  0.00     0.344 HD
ATOM      6  H   UNL     1      56.184  14.734  12.833  1.00  0.00     0.344 HD
ATOM      7  H   UNL     1      56.447  14.439  11.178  1.00  0.00     0.344 HD
ENDBRANCH   3   4
ENDBRANCH   2   3
ENDBRANCH   1   2
BRANCH   1   8
ATOM      8  C   UNL     1      57.456  18.477  12.581  1.00  0.00     0.072 C 
BRANCH   8   9
ATOM      9  C   UNL     1      58.842  18.431  13.267  1.00  0.00     0.227 C 
BRANCH   9  10
ATOM     10  N   UNL     1      59.082  19.611  14.111  1.00  0.00    -0.350 N 
ATOM     11  H   UNL     1      60.080  19.626  14.426  1.00  0.00     0.345 HD
ATOM     12  H   UNL     1      58.474  19.561  14.960  1.00  0.00     0.345 HD
ATOM     13  H   UNL     1      58.871  20.497  13.600  1.00  0.00     0.345 HD
ENDBRANCH   9  10
BRANCH   9  14
ATOM     14  C   UNL     1      59.038  17.149  14.038  1.00  0.00     0.099 C 
ATOM     15  O   UNL     1      59.052  17.147  15.298  1.00  0.00    -0.544 OA
ATOM     16  O   UNL     1      59.154  15.946  13.352  1.00  0.00    -0.544 OA
ENDBRANCH   9  14
ENDBRANCH   8   9
ENDBRANCH   1   8
TORSDOF 7
ENDMDL
MODEL 4
REMARK VINA RESULT:    -3.378     13.687     14.371
REMARK INTER + INTRA:          -5.081
REMARK INTER:                  -4.874
REMARK INTRA:                  -0.208
REMARK UNBOUND:                -0.518
REMARK SMILES [NH3+]CCCC[C@@H]([NH3+])C(=O)[O-]
REMARK SMILES IDX 4 1 3 2 2 3 1 4 5 8 6 9 7 10 8 14 9 15 10 16
REMARK H PARENT 1 5 1 6 1 7 7 11 7 12 7 13
REMARK Flexibility Score: inf
ROOT
ATOM      1  C   UNL     1      56.147  16.221  11.748  1.00  0.00     0.012 C 
ENDROOT
BRANCH   1   2
ATOM      2  C   UNL     1      57.012  15.276  10.905  1.00  0.00     0.061 C 
BRANCH   2   3
ATOM      3  C   UNL     1      58.270  14.846  11.672  1.00  0.00     0.258 C 
BRANCH   3   4
ATOM      4  N   UNL     1      58.867  13.655  11.071  1.00  0.00    -0.358 N 
ATOM      5  H   UNL     1      59.623  13.280  11.690  1.00  0.00     0.344 HD
ATOM      6  H   UNL     1      58.136  12.922  10.922  1.00  0.00     0.344 HD
ATOM      7  H   UNL     1      59.282  13.910  10.146  1.00  0.00     0.344 HD
ENDBRANCH   3   4
ENDBRANCH   2   3
ENDBRANCH   1   2
BRANCH   1   8
ATOM      8  C   UNL     1      56.938  17.480  12.143  1.00  0.00     0.072 C 
BRANCH   8   9
ATOM      9  C   UNL     1      56.885  17.817  13.652  1.00  0.00     0.227 C 
BRANCH   9  10
ATOM     10  N   UNL     1      55.954  16.944  14.381  1.00  0.00    -0.350 N 
ATOM     11  H   UNL     1      55.139  17.503  14.726  1.00  0.00     0.345 HD
ATOM     12  H   UNL     1      56.440  16.532  15.210  1.00  0.00     0.345 HD
ATOM     13  H   UNL     1      55.604  16.167  13.777  1.00  0.00     0.345 HD
ENDBRANCH   9  10
BRANCH   9  14
ATOM     14  C   UNL     1      58.259  17.804  14.273  1.00  0.00     0.099 C 
ATOM     15  O   UNL     1      58.971  18.844  14.292  1.00  0.00    -0.544 OA
ATOM     16  O   UNL     1      58.729  16.645  14.877  1.00  0.00    -0.544 OA
ENDBRANCH   9  14
ENDBRANCH   8   9
ENDBRANCH   1   8
TORSDOF 7
ENDMDL
MODEL 5
REMARK VINA RESULT:    -3.368     14.453     15.130
REMARK INTER + INTRA:          -5.067
REMARK INTER:                  -4.841
REMARK INTRA:                  -0.226
REMARK UNBOUND:                -0.518
REMARK SMILES [NH3+]CCCC[C@@H]([NH3+])C(=O)[O-]
REMARK SMILES IDX 4 1 3 2 2 3 1 4 5 8 6 9 7 10 8 14 9 15 10 16
REMARK H PARENT 1 5 1 6 1 7 7 11 7 12 7 13
REMARK Flexibility Score: inf
ROOT
ATOM      1  C   UNL     1      65.996  29.050  17.046  1.00  0.00     0.012 C 
ENDROOT
BRANCH   1   2
ATOM      2  C   UNL     1      65.542  29.420  18.464  1.00  0.00     0.061 C 
BRANCH   2   3
ATOM      3  C   UNL     1      64.256  28.673  18.845  1.00  0.00     0.258 C 
BRANCH   3   4
ATOM      4  N   UNL     1      63.092  29.266  18.188  1.00  0.00    -0.358 N 
ATOM      5  H   UNL     1      62.355  28.539  18.036  1.00  0.00     0.344 HD
ATOM      6  H   UNL     1      62.708  30.044  18.771  1.00  0.00     0.344 HD
ATOM      7  H   UNL     1      63.384  29.652  17.261  1.00  0.00     0.344 HD
ENDBRANCH   3   4
ENDBRANCH   2   3
ENDBRANCH   1   2
BRANCH   1   8
ATOM      8  C   UNL     1      66.538  27.611  17.004  1.00  0.00     0.072 C 
BRANCH   8   9
ATOM      9  C   UNL     1      65.771  26.670  16.045  1.00  0.00     0.227 C 
BRANCH   9  10
ATOM     10  N   UNL     1      64.498  27.254  15.598  1.00  0.00    -0.350 N 
ATOM     11  H   UNL     1      64.390  27.125  14.565  1.00  0.00     0.345 HD
ATOM     12  H   UNL     1      64.496  28.281  15.799  1.00  0.00     0.345 HD
ATOM     13  H   UNL     1      63.683  26.817  16.084  1.00  0.00     0.345 HD
ENDBRANCH   9  10
BRANCH   9  14
ATOM     14  C   UNL     1      66.627  26.247  14.878  1.00  0.00     0.099 C 
ATOM     15  O   UNL     1      66.974  27.077  13.995  1.00  0.00    -0.544 OA
ATOM     16  O   UNL     1      67.083  24.937  14.800  1.00  0.00    -0.544 OA
ENDBRANCH   9  14
ENDBRANCH   8   9
ENDBRANCH   1   8
TORSDOF 7
ENDMDL
MODEL 6
REMARK VINA RESULT:    -3.332     12.625     13.561
REMARK INTER + INTRA:          -5.019
REMARK INTER:                  -4.883
REMARK INTRA:                  -0.136
REMARK UNBOUND:                -0.518
REMARK SMILES [NH3+]CCCC[C@@H]([NH3+])C(=O)[O-]
REMARK SMILES IDX 4 1 3 2 2 3 1 4 5 8 6 9 7 10 8 14 9 15 10 16
REMARK H PARENT 1 5 1 6 1 7 7 11 7 12 7 13
REMARK Flexibility Score: inf
ROOT
ATOM      1  C   UNL     1      59.266  18.176  14.389  1.00  0.00     0.012 C 
ENDROOT
BRANCH   1   2
ATOM      2  C   UNL     1      59.974  19.524  14.571  1.00  0.00     0.061 C 
BRANCH   2   3
ATOM      3  C   UNL     1      59.835  20.396  13.316  1.00  0.00     0.258 C 
BRANCH   3   4
ATOM      4  N   UNL     1      59.690  21.807  13.672  1.00  0.00    -0.358 N 
ATOM      5  H   UNL     1      60.491  22.110  14.273  1.00  0.00     0.344 HD
ATOM      6  H   UNL     1      59.653  22.394  12.808  1.00  0.00     0.344 HD
ATOM      7  H   UNL     1      58.799  21.934  14.205  1.00  0.00     0.344 HD
ENDBRANCH   3   4
ENDBRANCH   2   3
ENDBRANCH   1   2
BRANCH   1   8
ATOM      8  C   UNL     1      57.868  18.370  13.778  1.00  0.00     0.072 C 
BRANCH   8   9
ATOM      9  C   UNL     1      57.097  17.053  13.523  1.00  0.00     0.227 C 
BRANCH   9  10
ATOM     10  N   UNL     1      55.755  17.072  14.121  1.00  0.00    -0.350 N 
ATOM     11  H   UNL     1      55.641  16.257  14.767  1.00  0.00     0.345 HD
ATOM     12  H   UNL     1      55.036  16.991  13.366  1.00  0.00     0.345 HD
ATOM     13  H   UNL     1      55.584  17.956  14.651  1.00  0.00     0.345 HD
ENDBRANCH   9  10
BRANCH   9  14
ATOM     14  C   UNL     1      57.045  16.716  12.053  1.00  0.00     0.099 C 
ATOM     15  O   UNL     1      56.402  15.714  11.642  1.00  0.00    -0.544 OA
ATOM     16  O   UNL     1      57.672  17.549  11.135  1.00  0.00    -0.544 OA
ENDBRANCH   9  14
ENDBRANCH   8   9
ENDBRANCH   1   8
TORSDOF 7
ENDMDL
MODEL 7
REMARK VINA RESULT:    -3.284     12.772     13.471
REMARK INTER + INTRA:          -4.954
REMARK INTER:                  -4.408
REMARK INTRA:                  -0.546
REMARK UNBOUND:                -0.518
REMARK SMILES [NH3+]CCCC[C@@H]([NH3+])C(=O)[O-]
REMARK SMILES IDX 4 1 3 2 2 3 1 4 5 8 6 9 7 10 8 14 9 15 10 16
REMARK H PARENT 1 5 1 6 1 7 7 11 7 12 7 13
REMARK Flexibility Score: inf
ROOT
ATOM      1  C   UNL     1      56.643  15.753  11.850  1.00  0.00     0.012 C 
ENDROOT
BRANCH   1   2
ATOM      2  C   UNL     1      57.059  15.957  10.388  1.00  0.00     0.061 C 
BRANCH   2   3
ATOM      3  C   UNL     1      58.484  16.518  10.292  1.00  0.00     0.258 C 
BRANCH   3   4
ATOM      4  N   UNL     1      58.466  17.929   9.908  1.00  0.00    -0.358 N 
ATOM      5  H   UNL     1      59.033  18.073   9.040  1.00  0.00     0.344 HD
ATOM      6  H   UNL     1      57.482  18.244   9.745  1.00  0.00     0.344 HD
ATOM      7  H   UNL     1      58.880  18.498  10.681  1.00  0.00     0.344 HD
ENDBRANCH   3   4
ENDBRANCH   2   3
ENDBRANCH   1   2
BRANCH   1   8
ATOM      8  C   UNL     1      55.662  16.850  12.299  1.00  0.00     0.072 C 
BRANCH   8   9
ATOM      9  C   UNL     1      56.056  17.555  13.618  1.00  0.00     0.227 C 
BRANCH   9  10
ATOM     10  N   UNL     1      55.963  16.655  14.776  1.00  0.00    -0.350 N 
ATOM     11  H   UNL     1      55.906  17.215  15.658  1.00  0.00     0.345 HD
ATOM     12  H   UNL     1      56.822  16.060  14.824  1.00  0.00     0.345 HD
ATOM     13  H   UNL     1      55.128  16.032  14.711  1.00  0.00     0.345 HD
ENDBRANCH   9  10
BRANCH   9  14
ATOM     14  C   UNL     1      57.419  18.195  13.520  1.00  0.00     0.099 C 
ATOM     15  O   UNL     1      58.363  17.824  14.268  1.00  0.00    -0.544 OA
ATOM     16  O   UNL     1      57.653  19.169  12.558  1.00  0.00    -0.544 OA
ENDBRANCH   9  14
ENDBRANCH   8   9
ENDBRANCH   1   8
TORSDOF 7
ENDMDL
MODEL 8
REMARK VINA RESULT:    -3.212      1.548      3.454
REMARK INTER + INTRA:          -4.857
REMARK INTER:                  -4.352
REMARK INTRA:                  -0.505
REMARK UNBOUND:                -0.518
REMARK SMILES [NH3+]CCCC[C@@H]([NH3+])C(=O)[O-]
REMARK SMILES IDX 4 1 3 2 2 3 1 4 5 8 6 9 7 10 8 14 9 15 10 16
REMARK H PARENT 1 5 1 6 1 7 7 11 7 12 7 13
REMARK Flexibility Score: inf
ROOT
ATOM      1  C   UNL     1      55.071  28.373   6.976  1.00  0.00     0.012 C 
ENDROOT
BRANCH   1   2
ATOM      2  C   UNL     1      55.628  29.639   7.639  1.00  0.00     0.061 C 
BRANCH   2   3
ATOM      3  C   UNL     1      55.172  29.745   9.101  1.00  0.00     0.258 C 
BRANCH   3   4
ATOM      4  N   UNL     1      54.262  30.874   9.284  1.00  0.00    -0.358 N 
ATOM      5  H   UNL     1      54.405  31.579   8.524  1.00  0.00     0.344 HD
ATOM      6  H   UNL     1      53.270  30.541   9.276  1.00  0.00     0.344 HD
ATOM      7  H   UNL     1      54.459  31.325  10.206  1.00  0.00     0.344 HD
ENDBRANCH   3   4
ENDBRANCH   2   3
ENDBRANCH   1   2
BRANCH   1   8
ATOM      8  C   UNL     1      54.190  28.730   5.767  1.00  0.00     0.072 C 
BRANCH   8   9
ATOM      9  C   UNL     1      52.678  28.494   5.990  1.00  0.00     0.227 C 
BRANCH   9  10
ATOM     10  N   UNL     1      52.421  27.549   7.086  1.00  0.00    -0.350 N 
ATOM     11  H   UNL     1      53.150  27.659   7.830  1.00  0.00     0.345 HD
ATOM     12  H   UNL     1      52.475  26.570   6.721  1.00  0.00     0.345 HD
ATOM     13  H   UNL     1      51.477  27.697   7.507  1.00  0.00     0.345 HD
ENDBRANCH   9  10
BRANCH   9  14
ATOM     14  C   UNL     1      51.937  29.793   6.194  1.00  0.00     0.099 C 
ATOM     15  O   UNL     1      52.323  30.630   7.052  1.00  0.00    -0.544 OA
ATOM     16  O   UNL     1      50.845  30.094   5.389  1.00  0.00    -0.544 OA
ENDBRANCH   9  14
ENDBRANCH   8   9
ENDBRANCH   1   8
TORSDOF 7
ENDMDL
MODEL 9
REMARK VINA RESULT:    -3.150     13.214     14.108
REMARK INTER + INTRA:          -4.774
REMARK INTER:                  -4.234
REMARK INTRA:                  -0.540
REMARK UNBOUND:                -0.518
REMARK SMILES [NH3+]CCCC[C@@H]([NH3+])C(=O)[O-]
REMARK SMILES IDX 4 1 3 2 2 3 1 4 5 8 6 9 7 10 8 14 9 15 10 16
REMARK H PARENT 1 5 1 6 1 7 7 11 7 12 7 13
REMARK Flexibility Score: inf
ROOT
ATOM      1  C   UNL     1      58.880  17.154  15.034  1.00  0.00     0.012 C 
ENDROOT
BRANCH   1   2
ATOM      2  C   UNL     1      60.240  17.347  14.350  1.00  0.00     0.061 C 
BRANCH   2   3
ATOM      3  C   UNL     1      60.628  18.831  14.302  1.00  0.00     0.258 C 
BRANCH   3   4
ATOM      4  N   UNL     1      59.491  19.681  14.652  1.00  0.00    -0.358 N 
ATOM      5  H   UNL     1      58.996  19.993  13.785  1.00  0.00     0.344 HD
ATOM      6  H   UNL     1      58.828  19.158  15.269  1.00  0.00     0.344 HD
ATOM      7  H   UNL     1      59.838  20.523  15.165  1.00  0.00     0.344 HD
ENDBRANCH   3   4
ENDBRANCH   2   3
ENDBRANCH   1   2
BRANCH   1   8
ATOM      8  C   UNL     1      58.033  16.112  14.283  1.00  0.00     0.072 C 
BRANCH   8   9
ATOM      9  C   UNL     1      57.547  16.574  12.889  1.00  0.00     0.227 C 
BRANCH   9  10
ATOM     10  N   UNL     1      56.740  15.546  12.216  1.00  0.00    -0.350 N 
ATOM     11  H   UNL     1      57.117  14.595  12.438  1.00  0.00     0.345 HD
ATOM     12  H   UNL     1      56.794  15.683  11.181  1.00  0.00     0.345 HD
ATOM     13  H   UNL     1      55.738  15.593  12.508  1.00  0.00     0.345 HD
ENDBRANCH   9  10
BRANCH   9  14
ATOM     14  C   UNL     1      56.817  17.892  12.964  1.00  0.00     0.099 C 
ATOM     15  O   UNL     1      55.682  17.973  13.506  1.00  0.00    -0.544 OA
ATOM     16  O   UNL     1      57.423  19.042  12.475  1.00  0.00    -0.544 OA
ENDBRANCH   9  14
ENDBRANCH   8   9
ENDBRANCH   1   8
TORSDOF 7
ENDMDL
