MODEL 1
REMARK VINA RESULT:    -6.170      0.000      0.000
REMARK INTER + INTRA:          -8.280
REMARK INTER:                  -7.974
REMARK INTRA:                  -0.306
REMARK UNBOUND:                -0.306
REMARK SMILES CCO[C@H]1O[C@H](CO)[C@@H](O)[C@H](O)[C@H]1O
REMARK SMILES IDX 4 1 13 2 11 3 9 4 6 5 5 6 3 7 2 8 1 9 14 10 12 12 7 14 8 15
REMARK SMILES IDX 10 17
REMARK H PARENT 14 11 12 13 8 16 10 18
REMARK Flexibility Score: inf
ROOT
ATOM      1  C   UNL     1      -5.092 -48.136 -15.636  1.00  0.00     0.281 C 
ATOM      2  C   UNL     1      -3.599 -48.579 -15.606  1.00  0.00     0.202 C 
ATOM      3  C   UNL     1      -2.957 -48.857 -14.215  1.00  0.00     0.179 C 
ATOM      4  C   UNL     1      -3.330 -47.830 -13.062  1.00  0.00     0.177 C 
ATOM      5  C   UNL     1      -4.379 -46.795 -13.695  1.00  0.00     0.178 C 
ATOM      6  O   UNL     1      -5.436 -47.471 -14.399  1.00  0.00    -0.341 OA
ENDROOT
BRANCH   1   7
ATOM      7  O   UNL     1      -6.117 -49.080 -15.798  1.00  0.00    -0.350 OA
BRANCH   7   8
ATOM      8  C   UNL     1      -6.749 -49.452 -14.560  1.00  0.00     0.160 C 
ATOM      9  C   UNL     1      -6.310 -50.840 -14.163  1.00  0.00     0.035 C 
ENDBRANCH   7   8
ENDBRANCH   1   7
BRANCH   2  10
ATOM     10  O   UNL     1      -3.229 -49.496 -16.635  1.00  0.00    -0.385 OA
ATOM     11  H   UNL     1      -3.057 -50.410 -16.204  1.00  0.00     0.211 HD
ENDBRANCH   2  10
BRANCH   3  12
ATOM     12  O   UNL     1      -1.563 -49.151 -14.315  1.00  0.00    -0.387 OA
ATOM     13  H   UNL     1      -1.121 -48.681 -13.523  1.00  0.00     0.211 HD
ENDBRANCH   3  12
BRANCH   5  14
ATOM     14  C   UNL     1      -3.604 -45.656 -14.422  1.00  0.00     0.191 C 
BRANCH  14  15
ATOM     15  O   UNL     1      -2.230 -45.695 -14.063  1.00  0.00    -0.394 OA
ATOM     16  H   UNL     1      -1.822 -46.595 -14.268  1.00  0.00     0.210 HD
ENDBRANCH  14  15
ENDBRANCH   5  14
BRANCH   4  17
ATOM     17  O   UNL     1      -3.944 -48.532 -11.974  1.00  0.00    -0.387 OA
ATOM     18  H   UNL     1      -3.926 -48.006 -11.110  1.00  0.00     0.211 HD
ENDBRANCH   4  17
TORSDOF 7
ENDMDL
MODEL 2
REMARK VINA RESULT:    -5.887      1.441      3.082
REMARK INTER + INTRA:          -7.914
REMARK INTER:                  -7.608
REMARK INTRA:                  -0.307
REMARK UNBOUND:                -0.306
REMARK SMILES CCO[C@H]1O[C@H](CO)[C@@H](O)[C@H](O)[C@H]1O
REMARK SMILES IDX 4 1 13 2 11 3 9 4 6 5 5 6 3 7 2 8 1 9 14 10 12 12 7 14 8 15
REMARK SMILES IDX 10 17
REMARK H PARENT 14 11 12 13 8 16 10 18
REMARK Flexibility Score: inf
ROOT
ATOM      1  C   UNL     1      -5.303 -48.371 -13.464  1.00  0.00     0.281 C 
ATOM      2  C   UNL     1      -6.044 -47.874 -14.740  1.00  0.00     0.202 C 
ATOM      3  C   UNL     1      -5.427 -48.240 -16.122  1.00  0.00     0.179 C 
ATOM      4  C   UNL     1      -3.846 -48.120 -16.227  1.00  0.00     0.177 C 
ATOM      5  C   UNL     1      -3.321 -47.706 -14.769  1.00  0.00     0.178 C 
ATOM      6  O   UNL     1      -3.893 -48.535 -13.742  1.00  0.00    -0.341 OA
ENDROOT
BRANCH   1   7
ATOM      7  O   UNL     1      -5.661 -49.583 -12.854  1.00  0.00    -0.350 OA
BRANCH   7   8
ATOM      8  C   UNL     1      -5.176 -50.740 -13.557  1.00  0.00     0.160 C 
ATOM      9  C   UNL     1      -6.343 -51.551 -14.066  1.00  0.00     0.035 C 
ENDBRANCH   7   8
ENDBRANCH   1   7
BRANCH   2  10
ATOM     10  O   UNL     1      -7.468 -47.959 -14.675  1.00  0.00    -0.385 OA
ATOM     11  H   UNL     1      -7.848 -47.009 -14.730  1.00  0.00     0.211 HD
ENDBRANCH   2  10
BRANCH   3  12
ATOM     12  O   UNL     1      -6.137 -47.638 -17.205  1.00  0.00    -0.387 OA
ATOM     13  H   UNL     1      -7.114 -47.913 -17.085  1.00  0.00     0.211 HD
ENDBRANCH   3  12
BRANCH   5  14
ATOM     14  C   UNL     1      -3.400 -46.158 -14.614  1.00  0.00     0.191 C 
BRANCH  14  15
ATOM     15  O   UNL     1      -2.229 -45.673 -13.973  1.00  0.00    -0.394 OA
ATOM     16  H   UNL     1      -1.395 -45.985 -14.447  1.00  0.00     0.210 HD
ENDBRANCH  14  15
ENDBRANCH   5  14
BRANCH   4  17
ATOM     17  O   UNL     1      -3.292 -49.390 -16.595  1.00  0.00    -0.387 OA
ATOM     18  H   UNL     1      -2.771 -49.354 -17.462  1.00  0.00     0.211 HD
ENDBRANCH   4  17
TORSDOF 7
ENDMDL
MODEL 3
REMARK VINA RESULT:    -5.867      1.084      1.691
REMARK INTER + INTRA:          -7.889
REMARK INTER:                  -7.562
REMARK INTRA:                  -0.326
REMARK UNBOUND:                -0.306
REMARK SMILES CCO[C@H]1O[C@H](CO)[C@@H](O)[C@H](O)[C@H]1O
REMARK SMILES IDX 4 1 13 2 11 3 9 4 6 5 5 6 3 7 2 8 1 9 14 10 12 12 7 14 8 15
REMARK SMILES IDX 10 17
REMARK H PARENT 14 11 12 13 8 16 10 18
REMARK Flexibility Score: inf
ROOT
ATOM      1  C   UNL     1      -5.984 -47.711 -14.294  1.00  0.00     0.281 C 
ATOM      2  C   UNL     1      -5.192 -48.170 -15.555  1.00  0.00     0.202 C 
ATOM      3  C   UNL     1      -3.875 -48.968 -15.329  1.00  0.00     0.179 C 
ATOM      4  C   UNL     1      -2.939 -48.443 -14.157  1.00  0.00     0.177 C 
ATOM      5  C   UNL     1      -3.715 -47.220 -13.467  1.00  0.00     0.178 C 
ATOM      6  O   UNL     1      -5.083 -47.554 -13.174  1.00  0.00    -0.341 OA
ENDROOT
BRANCH   1   7
ATOM      7  O   UNL     1      -7.022 -48.499 -13.774  1.00  0.00    -0.350 OA
BRANCH   7   8
ATOM      8  C   UNL     1      -6.555 -49.602 -12.977  1.00  0.00     0.160 C 
ATOM      9  C   UNL     1      -6.793 -50.897 -13.715  1.00  0.00     0.035 C 
ENDBRANCH   7   8
ENDBRANCH   1   7
BRANCH   2  10
ATOM     10  O   UNL     1      -6.004 -48.639 -16.631  1.00  0.00    -0.385 OA
ATOM     11  H   UNL     1      -6.428 -47.828 -17.090  1.00  0.00     0.211 HD
ENDBRANCH   2  10
BRANCH   3  12
ATOM     12  O   UNL     1      -3.192 -49.236 -16.553  1.00  0.00    -0.387 OA
ATOM     13  H   UNL     1      -3.916 -49.295 -17.271  1.00  0.00     0.211 HD
ENDBRANCH   3  12
BRANCH   5  14
ATOM     14  C   UNL     1      -3.416 -45.910 -14.255  1.00  0.00     0.191 C 
BRANCH  14  15
ATOM     15  O   UNL     1      -2.035 -45.590 -14.161  1.00  0.00    -0.394 OA
ATOM     16  H   UNL     1      -1.578 -46.140 -13.450  1.00  0.00     0.210 HD
ENDBRANCH  14  15
ENDBRANCH   5  14
BRANCH   4  17
ATOM     17  O   UNL     1      -2.740 -49.489 -13.197  1.00  0.00    -0.387 OA
ATOM     18  H   UNL     1      -2.207 -50.264 -13.568  1.00  0.00     0.211 HD
ENDBRANCH   4  17
TORSDOF 7
ENDMDL
MODEL 4
REMARK VINA RESULT:    -5.760      1.728      3.240
REMARK INTER + INTRA:          -7.750
REMARK INTER:                  -7.419
REMARK INTRA:                  -0.330
REMARK UNBOUND:                -0.306
REMARK SMILES CCO[C@H]1O[C@H](CO)[C@@H](O)[C@H](O)[C@H]1O
REMARK SMILES IDX 4 1 13 2 11 3 9 4 6 5 5 6 3 7 2 8 1 9 14 10 12 12 7 14 8 15
REMARK SMILES IDX 10 17
REMARK H PARENT 14 11 12 13 8 16 10 18
REMARK Flexibility Score: inf
ROOT
ATOM      1  C   UNL     1      -4.652 -49.200 -13.725  1.00  0.00     0.281 C 
ATOM      2  C   UNL     1      -3.372 -48.318 -13.824  1.00  0.00     0.202 C 
ATOM      3  C   UNL     1      -3.548 -46.776 -13.699  1.00  0.00     0.179 C 
ATOM      4  C   UNL     1      -4.798 -46.157 -14.460  1.00  0.00     0.177 C 
ATOM      5  C   UNL     1      -5.595 -47.390 -15.105  1.00  0.00     0.178 C 
ATOM      6  O   UNL     1      -5.809 -48.445 -14.151  1.00  0.00    -0.341 OA
ENDROOT
BRANCH   1   7
ATOM      7  O   UNL     1      -5.050 -49.748 -12.496  1.00  0.00    -0.350 OA
BRANCH   7   8
ATOM      8  C   UNL     1      -5.914 -48.882 -11.740  1.00  0.00     0.160 C 
ATOM      9  C   UNL     1      -5.207 -48.430 -10.485  1.00  0.00     0.035 C 
ENDBRANCH   7   8
ENDBRANCH   1   7
BRANCH   2  10
ATOM     10  O   UNL     1      -2.227 -48.850 -13.158  1.00  0.00    -0.385 OA
ATOM     11  H   UNL     1      -1.419 -48.267 -13.397  1.00  0.00     0.211 HD
ENDBRANCH   2  10
BRANCH   3  12
ATOM     12  O   UNL     1      -2.322 -46.076 -13.913  1.00  0.00    -0.387 OA
ATOM     13  H   UNL     1      -1.588 -46.672 -13.526  1.00  0.00     0.211 HD
ENDBRANCH   3  12
BRANCH   5  14
ATOM     14  C   UNL     1      -4.966 -47.745 -16.485  1.00  0.00     0.191 C 
BRANCH  14  15
ATOM     15  O   UNL     1      -5.987 -48.080 -17.414  1.00  0.00    -0.394 OA
ATOM     16  H   UNL     1      -6.016 -49.073 -17.587  1.00  0.00     0.210 HD
ENDBRANCH  14  15
ENDBRANCH   5  14
BRANCH   4  17
ATOM     17  O   UNL     1      -5.642 -45.477 -13.522  1.00  0.00    -0.387 OA
ATOM     18  H   UNL     1      -6.530 -45.204 -13.922  1.00  0.00     0.211 HD
ENDBRANCH   4  17
TORSDOF 7
ENDMDL
MODEL 5
REMARK VINA RESULT:    -5.743      1.892      2.668
REMARK INTER + INTRA:          -7.728
REMARK INTER:                  -7.574
REMARK INTRA:                  -0.153
REMARK UNBOUND:                -0.306
REMARK SMILES CCO[C@H]1O[C@H](CO)[C@@H](O)[C@H](O)[C@H]1O
REMARK SMILES IDX 4 1 13 2 11 3 9 4 6 5 5 6 3 7 2 8 1 9 14 10 12 12 7 14 8 15
REMARK SMILES IDX 10 17
REMARK H PARENT 14 11 12 13 8 16 10 18
REMARK Flexibility Score: inf
ROOT
ATOM      1  C   UNL     1      -5.291 -47.558 -15.650  1.00  0.00     0.281 C 
ATOM      2  C   UNL     1      -3.768 -47.657 -15.960  1.00  0.00     0.202 C 
ATOM      3  C   UNL     1      -3.099 -49.059 -15.852  1.00  0.00     0.179 C 
ATOM      4  C   UNL     1      -3.547 -49.946 -14.612  1.00  0.00     0.177 C 
ATOM      5  C   UNL     1      -4.677 -49.112 -13.838  1.00  0.00     0.178 C 
ATOM      6  O   UNL     1      -5.681 -48.611 -14.739  1.00  0.00    -0.341 OA
ENDROOT
BRANCH   1   7
ATOM      7  O   UNL     1      -6.239 -47.646 -16.680  1.00  0.00    -0.350 OA
BRANCH   7   8
ATOM      8  C   UNL     1      -7.579 -47.863 -16.204  1.00  0.00     0.160 C 
ATOM      9  C   UNL     1      -8.440 -46.672 -16.549  1.00  0.00     0.035 C 
ENDBRANCH   7   8
ENDBRANCH   1   7
BRANCH   2  10
ATOM     10  O   UNL     1      -3.330 -46.864 -17.063  1.00  0.00    -0.385 OA
ATOM     11  H   UNL     1      -2.395 -46.505 -16.849  1.00  0.00     0.211 HD
ENDBRANCH   2  10
BRANCH   3  12
ATOM     12  O   UNL     1      -1.687 -48.999 -16.055  1.00  0.00    -0.387 OA
ATOM     13  H   UNL     1      -1.275 -49.586 -15.327  1.00  0.00     0.211 HD
ENDBRANCH   3  12
BRANCH   5  14
ATOM     14  C   UNL     1      -3.997 -48.120 -12.848  1.00  0.00     0.191 C 
BRANCH  14  15
ATOM     15  O   UNL     1      -2.628 -48.460 -12.682  1.00  0.00    -0.394 OA
ATOM     16  H   UNL     1      -2.024 -47.778 -13.115  1.00  0.00     0.210 HD
ENDBRANCH  14  15
ENDBRANCH   5  14
BRANCH   4  17
ATOM     17  O   UNL     1      -4.099 -51.183 -15.081  1.00  0.00    -0.387 OA
ATOM     18  H   UNL     1      -5.091 -51.121 -15.271  1.00  0.00     0.211 HD
ENDBRANCH   4  17
TORSDOF 7
ENDMDL
MODEL 6
REMARK VINA RESULT:    -5.717      1.601      2.114
REMARK INTER + INTRA:          -7.694
REMARK INTER:                  -7.466
REMARK INTRA:                  -0.228
REMARK UNBOUND:                -0.306
REMARK SMILES CCO[C@H]1O[C@H](CO)[C@@H](O)[C@H](O)[C@H]1O
REMARK SMILES IDX 4 1 13 2 11 3 9 4 6 5 5 6 3 7 2 8 1 9 14 10 12 12 7 14 8 15
REMARK SMILES IDX 10 17
REMARK H PARENT 14 11 12 13 8 16 10 18
REMARK Flexibility Score: inf
ROOT
ATOM      1  C   UNL     1      -6.386 -48.328 -15.030  1.00  0.00     0.281 C 
ATOM      2  C   UNL     1      -5.538 -47.679 -16.163  1.00  0.00     0.202 C 
ATOM      3  C   UNL     1      -4.005 -47.543 -15.929  1.00  0.00     0.179 C 
ATOM      4  C   UNL     1      -3.564 -47.082 -14.474  1.00  0.00     0.177 C 
ATOM      5  C   UNL     1      -4.909 -46.961 -13.607  1.00  0.00     0.178 C 
ATOM      6  O   UNL     1      -5.742 -48.126 -13.751  1.00  0.00    -0.341 OA
ENDROOT
BRANCH   1   7
ATOM      7  O   UNL     1      -6.667 -49.702 -15.043  1.00  0.00    -0.350 OA
BRANCH   7   8
ATOM      8  C   UNL     1      -6.080 -50.414 -13.938  1.00  0.00     0.160 C 
ATOM      9  C   UNL     1      -6.289 -51.897 -14.123  1.00  0.00     0.035 C 
ENDBRANCH   7   8
ENDBRANCH   1   7
BRANCH   2  10
ATOM     10  O   UNL     1      -5.914 -48.065 -17.485  1.00  0.00    -0.385 OA
ATOM     11  H   UNL     1      -6.202 -49.047 -17.462  1.00  0.00     0.211 HD
ENDBRANCH   2  10
BRANCH   3  12
ATOM     12  O   UNL     1      -3.359 -46.839 -16.990  1.00  0.00    -0.387 OA
ATOM     13  H   UNL     1      -2.461 -46.529 -16.615  1.00  0.00     0.211 HD
ENDBRANCH   3  12
BRANCH   5  14
ATOM     14  C   UNL     1      -5.541 -45.555 -13.831  1.00  0.00     0.191 C 
BRANCH  14  15
ATOM     15  O   UNL     1      -4.561 -44.655 -14.327  1.00  0.00    -0.394 OA
ATOM     16  H   UNL     1      -3.982 -45.091 -15.029  1.00  0.00     0.210 HD
ENDBRANCH  14  15
ENDBRANCH   5  14
BRANCH   4  17
ATOM     17  O   UNL     1      -2.707 -48.075 -13.895  1.00  0.00    -0.387 OA
ATOM     18  H   UNL     1      -3.210 -48.902 -13.601  1.00  0.00     0.211 HD
ENDBRANCH   4  17
TORSDOF 7
ENDMDL
MODEL 7
REMARK VINA RESULT:    -5.589      2.132      3.097
REMARK INTER + INTRA:          -7.529
REMARK INTER:                  -7.294
REMARK INTRA:                  -0.235
REMARK UNBOUND:                -0.306
REMARK SMILES CCO[C@H]1O[C@H](CO)[C@@H](O)[C@H](O)[C@H]1O
REMARK SMILES IDX 4 1 13 2 11 3 9 4 6 5 5 6 3 7 2 8 1 9 14 10 12 12 7 14 8 15
REMARK SMILES IDX 10 17
REMARK H PARENT 14 11 12 13 8 16 10 18
REMARK Flexibility Score: inf
ROOT
ATOM      1  C   UNL     1      -6.157 -48.878 -13.561  1.00  0.00     0.281 C 
ATOM      2  C   UNL     1      -5.687 -50.223 -14.189  1.00  0.00     0.202 C 
ATOM      3  C   UNL     1      -4.164 -50.544 -14.151  1.00  0.00     0.179 C 
ATOM      4  C   UNL     1      -3.191 -49.329 -14.470  1.00  0.00     0.177 C 
ATOM      5  C   UNL     1      -4.124 -48.040 -14.675  1.00  0.00     0.178 C 
ATOM      6  O   UNL     1      -5.087 -47.906 -13.614  1.00  0.00    -0.341 OA
ENDROOT
BRANCH   1   7
ATOM      7  O   UNL     1      -6.586 -48.821 -12.226  1.00  0.00    -0.350 OA
BRANCH   7   8
ATOM      8  C   UNL     1      -5.648 -48.167 -11.354  1.00  0.00     0.160 C 
ATOM      9  C   UNL     1      -5.303 -49.081 -10.203  1.00  0.00     0.035 C 
ENDBRANCH   7   8
ENDBRANCH   1   7
BRANCH   2  10
ATOM     10  O   UNL     1      -6.544 -51.335 -13.929  1.00  0.00    -0.385 OA
ATOM     11  H   UNL     1      -7.185 -51.437 -14.721  1.00  0.00     0.211 HD
ENDBRANCH   2  10
BRANCH   3  12
ATOM     12  O   UNL     1      -3.851 -51.749 -14.850  1.00  0.00    -0.387 OA
ATOM     13  H   UNL     1      -4.726 -52.062 -15.275  1.00  0.00     0.211 HD
ENDBRANCH   3  12
BRANCH   5  14
ATOM     14  C   UNL     1      -4.622 -47.993 -16.150  1.00  0.00     0.191 C 
BRANCH  14  15
ATOM     15  O   UNL     1      -3.740 -47.205 -16.936  1.00  0.00    -0.394 OA
ATOM     16  H   UNL     1      -3.984 -46.227 -16.894  1.00  0.00     0.210 HD
ENDBRANCH  14  15
ENDBRANCH   5  14
BRANCH   4  17
ATOM     17  O   UNL     1      -2.311 -49.115 -13.360  1.00  0.00    -0.387 OA
ATOM     18  H   UNL     1      -2.694 -48.476 -12.675  1.00  0.00     0.211 HD
ENDBRANCH   4  17
TORSDOF 7
ENDMDL
MODEL 8
REMARK VINA RESULT:    -5.555      2.405      4.500
REMARK INTER + INTRA:          -7.485
REMARK INTER:                  -7.258
REMARK INTRA:                  -0.227
REMARK UNBOUND:                -0.306
REMARK SMILES CCO[C@H]1O[C@H](CO)[C@@H](O)[C@H](O)[C@H]1O
REMARK SMILES IDX 4 1 13 2 11 3 9 4 6 5 5 6 3 7 2 8 1 9 14 10 12 12 7 14 8 15
REMARK SMILES IDX 10 17
REMARK H PARENT 14 11 12 13 8 16 10 18
REMARK Flexibility Score: inf
ROOT
ATOM      1  C   UNL     1      -5.743 -48.640 -14.850  1.00  0.00     0.281 C 
ATOM      2  C   UNL     1      -7.127 -49.346 -14.961  1.00  0.00     0.202 C 
ATOM      3  C   UNL     1      -8.127 -48.809 -16.026  1.00  0.00     0.179 C 
ATOM      4  C   UNL     1      -8.217 -47.228 -16.157  1.00  0.00     0.177 C 
ATOM      5  C   UNL     1      -7.130 -46.624 -15.144  1.00  0.00     0.178 C 
ATOM      6  O   UNL     1      -5.851 -47.267 -15.290  1.00  0.00    -0.341 OA
ENDROOT
BRANCH   1   7
ATOM      7  O   UNL     1      -4.632 -49.126 -15.556  1.00  0.00    -0.350 OA
BRANCH   7   8
ATOM      8  C   UNL     1      -3.483 -49.357 -14.721  1.00  0.00     0.160 C 
ATOM      9  C   UNL     1      -3.621 -50.689 -14.026  1.00  0.00     0.035 C 
ENDBRANCH   7   8
ENDBRANCH   1   7
BRANCH   2  10
ATOM     10  O   UNL     1      -7.083 -50.768 -14.839  1.00  0.00    -0.385 OA
ATOM     11  H   UNL     1      -7.832 -51.058 -14.204  1.00  0.00     0.211 HD
ENDBRANCH   2  10
BRANCH   3  12
ATOM     12  O   UNL     1      -9.392 -49.468 -15.956  1.00  0.00    -0.387 OA
ATOM     13  H   UNL     1      -9.678 -49.627 -16.924  1.00  0.00     0.211 HD
ENDBRANCH   3  12
BRANCH   5  14
ATOM     14  C   UNL     1      -7.755 -46.515 -13.721  1.00  0.00     0.191 C 
BRANCH  14  15
ATOM     15  O   UNL     1      -6.834 -45.900 -12.832  1.00  0.00    -0.394 OA
ATOM     16  H   UNL     1      -6.071 -45.470 -13.331  1.00  0.00     0.210 HD
ENDBRANCH  14  15
ENDBRANCH   5  14
BRANCH   4  17
ATOM     17  O   UNL     1      -7.894 -46.838 -17.498  1.00  0.00    -0.387 OA
ATOM     18  H   UNL     1      -8.374 -47.395 -18.193  1.00  0.00     0.211 HD
ENDBRANCH   4  17
TORSDOF 7
ENDMDL
MODEL 9
REMARK VINA RESULT:    -5.423      1.754      3.580
REMARK INTER + INTRA:          -7.314
REMARK INTER:                  -7.000
REMARK INTRA:                  -0.313
REMARK UNBOUND:                -0.306
REMARK SMILES CCO[C@H]1O[C@H](CO)[C@@H](O)[C@H](O)[C@H]1O
REMARK SMILES IDX 4 1 13 2 11 3 9 4 6 5 5 6 3 7 2 8 1 9 14 10 12 12 7 14 8 15
REMARK SMILES IDX 10 17
REMARK H PARENT 14 11 12 13 8 16 10 18
REMARK Flexibility Score: inf
ROOT
ATOM      1  C   UNL     1      -6.200 -48.182 -14.119  1.00  0.00     0.281 C 
ATOM      2  C   UNL     1      -5.500 -46.829 -13.798  1.00  0.00     0.202 C 
ATOM      3  C   UNL     1      -4.522 -46.252 -14.863  1.00  0.00     0.179 C 
ATOM      4  C   UNL     1      -3.561 -47.305 -15.564  1.00  0.00     0.177 C 
ATOM      5  C   UNL     1      -3.962 -48.746 -14.983  1.00  0.00     0.178 C 
ATOM      6  O   UNL     1      -5.384 -48.960 -15.025  1.00  0.00    -0.341 OA
ENDROOT
BRANCH   1   7
ATOM      7  O   UNL     1      -7.470 -48.208 -14.715  1.00  0.00    -0.350 OA
BRANCH   7   8
ATOM      8  C   UNL     1      -7.429 -48.083 -16.148  1.00  0.00     0.160 C 
ATOM      9  C   UNL     1      -8.219 -46.869 -16.574  1.00  0.00     0.035 C 
ENDBRANCH   7   8
ENDBRANCH   1   7
BRANCH   2  10
ATOM     10  O   UNL     1      -6.334 -45.862 -13.159  1.00  0.00    -0.385 OA
ATOM     11  H   UNL     1      -6.368 -45.027 -13.751  1.00  0.00     0.211 HD
ENDBRANCH   2  10
BRANCH   3  12
ATOM     12  O   UNL     1      -3.866 -45.068 -14.407  1.00  0.00    -0.387 OA
ATOM     13  H   UNL     1      -2.951 -45.369 -14.066  1.00  0.00     0.211 HD
ENDBRANCH   3  12
BRANCH   5  14
ATOM     14  C   UNL     1      -3.207 -48.989 -13.643  1.00  0.00     0.191 C 
BRANCH  14  15
ATOM     15  O   UNL     1      -1.818 -49.154 -13.890  1.00  0.00    -0.394 OA
ATOM     16  H   UNL     1      -1.262 -48.674 -13.200  1.00  0.00     0.210 HD
ENDBRANCH  14  15
ENDBRANCH   5  14
BRANCH   4  17
ATOM     17  O   UNL     1      -3.775 -47.281 -16.981  1.00  0.00    -0.387 OA
ATOM     18  H   UNL     1      -3.055 -47.775 -17.493  1.00  0.00     0.211 HD
ENDBRANCH   4  17
TORSDOF 7
ENDMDL
