MODEL 1
REMARK VINA RESULT:    -2.226      0.000      0.000
REMARK INTER + INTRA:          -2.226
REMARK INTER:                  -2.226
REMARK INTRA:                   0.000
REMARK UNBOUND:                 0.000
REMARK SMILES CC(=O)[O-]
REMARK SMILES IDX 1 1 2 2 3 3 4 4
REMARK H PARENT
REMARK Flexibility Score: inf
ROOT
ATOM      1  C   UNL     1      74.802 -37.475  10.771  1.00  0.00     0.063 C 
ATOM      2  C   UNL     1      76.142 -37.139  11.333  1.00  0.00     0.038 C 
ATOM      3  O   UNL     1      76.580 -35.961  11.263  1.00  0.00    -0.550 OA
ATOM      4  O   UNL     1      76.887 -38.114  11.983  1.00  0.00    -0.550 OA
ENDROOT
TORSDOF 0
ENDMDL
MODEL 2
REMARK VINA RESULT:    -2.217     16.117     16.609
REMARK INTER + INTRA:          -2.217
REMARK INTER:                  -2.217
REMARK INTRA:                   0.000
REMARK UNBOUND:                 0.000
REMARK SMILES CC(=O)[O-]
REMARK SMILES IDX 1 1 2 2 3 3 4 4
REMARK H PARENT
REMARK Flexibility Score: inf
ROOT
ATOM      1  C   UNL     1      62.540 -26.650  13.080  1.00  0.00     0.063 C 
ATOM      2  C   UNL     1      62.767 -27.767  14.041  1.00  0.00     0.038 C 
ATOM      3  O   UNL     1      62.586 -27.587  15.274  1.00  0.00    -0.550 OA
ATOM      4  O   UNL     1      63.127 -29.024  13.574  1.00  0.00    -0.550 OA
ENDROOT
TORSDOF 0
ENDMDL
MODEL 3
REMARK VINA RESULT:    -2.215     16.099     16.594
REMARK INTER + INTRA:          -2.215
REMARK INTER:                  -2.215
REMARK INTRA:                   0.000
REMARK UNBOUND:                 0.000
REMARK SMILES CC(=O)[O-]
REMARK SMILES IDX 1 1 2 2 3 3 4 4
REMARK H PARENT
REMARK Flexibility Score: inf
ROOT
ATOM      1  C   UNL     1      62.501 -26.753  13.107  1.00  0.00     0.063 C 
ATOM      2  C   UNL     1      62.717 -27.931  13.996  1.00  0.00     0.038 C 
ATOM      3  O   UNL     1      62.945 -29.065  13.499  1.00  0.00    -0.550 OA
ATOM      4  O   UNL     1      62.721 -27.770  15.375  1.00  0.00    -0.550 OA
ENDROOT
TORSDOF 0
ENDMDL
MODEL 4
REMARK VINA RESULT:    -2.150     16.470     16.972
REMARK INTER + INTRA:          -2.150
REMARK INTER:                  -2.150
REMARK INTRA:                   0.000
REMARK UNBOUND:                 0.000
REMARK SMILES CC(=O)[O-]
REMARK SMILES IDX 1 1 2 2 3 3 4 4
REMARK H PARENT
REMARK Flexibility Score: inf
ROOT
ATOM      1  C   UNL     1      61.991 -27.000  14.890  1.00  0.00     0.063 C 
ATOM      2  C   UNL     1      62.386 -27.513  13.546  1.00  0.00     0.038 C 
ATOM      3  O   UNL     1      62.375 -26.745  12.548  1.00  0.00    -0.550 OA
ATOM      4  O   UNL     1      62.820 -28.824  13.402  1.00  0.00    -0.550 OA
ENDROOT
TORSDOF 0
ENDMDL
MODEL 5
REMARK VINA RESULT:    -2.149      8.283      8.631
REMARK INTER + INTRA:          -2.149
REMARK INTER:                  -2.149
REMARK INTRA:                   0.000
REMARK UNBOUND:                 0.000
REMARK SMILES CC(=O)[O-]
REMARK SMILES IDX 1 1 2 2 3 3 4 4
REMARK H PARENT
REMARK Flexibility Score: inf
ROOT
ATOM      1  C   UNL     1      69.242 -34.088   7.240  1.00  0.00     0.063 C 
ATOM      2  C   UNL     1      70.259 -33.222   6.577  1.00  0.00     0.038 C 
ATOM      3  O   UNL     1      71.021 -32.498   7.270  1.00  0.00    -0.550 OA
ATOM      4  O   UNL     1      70.406 -33.252   5.197  1.00  0.00    -0.550 OA
ENDROOT
TORSDOF 0
ENDMDL
MODEL 6
REMARK VINA RESULT:    -2.129      1.855      2.513
REMARK INTER + INTRA:          -2.129
REMARK INTER:                  -2.129
REMARK INTRA:                   0.000
REMARK UNBOUND:                 0.000
REMARK SMILES CC(=O)[O-]
REMARK SMILES IDX 1 1 2 2 3 3 4 4
REMARK H PARENT
REMARK Flexibility Score: inf
ROOT
ATOM      1  C   UNL     1      76.334 -36.615  11.215  1.00  0.00     0.063 C 
ATOM      2  C   UNL     1      75.098 -37.432  11.041  1.00  0.00     0.038 C 
ATOM      3  O   UNL     1      74.750 -38.248  11.935  1.00  0.00    -0.550 OA
ATOM      4  O   UNL     1      74.300 -37.257   9.919  1.00  0.00    -0.550 OA
ENDROOT
TORSDOF 0
ENDMDL
MODEL 7
REMARK VINA RESULT:    -2.084     11.458     11.553
REMARK INTER + INTRA:          -2.084
REMARK INTER:                  -2.084
REMARK INTRA:                   0.000
REMARK UNBOUND:                 0.000
REMARK SMILES CC(=O)[O-]
REMARK SMILES IDX 1 1 2 2 3 3 4 4
REMARK H PARENT
REMARK Flexibility Score: inf
ROOT
ATOM      1  C   UNL     1      72.867 -36.669  21.845  1.00  0.00     0.063 C 
ATOM      2  C   UNL     1      73.725 -35.656  22.526  1.00  0.00     0.038 C 
ATOM      3  O   UNL     1      73.250 -34.533  22.839  1.00  0.00    -0.550 OA
ATOM      4  O   UNL     1      75.034 -35.969  22.864  1.00  0.00    -0.550 OA
ENDROOT
TORSDOF 0
ENDMDL
MODEL 8
REMARK VINA RESULT:    -2.065      1.684      1.858
REMARK INTER + INTRA:          -2.065
REMARK INTER:                  -2.065
REMARK INTRA:                   0.000
REMARK UNBOUND:                 0.000
REMARK SMILES CC(=O)[O-]
REMARK SMILES IDX 1 1 2 2 3 3 4 4
REMARK H PARENT
REMARK Flexibility Score: inf
ROOT
ATOM      1  C   UNL     1      73.271 -37.891  11.512  1.00  0.00     0.063 C 
ATOM      2  C   UNL     1      74.649 -37.623  11.010  1.00  0.00     0.038 C 
ATOM      3  O   UNL     1      74.825 -37.221   9.830  1.00  0.00    -0.550 OA
ATOM      4  O   UNL     1      75.738 -37.764  11.859  1.00  0.00    -0.550 OA
ENDROOT
TORSDOF 0
ENDMDL
MODEL 9
REMARK VINA RESULT:    -2.042     11.430     11.590
REMARK INTER + INTRA:          -2.042
REMARK INTER:                  -2.042
REMARK INTRA:                   0.000
REMARK UNBOUND:                 0.000
REMARK SMILES CC(=O)[O-]
REMARK SMILES IDX 1 1 2 2 3 3 4 4
REMARK H PARENT
REMARK Flexibility Score: inf
ROOT
ATOM      1  C   UNL     1      75.015 -35.619  22.558  1.00  0.00     0.063 C 
ATOM      2  C   UNL     1      73.540 -35.475  22.396  1.00  0.00     0.038 C 
ATOM      3  O   UNL     1      72.989 -34.359  22.592  1.00  0.00    -0.550 OA
ATOM      4  O   UNL     1      72.777 -36.556  21.977  1.00  0.00    -0.550 OA
ENDROOT
TORSDOF 0
ENDMDL
