MODEL 1
REMARK VINA RESULT:    -3.194      0.000      0.000
REMARK INTER + INTRA:          -7.807
REMARK INTER:                  -5.808
REMARK INTRA:                  -1.999
REMARK UNBOUND:                -1.999
REMARK SMILES CCCCCCCCCCCCCCCC(=O)[O-]
REMARK SMILES IDX 9 1 10 2 11 3 12 4 13 5 14 6 15 7 16 8 17 9 18 10 8 11 7 12
REMARK SMILES IDX 6 13 5 14 4 15 3 16 2 17 1 18
REMARK H PARENT
REMARK Flexibility Score: inf
ROOT
ATOM      1  C   UNL     1     -98.476 -40.258  93.373  1.00  0.00     0.000 C 
ENDROOT
BRANCH   1   2
ATOM      2  C   UNL     1     -97.346 -41.020  94.084  1.00  0.00     0.000 C 
BRANCH   2   3
ATOM      3  C   UNL     1     -96.136 -41.265  93.166  1.00  0.00     0.000 C 
BRANCH   3   4
ATOM      4  C   UNL     1     -96.454 -42.234  92.016  1.00  0.00     0.000 C 
BRANCH   4   5
ATOM      5  C   UNL     1     -96.388 -41.560  90.636  1.00  0.00     0.000 C 
BRANCH   5   6
ATOM      6  C   UNL     1     -97.772 -41.525  89.977  1.00  0.00     0.006 C 
BRANCH   6   7
ATOM      7  C   UNL     1     -98.135 -40.104  89.536  1.00  0.00     0.053 C 
BRANCH   7   8
ATOM      8  C   UNL     1     -97.309 -39.693  88.358  1.00  0.00     0.041 C 
ATOM      9  O   UNL     1     -96.781 -38.551  88.322  1.00  0.00    -0.550 OA
ATOM     10  O   UNL     1     -97.082 -40.591  87.323  1.00  0.00    -0.550 OA
ENDBRANCH   7   8
ENDBRANCH   6   7
ENDBRANCH   5   6
ENDBRANCH   4   5
ENDBRANCH   3   4
ENDBRANCH   2   3
ENDBRANCH   1   2
BRANCH   1  11
ATOM     11  C   UNL     1     -99.794 -41.052  93.347  1.00  0.00     0.000 C 
BRANCH  11  12
ATOM     12  C   UNL     1    -100.700 -40.676  92.160  1.00  0.00    -0.000 C 
BRANCH  12  13
ATOM     13  C   UNL     1    -101.513 -39.380  92.341  1.00  0.00    -0.000 C 
BRANCH  13  14
ATOM     14  C   UNL     1    -100.958 -38.204  91.519  1.00  0.00    -0.000 C 
BRANCH  14  15
ATOM     15  C   UNL     1    -100.331 -37.113  92.401  1.00  0.00    -0.000 C 
BRANCH  15  16
ATOM     16  C   UNL     1    -101.317 -36.550  93.437  1.00  0.00    -0.000 C 
BRANCH  16  17
ATOM     17  C   UNL     1    -100.631 -36.349  94.793  1.00  0.00    -0.003 C 
ATOM     18  C   UNL     1    -100.400 -37.682  95.498  1.00  0.00     0.004 C 
ENDBRANCH  16  17
ENDBRANCH  15  16
ENDBRANCH  14  15
ENDBRANCH  13  14
ENDBRANCH  12  13
ENDBRANCH  11  12
ENDBRANCH   1  11
TORSDOF 14
ENDMDL
MODEL 2
REMARK VINA RESULT:    -3.127      2.749      5.778
REMARK INTER + INTRA:          -7.685
REMARK INTER:                  -6.014
REMARK INTRA:                  -1.670
REMARK UNBOUND:                -1.999
REMARK SMILES CCCCCCCCCCCCCCCC(=O)[O-]
REMARK SMILES IDX 9 1 10 2 11 3 12 4 13 5 14 6 15 7 16 8 17 9 18 10 8 11 7 12
REMARK SMILES IDX 6 13 5 14 4 15 3 16 2 17 1 18
REMARK H PARENT
REMARK Flexibility Score: inf
ROOT
ATOM      1  C   UNL     1     -96.554 -42.656  87.441  1.00  0.00     0.000 C 
ENDROOT
BRANCH   1   2
ATOM      2  C   UNL     1     -97.697 -41.628  87.489  1.00  0.00     0.000 C 
BRANCH   2   3
ATOM      3  C   UNL     1     -97.195 -40.206  87.794  1.00  0.00     0.000 C 
BRANCH   3   4
ATOM      4  C   UNL     1     -97.566 -39.739  89.211  1.00  0.00     0.000 C 
BRANCH   4   5
ATOM      5  C   UNL     1     -98.613 -40.643  89.878  1.00  0.00     0.000 C 
BRANCH   5   6
ATOM      6  C   UNL     1     -99.116 -40.023  91.188  1.00  0.00     0.006 C 
BRANCH   6   7
ATOM      7  C   UNL     1     -99.680 -38.620  90.953  1.00  0.00     0.053 C 
BRANCH   7   8
ATOM      8  C   UNL     1    -100.263 -38.070  92.216  1.00  0.00     0.041 C 
ATOM      9  O   UNL     1    -100.863 -36.964  92.208  1.00  0.00    -0.550 OA
ATOM     10  O   UNL     1    -100.185 -38.803  93.393  1.00  0.00    -0.550 OA
ENDBRANCH   7   8
ENDBRANCH   6   7
ENDBRANCH   5   6
ENDBRANCH   4   5
ENDBRANCH   3   4
ENDBRANCH   2   3
ENDBRANCH   1   2
BRANCH   1  11
ATOM     11  C   UNL     1     -96.527 -43.561  88.684  1.00  0.00     0.000 C 
BRANCH  11  12
ATOM     12  C   UNL     1     -95.784 -42.926  89.874  1.00  0.00    -0.000 C 
BRANCH  12  13
ATOM     13  C   UNL     1     -95.961 -43.652  91.221  1.00  0.00    -0.000 C 
BRANCH  13  14
ATOM     14  C   UNL     1     -96.774 -42.835  92.241  1.00  0.00    -0.000 C 
BRANCH  14  15
ATOM     15  C   UNL     1     -96.160 -41.452  92.510  1.00  0.00    -0.000 C 
BRANCH  15  16
ATOM     16  C   UNL     1     -96.603 -40.859  93.857  1.00  0.00    -0.000 C 
BRANCH  16  17
ATOM     17  C   UNL     1     -95.394 -40.582  94.758  1.00  0.00    -0.003 C 
ATOM     18  C   UNL     1     -94.559 -41.843  94.964  1.00  0.00     0.004 C 
ENDBRANCH  16  17
ENDBRANCH  15  16
ENDBRANCH  14  15
ENDBRANCH  13  14
ENDBRANCH  12  13
ENDBRANCH  11  12
ENDBRANCH   1  11
TORSDOF 14
ENDMDL
MODEL 3
REMARK VINA RESULT:    -3.113      3.488      7.073
REMARK INTER + INTRA:          -7.659
REMARK INTER:                  -6.178
REMARK INTRA:                  -1.481
REMARK UNBOUND:                -1.999
REMARK SMILES CCCCCCCCCCCCCCCC(=O)[O-]
REMARK SMILES IDX 9 1 10 2 11 3 12 4 13 5 14 6 15 7 16 8 17 9 18 10 8 11 7 12
REMARK SMILES IDX 6 13 5 14 4 15 3 16 2 17 1 18
REMARK H PARENT
REMARK Flexibility Score: inf
ROOT
ATOM      1  C   UNL     1     -98.234 -40.708  92.683  1.00  0.00     0.000 C 
ENDROOT
BRANCH   1   2
ATOM      2  C   UNL     1     -99.413 -39.849  93.173  1.00  0.00     0.000 C 
BRANCH   2   3
ATOM      3  C   UNL     1    -100.348 -39.429  92.026  1.00  0.00     0.000 C 
BRANCH   3   4
ATOM      4  C   UNL     1    -100.195 -37.946  91.653  1.00  0.00     0.000 C 
BRANCH   4   5
ATOM      5  C   UNL     1    -101.257 -37.054  92.317  1.00  0.00     0.000 C 
BRANCH   5   6
ATOM      6  C   UNL     1    -100.608 -36.071  93.299  1.00  0.00     0.006 C 
BRANCH   6   7
ATOM      7  C   UNL     1    -100.573 -36.651  94.716  1.00  0.00     0.053 C 
BRANCH   7   8
ATOM      8  C   UNL     1    -101.903 -37.233  95.077  1.00  0.00     0.041 C 
ATOM      9  O   UNL     1    -102.019 -38.470  95.282  1.00  0.00    -0.550 OA
ATOM     10  O   UNL     1    -103.004 -36.402  95.236  1.00  0.00    -0.550 OA
ENDBRANCH   7   8
ENDBRANCH   6   7
ENDBRANCH   5   6
ENDBRANCH   4   5
ENDBRANCH   3   4
ENDBRANCH   2   3
ENDBRANCH   1   2
BRANCH   1  11
ATOM     11  C   UNL     1     -98.453 -41.245  91.258  1.00  0.00     0.000 C 
BRANCH  11  12
ATOM     12  C   UNL     1     -97.321 -40.858  90.289  1.00  0.00    -0.000 C 
BRANCH  12  13
ATOM     13  C   UNL     1     -97.751 -39.990  89.091  1.00  0.00    -0.000 C 
BRANCH  13  14
ATOM     14  C   UNL     1     -97.218 -40.515  87.746  1.00  0.00    -0.000 C 
BRANCH  14  15
ATOM     15  C   UNL     1     -96.468 -41.849  87.892  1.00  0.00    -0.000 C 
BRANCH  15  16
ATOM     16  C   UNL     1     -97.191 -43.014  87.198  1.00  0.00    -0.000 C 
BRANCH  16  17
ATOM     17  C   UNL     1     -98.605 -42.603  86.769  1.00  0.00    -0.003 C 
ATOM     18  C   UNL     1     -99.659 -43.195  87.699  1.00  0.00     0.004 C 
ENDBRANCH  16  17
ENDBRANCH  15  16
ENDBRANCH  14  15
ENDBRANCH  13  14
ENDBRANCH  12  13
ENDBRANCH  11  12
ENDBRANCH   1  11
TORSDOF 14
ENDMDL
MODEL 4
REMARK VINA RESULT:    -3.037      3.145      6.494
REMARK INTER + INTRA:          -7.521
REMARK INTER:                  -6.043
REMARK INTRA:                  -1.478
REMARK UNBOUND:                -1.999
REMARK SMILES CCCCCCCCCCCCCCCC(=O)[O-]
REMARK SMILES IDX 9 1 10 2 11 3 12 4 13 5 14 6 15 7 16 8 17 9 18 10 8 11 7 12
REMARK SMILES IDX 6 13 5 14 4 15 3 16 2 17 1 18
REMARK H PARENT
REMARK Flexibility Score: inf
ROOT
ATOM      1  C   UNL     1     -97.248 -40.042  87.998  1.00  0.00     0.000 C 
ENDROOT
BRANCH   1   2
ATOM      2  C   UNL     1     -97.732 -39.553  89.373  1.00  0.00     0.000 C 
BRANCH   2   3
ATOM      3  C   UNL     1     -98.760 -40.507  90.006  1.00  0.00     0.000 C 
BRANCH   3   4
ATOM      4  C   UNL     1     -99.303 -39.986  91.346  1.00  0.00     0.000 C 
BRANCH   4   5
ATOM      5  C   UNL     1     -99.918 -38.583  91.232  1.00  0.00     0.000 C 
BRANCH   5   6
ATOM      6  C   UNL     1    -100.337 -38.055  92.610  1.00  0.00     0.006 C 
BRANCH   6   7
ATOM      7  C   UNL     1    -100.600 -36.547  92.566  1.00  0.00     0.053 C 
BRANCH   7   8
ATOM      8  C   UNL     1    -100.705 -35.993  93.951  1.00  0.00     0.041 C 
ATOM      9  O   UNL     1    -101.190 -34.846  94.140  1.00  0.00    -0.550 OA
ATOM     10  O   UNL     1    -100.311 -36.762  95.039  1.00  0.00    -0.550 OA
ENDBRANCH   7   8
ENDBRANCH   6   7
ENDBRANCH   5   6
ENDBRANCH   4   5
ENDBRANCH   3   4
ENDBRANCH   2   3
ENDBRANCH   1   2
BRANCH   1  11
ATOM     11  C   UNL     1     -97.696 -41.483  87.697  1.00  0.00     0.000 C 
BRANCH  11  12
ATOM     12  C   UNL     1     -96.567 -42.514  87.880  1.00  0.00    -0.000 C 
BRANCH  12  13
ATOM     13  C   UNL     1     -96.986 -43.833  88.555  1.00  0.00    -0.000 C 
BRANCH  13  14
ATOM     14  C   UNL     1     -96.300 -44.056  89.914  1.00  0.00    -0.000 C 
BRANCH  14  15
ATOM     15  C   UNL     1     -95.885 -42.738  90.587  1.00  0.00    -0.000 C 
BRANCH  15  16
ATOM     16  C   UNL     1     -96.434 -42.604  92.016  1.00  0.00    -0.000 C 
BRANCH  16  17
ATOM     17  C   UNL     1     -96.169 -41.200  92.574  1.00  0.00    -0.003 C 
ATOM     18  C   UNL     1     -95.823 -41.253  94.059  1.00  0.00     0.004 C 
ENDBRANCH  16  17
ENDBRANCH  15  16
ENDBRANCH  14  15
ENDBRANCH  13  14
ENDBRANCH  12  13
ENDBRANCH  11  12
ENDBRANCH   1  11
TORSDOF 14
ENDMDL
MODEL 5
REMARK VINA RESULT:    -3.018      1.433      2.056
REMARK INTER + INTRA:          -7.487
REMARK INTER:                  -6.042
REMARK INTRA:                  -1.446
REMARK UNBOUND:                -1.999
REMARK SMILES CCCCCCCCCCCCCCCC(=O)[O-]
REMARK SMILES IDX 9 1 10 2 11 3 12 4 13 5 14 6 15 7 16 8 17 9 18 10 8 11 7 12
REMARK SMILES IDX 6 13 5 14 4 15 3 16 2 17 1 18
REMARK H PARENT
REMARK Flexibility Score: inf
ROOT
ATOM      1  C   UNL     1     -96.871 -40.815  94.604  1.00  0.00     0.000 C 
ENDROOT
BRANCH   1   2
ATOM      2  C   UNL     1     -96.087 -41.182  93.332  1.00  0.00     0.000 C 
BRANCH   2   3
ATOM      3  C   UNL     1     -96.599 -42.480  92.683  1.00  0.00     0.000 C 
BRANCH   3   4
ATOM      4  C   UNL     1     -96.629 -42.400  91.148  1.00  0.00     0.000 C 
BRANCH   4   5
ATOM      5  C   UNL     1     -96.483 -40.963  90.625  1.00  0.00     0.000 C 
BRANCH   5   6
ATOM      6  C   UNL     1     -97.684 -40.573  89.754  1.00  0.00     0.006 C 
BRANCH   6   7
ATOM      7  C   UNL     1     -97.239 -40.202  88.337  1.00  0.00     0.053 C 
BRANCH   7   8
ATOM      8  C   UNL     1     -97.114 -41.429  87.489  1.00  0.00     0.041 C 
ATOM      9  O   UNL     1     -98.116 -41.880  86.875  1.00  0.00    -0.550 OA
ATOM     10  O   UNL     1     -95.879 -42.046  87.338  1.00  0.00    -0.550 OA
ENDBRANCH   7   8
ENDBRANCH   6   7
ENDBRANCH   5   6
ENDBRANCH   4   5
ENDBRANCH   3   4
ENDBRANCH   2   3
ENDBRANCH   1   2
BRANCH   1  11
ATOM     11  C   UNL     1     -98.336 -41.283  94.545  1.00  0.00     0.000 C 
BRANCH  11  12
ATOM     12  C   UNL     1     -99.321 -40.138  94.247  1.00  0.00    -0.000 C 
BRANCH  12  13
ATOM     13  C   UNL     1     -99.415 -39.722  92.767  1.00  0.00    -0.000 C 
BRANCH  13  14
ATOM     14  C   UNL     1    -100.861 -39.696  92.241  1.00  0.00    -0.000 C 
BRANCH  14  15
ATOM     15  C   UNL     1    -101.483 -38.292  92.300  1.00  0.00    -0.000 C 
BRANCH  15  16
ATOM     16  C   UNL     1    -100.426 -37.176  92.306  1.00  0.00    -0.000 C 
BRANCH  16  17
ATOM     17  C   UNL     1    -100.841 -36.036  93.245  1.00  0.00    -0.003 C 
ATOM     18  C   UNL     1    -102.160 -35.409  92.803  1.00  0.00     0.004 C 
ENDBRANCH  16  17
ENDBRANCH  15  16
ENDBRANCH  14  15
ENDBRANCH  13  14
ENDBRANCH  12  13
ENDBRANCH  11  12
ENDBRANCH   1  11
TORSDOF 14
ENDMDL
MODEL 6
REMARK VINA RESULT:    -2.980     14.030     16.542
REMARK INTER + INTRA:          -7.417
REMARK INTER:                  -5.710
REMARK INTRA:                  -1.707
REMARK UNBOUND:                -1.999
REMARK SMILES CCCCCCCCCCCCCCCC(=O)[O-]
REMARK SMILES IDX 9 1 10 2 11 3 12 4 13 5 14 6 15 7 16 8 17 9 18 10 8 11 7 12
REMARK SMILES IDX 6 13 5 14 4 15 3 16 2 17 1 18
REMARK H PARENT
REMARK Flexibility Score: inf
ROOT
ATOM      1  C   UNL     1     -95.516 -25.775  79.206  1.00  0.00     0.000 C 
ENDROOT
BRANCH   1   2
ATOM      2  C   UNL     1     -95.308 -26.975  78.267  1.00  0.00     0.000 C 
BRANCH   2   3
ATOM      3  C   UNL     1     -96.559 -27.286  77.427  1.00  0.00     0.000 C 
BRANCH   3   4
ATOM      4  C   UNL     1     -97.615 -28.080  78.212  1.00  0.00     0.000 C 
BRANCH   4   5
ATOM      5  C   UNL     1     -97.051 -29.368  78.830  1.00  0.00     0.000 C 
BRANCH   5   6
ATOM      6  C   UNL     1     -98.182 -30.280  79.323  1.00  0.00     0.006 C 
BRANCH   6   7
ATOM      7  C   UNL     1     -99.419 -29.464  79.708  1.00  0.00     0.053 C 
BRANCH   7   8
ATOM      8  C   UNL     1    -100.198 -30.164  80.776  1.00  0.00     0.041 C 
ATOM      9  O   UNL     1    -100.568 -29.540  81.804  1.00  0.00    -0.550 OA
ATOM     10  O   UNL     1    -100.558 -31.496  80.612  1.00  0.00    -0.550 OA
ENDBRANCH   7   8
ENDBRANCH   6   7
ENDBRANCH   5   6
ENDBRANCH   4   5
ENDBRANCH   3   4
ENDBRANCH   2   3
ENDBRANCH   1   2
BRANCH   1  11
ATOM     11  C   UNL     1     -94.487 -25.738  80.348  1.00  0.00     0.000 C 
BRANCH  11  12
ATOM     12  C   UNL     1     -95.130 -25.861  81.742  1.00  0.00    -0.000 C 
BRANCH  12  13
ATOM     13  C   UNL     1     -96.589 -26.356  81.749  1.00  0.00    -0.000 C 
BRANCH  13  14
ATOM     14  C   UNL     1     -96.710 -27.864  82.031  1.00  0.00    -0.000 C 
BRANCH  14  15
ATOM     15  C   UNL     1     -97.580 -28.164  83.262  1.00  0.00    -0.000 C 
BRANCH  15  16
ATOM     16  C   UNL     1     -97.306 -27.202  84.429  1.00  0.00    -0.000 C 
BRANCH  16  17
ATOM     17  C   UNL     1     -96.190 -27.741  85.332  1.00  0.00    -0.003 C 
ATOM     18  C   UNL     1     -96.120 -29.264  85.274  1.00  0.00     0.004 C 
ENDBRANCH  16  17
ENDBRANCH  15  16
ENDBRANCH  14  15
ENDBRANCH  13  14
ENDBRANCH  12  13
ENDBRANCH  11  12
ENDBRANCH   1  11
TORSDOF 14
ENDMDL
MODEL 7
REMARK VINA RESULT:    -2.971     14.418     17.164
REMARK INTER + INTRA:          -7.402
REMARK INTER:                  -5.176
REMARK INTRA:                  -2.225
REMARK UNBOUND:                -1.999
REMARK SMILES CCCCCCCCCCCCCCCC(=O)[O-]
REMARK SMILES IDX 9 1 10 2 11 3 12 4 13 5 14 6 15 7 16 8 17 9 18 10 8 11 7 12
REMARK SMILES IDX 6 13 5 14 4 15 3 16 2 17 1 18
REMARK H PARENT
REMARK Flexibility Score: inf
ROOT
ATOM      1  C   UNL     1     -97.960 -24.879  79.441  1.00  0.00     0.000 C 
ENDROOT
BRANCH   1   2
ATOM      2  C   UNL     1     -97.404 -24.590  80.846  1.00  0.00     0.000 C 
BRANCH   2   3
ATOM      3  C   UNL     1     -95.882 -24.804  80.929  1.00  0.00     0.000 C 
BRANCH   3   4
ATOM      4  C   UNL     1     -95.505 -26.056  81.738  1.00  0.00     0.000 C 
BRANCH   4   5
ATOM      5  C   UNL     1     -96.612 -26.489  82.711  1.00  0.00     0.000 C 
BRANCH   5   6
ATOM      6  C   UNL     1     -96.642 -28.015  82.862  1.00  0.00     0.006 C 
BRANCH   6   7
ATOM      7  C   UNL     1     -97.287 -28.426  84.188  1.00  0.00     0.053 C 
BRANCH   7   8
ATOM      8  C   UNL     1     -96.244 -28.597  85.247  1.00  0.00     0.041 C 
ATOM      9  O   UNL     1     -95.851 -27.606  85.917  1.00  0.00    -0.550 OA
ATOM     10  O   UNL     1     -95.741 -29.861  85.528  1.00  0.00    -0.550 OA
ENDBRANCH   7   8
ENDBRANCH   6   7
ENDBRANCH   5   6
ENDBRANCH   4   5
ENDBRANCH   3   4
ENDBRANCH   2   3
ENDBRANCH   1   2
BRANCH   1  11
ATOM     11  C   UNL     1     -96.864 -25.324  78.457  1.00  0.00     0.000 C 
BRANCH  11  12
ATOM     12  C   UNL     1     -97.038 -26.777  77.980  1.00  0.00    -0.000 C 
BRANCH  12  13
ATOM     13  C   UNL     1     -95.941 -27.755  78.441  1.00  0.00    -0.000 C 
BRANCH  13  14
ATOM     14  C   UNL     1     -96.464 -28.831  79.409  1.00  0.00    -0.000 C 
BRANCH  14  15
ATOM     15  C   UNL     1     -97.604 -29.663  78.802  1.00  0.00    -0.000 C 
BRANCH  15  16
ATOM     16  C   UNL     1     -98.827 -29.757  79.728  1.00  0.00    -0.000 C 
BRANCH  16  17
ATOM     17  C   UNL     1     -99.501 -28.389  79.884  1.00  0.00    -0.003 C 
ATOM     18  C   UNL     1     -99.786 -28.077  81.350  1.00  0.00     0.004 C 
ENDBRANCH  16  17
ENDBRANCH  15  16
ENDBRANCH  14  15
ENDBRANCH  13  14
ENDBRANCH  12  13
ENDBRANCH  11  12
ENDBRANCH   1  11
TORSDOF 14
ENDMDL
MODEL 8
REMARK VINA RESULT:    -2.963     13.970     16.600
REMARK INTER + INTRA:          -7.388
REMARK INTER:                  -4.992
REMARK INTRA:                  -2.396
REMARK UNBOUND:                -1.999
REMARK SMILES CCCCCCCCCCCCCCCC(=O)[O-]
REMARK SMILES IDX 9 1 10 2 11 3 12 4 13 5 14 6 15 7 16 8 17 9 18 10 8 11 7 12
REMARK SMILES IDX 6 13 5 14 4 15 3 16 2 17 1 18
REMARK H PARENT
REMARK Flexibility Score: inf
ROOT
ATOM      1  C   UNL     1     -95.378 -26.848  78.956  1.00  0.00     0.000 C 
ENDROOT
BRANCH   1   2
ATOM      2  C   UNL     1     -95.780 -25.386  79.215  1.00  0.00     0.000 C 
BRANCH   2   3
ATOM      3  C   UNL     1     -95.980 -25.089  80.711  1.00  0.00     0.000 C 
BRANCH   3   4
ATOM      4  C   UNL     1     -97.451 -25.199  81.144  1.00  0.00     0.000 C 
BRANCH   4   5
ATOM      5  C   UNL     1     -97.636 -26.051  82.409  1.00  0.00     0.000 C 
BRANCH   5   6
ATOM      6  C   UNL     1     -96.312 -26.702  82.829  1.00  0.00     0.006 C 
BRANCH   6   7
ATOM      7  C   UNL     1     -96.515 -28.173  83.203  1.00  0.00     0.053 C 
BRANCH   7   8
ATOM      8  C   UNL     1     -96.315 -28.372  84.672  1.00  0.00     0.041 C 
ATOM      9  O   UNL     1     -95.899 -29.476  85.112  1.00  0.00    -0.550 OA
ATOM     10  O   UNL     1     -96.542 -27.322  85.553  1.00  0.00    -0.550 OA
ENDBRANCH   7   8
ENDBRANCH   6   7
ENDBRANCH   5   6
ENDBRANCH   4   5
ENDBRANCH   3   4
ENDBRANCH   2   3
ENDBRANCH   1   2
BRANCH   1  11
ATOM     11  C   UNL     1     -96.577 -27.722  78.550  1.00  0.00     0.000 C 
BRANCH  11  12
ATOM     12  C   UNL     1     -96.672 -29.027  79.362  1.00  0.00    -0.000 C 
BRANCH  12  13
ATOM     13  C   UNL     1     -98.031 -29.280  80.041  1.00  0.00    -0.000 C 
BRANCH  13  14
ATOM     14  C   UNL     1     -99.090 -28.223  79.679  1.00  0.00    -0.000 C 
BRANCH  14  15
ATOM     15  C   UNL     1    -100.309 -28.269  80.612  1.00  0.00    -0.000 C 
BRANCH  15  16
ATOM     16  C   UNL     1     -99.970 -28.827  82.003  1.00  0.00    -0.000 C 
BRANCH  16  17
ATOM     17  C   UNL     1    -100.992 -29.888  82.431  1.00  0.00    -0.003 C 
ATOM     18  C   UNL     1    -101.309 -30.843  81.284  1.00  0.00     0.004 C 
ENDBRANCH  16  17
ENDBRANCH  15  16
ENDBRANCH  14  15
ENDBRANCH  13  14
ENDBRANCH  12  13
ENDBRANCH  11  12
ENDBRANCH   1  11
TORSDOF 14
ENDMDL
MODEL 9
REMARK VINA RESULT:    -2.939      3.066      6.307
REMARK INTER + INTRA:          -7.343
REMARK INTER:                  -5.900
REMARK INTRA:                  -1.443
REMARK UNBOUND:                -1.999
REMARK SMILES CCCCCCCCCCCCCCCC(=O)[O-]
REMARK SMILES IDX 9 1 10 2 11 3 12 4 13 5 14 6 15 7 16 8 17 9 18 10 8 11 7 12
REMARK SMILES IDX 6 13 5 14 4 15 3 16 2 17 1 18
REMARK H PARENT
REMARK Flexibility Score: inf
ROOT
ATOM      1  C   UNL     1     -98.875 -40.489  94.711  1.00  0.00     0.000 C 
ENDROOT
BRANCH   1   2
ATOM      2  C   UNL     1     -99.840 -41.133  93.701  1.00  0.00     0.000 C 
BRANCH   2   3
ATOM      3  C   UNL     1    -100.690 -40.089  92.957  1.00  0.00     0.000 C 
BRANCH   3   4
ATOM      4  C   UNL     1     -99.886 -39.319  91.897  1.00  0.00     0.000 C 
BRANCH   4   5
ATOM      5  C   UNL     1    -100.259 -37.830  91.833  1.00  0.00     0.000 C 
BRANCH   5   6
ATOM      6  C   UNL     1    -101.034 -37.406  93.087  1.00  0.00     0.006 C 
BRANCH   6   7
ATOM      7  C   UNL     1    -100.630 -35.999  93.535  1.00  0.00     0.053 C 
BRANCH   7   8
ATOM      8  C   UNL     1    -101.724 -35.022  93.244  1.00  0.00     0.041 C 
ATOM      9  O   UNL     1    -101.630 -33.829  93.636  1.00  0.00    -0.550 OA
ATOM     10  O   UNL     1    -102.828 -35.416  92.499  1.00  0.00    -0.550 OA
ENDBRANCH   7   8
ENDBRANCH   6   7
ENDBRANCH   5   6
ENDBRANCH   4   5
ENDBRANCH   3   4
ENDBRANCH   2   3
ENDBRANCH   1   2
BRANCH   1  11
ATOM     11  C   UNL     1     -97.399 -40.750  94.361  1.00  0.00     0.000 C 
BRANCH  11  12
ATOM     12  C   UNL     1     -97.224 -41.767  93.218  1.00  0.00    -0.000 C 
BRANCH  12  13
ATOM     13  C   UNL     1     -96.383 -41.274  92.025  1.00  0.00    -0.000 C 
BRANCH  13  14
ATOM     14  C   UNL     1     -96.541 -42.157  90.774  1.00  0.00    -0.000 C 
BRANCH  14  15
ATOM     15  C   UNL     1     -97.672 -41.674  89.853  1.00  0.00    -0.000 C 
BRANCH  15  16
ATOM     16  C   UNL     1     -97.494 -40.212  89.412  1.00  0.00    -0.000 C 
BRANCH  16  17
ATOM     17  C   UNL     1     -97.216 -40.125  87.906  1.00  0.00    -0.003 C 
ATOM     18  C   UNL     1     -96.834 -41.488  87.336  1.00  0.00     0.004 C 
ENDBRANCH  16  17
ENDBRANCH  15  16
ENDBRANCH  14  15
ENDBRANCH  13  14
ENDBRANCH  12  13
ENDBRANCH  11  12
ENDBRANCH   1  11
TORSDOF 14
ENDMDL
