MODEL 1
REMARK VINA RESULT:    -6.125      0.000      0.000
REMARK INTER + INTRA:          -7.878
REMARK INTER:                  -7.378
REMARK INTRA:                  -0.501
REMARK UNBOUND:                -0.501
REMARK SMILES O=c1ccn([C@H]2O[C@H](CO)[C@@H](O)[C@@H]2O)c(=O)[nH]1
REMARK SMILES IDX 6 1 13 2 11 3 8 4 7 5 5 6 3 7 4 8 2 9 17 10 1 11 15 12 16 14
REMARK SMILES IDX 14 15 12 17 9 19 10 20
REMARK H PARENT 17 13 14 16 12 18 10 21
REMARK Flexibility Score: inf
ROOT
ATOM      1  C   UNL     1      20.201 205.924  15.389  1.00  0.00     0.255 C 
ATOM      2  C   UNL     1      21.381 206.482  14.583  1.00  0.00     0.196 C 
ATOM      3  C   UNL     1      21.791 207.672  15.411  1.00  0.00     0.179 C 
ATOM      4  C   UNL     1      21.432 207.226  16.827  1.00  0.00     0.178 C 
ATOM      5  O   UNL     1      20.445 206.218  16.754  1.00  0.00    -0.347 OA
ENDROOT
BRANCH   1   6
ATOM      6  N   UNL     1      19.960 204.465  15.204  1.00  0.00    -0.271 N 
ATOM      7  C   UNL     1      20.427 202.170  15.767  1.00  0.00     0.090 A 
ATOM      8  C   UNL     1      20.627 203.533  15.962  1.00  0.00     0.099 A 
ATOM      9  C   UNL     1      19.569 201.760  14.758  1.00  0.00     0.253 A 
ATOM     10  N   UNL     1      18.963 202.686  13.975  1.00  0.00    -0.274 N 
ATOM     11  O   UNL     1      19.366 200.532  14.562  1.00  0.00    -0.269 OA
ATOM     12  C   UNL     1      19.166 204.019  14.168  1.00  0.00     0.330 A 
ATOM     13  H   UNL     1      18.339 202.369  13.196  1.00  0.00     0.175 HD
ATOM     14  O   UNL     1      18.626 204.836  13.371  1.00  0.00    -0.248 OA
ENDBRANCH   1   6
BRANCH   2  15
ATOM     15  O   UNL     1      20.975 206.878  13.299  1.00  0.00    -0.386 OA
ATOM     16  H   UNL     1      19.995 207.029  13.349  1.00  0.00     0.211 HD
ENDBRANCH   2  15
BRANCH   3  17
ATOM     17  O   UNL     1      23.156 207.988  15.269  1.00  0.00    -0.387 OA
ATOM     18  H   UNL     1      23.397 208.659  15.960  1.00  0.00     0.211 HD
ENDBRANCH   3  17
BRANCH   4  19
ATOM     19  C   UNL     1      20.936 208.384  17.701  1.00  0.00     0.191 C 
BRANCH  19  20
ATOM     20  O   UNL     1      21.910 208.738  18.644  1.00  0.00    -0.394 OA
ATOM     21  H   UNL     1      21.666 208.267  19.483  1.00  0.00     0.210 HD
ENDBRANCH  19  20
ENDBRANCH   4  19
TORSDOF 5
ENDMDL
MODEL 2
REMARK VINA RESULT:    -5.324      1.924      2.846
REMARK INTER + INTRA:          -6.913
REMARK INTER:                  -6.438
REMARK INTRA:                  -0.475
REMARK UNBOUND:                -0.501
REMARK SMILES O=c1ccn([C@H]2O[C@H](CO)[C@@H](O)[C@@H]2O)c(=O)[nH]1
REMARK SMILES IDX 6 1 13 2 11 3 8 4 7 5 5 6 3 7 4 8 2 9 17 10 1 11 15 12 16 14
REMARK SMILES IDX 14 15 12 17 9 19 10 20
REMARK H PARENT 17 13 14 16 12 18 10 21
REMARK Flexibility Score: inf
ROOT
ATOM      1  C   UNL     1      21.435 205.673  14.885  1.00  0.00     0.255 C 
ATOM      2  C   UNL     1      21.501 206.648  16.068  1.00  0.00     0.196 C 
ATOM      3  C   UNL     1      21.460 207.985  15.375  1.00  0.00     0.179 C 
ATOM      4  C   UNL     1      20.620 207.686  14.134  1.00  0.00     0.178 C 
ATOM      5  O   UNL     1      20.681 206.301  13.862  1.00  0.00    -0.347 OA
ENDROOT
BRANCH   1   6
ATOM      6  N   UNL     1      20.857 204.340  15.215  1.00  0.00    -0.271 N 
ATOM      7  C   UNL     1      19.199 202.980  16.313  1.00  0.00     0.090 A 
ATOM      8  C   UNL     1      19.719 204.226  15.978  1.00  0.00     0.099 A 
ATOM      9  C   UNL     1      19.874 201.843  15.899  1.00  0.00     0.253 A 
ATOM     10  N   UNL     1      21.029 201.965  15.199  1.00  0.00    -0.274 N 
ATOM     11  O   UNL     1      19.424 200.701  16.185  1.00  0.00    -0.269 OA
ATOM     12  C   UNL     1      21.536 203.187  14.877  1.00  0.00     0.330 A 
ATOM     13  H   UNL     1      21.549 201.102  14.914  1.00  0.00     0.175 HD
ATOM     14  O   UNL     1      22.646 203.244  14.279  1.00  0.00    -0.248 OA
ENDBRANCH   1   6
BRANCH   2  15
ATOM     15  O   UNL     1      22.696 206.490  16.787  1.00  0.00    -0.386 OA
ATOM     16  H   UNL     1      22.905 205.520  16.773  1.00  0.00     0.211 HD
ENDBRANCH   2  15
BRANCH   3  17
ATOM     17  O   UNL     1      20.903 208.998  16.179  1.00  0.00    -0.387 OA
ATOM     18  H   UNL     1      20.348 209.586  15.603  1.00  0.00     0.211 HD
ENDBRANCH   3  17
BRANCH   4  19
ATOM     19  C   UNL     1      21.077 208.484  12.907  1.00  0.00     0.191 C 
BRANCH  19  20
ATOM     20  O   UNL     1      22.297 209.122  13.165  1.00  0.00    -0.394 OA
ATOM     21  H   UNL     1      23.005 208.460  12.952  1.00  0.00     0.210 HD
ENDBRANCH  19  20
ENDBRANCH   4  19
TORSDOF 5
ENDMDL
MODEL 3
REMARK VINA RESULT:    -5.297      1.807      5.902
REMARK INTER + INTRA:          -6.881
REMARK INTER:                  -6.236
REMARK INTRA:                  -0.645
REMARK UNBOUND:                -0.501
REMARK SMILES O=c1ccn([C@H]2O[C@H](CO)[C@@H](O)[C@@H]2O)c(=O)[nH]1
REMARK SMILES IDX 6 1 13 2 11 3 8 4 7 5 5 6 3 7 4 8 2 9 17 10 1 11 15 12 16 14
REMARK SMILES IDX 14 15 12 17 9 19 10 20
REMARK H PARENT 17 13 14 16 12 18 10 21
REMARK Flexibility Score: inf
ROOT
ATOM      1  C   UNL     1      19.601 204.525  15.299  1.00  0.00     0.255 C 
ATOM      2  C   UNL     1      19.612 203.477  16.419  1.00  0.00     0.196 C 
ATOM      3  C   UNL     1      19.379 202.199  15.655  1.00  0.00     0.179 C 
ATOM      4  C   UNL     1      20.035 202.498  14.308  1.00  0.00     0.178 C 
ATOM      5  O   UNL     1      20.097 203.897  14.128  1.00  0.00    -0.347 OA
ENDROOT
BRANCH   1   6
ATOM      6  N   UNL     1      20.380 205.759  15.599  1.00  0.00    -0.271 N 
ATOM      7  C   UNL     1      22.431 207.021  15.522  1.00  0.00     0.090 A 
ATOM      8  C   UNL     1      21.694 205.883  15.213  1.00  0.00     0.099 A 
ATOM      9  C   UNL     1      21.829 208.023  16.268  1.00  0.00     0.253 A 
ATOM     10  N   UNL     1      20.551 207.866  16.696  1.00  0.00    -0.274 N 
ATOM     11  O   UNL     1      22.471 209.067  16.559  1.00  0.00    -0.269 OA
ATOM     12  C   UNL     1      19.837 206.747  16.394  1.00  0.00     0.330 A 
ATOM     13  H   UNL     1      20.113 208.613  17.283  1.00  0.00     0.175 HD
ATOM     14  O   UNL     1      18.674 206.624  16.870  1.00  0.00    -0.248 OA
ENDBRANCH   1   6
BRANCH   2  15
ATOM     15  O   UNL     1      18.579 203.710  17.340  1.00  0.00    -0.386 OA
ATOM     16  H   UNL     1      17.731 203.666  16.826  1.00  0.00     0.211 HD
ENDBRANCH   2  15
BRANCH   3  17
ATOM     17  O   UNL     1      19.936 201.075  16.295  1.00  0.00    -0.387 OA
ATOM     18  H   UNL     1      20.536 201.390  17.020  1.00  0.00     0.211 HD
ENDBRANCH   3  17
BRANCH   4  19
ATOM     19  C   UNL     1      19.292 201.849  13.134  1.00  0.00     0.191 C 
BRANCH  19  20
ATOM     20  O   UNL     1      18.869 200.558  13.476  1.00  0.00    -0.394 OA
ATOM     21  H   UNL     1      18.639 200.108  12.622  1.00  0.00     0.210 HD
ENDBRANCH  19  20
ENDBRANCH   4  19
TORSDOF 5
ENDMDL
MODEL 4
REMARK VINA RESULT:    -5.241      3.057      5.207
REMARK INTER + INTRA:          -6.814
REMARK INTER:                  -6.502
REMARK INTRA:                  -0.312
REMARK UNBOUND:                -0.501
REMARK SMILES O=c1ccn([C@H]2O[C@H](CO)[C@@H](O)[C@@H]2O)c(=O)[nH]1
REMARK SMILES IDX 6 1 13 2 11 3 8 4 7 5 5 6 3 7 4 8 2 9 17 10 1 11 15 12 16 14
REMARK SMILES IDX 14 15 12 17 9 19 10 20
REMARK H PARENT 17 13 14 16 12 18 10 21
REMARK Flexibility Score: inf
ROOT
ATOM      1  C   UNL     1      20.084 206.181  14.469  1.00  0.00     0.255 C 
ATOM      2  C   UNL     1      21.454 205.493  14.443  1.00  0.00     0.196 C 
ATOM      3  C   UNL     1      21.235 204.321  15.364  1.00  0.00     0.179 C 
ATOM      4  C   UNL     1      19.753 204.013  15.156  1.00  0.00     0.178 C 
ATOM      5  O   UNL     1      19.108 205.171  14.668  1.00  0.00    -0.347 OA
ENDROOT
BRANCH   1   6
ATOM      6  N   UNL     1      19.769 206.978  13.250  1.00  0.00    -0.271 N 
ATOM      7  C   UNL     1      18.652 207.224  11.129  1.00  0.00     0.090 A 
ATOM      8  C   UNL     1      18.920 206.494  12.283  1.00  0.00     0.099 A 
ATOM      9  C   UNL     1      19.292 208.441  10.947  1.00  0.00     0.253 A 
ATOM     10  N   UNL     1      20.173 208.882  11.878  1.00  0.00    -0.274 N 
ATOM     11  O   UNL     1      19.064 209.125   9.914  1.00  0.00    -0.269 OA
ATOM     12  C   UNL     1      20.435 208.161  13.003  1.00  0.00     0.330 A 
ATOM     13  H   UNL     1      20.674 209.788  11.720  1.00  0.00     0.175 HD
ATOM     14  O   UNL     1      21.311 208.588  13.806  1.00  0.00    -0.248 OA
ENDBRANCH   1   6
BRANCH   2  15
ATOM     15  O   UNL     1      22.457 206.342  14.938  1.00  0.00    -0.386 OA
ATOM     16  H   UNL     1      23.286 206.114  14.444  1.00  0.00     0.211 HD
ENDBRANCH   2  15
BRANCH   3  17
ATOM     17  O   UNL     1      22.066 203.226  15.059  1.00  0.00    -0.387 OA
ATOM     18  H   UNL     1      23.008 203.539  15.051  1.00  0.00     0.211 HD
ENDBRANCH   3  17
BRANCH   4  19
ATOM     19  C   UNL     1      19.066 203.531  16.439  1.00  0.00     0.191 C 
BRANCH  19  20
ATOM     20  O   UNL     1      17.880 204.244  16.657  1.00  0.00    -0.394 OA
ATOM     21  H   UNL     1      17.480 203.868  17.485  1.00  0.00     0.210 HD
ENDBRANCH  19  20
ENDBRANCH   4  19
TORSDOF 5
ENDMDL
MODEL 5
REMARK VINA RESULT:    -5.216      1.793      2.224
REMARK INTER + INTRA:          -6.784
REMARK INTER:                  -6.763
REMARK INTRA:                  -0.021
REMARK UNBOUND:                -0.501
REMARK SMILES O=c1ccn([C@H]2O[C@H](CO)[C@@H](O)[C@@H]2O)c(=O)[nH]1
REMARK SMILES IDX 6 1 13 2 11 3 8 4 7 5 5 6 3 7 4 8 2 9 17 10 1 11 15 12 16 14
REMARK SMILES IDX 14 15 12 17 9 19 10 20
REMARK H PARENT 17 13 14 16 12 18 10 21
REMARK Flexibility Score: inf
ROOT
ATOM      1  C   UNL     1      20.385 204.804  15.066  1.00  0.00     0.255 C 
ATOM      2  C   UNL     1      21.836 205.238  15.307  1.00  0.00     0.196 C 
ATOM      3  C   UNL     1      21.658 206.606  15.913  1.00  0.00     0.179 C 
ATOM      4  C   UNL     1      20.327 206.467  16.650  1.00  0.00     0.178 C 
ATOM      5  O   UNL     1      19.590 205.410  16.071  1.00  0.00    -0.347 OA
ENDROOT
BRANCH   1   6
ATOM      6  N   UNL     1      20.175 203.329  15.054  1.00  0.00    -0.271 N 
ATOM      7  C   UNL     1      19.211 201.351  14.072  1.00  0.00     0.090 A 
ATOM      8  C   UNL     1      19.436 202.724  14.065  1.00  0.00     0.099 A 
ATOM      9  C   UNL     1      19.714 200.599  15.123  1.00  0.00     0.253 A 
ATOM     10  N   UNL     1      20.390 201.213  16.125  1.00  0.00    -0.274 N 
ATOM     11  O   UNL     1      19.529 199.353  15.152  1.00  0.00    -0.269 OA
ATOM     12  C   UNL     1      20.602 202.558  16.115  1.00  0.00     0.330 A 
ATOM     13  H   UNL     1      20.742 200.643  16.929  1.00  0.00     0.175 HD
ATOM     14  O   UNL     1      21.183 203.086  17.103  1.00  0.00    -0.248 OA
ENDBRANCH   1   6
BRANCH   2  15
ATOM     15  O   UNL     1      22.550 205.310  14.100  1.00  0.00    -0.386 OA
ATOM     16  H   UNL     1      22.910 204.401  13.933  1.00  0.00     0.211 HD
ENDBRANCH   2  15
BRANCH   3  17
ATOM     17  O   UNL     1      22.719 206.965  16.767  1.00  0.00    -0.387 OA
ATOM     18  H   UNL     1      22.554 207.884  17.103  1.00  0.00     0.211 HD
ENDBRANCH   3  17
BRANCH   4  19
ATOM     19  C   UNL     1      19.502 207.759  16.624  1.00  0.00     0.191 C 
BRANCH  19  20
ATOM     20  O   UNL     1      20.343 208.875  16.529  1.00  0.00    -0.394 OA
ATOM     21  H   UNL     1      20.024 209.519  17.215  1.00  0.00     0.210 HD
ENDBRANCH  19  20
ENDBRANCH   4  19
TORSDOF 5
ENDMDL
MODEL 6
REMARK VINA RESULT:    -5.211      2.058      5.574
REMARK INTER + INTRA:          -6.778
REMARK INTER:                  -6.787
REMARK INTRA:                   0.009
REMARK UNBOUND:                -0.501
REMARK SMILES O=c1ccn([C@H]2O[C@H](CO)[C@@H](O)[C@@H]2O)c(=O)[nH]1
REMARK SMILES IDX 6 1 13 2 11 3 8 4 7 5 5 6 3 7 4 8 2 9 17 10 1 11 15 12 16 14
REMARK SMILES IDX 14 15 12 17 9 19 10 20
REMARK H PARENT 17 13 14 16 12 18 10 21
REMARK Flexibility Score: inf
ROOT
ATOM      1  C   UNL     1      21.046 204.674  14.678  1.00  0.00     0.255 C 
ATOM      2  C   UNL     1      19.554 204.963  14.884  1.00  0.00     0.196 C 
ATOM      3  C   UNL     1      19.081 203.705  15.564  1.00  0.00     0.179 C 
ATOM      4  C   UNL     1      20.320 203.268  16.345  1.00  0.00     0.178 C 
ATOM      5  O   UNL     1      21.465 203.836  15.743  1.00  0.00    -0.347 OA
ENDROOT
BRANCH   1   6
ATOM      6  N   UNL     1      21.906 205.888  14.600  1.00  0.00    -0.271 N 
ATOM      7  C   UNL     1      23.589 207.204  13.485  1.00  0.00     0.090 A 
ATOM      8  C   UNL     1      22.761 206.087  13.542  1.00  0.00     0.099 A 
ATOM      9  C   UNL     1      23.570 208.101  14.542  1.00  0.00     0.253 A 
ATOM     10  N   UNL     1      22.769 207.865  15.610  1.00  0.00    -0.274 N 
ATOM     11  O   UNL     1      24.306 209.124  14.516  1.00  0.00    -0.269 OA
ATOM     12  C   UNL     1      21.964 206.768  15.662  1.00  0.00     0.330 A 
ATOM     13  H   UNL     1      22.781 208.531  16.417  1.00  0.00     0.175 HD
ATOM     14  O   UNL     1      21.285 206.563  16.706  1.00  0.00    -0.248 OA
ENDBRANCH   1   6
BRANCH   2  15
ATOM     15  O   UNL     1      18.900 205.149  13.656  1.00  0.00    -0.386 OA
ATOM     16  H   UNL     1      18.134 204.518  13.648  1.00  0.00     0.211 HD
ENDBRANCH   2  15
BRANCH   3  17
ATOM     17  O   UNL     1      17.964 203.922  16.394  1.00  0.00    -0.387 OA
ATOM     18  H   UNL     1      18.217 203.699  17.327  1.00  0.00     0.211 HD
ENDBRANCH   3  17
BRANCH   4  19
ATOM     19  C   UNL     1      20.465 201.744  16.415  1.00  0.00     0.191 C 
BRANCH  19  20
ATOM     20  O   UNL     1      19.400 201.120  15.753  1.00  0.00    -0.394 OA
ATOM     21  H   UNL     1      18.919 201.839  15.265  1.00  0.00     0.210 HD
ENDBRANCH  19  20
ENDBRANCH   4  19
TORSDOF 5
ENDMDL
MODEL 7
REMARK VINA RESULT:    -5.071      2.373      5.609
REMARK INTER + INTRA:          -6.609
REMARK INTER:                  -6.121
REMARK INTRA:                  -0.488
REMARK UNBOUND:                -0.501
REMARK SMILES O=c1ccn([C@H]2O[C@H](CO)[C@@H](O)[C@@H]2O)c(=O)[nH]1
REMARK SMILES IDX 6 1 13 2 11 3 8 4 7 5 5 6 3 7 4 8 2 9 17 10 1 11 15 12 16 14
REMARK SMILES IDX 14 15 12 17 9 19 10 20
REMARK H PARENT 17 13 14 16 12 18 10 21
REMARK Flexibility Score: inf
ROOT
ATOM      1  C   UNL     1      19.302 204.290  14.539  1.00  0.00     0.255 C 
ATOM      2  C   UNL     1      19.677 204.042  16.005  1.00  0.00     0.196 C 
ATOM      3  C   UNL     1      19.667 202.538  16.082  1.00  0.00     0.179 C 
ATOM      4  C   UNL     1      20.086 202.134  14.669  1.00  0.00     0.178 C 
ATOM      5  O   UNL     1      19.800 203.198  13.784  1.00  0.00    -0.347 OA
ENDROOT
BRANCH   1   6
ATOM      6  N   UNL     1      19.800 205.580  13.982  1.00  0.00    -0.271 N 
ATOM      7  C   UNL     1      21.220 207.521  14.121  1.00  0.00     0.090 A 
ATOM      8  C   UNL     1      20.779 206.301  14.623  1.00  0.00     0.099 A 
ATOM      9  C   UNL     1      20.624 208.024  12.975  1.00  0.00     0.253 A 
ATOM     10  N   UNL     1      19.617 207.335  12.383  1.00  0.00    -0.274 N 
ATOM     11  O   UNL     1      21.006 209.125  12.495  1.00  0.00    -0.269 OA
ATOM     12  C   UNL     1      19.186 206.144  12.882  1.00  0.00     0.330 A 
ATOM     13  H   UNL     1      19.152 207.735  11.535  1.00  0.00     0.175 HD
ATOM     14  O   UNL     1      18.204 205.575  12.329  1.00  0.00    -0.248 OA
ENDBRANCH   1   6
BRANCH   2  15
ATOM     15  O   UNL     1      18.724 204.598  16.872  1.00  0.00    -0.386 OA
ATOM     16  H   UNL     1      18.400 205.429  16.437  1.00  0.00     0.211 HD
ENDBRANCH   2  15
BRANCH   3  17
ATOM     17  O   UNL     1      20.536 202.038  17.071  1.00  0.00    -0.387 OA
ATOM     18  H   UNL     1      20.862 202.800  17.617  1.00  0.00     0.211 HD
ENDBRANCH   3  17
BRANCH   4  19
ATOM     19  C   UNL     1      19.392 200.853  14.192  1.00  0.00     0.191 C 
BRANCH  19  20
ATOM     20  O   UNL     1      19.430 199.874  15.193  1.00  0.00    -0.394 OA
ATOM     21  H   UNL     1      20.325 199.450  15.130  1.00  0.00     0.210 HD
ENDBRANCH  19  20
ENDBRANCH   4  19
TORSDOF 5
ENDMDL
MODEL 8
REMARK VINA RESULT:    -4.673      2.382      5.747
REMARK INTER + INTRA:          -6.130
REMARK INTER:                  -6.229
REMARK INTRA:                   0.099
REMARK UNBOUND:                -0.501
REMARK SMILES O=c1ccn([C@H]2O[C@H](CO)[C@@H](O)[C@@H]2O)c(=O)[nH]1
REMARK SMILES IDX 6 1 13 2 11 3 8 4 7 5 5 6 3 7 4 8 2 9 17 10 1 11 15 12 16 14
REMARK SMILES IDX 14 15 12 17 9 19 10 20
REMARK H PARENT 17 13 14 16 12 18 10 21
REMARK Flexibility Score: inf
ROOT
ATOM      1  C   UNL     1      19.207 204.485  14.396  1.00  0.00     0.255 C 
ATOM      2  C   UNL     1      19.517 204.306  15.887  1.00  0.00     0.196 C 
ATOM      3  C   UNL     1      19.528 202.806  16.029  1.00  0.00     0.179 C 
ATOM      4  C   UNL     1      20.020 202.351  14.655  1.00  0.00     0.178 C 
ATOM      5  O   UNL     1      19.758 203.371  13.714  1.00  0.00    -0.347 OA
ENDROOT
BRANCH   1   6
ATOM      6  N   UNL     1      19.709 205.758  13.807  1.00  0.00    -0.271 N 
ATOM      7  C   UNL     1      19.487 207.589  12.257  1.00  0.00     0.090 A 
ATOM      8  C   UNL     1      19.002 206.417  12.830  1.00  0.00     0.099 A 
ATOM      9  C   UNL     1      20.726 208.064  12.660  1.00  0.00     0.253 A 
ATOM     10  N   UNL     1      21.443 207.374  13.580  1.00  0.00    -0.274 N 
ATOM     11  O   UNL     1      21.187 209.125  12.161  1.00  0.00    -0.269 OA
ATOM     12  C   UNL     1      20.965 206.226  14.134  1.00  0.00     0.330 A 
ATOM     13  H   UNL     1      22.390 207.723  13.858  1.00  0.00     0.175 HD
ATOM     14  O   UNL     1      21.700 205.590  14.940  1.00  0.00    -0.248 OA
ENDBRANCH   1   6
BRANCH   2  15
ATOM     15  O   UNL     1      18.514 204.880  16.685  1.00  0.00    -0.386 OA
ATOM     16  H   UNL     1      17.722 204.996  16.099  1.00  0.00     0.211 HD
ENDBRANCH   2  15
BRANCH   3  17
ATOM     17  O   UNL     1      20.357 202.365  17.077  1.00  0.00    -0.387 OA
ATOM     18  H   UNL     1      20.470 203.110  17.724  1.00  0.00     0.211 HD
ENDBRANCH   3  17
BRANCH   4  19
ATOM     19  C   UNL     1      19.369 201.038  14.202  1.00  0.00     0.191 C 
BRANCH  19  20
ATOM     20  O   UNL     1      19.468 200.070  15.210  1.00  0.00    -0.394 OA
ATOM     21  H   UNL     1      19.361 199.192  14.760  1.00  0.00     0.210 HD
ENDBRANCH  19  20
ENDBRANCH   4  19
TORSDOF 5
ENDMDL
MODEL 9
REMARK VINA RESULT:    -4.237      1.688      2.638
REMARK INTER + INTRA:          -5.605
REMARK INTER:                  -5.050
REMARK INTRA:                  -0.555
REMARK UNBOUND:                -0.501
REMARK SMILES O=c1ccn([C@H]2O[C@H](CO)[C@@H](O)[C@@H]2O)c(=O)[nH]1
REMARK SMILES IDX 6 1 13 2 11 3 8 4 7 5 5 6 3 7 4 8 2 9 17 10 1 11 15 12 16 14
REMARK SMILES IDX 14 15 12 17 9 19 10 20
REMARK H PARENT 17 13 14 16 12 18 10 21
REMARK Flexibility Score: inf
ROOT
ATOM      1  C   UNL     1      20.996 205.450  15.528  1.00  0.00     0.255 C 
ATOM      2  C   UNL     1      19.919 206.528  15.699  1.00  0.00     0.196 C 
ATOM      3  C   UNL     1      20.699 207.793  15.453  1.00  0.00     0.179 C 
ATOM      4  C   UNL     1      21.765 207.333  14.459  1.00  0.00     0.178 C 
ATOM      5  O   UNL     1      21.934 205.937  14.583  1.00  0.00    -0.347 OA
ENDROOT
BRANCH   1   6
ATOM      6  N   UNL     1      20.477 204.117  15.109  1.00  0.00    -0.271 N 
ATOM      7  C   UNL     1      19.005 202.761  13.767  1.00  0.00     0.090 A 
ATOM      8  C   UNL     1      19.514 204.003  14.134  1.00  0.00     0.099 A 
ATOM      9  C   UNL     1      19.457 201.633  14.433  1.00  0.00     0.253 A 
ATOM     10  N   UNL     1      20.362 201.761  15.435  1.00  0.00    -0.274 N 
ATOM     11  O   UNL     1      19.017 200.495  14.118  1.00  0.00    -0.269 OA
ATOM     12  C   UNL     1      20.853 202.980  15.793  1.00  0.00     0.330 A 
ATOM     13  H   UNL     1      20.677 200.908  15.953  1.00  0.00     0.175 HD
ATOM     14  O   UNL     1      21.646 203.049  16.773  1.00  0.00    -0.248 OA
ENDBRANCH   1   6
BRANCH   2  15
ATOM     15  O   UNL     1      19.385 206.509  16.997  1.00  0.00    -0.386 OA
ATOM     16  H   UNL     1      18.429 206.758  16.911  1.00  0.00     0.211 HD
ENDBRANCH   2  15
BRANCH   3  17
ATOM     17  O   UNL     1      19.898 208.836  14.948  1.00  0.00    -0.387 OA
ATOM     18  H   UNL     1      19.464 208.523  14.112  1.00  0.00     0.211 HD
ENDBRANCH   3  17
BRANCH   4  19
ATOM     19  C   UNL     1      23.107 208.046  14.664  1.00  0.00     0.191 C 
BRANCH  19  20
ATOM     20  O   UNL     1      22.958 209.125  15.545  1.00  0.00    -0.394 OA
ATOM     21  H   UNL     1      22.199 209.662  15.197  1.00  0.00     0.210 HD
ENDBRANCH  19  20
ENDBRANCH   4  19
TORSDOF 5
ENDMDL
