MODEL 1
REMARK VINA RESULT:    -6.537      0.000      0.000
REMARK INTER + INTRA:         -11.426
REMARK INTER:                 -10.168
REMARK INTRA:                  -1.258
REMARK UNBOUND:                -1.258
REMARK SMILES C[C@@]12C[C@@]3(O)O[C@@H](O1)[C@]1(COC(=O)c4ccccc4)[C@H]3C[C@@]12O[C@H]1O[C@H](CO)[C@H](O)[C@@H](O)[C@H]1O
REMARK SMILES IDX 1 1 2 2 3 3 4 4 20 5 21 6 22 7 9 8 7 9 8 10 6 11 23 12 24 13
REMARK SMILES IDX 33 14 25 15 31 16 26 17 29 18 34 19 32 21 27 23 28 24 30 26
REMARK SMILES IDX 5 28 10 30 11 31 12 32 13 33 14 34 15 35 19 36 16 37 18 38
REMARK SMILES IDX 17 39
REMARK H PARENT 34 20 32 22 28 25 30 27 5 29
REMARK Flexibility Score: inf
ROOT
ATOM      1  C   UNL     1     100.804  44.627 133.948  1.00  0.00     0.046 C 
ATOM      2  C   UNL     1     100.089  45.745 133.188  1.00  0.00     0.104 C 
ATOM      3  C   UNL     1      99.742  45.316 131.717  1.00  0.00     0.104 C 
ATOM      4  C   UNL     1      99.124  46.618 131.096  1.00  0.00     0.175 C 
ATOM      5  C   UNL     1     100.045  47.845 131.386  1.00  0.00     0.070 C 
ATOM      6  C   UNL     1     101.478  47.441 131.792  1.00  0.00     0.050 C 
ATOM      7  C   UNL     1     100.874  47.110 133.186  1.00  0.00     0.115 C 
ATOM      8  C   UNL     1      99.699  48.031 132.862  1.00  0.00     0.096 C 
ATOM      9  C   UNL     1      98.434  47.229 133.116  1.00  0.00     0.267 C 
ATOM     10  O   UNL     1      98.850  46.054 133.795  1.00  0.00    -0.342 OA
ATOM     11  O   UNL     1      97.943  46.879 131.832  1.00  0.00    -0.320 OA
ENDROOT
BRANCH   7  12
ATOM     12  O   UNL     1     101.511  47.375 134.437  1.00  0.00    -0.339 OA
BRANCH  12  13
ATOM     13  C   UNL     1     102.802  47.967 134.403  1.00  0.00     0.282 C 
ATOM     14  C   UNL     1     103.831  47.156 135.232  1.00  0.00     0.202 C 
ATOM     15  O   UNL     1     102.727  49.307 134.869  1.00  0.00    -0.341 OA
ATOM     16  C   UNL     1     103.558  47.260 136.748  1.00  0.00     0.179 C 
ATOM     17  C   UNL     1     102.300  49.370 136.221  1.00  0.00     0.178 C 
ATOM     18  C   UNL     1     103.351  48.730 137.152  1.00  0.00     0.177 C 
BRANCH  14  19
ATOM     19  O   UNL     1     103.833  45.812 134.830  1.00  0.00    -0.385 OA
ATOM     20  H   UNL     1     104.612  45.695 134.226  1.00  0.00     0.211 HD
ENDBRANCH  14  19
BRANCH  16  21
ATOM     21  O   UNL     1     102.425  46.500 137.083  1.00  0.00    -0.387 OA
ATOM     22  H   UNL     1     102.020  46.195 136.229  1.00  0.00     0.211 HD
ENDBRANCH  16  21
BRANCH  17  23
ATOM     23  C   UNL     1     102.011  50.832 136.593  1.00  0.00     0.191 C 
BRANCH  23  24
ATOM     24  O   UNL     1     103.106  51.658 136.289  1.00  0.00    -0.394 OA
ATOM     25  H   UNL     1     103.921  51.096 136.342  1.00  0.00     0.210 HD
ENDBRANCH  23  24
ENDBRANCH  17  23
BRANCH  18  26
ATOM     26  O   UNL     1     104.575  49.415 137.052  1.00  0.00    -0.387 OA
ATOM     27  H   UNL     1     105.178  48.855 136.499  1.00  0.00     0.211 HD
ENDBRANCH  18  26
ENDBRANCH  12  13
ENDBRANCH   7  12
BRANCH   4  28
ATOM     28  O   UNL     1      98.859  46.489 129.726  1.00  0.00    -0.365 OA
ATOM     29  H   UNL     1      98.581  47.386 129.405  1.00  0.00     0.214 HD
ENDBRANCH   4  28
BRANCH   8  30
ATOM     30  C   UNL     1      99.733  49.474 133.407  1.00  0.00     0.249 C 
BRANCH  30  31
ATOM     31  O   UNL     1      98.999  50.351 132.555  1.00  0.00    -0.461 OA
BRANCH  31  32
ATOM     32  C   UNL     1      99.352  51.683 132.308  1.00  0.00     0.338 C 
ATOM     33  O   UNL     1      98.590  52.623 132.668  1.00  0.00    -0.246 OA
BRANCH  32  34
ATOM     34  C   UNL     1     100.615  51.984 131.600  1.00  0.00     0.060 A 
ATOM     35  C   UNL     1     101.457  53.011 132.060  1.00  0.00     0.015 A 
ATOM     36  C   UNL     1     100.995  51.248 130.461  1.00  0.00     0.015 A 
ATOM     37  C   UNL     1     102.659  53.289 131.399  1.00  0.00     0.001 A 
ATOM     38  C   UNL     1     102.201  51.528 129.808  1.00  0.00     0.001 A 
ATOM     39  C   UNL     1     103.031  52.548 130.276  1.00  0.00     0.000 A 
ENDBRANCH  32  34
ENDBRANCH  31  32
ENDBRANCH  30  31
ENDBRANCH   8  30
TORSDOF 12
ENDMDL
MODEL 2
REMARK VINA RESULT:    -6.447      7.438     11.770
REMARK INTER + INTRA:         -11.285
REMARK INTER:                  -9.362
REMARK INTRA:                  -1.923
REMARK UNBOUND:                -1.258
REMARK SMILES C[C@@]12C[C@@]3(O)O[C@@H](O1)[C@]1(COC(=O)c4ccccc4)[C@H]3C[C@@]12O[C@H]1O[C@H](CO)[C@H](O)[C@@H](O)[C@H]1O
REMARK SMILES IDX 1 1 2 2 3 3 4 4 20 5 21 6 22 7 9 8 7 9 8 10 6 11 23 12 24 13
REMARK SMILES IDX 33 14 25 15 31 16 26 17 29 18 34 19 32 21 27 23 28 24 30 26
REMARK SMILES IDX 5 28 10 30 11 31 12 32 13 33 14 34 15 35 19 36 16 37 18 38
REMARK SMILES IDX 17 39
REMARK H PARENT 34 20 32 22 28 25 30 27 5 29
REMARK Flexibility Score: inf
ROOT
ATOM      1  C   UNL     1     105.201  46.168 137.628  1.00  0.00     0.046 C 
ATOM      2  C   UNL     1     106.473  46.074 138.472  1.00  0.00     0.104 C 
ATOM      3  C   UNL     1     106.998  47.496 138.888  1.00  0.00     0.104 C 
ATOM      4  C   UNL     1     108.339  47.180 139.639  1.00  0.00     0.175 C 
ATOM      5  C   UNL     1     109.218  46.208 138.790  1.00  0.00     0.070 C 
ATOM      6  C   UNL     1     108.795  46.150 137.308  1.00  0.00     0.050 C 
ATOM      7  C   UNL     1     107.625  45.246 137.789  1.00  0.00     0.115 C 
ATOM      8  C   UNL     1     108.431  44.925 139.047  1.00  0.00     0.096 C 
ATOM      9  C   UNL     1     107.520  45.203 140.230  1.00  0.00     0.267 C 
ATOM     10  O   UNL     1     106.223  45.392 139.686  1.00  0.00    -0.342 OA
ATOM     11  O   UNL     1     107.980  46.426 140.783  1.00  0.00    -0.320 OA
ENDROOT
BRANCH   7  12
ATOM     12  O   UNL     1     107.133  44.103 137.088  1.00  0.00    -0.339 OA
BRANCH  12  13
ATOM     13  C   UNL     1     107.516  43.953 135.728  1.00  0.00     0.282 C 
ATOM     14  C   UNL     1     106.382  43.330 134.874  1.00  0.00     0.202 C 
ATOM     15  O   UNL     1     108.696  43.165 135.647  1.00  0.00    -0.341 OA
ATOM     16  C   UNL     1     106.149  41.845 135.224  1.00  0.00     0.179 C 
ATOM     17  C   UNL     1     108.487  41.853 136.144  1.00  0.00     0.178 C 
ATOM     18  C   UNL     1     107.488  41.087 135.252  1.00  0.00     0.177 C 
BRANCH  14  19
ATOM     19  O   UNL     1     105.194  44.059 135.033  1.00  0.00    -0.385 OA
ATOM     20  H   UNL     1     105.413  45.008 134.842  1.00  0.00     0.211 HD
ENDBRANCH  14  19
BRANCH  16  21
ATOM     21  O   UNL     1     105.507  41.742 136.469  1.00  0.00    -0.387 OA
ATOM     22  H   UNL     1     104.531  41.709 136.288  1.00  0.00     0.211 HD
ENDBRANCH  16  21
BRANCH  17  23
ATOM     23  C   UNL     1     109.839  41.131 136.251  1.00  0.00     0.191 C 
BRANCH  23  24
ATOM     24  O   UNL     1     109.733  39.793 135.836  1.00  0.00    -0.394 OA
ATOM     25  H   UNL     1     110.093  39.743 134.913  1.00  0.00     0.210 HD
ENDBRANCH  23  24
ENDBRANCH  17  23
BRANCH  18  26
ATOM     26  O   UNL     1     107.986  40.980 133.940  1.00  0.00    -0.387 OA
ATOM     27  H   UNL     1     107.332  40.444 133.423  1.00  0.00     0.211 HD
ENDBRANCH  18  26
ENDBRANCH  12  13
ENDBRANCH   7  12
BRANCH   4  28
ATOM     28  O   UNL     1     109.048  48.338 139.989  1.00  0.00    -0.365 OA
ATOM     29  H   UNL     1     109.329  48.766 139.139  1.00  0.00     0.214 HD
ENDBRANCH   4  28
BRANCH   8  30
ATOM     30  C   UNL     1     109.236  43.609 139.079  1.00  0.00     0.249 C 
BRANCH  30  31
ATOM     31  O   UNL     1     108.662  42.691 140.007  1.00  0.00    -0.461 OA
BRANCH  31  32
ATOM     32  C   UNL     1     108.744  41.298 139.886  1.00  0.00     0.338 C 
ATOM     33  O   UNL     1     109.844  40.706 140.062  1.00  0.00    -0.246 OA
BRANCH  32  34
ATOM     34  C   UNL     1     107.536  40.525 139.526  1.00  0.00     0.060 A 
ATOM     35  C   UNL     1     106.270  40.940 139.975  1.00  0.00     0.015 A 
ATOM     36  C   UNL     1     107.632  39.368 138.730  1.00  0.00     0.015 A 
ATOM     37  C   UNL     1     105.124  40.217 139.624  1.00  0.00     0.001 A 
ATOM     38  C   UNL     1     106.482  38.652 138.380  1.00  0.00     0.001 A 
ATOM     39  C   UNL     1     105.229  39.076 138.827  1.00  0.00     0.000 A 
ENDBRANCH  32  34
ENDBRANCH  31  32
ENDBRANCH  30  31
ENDBRANCH   8  30
TORSDOF 12
ENDMDL
MODEL 3
REMARK VINA RESULT:    -6.404      5.586     10.502
REMARK INTER + INTRA:         -11.218
REMARK INTER:                  -9.739
REMARK INTRA:                  -1.479
REMARK UNBOUND:                -1.258
REMARK SMILES C[C@@]12C[C@@]3(O)O[C@@H](O1)[C@]1(COC(=O)c4ccccc4)[C@H]3C[C@@]12O[C@H]1O[C@H](CO)[C@H](O)[C@@H](O)[C@H]1O
REMARK SMILES IDX 1 1 2 2 3 3 4 4 20 5 21 6 22 7 9 8 7 9 8 10 6 11 23 12 24 13
REMARK SMILES IDX 33 14 25 15 31 16 26 17 29 18 34 19 32 21 27 23 28 24 30 26
REMARK SMILES IDX 5 28 10 30 11 31 12 32 13 33 14 34 15 35 19 36 16 37 18 38
REMARK SMILES IDX 17 39
REMARK H PARENT 34 20 32 22 28 25 30 27 5 29
REMARK Flexibility Score: inf
ROOT
ATOM      1  C   UNL     1     106.143  43.398 140.139  1.00  0.00     0.046 C 
ATOM      2  C   UNL     1     107.161  44.065 139.212  1.00  0.00     0.104 C 
ATOM      3  C   UNL     1     107.936  45.222 139.940  1.00  0.00     0.104 C 
ATOM      4  C   UNL     1     108.832  45.828 138.803  1.00  0.00     0.175 C 
ATOM      5  C   UNL     1     107.974  46.105 137.529  1.00  0.00     0.070 C 
ATOM      6  C   UNL     1     106.459  46.143 137.817  1.00  0.00     0.050 C 
ATOM      7  C   UNL     1     106.538  44.591 137.864  1.00  0.00     0.115 C 
ATOM      8  C   UNL     1     107.828  44.663 137.048  1.00  0.00     0.096 C 
ATOM      9  C   UNL     1     108.865  43.847 137.801  1.00  0.00     0.267 C 
ATOM     10  O   UNL     1     108.152  43.142 138.804  1.00  0.00    -0.342 OA
ATOM     11  O   UNL     1     109.722  44.797 138.415  1.00  0.00    -0.320 OA
ENDROOT
BRANCH   7  12
ATOM     12  O   UNL     1     105.549  43.705 137.338  1.00  0.00    -0.339 OA
BRANCH  12  13
ATOM     13  C   UNL     1     104.192  43.970 137.664  1.00  0.00     0.282 C 
ATOM     14  C   UNL     1     103.273  42.765 137.338  1.00  0.00     0.202 C 
ATOM     15  O   UNL     1     103.754  45.135 136.977  1.00  0.00    -0.341 OA
ATOM     16  C   UNL     1     103.120  42.554 135.816  1.00  0.00     0.179 C 
ATOM     17  C   UNL     1     103.794  44.962 135.569  1.00  0.00     0.178 C 
ATOM     18  C   UNL     1     102.781  43.887 135.125  1.00  0.00     0.177 C 
BRANCH  14  19
ATOM     19  O   UNL     1     103.764  41.598 137.943  1.00  0.00    -0.385 OA
ATOM     20  H   UNL     1     103.875  41.802 138.908  1.00  0.00     0.211 HD
ENDBRANCH  14  19
BRANCH  16  21
ATOM     21  O   UNL     1     104.305  42.019 135.285  1.00  0.00    -0.387 OA
ATOM     22  H   UNL     1     104.655  41.374 135.954  1.00  0.00     0.211 HD
ENDBRANCH  16  21
BRANCH  17  23
ATOM     23  C   UNL     1     103.541  46.314 134.885  1.00  0.00     0.191 C 
BRANCH  23  24
ATOM     24  O   UNL     1     104.644  47.170 135.033  1.00  0.00    -0.394 OA
ATOM     25  H   UNL     1     105.383  46.633 135.421  1.00  0.00     0.210 HD
ENDBRANCH  23  24
ENDBRANCH  17  23
BRANCH  18  26
ATOM     26  O   UNL     1     101.474  44.271 135.477  1.00  0.00    -0.387 OA
ATOM     27  H   UNL     1     100.854  43.762 134.895  1.00  0.00     0.211 HD
ENDBRANCH  18  26
ENDBRANCH  12  13
ENDBRANCH   7  12
BRANCH   4  28
ATOM     28  O   UNL     1     109.523  46.976 139.215  1.00  0.00    -0.365 OA
ATOM     29  H   UNL     1     109.648  46.896 140.196  1.00  0.00     0.214 HD
ENDBRANCH   4  28
BRANCH   8  30
ATOM     30  C   UNL     1     107.738  44.443 135.524  1.00  0.00     0.249 C 
BRANCH  30  31
ATOM     31  O   UNL     1     108.377  43.224 135.153  1.00  0.00    -0.461 OA
BRANCH  31  32
ATOM     32  C   UNL     1     107.731  41.982 135.105  1.00  0.00     0.338 C 
ATOM     33  O   UNL     1     106.952  41.705 134.151  1.00  0.00    -0.246 OA
BRANCH  32  34
ATOM     34  C   UNL     1     107.949  41.003 136.191  1.00  0.00     0.060 A 
ATOM     35  C   UNL     1     109.252  40.607 136.537  1.00  0.00     0.015 A 
ATOM     36  C   UNL     1     106.859  40.457 136.897  1.00  0.00     0.015 A 
ATOM     37  C   UNL     1     109.461  39.690 137.574  1.00  0.00     0.001 A 
ATOM     38  C   UNL     1     107.075  39.544 137.936  1.00  0.00     0.001 A 
ATOM     39  C   UNL     1     108.374  39.161 138.273  1.00  0.00     0.000 A 
ENDBRANCH  32  34
ENDBRANCH  31  32
ENDBRANCH  30  31
ENDBRANCH   8  30
TORSDOF 12
ENDMDL
MODEL 4
REMARK VINA RESULT:    -6.381      5.950      9.912
REMARK INTER + INTRA:         -11.182
REMARK INTER:                  -9.728
REMARK INTRA:                  -1.454
REMARK UNBOUND:                -1.258
REMARK SMILES C[C@@]12C[C@@]3(O)O[C@@H](O1)[C@]1(COC(=O)c4ccccc4)[C@H]3C[C@@]12O[C@H]1O[C@H](CO)[C@H](O)[C@@H](O)[C@H]1O
REMARK SMILES IDX 1 1 2 2 3 3 4 4 20 5 21 6 22 7 9 8 7 9 8 10 6 11 23 12 24 13
REMARK SMILES IDX 33 14 25 15 31 16 26 17 29 18 34 19 32 21 27 23 28 24 30 26
REMARK SMILES IDX 5 28 10 30 11 31 12 32 13 33 14 34 15 35 19 36 16 37 18 38
REMARK SMILES IDX 17 39
REMARK H PARENT 34 20 32 22 28 25 30 27 5 29
REMARK Flexibility Score: inf
ROOT
ATOM      1  C   UNL     1     109.370  42.191 138.356  1.00  0.00     0.046 C 
ATOM      2  C   UNL     1     108.463  41.630 137.259  1.00  0.00     0.104 C 
ATOM      3  C   UNL     1     109.277  40.788 136.211  1.00  0.00     0.104 C 
ATOM      4  C   UNL     1     108.198  40.405 135.139  1.00  0.00     0.175 C 
ATOM      5  C   UNL     1     107.389  41.670 134.710  1.00  0.00     0.070 C 
ATOM      6  C   UNL     1     108.096  42.991 135.076  1.00  0.00     0.050 C 
ATOM      7  C   UNL     1     107.604  42.727 136.527  1.00  0.00     0.115 C 
ATOM      8  C   UNL     1     106.524  41.808 135.960  1.00  0.00     0.096 C 
ATOM      9  C   UNL     1     106.633  40.492 136.712  1.00  0.00     0.267 C 
ATOM     10  O   UNL     1     107.508  40.739 137.801  1.00  0.00    -0.342 OA
ATOM     11  O   UNL     1     107.253  39.590 135.808  1.00  0.00    -0.320 OA
ENDROOT
BRANCH   7  12
ATOM     12  O   UNL     1     107.123  43.731 137.423  1.00  0.00    -0.339 OA
BRANCH  12  13
ATOM     13  C   UNL     1     107.474  45.079 137.146  1.00  0.00     0.282 C 
ATOM     14  C   UNL     1     107.677  45.901 138.445  1.00  0.00     0.202 C 
ATOM     15  O   UNL     1     106.479  45.674 136.326  1.00  0.00    -0.341 OA
ATOM     16  C   UNL     1     106.344  46.145 139.184  1.00  0.00     0.179 C 
ATOM     17  C   UNL     1     105.219  45.722 136.978  1.00  0.00     0.178 C 
ATOM     18  C   UNL     1     105.276  46.659 138.202  1.00  0.00     0.177 C 
BRANCH  14  19
ATOM     19  O   UNL     1     108.592  45.258 139.293  1.00  0.00    -0.385 OA
ATOM     20  H   UNL     1     108.581  45.754 140.153  1.00  0.00     0.211 HD
ENDBRANCH  14  19
BRANCH  16  21
ATOM     21  O   UNL     1     105.910  44.957 139.795  1.00  0.00    -0.387 OA
ATOM     22  H   UNL     1     105.433  44.433 139.099  1.00  0.00     0.211 HD
ENDBRANCH  16  21
BRANCH  17  23
ATOM     23  C   UNL     1     104.143  46.151 135.969  1.00  0.00     0.191 C 
BRANCH  23  24
ATOM     24  O   UNL     1     104.615  47.172 135.129  1.00  0.00    -0.394 OA
ATOM     25  H   UNL     1     103.985  47.238 134.365  1.00  0.00     0.210 HD
ENDBRANCH  23  24
ENDBRANCH  17  23
BRANCH  18  26
ATOM     26  O   UNL     1     105.606  47.967 137.802  1.00  0.00    -0.387 OA
ATOM     27  H   UNL     1     106.300  47.890 137.098  1.00  0.00     0.211 HD
ENDBRANCH  18  26
ENDBRANCH  12  13
ENDBRANCH   7  12
BRANCH   4  28
ATOM     28  O   UNL     1     108.748  39.748 134.029  1.00  0.00    -0.365 OA
ATOM     29  H   UNL     1     109.003  38.839 134.335  1.00  0.00     0.214 HD
ENDBRANCH   4  28
BRANCH   8  30
ATOM     30  C   UNL     1     105.106  42.385 135.765  1.00  0.00     0.249 C 
BRANCH  30  31
ATOM     31  O   UNL     1     104.203  41.833 136.720  1.00  0.00    -0.461 OA
BRANCH  31  32
ATOM     32  C   UNL     1     102.879  41.476 136.434  1.00  0.00     0.338 C 
ATOM     33  O   UNL     1     101.923  42.200 136.828  1.00  0.00    -0.246 OA
BRANCH  32  34
ATOM     34  C   UNL     1     102.604  40.231 135.685  1.00  0.00     0.060 A 
ATOM     35  C   UNL     1     101.535  40.173 134.775  1.00  0.00     0.015 A 
ATOM     36  C   UNL     1     103.408  39.089 135.869  1.00  0.00     0.015 A 
ATOM     37  C   UNL     1     101.282  38.999 134.055  1.00  0.00     0.001 A 
ATOM     38  C   UNL     1     103.152  37.920 135.143  1.00  0.00     0.001 A 
ATOM     39  C   UNL     1     102.089  37.875 134.238  1.00  0.00     0.000 A 
ENDBRANCH  32  34
ENDBRANCH  31  32
ENDBRANCH  30  31
ENDBRANCH   8  30
TORSDOF 12
ENDMDL
MODEL 5
REMARK VINA RESULT:    -6.350      5.474      9.112
REMARK INTER + INTRA:         -11.135
REMARK INTER:                  -9.979
REMARK INTRA:                  -1.155
REMARK UNBOUND:                -1.258
REMARK SMILES C[C@@]12C[C@@]3(O)O[C@@H](O1)[C@]1(COC(=O)c4ccccc4)[C@H]3C[C@@]12O[C@H]1O[C@H](CO)[C@H](O)[C@@H](O)[C@H]1O
REMARK SMILES IDX 1 1 2 2 3 3 4 4 20 5 21 6 22 7 9 8 7 9 8 10 6 11 23 12 24 13
REMARK SMILES IDX 33 14 25 15 31 16 26 17 29 18 34 19 32 21 27 23 28 24 30 26
REMARK SMILES IDX 5 28 10 30 11 31 12 32 13 33 14 34 15 35 19 36 16 37 18 38
REMARK SMILES IDX 17 39
REMARK H PARENT 34 20 32 22 28 25 30 27 5 29
REMARK Flexibility Score: inf
ROOT
ATOM      1  C   UNL     1     109.525  41.611 138.407  1.00  0.00     0.046 C 
ATOM      2  C   UNL     1     108.600  41.304 137.228  1.00  0.00     0.104 C 
ATOM      3  C   UNL     1     109.272  40.316 136.207  1.00  0.00     0.104 C 
ATOM      4  C   UNL     1     108.219  40.223 135.047  1.00  0.00     0.175 C 
ATOM      5  C   UNL     1     107.766  41.653 134.613  1.00  0.00     0.070 C 
ATOM      6  C   UNL     1     108.732  42.761 135.080  1.00  0.00     0.050 C 
ATOM      7  C   UNL     1     108.081  42.590 136.481  1.00  0.00     0.115 C 
ATOM      8  C   UNL     1     106.862  41.964 135.804  1.00  0.00     0.096 C 
ATOM      9  C   UNL     1     106.602  40.644 136.509  1.00  0.00     0.267 C 
ATOM     10  O   UNL     1     107.423  40.654 137.666  1.00  0.00    -0.342 OA
ATOM     11  O   UNL     1     107.061  39.641 135.616  1.00  0.00    -0.320 OA
ENDROOT
BRANCH   7  12
ATOM     12  O   UNL     1     107.780  43.659 137.379  1.00  0.00    -0.339 OA
BRANCH  12  13
ATOM     13  C   UNL     1     108.245  44.956 137.034  1.00  0.00     0.282 C 
ATOM     14  C   UNL     1     108.906  45.673 138.239  1.00  0.00     0.202 C 
ATOM     15  O   UNL     1     107.170  45.728 136.518  1.00  0.00    -0.341 OA
ATOM     16  C   UNL     1     107.868  46.066 139.312  1.00  0.00     0.179 C 
ATOM     17  C   UNL     1     106.149  45.921 137.485  1.00  0.00     0.178 C 
ATOM     18  C   UNL     1     106.669  46.776 138.659  1.00  0.00     0.177 C 
BRANCH  14  19
ATOM     19  O   UNL     1     109.904  44.864 138.802  1.00  0.00    -0.385 OA
ATOM     20  H   UNL     1     110.303  45.381 139.550  1.00  0.00     0.211 HD
ENDBRANCH  14  19
BRANCH  16  21
ATOM     21  O   UNL     1     107.438  44.922 140.004  1.00  0.00    -0.387 OA
ATOM     22  H   UNL     1     107.020  45.236 140.848  1.00  0.00     0.211 HD
ENDBRANCH  16  21
BRANCH  17  23
ATOM     23  C   UNL     1     104.922  46.550 136.809  1.00  0.00     0.191 C 
BRANCH  23  24
ATOM     24  O   UNL     1     105.134  46.718 135.431  1.00  0.00    -0.394 OA
ATOM     25  H   UNL     1     106.079  46.479 135.248  1.00  0.00     0.210 HD
ENDBRANCH  23  24
ENDBRANCH  17  23
BRANCH  18  26
ATOM     26  O   UNL     1     107.075  48.042 138.200  1.00  0.00    -0.387 OA
ATOM     27  H   UNL     1     107.019  48.664 138.970  1.00  0.00     0.211 HD
ENDBRANCH  18  26
ENDBRANCH  12  13
ENDBRANCH   7  12
BRANCH   4  28
ATOM     28  O   UNL     1     108.685  39.479 133.954  1.00  0.00    -0.365 OA
ATOM     29  H   UNL     1     108.388  39.959 133.137  1.00  0.00     0.214 HD
ENDBRANCH   4  28
BRANCH   8  30
ATOM     30  C   UNL     1     105.639  42.864 135.532  1.00  0.00     0.249 C 
BRANCH  30  31
ATOM     31  O   UNL     1     104.443  42.088 135.494  1.00  0.00    -0.461 OA
BRANCH  31  32
ATOM     32  C   UNL     1     103.265  42.427 136.173  1.00  0.00     0.338 C 
ATOM     33  O   UNL     1     103.125  42.132 137.392  1.00  0.00    -0.246 OA
BRANCH  32  34
ATOM     34  C   UNL     1     102.175  43.112 135.447  1.00  0.00     0.060 A 
ATOM     35  C   UNL     1     102.324  44.451 135.045  1.00  0.00     0.015 A 
ATOM     36  C   UNL     1     100.976  42.438 135.144  1.00  0.00     0.015 A 
ATOM     37  C   UNL     1     101.298  45.098 134.346  1.00  0.00     0.001 A 
ATOM     38  C   UNL     1      99.956  43.089 134.442  1.00  0.00     0.001 A 
ATOM     39  C   UNL     1     100.117  44.418 134.043  1.00  0.00     0.000 A 
ENDBRANCH  32  34
ENDBRANCH  31  32
ENDBRANCH  30  31
ENDBRANCH   8  30
TORSDOF 12
ENDMDL
MODEL 6
REMARK VINA RESULT:    -6.289      7.733     10.892
REMARK INTER + INTRA:         -11.041
REMARK INTER:                  -9.241
REMARK INTRA:                  -1.799
REMARK UNBOUND:                -1.258
REMARK SMILES C[C@@]12C[C@@]3(O)O[C@@H](O1)[C@]1(COC(=O)c4ccccc4)[C@H]3C[C@@]12O[C@H]1O[C@H](CO)[C@H](O)[C@@H](O)[C@H]1O
REMARK SMILES IDX 1 1 2 2 3 3 4 4 20 5 21 6 22 7 9 8 7 9 8 10 6 11 23 12 24 13
REMARK SMILES IDX 33 14 25 15 31 16 26 17 29 18 34 19 32 21 27 23 28 24 30 26
REMARK SMILES IDX 5 28 10 30 11 31 12 32 13 33 14 34 15 35 19 36 16 37 18 38
REMARK SMILES IDX 17 39
REMARK H PARENT 34 20 32 22 28 25 30 27 5 29
REMARK Flexibility Score: inf
ROOT
ATOM      1  C   UNL     1     109.504  45.062 138.499  1.00  0.00     0.046 C 
ATOM      2  C   UNL     1     107.993  45.239 138.342  1.00  0.00     0.104 C 
ATOM      3  C   UNL     1     107.509  46.618 138.921  1.00  0.00     0.104 C 
ATOM      4  C   UNL     1     105.950  46.551 138.760  1.00  0.00     0.175 C 
ATOM      5  C   UNL     1     105.406  45.199 139.323  1.00  0.00     0.070 C 
ATOM      6  C   UNL     1     106.406  44.488 140.258  1.00  0.00     0.050 C 
ATOM      7  C   UNL     1     107.151  44.062 138.962  1.00  0.00     0.115 C 
ATOM      8  C   UNL     1     105.858  44.292 138.180  1.00  0.00     0.096 C 
ATOM      9  C   UNL     1     106.209  45.202 137.015  1.00  0.00     0.267 C 
ATOM     10  O   UNL     1     107.626  45.253 136.976  1.00  0.00    -0.342 OA
ATOM     11  O   UNL     1     105.703  46.480 137.368  1.00  0.00    -0.320 OA
ENDROOT
BRANCH   7  12
ATOM     12  O   UNL     1     107.757  42.786 138.749  1.00  0.00    -0.339 OA
BRANCH  12  13
ATOM     13  C   UNL     1     107.832  41.903 139.858  1.00  0.00     0.282 C 
ATOM     14  C   UNL     1     109.233  41.251 139.985  1.00  0.00     0.202 C 
ATOM     15  O   UNL     1     106.824  40.908 139.746  1.00  0.00    -0.341 OA
ATOM     16  C   UNL     1     109.500  40.239 138.851  1.00  0.00     0.179 C 
ATOM     17  C   UNL     1     107.005  40.104 138.590  1.00  0.00     0.178 C 
ATOM     18  C   UNL     1     108.305  39.281 138.699  1.00  0.00     0.177 C 
BRANCH  14  19
ATOM     19  O   UNL     1     110.231  42.238 140.000  1.00  0.00    -0.385 OA
ATOM     20  H   UNL     1     111.101  41.763 140.060  1.00  0.00     0.211 HD
ENDBRANCH  14  19
BRANCH  16  21
ATOM     21  O   UNL     1     109.732  40.920 137.645  1.00  0.00    -0.387 OA
ATOM     22  H   UNL     1     108.957  40.732 137.054  1.00  0.00     0.211 HD
ENDBRANCH  16  21
BRANCH  17  23
ATOM     23  C   UNL     1     105.770  39.212 138.395  1.00  0.00     0.191 C 
BRANCH  23  24
ATOM     24  O   UNL     1     106.126  37.963 137.862  1.00  0.00    -0.394 OA
ATOM     25  H   UNL     1     105.461  37.743 137.159  1.00  0.00     0.210 HD
ENDBRANCH  23  24
ENDBRANCH  17  23
BRANCH  18  26
ATOM     26  O   UNL     1     108.252  38.427 139.816  1.00  0.00    -0.387 OA
ATOM     27  H   UNL     1     109.093  37.904 139.823  1.00  0.00     0.211 HD
ENDBRANCH  18  26
ENDBRANCH  12  13
ENDBRANCH   7  12
BRANCH   4  28
ATOM     28  O   UNL     1     105.299  47.646 139.343  1.00  0.00    -0.365 OA
ATOM     29  H   UNL     1     104.757  48.069 138.627  1.00  0.00     0.214 HD
ENDBRANCH   4  28
BRANCH   8  30
ATOM     30  C   UNL     1     104.969  43.070 137.869  1.00  0.00     0.249 C 
BRANCH  30  31
ATOM     31  O   UNL     1     104.770  42.938 136.463  1.00  0.00    -0.461 OA
BRANCH  31  32
ATOM     32  C   UNL     1     105.099  41.791 135.728  1.00  0.00     0.338 C 
ATOM     33  O   UNL     1     104.226  40.908 135.500  1.00  0.00    -0.246 OA
BRANCH  32  34
ATOM     34  C   UNL     1     106.482  41.609 135.240  1.00  0.00     0.060 A 
ATOM     35  C   UNL     1     107.239  42.718 134.826  1.00  0.00     0.015 A 
ATOM     36  C   UNL     1     107.063  40.327 135.186  1.00  0.00     0.015 A 
ATOM     37  C   UNL     1     108.554  42.549 134.375  1.00  0.00     0.001 A 
ATOM     38  C   UNL     1     108.380  40.165 134.739  1.00  0.00     0.001 A 
ATOM     39  C   UNL     1     109.123  41.275 134.333  1.00  0.00     0.000 A 
ENDBRANCH  32  34
ENDBRANCH  31  32
ENDBRANCH  30  31
ENDBRANCH   8  30
TORSDOF 12
ENDMDL
MODEL 7
REMARK VINA RESULT:    -6.257      5.637      9.198
REMARK INTER + INTRA:         -10.991
REMARK INTER:                  -9.387
REMARK INTRA:                  -1.603
REMARK UNBOUND:                -1.258
REMARK SMILES C[C@@]12C[C@@]3(O)O[C@@H](O1)[C@]1(COC(=O)c4ccccc4)[C@H]3C[C@@]12O[C@H]1O[C@H](CO)[C@H](O)[C@@H](O)[C@H]1O
REMARK SMILES IDX 1 1 2 2 3 3 4 4 20 5 21 6 22 7 9 8 7 9 8 10 6 11 23 12 24 13
REMARK SMILES IDX 33 14 25 15 31 16 26 17 29 18 34 19 32 21 27 23 28 24 30 26
REMARK SMILES IDX 5 28 10 30 11 31 12 32 13 33 14 34 15 35 19 36 16 37 18 38
REMARK SMILES IDX 17 39
REMARK H PARENT 34 20 32 22 28 25 30 27 5 29
REMARK Flexibility Score: inf
ROOT
ATOM      1  C   UNL     1     104.416  46.458 135.506  1.00  0.00     0.046 C 
ATOM      2  C   UNL     1     103.658  45.197 135.925  1.00  0.00     0.104 C 
ATOM      3  C   UNL     1     102.126  45.484 136.128  1.00  0.00     0.104 C 
ATOM      4  C   UNL     1     101.567  44.113 136.649  1.00  0.00     0.175 C 
ATOM      5  C   UNL     1     102.454  43.577 137.817  1.00  0.00     0.070 C 
ATOM      6  C   UNL     1     103.343  44.668 138.449  1.00  0.00     0.050 C 
ATOM      7  C   UNL     1     104.255  44.496 137.202  1.00  0.00     0.115 C 
ATOM      8  C   UNL     1     103.648  43.111 136.987  1.00  0.00     0.096 C 
ATOM      9  C   UNL     1     103.179  43.060 135.543  1.00  0.00     0.267 C 
ATOM     10  O   UNL     1     103.727  44.209 134.916  1.00  0.00    -0.342 OA
ATOM     11  O   UNL     1     101.767  43.185 135.598  1.00  0.00    -0.320 OA
ENDROOT
BRANCH   7  12
ATOM     12  O   UNL     1     105.683  44.525 137.222  1.00  0.00    -0.339 OA
BRANCH  12  13
ATOM     13  C   UNL     1     106.314  44.859 138.450  1.00  0.00     0.282 C 
ATOM     14  C   UNL     1     107.043  46.225 138.372  1.00  0.00     0.202 C 
ATOM     15  O   UNL     1     107.220  43.828 138.819  1.00  0.00    -0.341 OA
ATOM     16  C   UNL     1     108.292  46.158 137.468  1.00  0.00     0.179 C 
ATOM     17  C   UNL     1     108.262  43.678 137.868  1.00  0.00     0.178 C 
ATOM     18  C   UNL     1     109.153  44.938 137.837  1.00  0.00     0.177 C 
BRANCH  14  19
ATOM     19  O   UNL     1     106.166  47.221 137.916  1.00  0.00    -0.385 OA
ATOM     20  H   UNL     1     106.523  48.088 138.245  1.00  0.00     0.211 HD
ENDBRANCH  14  19
BRANCH  16  21
ATOM     21  O   UNL     1     107.905  46.089 136.119  1.00  0.00    -0.387 OA
ATOM     22  H   UNL     1     108.664  46.440 135.583  1.00  0.00     0.211 HD
ENDBRANCH  16  21
BRANCH  17  23
ATOM     23  C   UNL     1     109.065  42.409 138.191  1.00  0.00     0.191 C 
BRANCH  23  24
ATOM     24  O   UNL     1     109.628  42.480 139.476  1.00  0.00    -0.394 OA
ATOM     25  H   UNL     1     109.541  43.419 139.783  1.00  0.00     0.210 HD
ENDBRANCH  23  24
ENDBRANCH  17  23
BRANCH  18  26
ATOM     26  O   UNL     1     109.743  45.151 139.096  1.00  0.00    -0.387 OA
ATOM     27  H   UNL     1     110.678  44.828 139.038  1.00  0.00     0.211 HD
ENDBRANCH  18  26
ENDBRANCH  12  13
ENDBRANCH   7  12
BRANCH   4  28
ATOM     28  O   UNL     1     100.218  44.186 137.021  1.00  0.00    -0.365 OA
ATOM     29  H   UNL     1      99.694  43.810 136.267  1.00  0.00     0.214 HD
ENDBRANCH   4  28
BRANCH   8  30
ATOM     30  C   UNL     1     104.424  41.886 137.513  1.00  0.00     0.249 C 
BRANCH  30  31
ATOM     31  O   UNL     1     104.425  40.838 136.546  1.00  0.00    -0.461 OA
BRANCH  31  32
ATOM     32  C   UNL     1     105.550  40.071 136.220  1.00  0.00     0.338 C 
ATOM     33  O   UNL     1     105.583  38.838 136.491  1.00  0.00    -0.246 OA
BRANCH  32  34
ATOM     34  C   UNL     1     106.713  40.718 135.577  1.00  0.00     0.060 A 
ATOM     35  C   UNL     1     107.964  40.076 135.562  1.00  0.00     0.015 A 
ATOM     36  C   UNL     1     106.588  41.982 134.968  1.00  0.00     0.015 A 
ATOM     37  C   UNL     1     109.063  40.682 134.942  1.00  0.00     0.001 A 
ATOM     38  C   UNL     1     107.690  42.580 134.346  1.00  0.00     0.001 A 
ATOM     39  C   UNL     1     108.926  41.931 134.334  1.00  0.00     0.000 A 
ENDBRANCH  32  34
ENDBRANCH  31  32
ENDBRANCH  30  31
ENDBRANCH   8  30
TORSDOF 12
ENDMDL
MODEL 8
REMARK VINA RESULT:    -6.100      6.841     10.607
REMARK INTER + INTRA:         -10.745
REMARK INTER:                  -9.249
REMARK INTRA:                  -1.497
REMARK UNBOUND:                -1.258
REMARK SMILES C[C@@]12C[C@@]3(O)O[C@@H](O1)[C@]1(COC(=O)c4ccccc4)[C@H]3C[C@@]12O[C@H]1O[C@H](CO)[C@H](O)[C@@H](O)[C@H]1O
REMARK SMILES IDX 1 1 2 2 3 3 4 4 20 5 21 6 22 7 9 8 7 9 8 10 6 11 23 12 24 13
REMARK SMILES IDX 33 14 25 15 31 16 26 17 29 18 34 19 32 21 27 23 28 24 30 26
REMARK SMILES IDX 5 28 10 30 11 31 12 32 13 33 14 34 15 35 19 36 16 37 18 38
REMARK SMILES IDX 17 39
REMARK H PARENT 34 20 32 22 28 25 30 27 5 29
REMARK Flexibility Score: inf
ROOT
ATOM      1  C   UNL     1     108.900  40.505 135.931  1.00  0.00     0.046 C 
ATOM      2  C   UNL     1     108.854  40.870 137.415  1.00  0.00     0.104 C 
ATOM      3  C   UNL     1     109.171  39.629 138.327  1.00  0.00     0.104 C 
ATOM      4  C   UNL     1     108.968  40.187 139.780  1.00  0.00     0.175 C 
ATOM      5  C   UNL     1     107.605  40.942 139.883  1.00  0.00     0.070 C 
ATOM      6  C   UNL     1     106.633  40.594 138.737  1.00  0.00     0.050 C 
ATOM      7  C   UNL     1     107.500  41.540 137.859  1.00  0.00     0.115 C 
ATOM      8  C   UNL     1     108.004  42.212 139.135  1.00  0.00     0.096 C 
ATOM      9  C   UNL     1     109.521  42.213 139.058  1.00  0.00     0.267 C 
ATOM     10  O   UNL     1     109.841  41.832 137.729  1.00  0.00    -0.342 OA
ATOM     11  O   UNL     1     109.946  41.196 139.952  1.00  0.00    -0.320 OA
ENDROOT
BRANCH   7  12
ATOM     12  O   UNL     1     106.988  42.439 136.875  1.00  0.00    -0.339 OA
BRANCH  12  13
ATOM     13  C   UNL     1     105.979  41.951 136.003  1.00  0.00     0.282 C 
ATOM     14  C   UNL     1     105.801  42.859 134.759  1.00  0.00     0.202 C 
ATOM     15  O   UNL     1     104.754  41.826 136.711  1.00  0.00    -0.341 OA
ATOM     16  C   UNL     1     105.167  44.217 135.125  1.00  0.00     0.179 C 
ATOM     17  C   UNL     1     104.290  43.080 137.186  1.00  0.00     0.178 C 
ATOM     18  C   UNL     1     103.924  44.005 136.007  1.00  0.00     0.177 C 
BRANCH  14  19
ATOM     19  O   UNL     1     107.033  43.056 134.117  1.00  0.00    -0.385 OA
ATOM     20  H   UNL     1     106.840  43.531 133.267  1.00  0.00     0.211 HD
ENDBRANCH  14  19
BRANCH  16  21
ATOM     21  O   UNL     1     106.106  45.020 135.794  1.00  0.00    -0.387 OA
ATOM     22  H   UNL     1     106.019  44.817 136.763  1.00  0.00     0.211 HD
ENDBRANCH  16  21
BRANCH  17  23
ATOM     23  C   UNL     1     103.103  42.854 138.136  1.00  0.00     0.191 C 
BRANCH  23  24
ATOM     24  O   UNL     1     102.134  43.859 137.982  1.00  0.00    -0.394 OA
ATOM     25  H   UNL     1     101.260  43.464 138.232  1.00  0.00     0.210 HD
ENDBRANCH  23  24
ENDBRANCH  17  23
BRANCH  18  26
ATOM     26  O   UNL     1     102.900  43.430 135.234  1.00  0.00    -0.387 OA
ATOM     27  H   UNL     1     102.511  42.690 135.767  1.00  0.00     0.211 HD
ENDBRANCH  18  26
ENDBRANCH  12  13
ENDBRANCH   7  12
BRANCH   4  28
ATOM     28  O   UNL     1     109.078  39.191 140.760  1.00  0.00    -0.365 OA
ATOM     29  H   UNL     1     109.876  39.417 141.306  1.00  0.00     0.214 HD
ENDBRANCH   4  28
BRANCH   8  30
ATOM     30  C   UNL     1     107.327  43.524 139.583  1.00  0.00     0.249 C 
BRANCH  30  31
ATOM     31  O   UNL     1     108.255  44.606 139.549  1.00  0.00    -0.461 OA
BRANCH  31  32
ATOM     32  C   UNL     1     108.237  45.626 138.589  1.00  0.00     0.338 C 
ATOM     33  O   UNL     1     108.583  45.388 137.399  1.00  0.00    -0.246 OA
BRANCH  32  34
ATOM     34  C   UNL     1     107.831  46.992 138.983  1.00  0.00     0.060 A 
ATOM     35  C   UNL     1     108.756  47.858 139.590  1.00  0.00     0.015 A 
ATOM     36  C   UNL     1     106.518  47.447 138.754  1.00  0.00     0.015 A 
ATOM     37  C   UNL     1     108.378  49.156 139.952  1.00  0.00     0.001 A 
ATOM     38  C   UNL     1     106.147  48.747 139.114  1.00  0.00     0.001 A 
ATOM     39  C   UNL     1     107.076  49.601 139.713  1.00  0.00     0.000 A 
ENDBRANCH  32  34
ENDBRANCH  31  32
ENDBRANCH  30  31
ENDBRANCH   8  30
TORSDOF 12
ENDMDL
MODEL 9
REMARK VINA RESULT:    -6.028      7.926      9.949
REMARK INTER + INTRA:         -10.634
REMARK INTER:                  -8.548
REMARK INTRA:                  -2.086
REMARK UNBOUND:                -1.258
REMARK SMILES C[C@@]12C[C@@]3(O)O[C@@H](O1)[C@]1(COC(=O)c4ccccc4)[C@H]3C[C@@]12O[C@H]1O[C@H](CO)[C@H](O)[C@@H](O)[C@H]1O
REMARK SMILES IDX 1 1 2 2 3 3 4 4 20 5 21 6 22 7 9 8 7 9 8 10 6 11 23 12 24 13
REMARK SMILES IDX 33 14 25 15 31 16 26 17 29 18 34 19 32 21 27 23 28 24 30 26
REMARK SMILES IDX 5 28 10 30 11 31 12 32 13 33 14 34 15 35 19 36 16 37 18 38
REMARK SMILES IDX 17 39
REMARK H PARENT 34 20 32 22 28 25 30 27 5 29
REMARK Flexibility Score: inf
ROOT
ATOM      1  C   UNL     1     103.783  38.917 138.846  1.00  0.00     0.046 C 
ATOM      2  C   UNL     1     103.388  40.116 137.981  1.00  0.00     0.104 C 
ATOM      3  C   UNL     1     102.047  39.852 137.205  1.00  0.00     0.104 C 
ATOM      4  C   UNL     1     101.886  41.135 136.316  1.00  0.00     0.175 C 
ATOM      5  C   UNL     1     103.216  41.437 135.556  1.00  0.00     0.070 C 
ATOM      6  C   UNL     1     104.171  40.226 135.506  1.00  0.00     0.050 C 
ATOM      7  C   UNL     1     104.516  40.572 136.981  1.00  0.00     0.115 C 
ATOM      8  C   UNL     1     104.016  41.994 136.732  1.00  0.00     0.096 C 
ATOM      9  C   UNL     1     103.013  42.303 137.832  1.00  0.00     0.267 C 
ATOM     10  O   UNL     1     103.145  41.256 138.781  1.00  0.00    -0.342 OA
ATOM     11  O   UNL     1     101.738  42.219 137.216  1.00  0.00    -0.320 OA
ENDROOT
BRANCH   7  12
ATOM     12  O   UNL     1     105.821  40.492 137.557  1.00  0.00    -0.339 OA
BRANCH  12  13
ATOM     13  C   UNL     1     106.787  39.700 136.881  1.00  0.00     0.282 C 
ATOM     14  C   UNL     1     107.799  39.059 137.865  1.00  0.00     0.202 C 
ATOM     15  O   UNL     1     107.462  40.492 135.913  1.00  0.00    -0.341 OA
ATOM     16  C   UNL     1     108.741  40.112 138.487  1.00  0.00     0.179 C 
ATOM     17  C   UNL     1     108.178  41.560 136.513  1.00  0.00     0.178 C 
ATOM     18  C   UNL     1     109.326  41.018 137.391  1.00  0.00     0.177 C 
BRANCH  14  19
ATOM     19  O   UNL     1     107.122  38.356 138.874  1.00  0.00    -0.385 OA
ATOM     20  H   UNL     1     106.596  39.026 139.385  1.00  0.00     0.211 HD
ENDBRANCH  14  19
BRANCH  16  21
ATOM     21  O   UNL     1     108.042  40.881 139.432  1.00  0.00    -0.387 OA
ATOM     22  H   UNL     1     108.663  41.040 140.190  1.00  0.00     0.211 HD
ENDBRANCH  16  21
BRANCH  17  23
ATOM     23  C   UNL     1     108.685  42.509 135.417  1.00  0.00     0.191 C 
BRANCH  23  24
ATOM     24  O   UNL     1     109.050  41.799 134.262  1.00  0.00    -0.394 OA
ATOM     25  H   UNL     1     110.041  41.776 134.233  1.00  0.00     0.210 HD
ENDBRANCH  23  24
ENDBRANCH  17  23
BRANCH  18  26
ATOM     26  O   UNL     1     110.230  40.276 136.609  1.00  0.00    -0.387 OA
ATOM     27  H   UNL     1     111.127  40.387 137.017  1.00  0.00     0.211 HD
ENDBRANCH  18  26
ENDBRANCH  12  13
ENDBRANCH   7  12
BRANCH   4  28
ATOM     28  O   UNL     1     100.801  41.048 135.434  1.00  0.00    -0.365 OA
ATOM     29  H   UNL     1      99.987  40.943 135.992  1.00  0.00     0.214 HD
ENDBRANCH   4  28
BRANCH   8  30
ATOM     30  C   UNL     1     105.057  43.086 136.410  1.00  0.00     0.249 C 
BRANCH  30  31
ATOM     31  O   UNL     1     105.210  43.976 137.514  1.00  0.00    -0.461 OA
BRANCH  31  32
ATOM     32  C   UNL     1     106.218  43.863 138.480  1.00  0.00     0.338 C 
ATOM     33  O   UNL     1     106.071  43.092 139.469  1.00  0.00    -0.246 OA
BRANCH  32  34
ATOM     34  C   UNL     1     107.450  44.669 138.347  1.00  0.00     0.060 A 
ATOM     35  C   UNL     1     107.476  45.789 137.498  1.00  0.00     0.015 A 
ATOM     36  C   UNL     1     108.613  44.332 139.068  1.00  0.00     0.015 A 
ATOM     37  C   UNL     1     108.637  46.562 137.381  1.00  0.00     0.001 A 
ATOM     38  C   UNL     1     109.769  45.111 138.949  1.00  0.00     0.001 A 
ATOM     39  C   UNL     1     109.781  46.224 138.106  1.00  0.00     0.000 A 
ENDBRANCH  32  34
ENDBRANCH  31  32
ENDBRANCH  30  31
ENDBRANCH   8  30
TORSDOF 12
ENDMDL
