MODEL 1
REMARK VINA RESULT:    -7.420      0.000      0.000
REMARK INTER + INTRA:         -10.483
REMARK INTER:                 -10.023
REMARK INTRA:                  -0.460
REMARK UNBOUND:                -0.460
REMARK SMILES C[C@H]1O[C@H](Oc2cc(O)c3c(=O)c(O)c(-c4ccc(O)cc4)oc3c2)[C@H](O)[C@H](O)[C@@H]1O
REMARK SMILES IDX 6 1 7 2 8 3 10 4 24 5 25 6 23 7 15 8 13 9 11 10 12 11 5 12
REMARK SMILES IDX 4 13 1 14 2 15 30 16 3 17 28 18 26 19 31 20 29 22 27 24 9 26
REMARK SMILES IDX 16 28 17 29 22 30 18 31 21 32 19 33 20 34 14 36
REMARK H PARENT 31 21 29 23 27 25 9 27 20 35 14 37
REMARK Flexibility Score: inf
ROOT
ATOM      1  C   UNL     1      -6.257  -4.926  19.774  1.00  0.00     0.130 A 
ATOM      2  C   UNL     1      -6.919  -6.117  19.474  1.00  0.00     0.093 A 
ATOM      3  C   UNL     1      -6.863  -7.217  20.341  1.00  0.00     0.134 A 
ATOM      4  C   UNL     1      -6.141  -7.109  21.567  1.00  0.00     0.111 A 
ATOM      5  C   UNL     1      -5.418  -5.915  21.822  1.00  0.00     0.146 A 
ATOM      6  C   UNL     1      -5.487  -4.840  20.936  1.00  0.00     0.094 A 
ATOM      7  O   UNL     1      -4.663  -5.794  22.906  1.00  0.00    -0.452 OA
ATOM      8  C   UNL     1      -4.552  -6.739  23.832  1.00  0.00     0.180 A 
ATOM      9  C   UNL     1      -5.314  -7.915  23.718  1.00  0.00     0.208 A 
ATOM     10  C   UNL     1      -6.121  -8.098  22.582  1.00  0.00     0.238 A 
ATOM     11  O   UNL     1      -6.850  -9.123  22.516  1.00  0.00    -0.285 OA
ENDROOT
BRANCH   1  12
ATOM     12  O   UNL     1      -6.362  -3.846  18.892  1.00  0.00    -0.462 OA
BRANCH  12  13
ATOM     13  C   UNL     1      -7.612  -3.406  18.354  1.00  0.00     0.339 C 
ATOM     14  C   UNL     1      -9.285  -2.137  21.374  1.00  0.00     0.042 C 
ATOM     15  C   UNL     1      -8.251  -2.165  20.246  1.00  0.00     0.151 C 
ATOM     16  C   UNL     1      -8.230  -0.817  19.490  1.00  0.00     0.174 C 
ATOM     17  O   UNL     1      -8.593  -3.220  19.364  1.00  0.00    -0.335 OA
ATOM     18  C   UNL     1      -7.223  -0.868  18.326  1.00  0.00     0.180 C 
ATOM     19  C   UNL     1      -7.434  -2.145  17.481  1.00  0.00     0.214 C 
BRANCH  16  20
ATOM     20  O   UNL     1      -7.905   0.232  20.365  1.00  0.00    -0.388 OA
ATOM     21  H   UNL     1      -8.159  -0.074  21.274  1.00  0.00     0.211 HD
ENDBRANCH  16  20
BRANCH  18  22
ATOM     22  O   UNL     1      -5.893  -0.736  18.769  1.00  0.00    -0.387 OA
ATOM     23  H   UNL     1      -5.837  -1.050  19.706  1.00  0.00     0.211 HD
ENDBRANCH  18  22
BRANCH  19  24
ATOM     24  O   UNL     1      -6.365  -2.336  16.589  1.00  0.00    -0.384 OA
ATOM     25  H   UNL     1      -6.590  -3.133  16.040  1.00  0.00     0.211 HD
ENDBRANCH  19  24
ENDBRANCH  12  13
ENDBRANCH   1  12
BRANCH   3  26
ATOM     26  O   UNL     1      -7.516  -8.379  19.918  1.00  0.00    -0.507 OA
ATOM     27  H   UNL     1      -8.339  -8.771  20.351  1.00  0.00     0.293 HD
ENDBRANCH   3  26
BRANCH   8  28
ATOM     28  C   UNL     1      -3.634  -6.500  24.968  1.00  0.00     0.021 A 
ATOM     29  C   UNL     1      -2.624  -7.436  25.252  1.00  0.00     0.016 A 
ATOM     30  C   UNL     1      -3.805  -5.398  25.826  1.00  0.00     0.016 A 
ATOM     31  C   UNL     1      -1.781  -7.254  26.353  1.00  0.00     0.047 A 
ATOM     32  C   UNL     1      -2.963  -5.222  26.926  1.00  0.00     0.047 A 
ATOM     33  C   UNL     1      -1.946  -6.148  27.191  1.00  0.00     0.115 A 
BRANCH  33  34
ATOM     34  O   UNL     1      -1.101  -5.982  28.285  1.00  0.00    -0.508 OA
ATOM     35  H   UNL     1      -0.105  -5.834  28.167  1.00  0.00     0.293 HD
ENDBRANCH  33  34
ENDBRANCH   8  28
BRANCH   9  36
ATOM     36  O   UNL     1      -5.292  -8.869  24.740  1.00  0.00    -0.502 OA
ATOM     37  H   UNL     1      -4.477  -9.023  25.321  1.00  0.00     0.293 HD
ENDBRANCH   9  36
TORSDOF 9
ENDMDL
MODEL 2
REMARK VINA RESULT:    -6.970      1.530      1.743
REMARK INTER + INTRA:          -9.874
REMARK INTER:                  -9.335
REMARK INTRA:                  -0.540
REMARK UNBOUND:                -0.460
REMARK SMILES C[C@H]1O[C@H](Oc2cc(O)c3c(=O)c(O)c(-c4ccc(O)cc4)oc3c2)[C@H](O)[C@H](O)[C@@H]1O
REMARK SMILES IDX 6 1 7 2 8 3 10 4 24 5 25 6 23 7 15 8 13 9 11 10 12 11 5 12
REMARK SMILES IDX 4 13 1 14 2 15 30 16 3 17 28 18 26 19 31 20 29 22 27 24 9 26
REMARK SMILES IDX 16 28 17 29 22 30 18 31 21 32 19 33 20 34 14 36
REMARK H PARENT 31 21 29 23 27 25 9 27 20 35 14 37
REMARK Flexibility Score: inf
ROOT
ATOM      1  C   UNL     1      -6.788  -5.009  21.519  1.00  0.00     0.130 A 
ATOM      2  C   UNL     1      -7.808  -5.943  21.708  1.00  0.00     0.093 A 
ATOM      3  C   UNL     1      -7.794  -6.822  22.799  1.00  0.00     0.134 A 
ATOM      4  C   UNL     1      -6.734  -6.743  23.752  1.00  0.00     0.111 A 
ATOM      5  C   UNL     1      -5.672  -5.836  23.505  1.00  0.00     0.146 A 
ATOM      6  C   UNL     1      -5.711  -4.978  22.405  1.00  0.00     0.094 A 
ATOM      7  O   UNL     1      -4.621  -5.781  24.314  1.00  0.00    -0.452 OA
ATOM      8  C   UNL     1      -4.497  -6.525  25.406  1.00  0.00     0.180 A 
ATOM      9  C   UNL     1      -5.548  -7.377  25.788  1.00  0.00     0.208 A 
ATOM     10  C   UNL     1      -6.678  -7.480  24.960  1.00  0.00     0.238 A 
ATOM     11  O   UNL     1      -7.642  -8.196  25.340  1.00  0.00    -0.285 OA
ENDROOT
BRANCH   1  12
ATOM     12  O   UNL     1      -6.858  -4.135  20.430  1.00  0.00    -0.462 OA
BRANCH  12  13
ATOM     13  C   UNL     1      -8.077  -3.860  19.735  1.00  0.00     0.339 C 
ATOM     14  C   UNL     1      -9.732  -1.556  22.075  1.00  0.00     0.042 C 
ATOM     15  C   UNL     1      -8.684  -2.015  21.058  1.00  0.00     0.151 C 
ATOM     16  C   UNL     1      -8.589  -1.016  19.883  1.00  0.00     0.174 C 
ATOM     17  O   UNL     1      -9.063  -3.297  20.587  1.00  0.00    -0.335 OA
ATOM     18  C   UNL     1      -7.568  -1.508  18.840  1.00  0.00     0.180 C 
ATOM     19  C   UNL     1      -7.826  -2.990  18.485  1.00  0.00     0.214 C 
BRANCH  16  20
ATOM     20  O   UNL     1      -8.227   0.258  20.350  1.00  0.00    -0.388 OA
ATOM     21  H   UNL     1      -8.381   0.885  19.596  1.00  0.00     0.211 HD
ENDBRANCH  16  20
BRANCH  18  22
ATOM     22  O   UNL     1      -6.240  -1.282  19.251  1.00  0.00    -0.387 OA
ATOM     23  H   UNL     1      -6.175  -0.372  19.632  1.00  0.00     0.211 HD
ENDBRANCH  18  22
BRANCH  19  24
ATOM     24  O   UNL     1      -6.754  -3.521  17.747  1.00  0.00    -0.384 OA
ATOM     25  H   UNL     1      -6.377  -2.773  17.213  1.00  0.00     0.211 HD
ENDBRANCH  19  24
ENDBRANCH  12  13
ENDBRANCH   1  12
BRANCH   3  26
ATOM     26  O   UNL     1      -8.835  -7.754  22.863  1.00  0.00    -0.507 OA
ATOM     27  H   UNL     1      -9.119  -8.358  22.106  1.00  0.00     0.293 HD
ENDBRANCH   3  26
BRANCH   8  28
ATOM     28  C   UNL     1      -3.249  -6.406  26.194  1.00  0.00     0.021 A 
ATOM     29  C   UNL     1      -2.251  -7.388  26.063  1.00  0.00     0.016 A 
ATOM     30  C   UNL     1      -3.076  -5.378  27.138  1.00  0.00     0.016 A 
ATOM     31  C   UNL     1      -1.089  -7.322  26.838  1.00  0.00     0.047 A 
ATOM     32  C   UNL     1      -1.915  -5.318  27.912  1.00  0.00     0.047 A 
ATOM     33  C   UNL     1      -0.917  -6.288  27.762  1.00  0.00     0.115 A 
BRANCH  33  34
ATOM     34  O   UNL     1       0.245  -6.237  28.528  1.00  0.00    -0.508 OA
ATOM     35  H   UNL     1       1.131  -5.951  28.128  1.00  0.00     0.293 HD
ENDBRANCH  33  34
ENDBRANCH   8  28
BRANCH   9  36
ATOM     36  O   UNL     1      -5.478  -8.082  26.994  1.00  0.00    -0.502 OA
ATOM     37  H   UNL     1      -4.979  -7.728  27.802  1.00  0.00     0.293 HD
ENDBRANCH   9  36
TORSDOF 9
ENDMDL
MODEL 3
REMARK VINA RESULT:    -6.316      2.303      4.149
REMARK INTER + INTRA:          -8.991
REMARK INTER:                  -8.296
REMARK INTRA:                  -0.695
REMARK UNBOUND:                -0.460
REMARK SMILES C[C@H]1O[C@H](Oc2cc(O)c3c(=O)c(O)c(-c4ccc(O)cc4)oc3c2)[C@H](O)[C@H](O)[C@@H]1O
REMARK SMILES IDX 6 1 7 2 8 3 10 4 24 5 25 6 23 7 15 8 13 9 11 10 12 11 5 12
REMARK SMILES IDX 4 13 1 14 2 15 30 16 3 17 28 18 26 19 31 20 29 22 27 24 9 26
REMARK SMILES IDX 16 28 17 29 22 30 18 31 21 32 19 33 20 34 14 36
REMARK H PARENT 31 21 29 23 27 25 9 27 20 35 14 37
REMARK Flexibility Score: inf
ROOT
ATOM      1  C   UNL     1      -5.475  -5.851  23.755  1.00  0.00     0.130 A 
ATOM      2  C   UNL     1      -6.412  -6.727  24.307  1.00  0.00     0.093 A 
ATOM      3  C   UNL     1      -6.066  -7.596  25.350  1.00  0.00     0.134 A 
ATOM      4  C   UNL     1      -4.741  -7.567  25.879  1.00  0.00     0.111 A 
ATOM      5  C   UNL     1      -3.785  -6.721  25.260  1.00  0.00     0.146 A 
ATOM      6  C   UNL     1      -4.158  -5.872  24.218  1.00  0.00     0.094 A 
ATOM      7  O   UNL     1      -2.520  -6.717  25.658  1.00  0.00    -0.452 OA
ATOM      8  C   UNL     1      -2.064  -7.458  26.661  1.00  0.00     0.180 A 
ATOM      9  C   UNL     1      -2.959  -8.249  27.403  1.00  0.00     0.208 A 
ATOM     10  C   UNL     1      -4.309  -8.297  27.015  1.00  0.00     0.238 A 
ATOM     11  O   UNL     1      -5.118  -8.955  27.720  1.00  0.00    -0.285 OA
ENDROOT
BRANCH   1  12
ATOM     12  O   UNL     1      -5.872  -4.984  22.733  1.00  0.00    -0.462 OA
BRANCH  12  13
ATOM     13  C   UNL     1      -6.767  -5.376  21.689  1.00  0.00     0.339 C 
ATOM     14  C   UNL     1      -9.160  -2.583  21.706  1.00  0.00     0.042 C 
ATOM     15  C   UNL     1      -7.816  -3.282  21.486  1.00  0.00     0.151 C 
ATOM     16  C   UNL     1      -7.315  -3.062  20.041  1.00  0.00     0.174 C 
ATOM     17  O   UNL     1      -7.995  -4.665  21.740  1.00  0.00    -0.335 OA
ATOM     18  C   UNL     1      -5.987  -3.808  19.812  1.00  0.00     0.180 C 
ATOM     19  C   UNL     1      -6.093  -5.269  20.304  1.00  0.00     0.214 C 
BRANCH  16  20
ATOM     20  O   UNL     1      -7.150  -1.692  19.782  1.00  0.00    -0.388 OA
ATOM     21  H   UNL     1      -6.501  -1.625  19.035  1.00  0.00     0.211 HD
ENDBRANCH  16  20
BRANCH  18  22
ATOM     22  O   UNL     1      -4.893  -3.131  20.384  1.00  0.00    -0.387 OA
ATOM     23  H   UNL     1      -4.154  -3.108  19.726  1.00  0.00     0.211 HD
ENDBRANCH  18  22
BRANCH  19  24
ATOM     24  O   UNL     1      -4.826  -5.875  20.347  1.00  0.00    -0.384 OA
ATOM     25  H   UNL     1      -4.908  -6.742  19.869  1.00  0.00     0.211 HD
ENDBRANCH  19  24
ENDBRANCH  12  13
ENDBRANCH   1  12
BRANCH   3  26
ATOM     26  O   UNL     1      -7.066  -8.470  25.792  1.00  0.00    -0.507 OA
ATOM     27  H   UNL     1      -7.960  -8.185  26.162  1.00  0.00     0.293 HD
ENDBRANCH   3  26
BRANCH   8  28
ATOM     28  C   UNL     1      -0.617  -7.401  26.970  1.00  0.00     0.021 A 
ATOM     29  C   UNL     1      -0.166  -6.593  28.030  1.00  0.00     0.016 A 
ATOM     30  C   UNL     1       0.327  -8.068  26.170  1.00  0.00     0.016 A 
ATOM     31  C   UNL     1       1.200  -6.484  28.303  1.00  0.00     0.047 A 
ATOM     32  C   UNL     1       1.692  -7.954  26.445  1.00  0.00     0.047 A 
ATOM     33  C   UNL     1       2.132  -7.164  27.514  1.00  0.00     0.115 A 
BRANCH  33  34
ATOM     34  O   UNL     1       3.491  -7.044  27.796  1.00  0.00    -0.508 OA
ATOM     35  H   UNL     1       3.842  -7.112  28.744  1.00  0.00     0.293 HD
ENDBRANCH  33  34
ENDBRANCH   8  28
BRANCH   9  36
ATOM     36  O   UNL     1      -2.514  -8.946  28.530  1.00  0.00    -0.502 OA
ATOM     37  H   UNL     1      -1.535  -9.152  28.689  1.00  0.00     0.293 HD
ENDBRANCH   9  36
TORSDOF 9
ENDMDL
MODEL 4
REMARK VINA RESULT:    -6.171      2.447      3.165
REMARK INTER + INTRA:          -8.796
REMARK INTER:                  -8.999
REMARK INTRA:                   0.203
REMARK UNBOUND:                -0.460
REMARK SMILES C[C@H]1O[C@H](Oc2cc(O)c3c(=O)c(O)c(-c4ccc(O)cc4)oc3c2)[C@H](O)[C@H](O)[C@@H]1O
REMARK SMILES IDX 6 1 7 2 8 3 10 4 24 5 25 6 23 7 15 8 13 9 11 10 12 11 5 12
REMARK SMILES IDX 4 13 1 14 2 15 30 16 3 17 28 18 26 19 31 20 29 22 27 24 9 26
REMARK SMILES IDX 16 28 17 29 22 30 18 31 21 32 19 33 20 34 14 36
REMARK H PARENT 31 21 29 23 27 25 9 27 20 35 14 37
REMARK Flexibility Score: inf
ROOT
ATOM      1  C   UNL     1      -5.803  -4.377  20.795  1.00  0.00     0.130 A 
ATOM      2  C   UNL     1      -4.609  -4.963  20.371  1.00  0.00     0.093 A 
ATOM      3  C   UNL     1      -4.014  -6.003  21.097  1.00  0.00     0.134 A 
ATOM      4  C   UNL     1      -4.653  -6.494  22.275  1.00  0.00     0.111 A 
ATOM      5  C   UNL     1      -5.828  -5.840  22.727  1.00  0.00     0.146 A 
ATOM      6  C   UNL     1      -6.393  -4.802  21.986  1.00  0.00     0.094 A 
ATOM      7  O   UNL     1      -6.416  -6.201  23.861  1.00  0.00    -0.452 OA
ATOM      8  C   UNL     1      -5.985  -7.197  24.625  1.00  0.00     0.180 A 
ATOM      9  C   UNL     1      -4.889  -7.971  24.205  1.00  0.00     0.208 A 
ATOM     10  C   UNL     1      -4.224  -7.622  23.017  1.00  0.00     0.238 A 
ATOM     11  O   UNL     1      -3.284  -8.357  22.612  1.00  0.00    -0.285 OA
ENDROOT
BRANCH   1  12
ATOM     12  O   UNL     1      -6.374  -3.360  20.024  1.00  0.00    -0.462 OA
BRANCH  12  13
ATOM     13  C   UNL     1      -7.697  -3.445  19.488  1.00  0.00     0.339 C 
ATOM     14  C   UNL     1      -9.662  -1.882  22.176  1.00  0.00     0.042 C 
ATOM     15  C   UNL     1      -8.661  -1.944  21.019  1.00  0.00     0.151 C 
ATOM     16  C   UNL     1      -9.023  -0.911  19.929  1.00  0.00     0.174 C 
ATOM     17  O   UNL     1      -8.691  -3.257  20.484  1.00  0.00    -0.335 OA
ATOM     18  C   UNL     1      -8.042  -1.012  18.745  1.00  0.00     0.180 C 
ATOM     19  C   UNL     1      -7.882  -2.482  18.296  1.00  0.00     0.214 C 
BRANCH  16  20
ATOM     20  O   UNL     1      -9.008   0.389  20.459  1.00  0.00    -0.388 OA
ATOM     21  H   UNL     1      -9.597   0.371  21.258  1.00  0.00     0.211 HD
ENDBRANCH  16  20
BRANCH  18  22
ATOM     22  O   UNL     1      -6.804  -0.404  19.030  1.00  0.00    -0.387 OA
ATOM     23  H   UNL     1      -6.078  -1.023  18.768  1.00  0.00     0.211 HD
ENDBRANCH  18  22
BRANCH  19  24
ATOM     24  O   UNL     1      -6.803  -2.618  17.407  1.00  0.00    -0.384 OA
ATOM     25  H   UNL     1      -6.035  -2.955  17.939  1.00  0.00     0.211 HD
ENDBRANCH  19  24
ENDBRANCH  12  13
ENDBRANCH   1  12
BRANCH   3  26
ATOM     26  O   UNL     1      -2.791  -6.481  20.615  1.00  0.00    -0.507 OA
ATOM     27  H   UNL     1      -1.998  -6.726  21.189  1.00  0.00     0.293 HD
ENDBRANCH   3  26
BRANCH   8  28
ATOM     28  C   UNL     1      -6.700  -7.464  25.894  1.00  0.00     0.021 A 
ATOM     29  C   UNL     1      -6.302  -8.545  26.700  1.00  0.00     0.016 A 
ATOM     30  C   UNL     1      -7.828  -6.712  26.268  1.00  0.00     0.016 A 
ATOM     31  C   UNL     1      -6.999  -8.845  27.874  1.00  0.00     0.047 A 
ATOM     32  C   UNL     1      -8.523  -7.017  27.440  1.00  0.00     0.047 A 
ATOM     33  C   UNL     1      -8.109  -8.083  28.248  1.00  0.00     0.115 A 
BRANCH  33  34
ATOM     34  O   UNL     1      -8.794  -8.396  29.419  1.00  0.00    -0.508 OA
ATOM     35  H   UNL     1      -9.385  -9.216  29.484  1.00  0.00     0.293 HD
ENDBRANCH  33  34
ENDBRANCH   8  28
BRANCH   9  36
ATOM     36  O   UNL     1      -4.493  -9.090  24.943  1.00  0.00    -0.502 OA
ATOM     37  H   UNL     1      -3.521  -9.294  25.142  1.00  0.00     0.293 HD
ENDBRANCH   9  36
TORSDOF 9
ENDMDL
MODEL 5
REMARK VINA RESULT:    -6.139      2.331      4.542
REMARK INTER + INTRA:          -8.753
REMARK INTER:                  -8.191
REMARK INTRA:                  -0.561
REMARK UNBOUND:                -0.460
REMARK SMILES C[C@H]1O[C@H](Oc2cc(O)c3c(=O)c(O)c(-c4ccc(O)cc4)oc3c2)[C@H](O)[C@H](O)[C@@H]1O
REMARK SMILES IDX 6 1 7 2 8 3 10 4 24 5 25 6 23 7 15 8 13 9 11 10 12 11 5 12
REMARK SMILES IDX 4 13 1 14 2 15 30 16 3 17 28 18 26 19 31 20 29 22 27 24 9 26
REMARK SMILES IDX 16 28 17 29 22 30 18 31 21 32 19 33 20 34 14 36
REMARK H PARENT 31 21 29 23 27 25 9 27 20 35 14 37
REMARK Flexibility Score: inf
ROOT
ATOM      1  C   UNL     1      -5.348  -5.924  23.358  1.00  0.00     0.130 A 
ATOM      2  C   UNL     1      -6.227  -6.946  23.719  1.00  0.00     0.093 A 
ATOM      3  C   UNL     1      -5.982  -7.754  24.838  1.00  0.00     0.134 A 
ATOM      4  C   UNL     1      -4.827  -7.509  25.641  1.00  0.00     0.111 A 
ATOM      5  C   UNL     1      -3.910  -6.513  25.219  1.00  0.00     0.146 A 
ATOM      6  C   UNL     1      -4.179  -5.730  24.096  1.00  0.00     0.094 A 
ATOM      7  O   UNL     1      -2.780  -6.302  25.882  1.00  0.00    -0.452 OA
ATOM      8  C   UNL     1      -2.441  -6.964  26.981  1.00  0.00     0.180 A 
ATOM      9  C   UNL     1      -3.336  -7.897  27.534  1.00  0.00     0.208 A 
ATOM     10  C   UNL     1      -4.541  -8.165  26.864  1.00  0.00     0.238 A 
ATOM     11  O   UNL     1      -5.366  -8.953  27.397  1.00  0.00    -0.285 OA
ENDROOT
BRANCH   1  12
ATOM     12  O   UNL     1      -5.648  -5.127  22.249  1.00  0.00    -0.462 OA
BRANCH  12  13
ATOM     13  C   UNL     1      -4.952  -5.241  21.004  1.00  0.00     0.339 C 
ATOM     14  C   UNL     1      -5.876  -8.649  19.974  1.00  0.00     0.042 C 
ATOM     15  C   UNL     1      -6.093  -7.164  20.279  1.00  0.00     0.151 C 
ATOM     16  C   UNL     1      -6.736  -6.447  19.071  1.00  0.00     0.174 C 
ATOM     17  O   UNL     1      -4.832  -6.590  20.579  1.00  0.00    -0.335 OA
ATOM     18  C   UNL     1      -6.907  -4.944  19.366  1.00  0.00     0.180 C 
ATOM     19  C   UNL     1      -5.594  -4.347  19.921  1.00  0.00     0.214 C 
BRANCH  16  20
ATOM     20  O   UNL     1      -7.978  -7.023  18.763  1.00  0.00    -0.388 OA
ATOM     21  H   UNL     1      -8.353  -7.355  19.620  1.00  0.00     0.211 HD
ENDBRANCH  16  20
BRANCH  18  22
ATOM     22  O   UNL     1      -8.005  -4.691  20.209  1.00  0.00    -0.387 OA
ATOM     23  H   UNL     1      -7.843  -5.126  21.083  1.00  0.00     0.211 HD
ENDBRANCH  18  22
BRANCH  19  24
ATOM     24  O   UNL     1      -5.810  -3.059  20.438  1.00  0.00    -0.384 OA
ATOM     25  H   UNL     1      -6.778  -2.996  20.654  1.00  0.00     0.211 HD
ENDBRANCH  19  24
ENDBRANCH  12  13
ENDBRANCH   1  12
BRANCH   3  26
ATOM     26  O   UNL     1      -6.898  -8.783  25.078  1.00  0.00    -0.507 OA
ATOM     27  H   UNL     1      -7.782  -8.893  24.605  1.00  0.00     0.293 HD
ENDBRANCH   3  26
BRANCH   8  28
ATOM     28  C   UNL     1      -1.126  -6.670  27.595  1.00  0.00     0.021 A 
ATOM     29  C   UNL     1       0.020  -7.340  27.132  1.00  0.00     0.016 A 
ATOM     30  C   UNL     1      -1.011  -5.799  28.693  1.00  0.00     0.016 A 
ATOM     31  C   UNL     1       1.262  -7.116  27.734  1.00  0.00     0.047 A 
ATOM     32  C   UNL     1       0.231  -5.581  29.294  1.00  0.00     0.047 A 
ATOM     33  C   UNL     1       1.371  -6.237  28.814  1.00  0.00     0.115 A 
BRANCH  33  34
ATOM     34  O   UNL     1       2.614  -6.026  29.406  1.00  0.00    -0.508 OA
ATOM     35  H   UNL     1       3.469  -6.363  28.978  1.00  0.00     0.293 HD
ENDBRANCH  33  34
ENDBRANCH   8  28
BRANCH   9  36
ATOM     36  O   UNL     1      -3.040  -8.519  28.751  1.00  0.00    -0.502 OA
ATOM     37  H   UNL     1      -3.199  -9.507  28.908  1.00  0.00     0.293 HD
ENDBRANCH   9  36
TORSDOF 9
ENDMDL
MODEL 6
REMARK VINA RESULT:    -5.876      2.222      8.859
REMARK INTER + INTRA:          -8.397
REMARK INTER:                  -7.650
REMARK INTRA:                  -0.747
REMARK UNBOUND:                -0.460
REMARK SMILES C[C@H]1O[C@H](Oc2cc(O)c3c(=O)c(O)c(-c4ccc(O)cc4)oc3c2)[C@H](O)[C@H](O)[C@@H]1O
REMARK SMILES IDX 6 1 7 2 8 3 10 4 24 5 25 6 23 7 15 8 13 9 11 10 12 11 5 12
REMARK SMILES IDX 4 13 1 14 2 15 30 16 3 17 28 18 26 19 31 20 29 22 27 24 9 26
REMARK SMILES IDX 16 28 17 29 22 30 18 31 21 32 19 33 20 34 14 36
REMARK H PARENT 31 21 29 23 27 25 9 27 20 35 14 37
REMARK Flexibility Score: inf
ROOT
ATOM      1  C   UNL     1      -5.827  -7.145  24.927  1.00  0.00     0.130 A 
ATOM      2  C   UNL     1      -6.984  -7.898  25.130  1.00  0.00     0.093 A 
ATOM      3  C   UNL     1      -8.118  -7.718  24.327  1.00  0.00     0.134 A 
ATOM      4  C   UNL     1      -8.081  -6.768  23.262  1.00  0.00     0.111 A 
ATOM      5  C   UNL     1      -6.922  -5.964  23.115  1.00  0.00     0.146 A 
ATOM      6  C   UNL     1      -5.811  -6.162  23.936  1.00  0.00     0.094 A 
ATOM      7  O   UNL     1      -6.867  -5.008  22.196  1.00  0.00    -0.452 OA
ATOM      8  C   UNL     1      -7.851  -4.756  21.341  1.00  0.00     0.180 A 
ATOM      9  C   UNL     1      -8.997  -5.571  21.342  1.00  0.00     0.208 A 
ATOM     10  C   UNL     1      -9.109  -6.589  22.303  1.00  0.00     0.238 A 
ATOM     11  O   UNL     1     -10.107  -7.356  22.258  1.00  0.00    -0.285 OA
ENDROOT
BRANCH   1  12
ATOM     12  O   UNL     1      -4.711  -7.378  25.736  1.00  0.00    -0.462 OA
BRANCH  12  13
ATOM     13  C   UNL     1      -4.256  -8.693  26.066  1.00  0.00     0.339 C 
ATOM     14  C   UNL     1      -0.772  -8.562  24.894  1.00  0.00     0.042 C 
ATOM     15  C   UNL     1      -1.970  -8.222  25.784  1.00  0.00     0.151 C 
ATOM     16  C   UNL     1      -1.635  -8.474  27.271  1.00  0.00     0.174 C 
ATOM     17  O   UNL     1      -3.060  -9.034  25.381  1.00  0.00    -0.335 OA
ATOM     18  C   UNL     1      -2.859  -8.177  28.157  1.00  0.00     0.180 C 
ATOM     19  C   UNL     1      -4.119  -8.872  27.593  1.00  0.00     0.214 C 
BRANCH  16  20
ATOM     20  O   UNL     1      -0.546  -7.682  27.670  1.00  0.00    -0.388 OA
ATOM     21  H   UNL     1      -0.752  -6.756  27.375  1.00  0.00     0.211 HD
ENDBRANCH  16  20
BRANCH  18  22
ATOM     22  O   UNL     1      -3.053  -6.795  28.348  1.00  0.00    -0.387 OA
ATOM     23  H   UNL     1      -2.205  -6.325  28.151  1.00  0.00     0.211 HD
ENDBRANCH  18  22
BRANCH  19  24
ATOM     24  O   UNL     1      -5.278  -8.398  28.230  1.00  0.00    -0.384 OA
ATOM     25  H   UNL     1      -5.043  -8.259  29.185  1.00  0.00     0.211 HD
ENDBRANCH  19  24
ENDBRANCH  12  13
ENDBRANCH   1  12
BRANCH   3  26
ATOM     26  O   UNL     1      -9.242  -8.485  24.651  1.00  0.00    -0.507 OA
ATOM     27  H   UNL     1     -10.163  -8.115  24.833  1.00  0.00     0.293 HD
ENDBRANCH   3  26
BRANCH   8  28
ATOM     28  C   UNL     1      -7.685  -3.626  20.399  1.00  0.00     0.021 A 
ATOM     29  C   UNL     1      -8.253  -2.377  20.708  1.00  0.00     0.016 A 
ATOM     30  C   UNL     1      -7.046  -3.798  19.158  1.00  0.00     0.016 A 
ATOM     31  C   UNL     1      -8.153  -1.313  19.807  1.00  0.00     0.047 A 
ATOM     32  C   UNL     1      -6.951  -2.733  18.259  1.00  0.00     0.047 A 
ATOM     33  C   UNL     1      -7.502  -1.486  18.583  1.00  0.00     0.115 A 
BRANCH  33  34
ATOM     34  O   UNL     1      -7.413  -0.418  17.694  1.00  0.00    -0.508 OA
ATOM     35  H   UNL     1      -8.186   0.223  17.557  1.00  0.00     0.293 HD
ENDBRANCH  33  34
ENDBRANCH   8  28
BRANCH   9  36
ATOM     36  O   UNL     1      -9.990  -5.387  20.375  1.00  0.00    -0.502 OA
ATOM     37  H   UNL     1     -10.943  -5.704  20.509  1.00  0.00     0.293 HD
ENDBRANCH   9  36
TORSDOF 9
ENDMDL
MODEL 7
REMARK VINA RESULT:    -5.713      2.909      6.091
REMARK INTER + INTRA:          -8.178
REMARK INTER:                  -7.581
REMARK INTRA:                  -0.597
REMARK UNBOUND:                -0.460
REMARK SMILES C[C@H]1O[C@H](Oc2cc(O)c3c(=O)c(O)c(-c4ccc(O)cc4)oc3c2)[C@H](O)[C@H](O)[C@@H]1O
REMARK SMILES IDX 6 1 7 2 8 3 10 4 24 5 25 6 23 7 15 8 13 9 11 10 12 11 5 12
REMARK SMILES IDX 4 13 1 14 2 15 30 16 3 17 28 18 26 19 31 20 29 22 27 24 9 26
REMARK SMILES IDX 16 28 17 29 22 30 18 31 21 32 19 33 20 34 14 36
REMARK H PARENT 31 21 29 23 27 25 9 27 20 35 14 37
REMARK Flexibility Score: inf
ROOT
ATOM      1  C   UNL     1      -4.610  -7.179  24.760  1.00  0.00     0.130 A 
ATOM      2  C   UNL     1      -5.382  -7.870  25.696  1.00  0.00     0.093 A 
ATOM      3  C   UNL     1      -4.836  -8.295  26.915  1.00  0.00     0.134 A 
ATOM      4  C   UNL     1      -3.475  -7.991  27.219  1.00  0.00     0.111 A 
ATOM      5  C   UNL     1      -2.689  -7.350  26.228  1.00  0.00     0.146 A 
ATOM      6  C   UNL     1      -3.259  -6.945  25.021  1.00  0.00     0.094 A 
ATOM      7  O   UNL     1      -1.397  -7.119  26.426  1.00  0.00    -0.452 OA
ATOM      8  C   UNL     1      -0.761  -7.430  27.549  1.00  0.00     0.180 A 
ATOM      9  C   UNL     1      -1.482  -7.973  28.628  1.00  0.00     0.208 A 
ATOM     10  C   UNL     1      -2.850  -8.247  28.465  1.00  0.00     0.238 A 
ATOM     11  O   UNL     1      -3.503  -8.673  29.454  1.00  0.00    -0.285 OA
ENDROOT
BRANCH   1  12
ATOM     12  O   UNL     1      -5.204  -6.752  23.569  1.00  0.00    -0.462 OA
BRANCH  12  13
ATOM     13  C   UNL     1      -5.546  -5.385  23.321  1.00  0.00     0.339 C 
ATOM     14  C   UNL     1      -3.433  -4.633  20.407  1.00  0.00     0.042 C 
ATOM     15  C   UNL     1      -4.578  -5.290  21.182  1.00  0.00     0.151 C 
ATOM     16  C   UNL     1      -5.929  -5.043  20.474  1.00  0.00     0.174 C 
ATOM     17  O   UNL     1      -4.597  -4.738  22.487  1.00  0.00    -0.335 OA
ATOM     18  C   UNL     1      -7.082  -5.665  21.283  1.00  0.00     0.180 C 
ATOM     19  C   UNL     1      -6.983  -5.258  22.770  1.00  0.00     0.214 C 
BRANCH  16  20
ATOM     20  O   UNL     1      -5.907  -5.577  19.175  1.00  0.00    -0.388 OA
ATOM     21  H   UNL     1      -6.769  -5.320  18.754  1.00  0.00     0.211 HD
ENDBRANCH  16  20
BRANCH  18  22
ATOM     22  O   UNL     1      -7.154  -7.061  21.116  1.00  0.00    -0.387 OA
ATOM     23  H   UNL     1      -6.486  -7.488  21.710  1.00  0.00     0.211 HD
ENDBRANCH  18  22
BRANCH  19  24
ATOM     24  O   UNL     1      -7.860  -6.023  23.558  1.00  0.00    -0.384 OA
ATOM     25  H   UNL     1      -7.314  -6.736  23.982  1.00  0.00     0.211 HD
ENDBRANCH  19  24
ENDBRANCH  12  13
ENDBRANCH   1  12
BRANCH   3  26
ATOM     26  O   UNL     1      -5.681  -9.026  27.756  1.00  0.00    -0.507 OA
ATOM     27  H   UNL     1      -5.382  -9.545  28.568  1.00  0.00     0.293 HD
ENDBRANCH   3  26
BRANCH   8  28
ATOM     28  C   UNL     1       0.695  -7.169  27.623  1.00  0.00     0.021 A 
ATOM     29  C   UNL     1       1.180  -6.194  28.512  1.00  0.00     0.016 A 
ATOM     30  C   UNL     1       1.596  -7.813  26.757  1.00  0.00     0.016 A 
ATOM     31  C   UNL     1       2.544  -5.895  28.557  1.00  0.00     0.047 A 
ATOM     32  C   UNL     1       2.959  -7.510  26.804  1.00  0.00     0.047 A 
ATOM     33  C   UNL     1       3.437  -6.551  27.706  1.00  0.00     0.115 A 
BRANCH  33  34
ATOM     34  O   UNL     1       4.794  -6.241  27.761  1.00  0.00    -0.508 OA
ATOM     35  H   UNL     1       5.286  -5.874  26.954  1.00  0.00     0.293 HD
ENDBRANCH  33  34
ENDBRANCH   8  28
BRANCH   9  36
ATOM     36  O   UNL     1      -0.848  -8.201  29.853  1.00  0.00    -0.502 OA
ATOM     37  H   UNL     1      -0.182  -7.549  30.250  1.00  0.00     0.293 HD
ENDBRANCH   9  36
TORSDOF 9
ENDMDL
MODEL 8
REMARK VINA RESULT:    -5.578     12.969     16.816
REMARK INTER + INTRA:          -7.995
REMARK INTER:                  -7.710
REMARK INTRA:                  -0.285
REMARK UNBOUND:                -0.460
REMARK SMILES C[C@H]1O[C@H](Oc2cc(O)c3c(=O)c(O)c(-c4ccc(O)cc4)oc3c2)[C@H](O)[C@H](O)[C@@H]1O
REMARK SMILES IDX 6 1 7 2 8 3 10 4 24 5 25 6 23 7 15 8 13 9 11 10 12 11 5 12
REMARK SMILES IDX 4 13 1 14 2 15 30 16 3 17 28 18 26 19 31 20 29 22 27 24 9 26
REMARK SMILES IDX 16 28 17 29 22 30 18 31 21 32 19 33 20 34 14 36
REMARK H PARENT 31 21 29 23 27 25 9 27 20 35 14 37
REMARK Flexibility Score: inf
ROOT
ATOM      1  C   UNL     1      -6.263   8.859  13.278  1.00  0.00     0.130 A 
ATOM      2  C   UNL     1      -6.254   9.121  11.908  1.00  0.00     0.093 A 
ATOM      3  C   UNL     1      -5.065   9.439  11.237  1.00  0.00     0.134 A 
ATOM      4  C   UNL     1      -3.836   9.466  11.961  1.00  0.00     0.111 A 
ATOM      5  C   UNL     1      -3.875   9.265  13.365  1.00  0.00     0.146 A 
ATOM      6  C   UNL     1      -5.075   8.958  14.006  1.00  0.00     0.094 A 
ATOM      7  O   UNL     1      -2.773   9.363  14.099  1.00  0.00    -0.452 OA
ATOM      8  C   UNL     1      -1.574   9.616  13.589  1.00  0.00     0.180 A 
ATOM      9  C   UNL     1      -1.420   9.726  12.196  1.00  0.00     0.208 A 
ATOM     10  C   UNL     1      -2.557   9.641  11.376  1.00  0.00     0.238 A 
ATOM     11  O   UNL     1      -2.405   9.676  10.126  1.00  0.00    -0.285 OA
ENDROOT
BRANCH   1  12
ATOM     12  O   UNL     1      -7.469   8.521  13.900  1.00  0.00    -0.462 OA
BRANCH  12  13
ATOM     13  C   UNL     1      -8.298   7.447  13.447  1.00  0.00     0.339 C 
ATOM     14  C   UNL     1      -5.786   4.868  12.694  1.00  0.00     0.042 C 
ATOM     15  C   UNL     1      -6.627   5.798  13.572  1.00  0.00     0.151 C 
ATOM     16  C   UNL     1      -7.363   4.996  14.669  1.00  0.00     0.174 C 
ATOM     17  O   UNL     1      -7.560   6.463  12.738  1.00  0.00    -0.335 OA
ATOM     18  C   UNL     1      -8.246   5.930  15.518  1.00  0.00     0.180 C 
ATOM     19  C   UNL     1      -9.109   6.836  14.611  1.00  0.00     0.214 C 
BRANCH  16  20
ATOM     20  O   UNL     1      -6.442   4.325  15.488  1.00  0.00    -0.388 OA
ATOM     21  H   UNL     1      -6.731   4.487  16.424  1.00  0.00     0.211 HD
ENDBRANCH  16  20
BRANCH  18  22
ATOM     22  O   UNL     1      -7.491   6.672  16.448  1.00  0.00    -0.387 OA
ATOM     23  H   UNL     1      -6.923   6.049  16.966  1.00  0.00     0.211 HD
ENDBRANCH  18  22
BRANCH  19  24
ATOM     24  O   UNL     1      -9.711   7.863  15.357  1.00  0.00    -0.384 OA
ATOM     25  H   UNL     1      -9.525   7.668  16.313  1.00  0.00     0.211 HD
ENDBRANCH  19  24
ENDBRANCH  12  13
ENDBRANCH   1  12
BRANCH   3  26
ATOM     26  O   UNL     1      -5.177   9.738   9.875  1.00  0.00    -0.507 OA
ATOM     27  H   UNL     1      -5.782   9.258   9.225  1.00  0.00     0.293 HD
ENDBRANCH   3  26
BRANCH   8  28
ATOM     28  C   UNL     1      -0.433   9.753  14.524  1.00  0.00     0.021 A 
ATOM     29  C   UNL     1       0.042   8.621  15.209  1.00  0.00     0.016 A 
ATOM     30  C   UNL     1       0.129  11.010  14.809  1.00  0.00     0.016 A 
ATOM     31  C   UNL     1       1.082   8.740  16.135  1.00  0.00     0.047 A 
ATOM     32  C   UNL     1       1.167  11.125  15.737  1.00  0.00     0.047 A 
ATOM     33  C   UNL     1       1.648   9.989  16.401  1.00  0.00     0.115 A 
BRANCH  33  34
ATOM     34  O   UNL     1       2.681  10.093  17.328  1.00  0.00    -0.508 OA
ATOM     35  H   UNL     1       3.492  10.675  17.155  1.00  0.00     0.293 HD
ENDBRANCH  33  34
ENDBRANCH   8  28
BRANCH   9  36
ATOM     36  O   UNL     1      -0.147   9.881  11.639  1.00  0.00    -0.502 OA
ATOM     37  H   UNL     1       0.103  10.681  11.070  1.00  0.00     0.293 HD
ENDBRANCH   9  36
TORSDOF 9
ENDMDL
MODEL 9
REMARK VINA RESULT:    -5.433      2.988      6.006
REMARK INTER + INTRA:          -7.799
REMARK INTER:                  -7.217
REMARK INTRA:                  -0.582
REMARK UNBOUND:                -0.460
REMARK SMILES C[C@H]1O[C@H](Oc2cc(O)c3c(=O)c(O)c(-c4ccc(O)cc4)oc3c2)[C@H](O)[C@H](O)[C@@H]1O
REMARK SMILES IDX 6 1 7 2 8 3 10 4 24 5 25 6 23 7 15 8 13 9 11 10 12 11 5 12
REMARK SMILES IDX 4 13 1 14 2 15 30 16 3 17 28 18 26 19 31 20 29 22 27 24 9 26
REMARK SMILES IDX 16 28 17 29 22 30 18 31 21 32 19 33 20 34 14 36
REMARK H PARENT 31 21 29 23 27 25 9 27 20 35 14 37
REMARK Flexibility Score: inf
ROOT
ATOM      1  C   UNL     1      -4.417  -7.338  24.485  1.00  0.00     0.130 A 
ATOM      2  C   UNL     1      -5.261  -7.898  25.445  1.00  0.00     0.093 A 
ATOM      3  C   UNL     1      -4.795  -8.208  26.730  1.00  0.00     0.134 A 
ATOM      4  C   UNL     1      -3.439  -7.920  27.073  1.00  0.00     0.111 A 
ATOM      5  C   UNL     1      -2.580  -7.417  26.064  1.00  0.00     0.146 A 
ATOM      6  C   UNL     1      -3.072  -7.125  24.792  1.00  0.00     0.094 A 
ATOM      7  O   UNL     1      -1.291  -7.211  26.306  1.00  0.00    -0.452 OA
ATOM      8  C   UNL     1      -0.725  -7.421  27.489  1.00  0.00     0.180 A 
ATOM      9  C   UNL     1      -1.519  -7.820  28.578  1.00  0.00     0.208 A 
ATOM     10  C   UNL     1      -2.888  -8.063  28.371  1.00  0.00     0.238 A 
ATOM     11  O   UNL     1      -3.606  -8.357  29.362  1.00  0.00    -0.285 OA
ENDROOT
BRANCH   1  12
ATOM     12  O   UNL     1      -4.934  -7.022  23.225  1.00  0.00    -0.462 OA
BRANCH  12  13
ATOM     13  C   UNL     1      -5.817  -7.890  22.510  1.00  0.00     0.339 C 
ATOM     14  C   UNL     1      -8.853  -5.823  22.313  1.00  0.00     0.042 C 
ATOM     15  C   UNL     1      -7.410  -6.236  22.009  1.00  0.00     0.151 C 
ATOM     16  C   UNL     1      -7.180  -6.337  20.485  1.00  0.00     0.174 C 
ATOM     17  O   UNL     1      -7.174  -7.489  22.628  1.00  0.00    -0.335 OA
ATOM     18  C   UNL     1      -5.741  -6.800  20.187  1.00  0.00     0.180 C 
ATOM     19  C   UNL     1      -5.383  -8.040  21.036  1.00  0.00     0.214 C 
BRANCH  16  20
ATOM     20  O   UNL     1      -7.427  -5.100  19.868  1.00  0.00    -0.388 OA
ATOM     21  H   UNL     1      -7.335  -5.252  18.891  1.00  0.00     0.211 HD
ENDBRANCH  16  20
BRANCH  18  22
ATOM     22  O   UNL     1      -4.807  -5.759  20.344  1.00  0.00    -0.387 OA
ATOM     23  H   UNL     1      -4.907  -5.124  19.592  1.00  0.00     0.211 HD
ENDBRANCH  18  22
BRANCH  19  24
ATOM     24  O   UNL     1      -4.005  -8.307  20.974  1.00  0.00    -0.384 OA
ATOM     25  H   UNL     1      -3.605  -7.941  21.806  1.00  0.00     0.211 HD
ENDBRANCH  19  24
ENDBRANCH  12  13
ENDBRANCH   1  12
BRANCH   3  26
ATOM     26  O   UNL     1      -5.709  -8.816  27.597  1.00  0.00    -0.507 OA
ATOM     27  H   UNL     1      -5.755  -8.659  28.592  1.00  0.00     0.293 HD
ENDBRANCH   3  26
BRANCH   8  28
ATOM     28  C   UNL     1       0.734  -7.203  27.612  1.00  0.00     0.021 A 
ATOM     29  C   UNL     1       1.211  -6.102  28.344  1.00  0.00     0.016 A 
ATOM     30  C   UNL     1       1.655  -8.025  26.938  1.00  0.00     0.016 A 
ATOM     31  C   UNL     1       2.583  -5.849  28.428  1.00  0.00     0.047 A 
ATOM     32  C   UNL     1       3.025  -7.768  27.021  1.00  0.00     0.047 A 
ATOM     33  C   UNL     1       3.493  -6.680  27.769  1.00  0.00     0.115 A 
BRANCH  33  34
ATOM     34  O   UNL     1       4.857  -6.414  27.859  1.00  0.00    -0.508 OA
ATOM     35  H   UNL     1       5.414  -6.217  27.035  1.00  0.00     0.293 HD
ENDBRANCH  33  34
ENDBRANCH   8  28
BRANCH   9  36
ATOM     36  O   UNL     1      -0.957  -7.937  29.852  1.00  0.00    -0.502 OA
ATOM     37  H   UNL     1      -0.286  -7.269  30.213  1.00  0.00     0.293 HD
ENDBRANCH   9  36
TORSDOF 9
ENDMDL
