MODEL 1
REMARK VINA RESULT:    -4.796      0.000      0.000
REMARK INTER + INTRA:          -5.565
REMARK INTER:                  -5.497
REMARK INTRA:                  -0.068
REMARK UNBOUND:                -0.068
REMARK SMILES COc1cc(C=O)ccc1O
REMARK SMILES IDX 3 1 10 2 9 3 8 4 5 5 4 6 2 7 1 8 11 9 6 11 7 12
REMARK H PARENT 11 10
REMARK Flexibility Score: inf
ROOT
ATOM      1  C   UNL     1      22.683 -16.433  -9.482  1.00  0.00     0.161 A 
ATOM      2  C   UNL     1      23.292 -17.555  -8.892  1.00  0.00     0.157 A 
ATOM      3  C   UNL     1      23.005 -18.838  -9.368  1.00  0.00     0.051 A 
ATOM      4  C   UNL     1      22.117 -19.017 -10.429  1.00  0.00     0.015 A 
ATOM      5  C   UNL     1      21.500 -17.908 -11.030  1.00  0.00     0.018 A 
ATOM      6  C   UNL     1      21.786 -16.619 -10.553  1.00  0.00     0.062 A 
ENDROOT
BRANCH   1   7
ATOM      7  O   UNL     1      22.990 -15.156  -8.983  1.00  0.00    -0.493 OA
ATOM      8  C   UNL     1      24.028 -14.320  -9.485  1.00  0.00     0.278 C 
ENDBRANCH   1   7
BRANCH   2   9
ATOM      9  O   UNL     1      24.185 -17.415  -7.830  1.00  0.00    -0.504 OA
ATOM     10  H   UNL     1      24.664 -18.208  -7.420  1.00  0.00     0.293 HD
ENDBRANCH   2   9
BRANCH   5  11
ATOM     11  C   UNL     1      20.558 -18.078 -12.153  1.00  0.00     0.260 C 
ATOM     12  O   UNL     1      20.437 -17.192 -13.040  1.00  0.00    -0.298 OA
ENDBRANCH   5  11
TORSDOF 3
ENDMDL
MODEL 2
REMARK VINA RESULT:    -4.582      1.134      2.789
REMARK INTER + INTRA:          -5.320
REMARK INTER:                  -5.254
REMARK INTRA:                  -0.066
REMARK UNBOUND:                -0.068
REMARK SMILES COc1cc(C=O)ccc1O
REMARK SMILES IDX 3 1 10 2 9 3 8 4 5 5 4 6 2 7 1 8 11 9 6 11 7 12
REMARK H PARENT 11 10
REMARK Flexibility Score: inf
ROOT
ATOM      1  C   UNL     1      23.181 -18.652  -9.459  1.00  0.00     0.161 A 
ATOM      2  C   UNL     1      23.374 -17.410  -8.828  1.00  0.00     0.157 A 
ATOM      3  C   UNL     1      22.675 -16.283  -9.272  1.00  0.00     0.051 A 
ATOM      4  C   UNL     1      21.782 -16.379 -10.341  1.00  0.00     0.015 A 
ATOM      5  C   UNL     1      21.577 -17.612 -10.982  1.00  0.00     0.018 A 
ATOM      6  C   UNL     1      22.279 -18.743 -10.538  1.00  0.00     0.062 A 
ENDROOT
BRANCH   1   7
ATOM      7  O   UNL     1      23.897 -19.766  -8.992  1.00  0.00    -0.493 OA
ATOM      8  C   UNL     1      24.794 -20.539  -9.783  1.00  0.00     0.278 C 
ENDBRANCH   1   7
BRANCH   2   9
ATOM      9  O   UNL     1      24.258 -17.274  -7.758  1.00  0.00    -0.504 OA
ATOM     10  H   UNL     1      25.205 -16.936  -7.879  1.00  0.00     0.293 HD
ENDBRANCH   2   9
BRANCH   5  11
ATOM     11  C   UNL     1      20.638 -17.733 -12.113  1.00  0.00     0.260 C 
ATOM     12  O   UNL     1      20.817 -17.087 -13.180  1.00  0.00    -0.298 OA
ENDBRANCH   5  11
TORSDOF 3
ENDMDL
MODEL 3
REMARK VINA RESULT:    -4.505      1.642      4.985
REMARK INTER + INTRA:          -5.231
REMARK INTER:                  -5.157
REMARK INTRA:                  -0.074
REMARK UNBOUND:                -0.068
REMARK SMILES COc1cc(C=O)ccc1O
REMARK SMILES IDX 3 1 10 2 9 3 8 4 5 5 4 6 2 7 1 8 11 9 6 11 7 12
REMARK H PARENT 11 10
REMARK Flexibility Score: inf
ROOT
ATOM      1  C   UNL     1      20.645 -18.659 -11.714  1.00  0.00     0.161 A 
ATOM      2  C   UNL     1      20.365 -17.957 -12.900  1.00  0.00     0.157 A 
ATOM      3  C   UNL     1      20.737 -16.615 -13.025  1.00  0.00     0.051 A 
ATOM      4  C   UNL     1      21.389 -15.961 -11.977  1.00  0.00     0.015 A 
ATOM      5  C   UNL     1      21.677 -16.647 -10.786  1.00  0.00     0.018 A 
ATOM      6  C   UNL     1      21.303 -17.994 -10.660  1.00  0.00     0.062 A 
ENDROOT
BRANCH   1   7
ATOM      7  O   UNL     1      20.259 -20.005 -11.617  1.00  0.00    -0.493 OA
ATOM      8  C   UNL     1      21.150 -21.111 -11.720  1.00  0.00     0.278 C 
ENDBRANCH   1   7
BRANCH   2   9
ATOM      9  O   UNL     1      19.715 -18.576 -13.968  1.00  0.00    -0.504 OA
ATOM     10  H   UNL     1      18.910 -19.176 -13.835  1.00  0.00     0.293 HD
ENDBRANCH   2   9
BRANCH   5  11
ATOM     11  C   UNL     1      22.365 -15.973  -9.669  1.00  0.00     0.260 C 
ATOM     12  O   UNL     1      23.180 -16.594  -8.937  1.00  0.00    -0.298 OA
ENDBRANCH   5  11
TORSDOF 3
ENDMDL
MODEL 4
REMARK VINA RESULT:    -4.416      1.465      1.563
REMARK INTER + INTRA:          -5.129
REMARK INTER:                  -5.056
REMARK INTRA:                  -0.073
REMARK UNBOUND:                -0.068
REMARK SMILES COc1cc(C=O)ccc1O
REMARK SMILES IDX 3 1 10 2 9 3 8 4 5 5 4 6 2 7 1 8 11 9 6 11 7 12
REMARK H PARENT 11 10
REMARK Flexibility Score: inf
ROOT
ATOM      1  C   UNL     1      22.393 -17.292  -9.482  1.00  0.00     0.161 A 
ATOM      2  C   UNL     1      23.460 -17.960  -8.856  1.00  0.00     0.157 A 
ATOM      3  C   UNL     1      23.783 -19.268  -9.229  1.00  0.00     0.051 A 
ATOM      4  C   UNL     1      23.052 -19.921 -10.223  1.00  0.00     0.015 A 
ATOM      5  C   UNL     1      21.983 -19.269 -10.859  1.00  0.00     0.018 A 
ATOM      6  C   UNL     1      21.658 -17.956 -10.485  1.00  0.00     0.062 A 
ENDROOT
BRANCH   1   7
ATOM      7  O   UNL     1      22.092 -15.979  -9.086  1.00  0.00    -0.493 OA
ATOM      8  C   UNL     1      22.403 -14.814  -9.845  1.00  0.00     0.278 C 
ENDBRANCH   1   7
BRANCH   2   9
ATOM      9  O   UNL     1      24.213 -17.340  -7.859  1.00  0.00    -0.504 OA
ATOM     10  H   UNL     1      25.044 -17.766  -7.466  1.00  0.00     0.293 HD
ENDBRANCH   2   9
BRANCH   5  11
ATOM     11  C   UNL     1      21.199 -19.943 -11.911  1.00  0.00     0.260 C 
ATOM     12  O   UNL     1      21.718 -20.239 -13.020  1.00  0.00    -0.298 OA
ENDBRANCH   5  11
TORSDOF 3
ENDMDL
MODEL 5
REMARK VINA RESULT:    -4.388      1.617      4.256
REMARK INTER + INTRA:          -5.097
REMARK INTER:                  -5.022
REMARK INTRA:                  -0.075
REMARK UNBOUND:                -0.068
REMARK SMILES COc1cc(C=O)ccc1O
REMARK SMILES IDX 3 1 10 2 9 3 8 4 5 5 4 6 2 7 1 8 11 9 6 11 7 12
REMARK H PARENT 11 10
REMARK Flexibility Score: inf
ROOT
ATOM      1  C   UNL     1      21.234 -16.334 -12.393  1.00  0.00     0.161 A 
ATOM      2  C   UNL     1      20.595 -17.573 -12.575  1.00  0.00     0.157 A 
ATOM      3  C   UNL     1      20.655 -18.546 -11.572  1.00  0.00     0.051 A 
ATOM      4  C   UNL     1      21.347 -18.297 -10.385  1.00  0.00     0.015 A 
ATOM      5  C   UNL     1      21.990 -17.065 -10.187  1.00  0.00     0.018 A 
ATOM      6  C   UNL     1      21.931 -16.088 -11.193  1.00  0.00     0.062 A 
ENDROOT
BRANCH   1   7
ATOM      7  O   UNL     1      21.157 -15.377 -13.417  1.00  0.00    -0.493 OA
ATOM      8  C   UNL     1      20.256 -14.274 -13.427  1.00  0.00     0.278 C 
ENDBRANCH   1   7
BRANCH   2   9
ATOM      9  O   UNL     1      19.895 -17.859 -13.747  1.00  0.00    -0.504 OA
ATOM     10  H   UNL     1      18.979 -17.471 -13.936  1.00  0.00     0.293 HD
ENDBRANCH   2   9
BRANCH   5  11
ATOM     11  C   UNL     1      22.726 -16.784  -8.939  1.00  0.00     0.260 C 
ATOM     12  O   UNL     1      23.614 -17.572  -8.516  1.00  0.00    -0.298 OA
ENDBRANCH   5  11
TORSDOF 3
ENDMDL
MODEL 6
REMARK VINA RESULT:    -4.371      1.395      1.897
REMARK INTER + INTRA:          -5.078
REMARK INTER:                  -5.014
REMARK INTRA:                  -0.064
REMARK UNBOUND:                -0.068
REMARK SMILES COc1cc(C=O)ccc1O
REMARK SMILES IDX 3 1 10 2 9 3 8 4 5 5 4 6 2 7 1 8 11 9 6 11 7 12
REMARK H PARENT 11 10
REMARK Flexibility Score: inf
ROOT
ATOM      1  C   UNL     1      22.913 -18.461  -9.472  1.00  0.00     0.161 A 
ATOM      2  C   UNL     1      23.559 -19.707  -9.562  1.00  0.00     0.157 A 
ATOM      3  C   UNL     1      23.120 -20.658 -10.489  1.00  0.00     0.051 A 
ATOM      4  C   UNL     1      22.042 -20.380 -11.331  1.00  0.00     0.015 A 
ATOM      5  C   UNL     1      21.386 -19.141 -11.256  1.00  0.00     0.018 A 
ATOM      6  C   UNL     1      21.825 -18.186 -10.325  1.00  0.00     0.062 A 
ENDROOT
BRANCH   1   7
ATOM      7  O   UNL     1      23.375 -17.526  -8.532  1.00  0.00    -0.493 OA
ATOM      8  C   UNL     1      23.819 -16.211  -8.851  1.00  0.00     0.278 C 
ENDBRANCH   1   7
BRANCH   2   9
ATOM      9  O   UNL     1      24.638 -20.021  -8.737  1.00  0.00    -0.504 OA
ATOM     10  H   UNL     1      24.915 -19.430  -7.962  1.00  0.00     0.293 HD
ENDBRANCH   2   9
BRANCH   5  11
ATOM     11  C   UNL     1      20.245 -18.829 -12.137  1.00  0.00     0.260 C 
ATOM     12  O   UNL     1      20.285 -17.852 -12.932  1.00  0.00    -0.298 OA
ENDBRANCH   5  11
TORSDOF 3
ENDMDL
MODEL 7
REMARK VINA RESULT:    -4.346      1.530      2.862
REMARK INTER + INTRA:          -5.049
REMARK INTER:                  -4.982
REMARK INTRA:                  -0.067
REMARK UNBOUND:                -0.068
REMARK SMILES COc1cc(C=O)ccc1O
REMARK SMILES IDX 3 1 10 2 9 3 8 4 5 5 4 6 2 7 1 8 11 9 6 11 7 12
REMARK H PARENT 11 10
REMARK Flexibility Score: inf
ROOT
ATOM      1  C   UNL     1      21.728 -17.284 -10.125  1.00  0.00     0.161 A 
ATOM      2  C   UNL     1      22.022 -15.952 -10.466  1.00  0.00     0.157 A 
ATOM      3  C   UNL     1      21.653 -15.452 -11.719  1.00  0.00     0.051 A 
ATOM      4  C   UNL     1      20.992 -16.267 -12.639  1.00  0.00     0.015 A 
ATOM      5  C   UNL     1      20.690 -17.599 -12.315  1.00  0.00     0.018 A 
ATOM      6  C   UNL     1      21.060 -18.102 -11.058  1.00  0.00     0.062 A 
ENDROOT
BRANCH   1   7
ATOM      7  O   UNL     1      22.111 -17.759  -8.860  1.00  0.00    -0.493 OA
ATOM      8  C   UNL     1      23.341 -18.423  -8.584  1.00  0.00     0.278 C 
ENDBRANCH   1   7
BRANCH   2   9
ATOM      9  O   UNL     1      22.682 -15.108  -9.573  1.00  0.00    -0.504 OA
ATOM     10  H   UNL     1      22.451 -14.125  -9.488  1.00  0.00     0.293 HD
ENDBRANCH   2   9
BRANCH   5  11
ATOM     11  C   UNL     1      19.991 -18.475 -13.274  1.00  0.00     0.260 C 
ATOM     12  O   UNL     1      20.621 -19.331 -13.952  1.00  0.00    -0.298 OA
ENDBRANCH   5  11
TORSDOF 3
ENDMDL
MODEL 8
REMARK VINA RESULT:    -4.260      1.703      3.902
REMARK INTER + INTRA:          -4.950
REMARK INTER:                  -4.877
REMARK INTRA:                  -0.073
REMARK UNBOUND:                -0.068
REMARK SMILES COc1cc(C=O)ccc1O
REMARK SMILES IDX 3 1 10 2 9 3 8 4 5 5 4 6 2 7 1 8 11 9 6 11 7 12
REMARK H PARENT 11 10
REMARK Flexibility Score: inf
ROOT
ATOM      1  C   UNL     1      21.850 -18.012 -10.422  1.00  0.00     0.161 A 
ATOM      2  C   UNL     1      22.810 -19.010 -10.178  1.00  0.00     0.157 A 
ATOM      3  C   UNL     1      24.009 -18.686  -9.534  1.00  0.00     0.051 A 
ATOM      4  C   UNL     1      24.262 -17.374  -9.129  1.00  0.00     0.015 A 
ATOM      5  C   UNL     1      23.315 -16.365  -9.365  1.00  0.00     0.018 A 
ATOM      6  C   UNL     1      22.112 -16.689 -10.011  1.00  0.00     0.062 A 
ENDROOT
BRANCH   1   7
ATOM      7  O   UNL     1      20.656 -18.366 -11.071  1.00  0.00    -0.493 OA
ATOM      8  C   UNL     1      20.421 -18.218 -12.468  1.00  0.00     0.278 C 
ENDBRANCH   1   7
BRANCH   2   9
ATOM      9  O   UNL     1      22.593 -20.331 -10.568  1.00  0.00    -0.504 OA
ATOM     10  H   UNL     1      22.847 -21.116  -9.981  1.00  0.00     0.293 HD
ENDBRANCH   2   9
BRANCH   5  11
ATOM     11  C   UNL     1      23.565 -14.974  -8.944  1.00  0.00     0.260 C 
ATOM     12  O   UNL     1      24.329 -14.222  -9.605  1.00  0.00    -0.298 OA
ENDBRANCH   5  11
TORSDOF 3
ENDMDL
MODEL 9
REMARK VINA RESULT:    -4.241      1.652      2.071
REMARK INTER + INTRA:          -4.929
REMARK INTER:                  -4.855
REMARK INTRA:                  -0.074
REMARK UNBOUND:                -0.068
REMARK SMILES COc1cc(C=O)ccc1O
REMARK SMILES IDX 3 1 10 2 9 3 8 4 5 5 4 6 2 7 1 8 11 9 6 11 7 12
REMARK H PARENT 11 10
REMARK Flexibility Score: inf
ROOT
ATOM      1  C   UNL     1      21.743 -15.692 -11.248  1.00  0.00     0.161 A 
ATOM      2  C   UNL     1      22.039 -16.377 -10.056  1.00  0.00     0.157 A 
ATOM      3  C   UNL     1      21.683 -17.722  -9.915  1.00  0.00     0.051 A 
ATOM      4  C   UNL     1      21.034 -18.395 -10.951  1.00  0.00     0.015 A 
ATOM      5  C   UNL     1      20.731 -17.726 -12.148  1.00  0.00     0.018 A 
ATOM      6  C   UNL     1      21.087 -16.376 -12.291  1.00  0.00     0.062 A 
ENDROOT
BRANCH   1   7
ATOM      7  O   UNL     1      22.112 -14.342 -11.361  1.00  0.00    -0.493 OA
ATOM      8  C   UNL     1      23.276 -13.876 -12.036  1.00  0.00     0.278 C 
ENDBRANCH   1   7
BRANCH   2   9
ATOM      9  O   UNL     1      22.686 -15.739  -8.998  1.00  0.00    -0.504 OA
ATOM     10  H   UNL     1      23.469 -16.159  -8.511  1.00  0.00     0.293 HD
ENDBRANCH   2   9
BRANCH   5  11
ATOM     11  C   UNL     1      20.046 -18.420 -13.255  1.00  0.00     0.260 C 
ATOM     12  O   UNL     1      20.622 -19.330 -13.908  1.00  0.00    -0.298 OA
ENDBRANCH   5  11
TORSDOF 3
ENDMDL
