MODEL 1
REMARK VINA RESULT:    -3.606      0.000      0.000
REMARK INTER + INTRA:          -5.758
REMARK INTER:                  -5.503
REMARK INTRA:                  -0.255
REMARK UNBOUND:                -0.255
REMARK SMILES CC1=CCC[C@@H](C)C(=O)C[C@@H](C(C)C)C(=O)C1
REMARK SMILES IDX 8 1 9 2 6 3 7 4 5 5 4 6 3 7 2 8 1 9 10 11 11 12 15 13 16 14
REMARK SMILES IDX 17 15 12 17 13 18 14 19
REMARK H PARENT
REMARK Flexibility Score: 70.00
ROOT
ATOM      1  C   UNL     1       1.894   9.401  17.385  1.00  0.00     0.136 C 
ATOM      2  O   UNL     1       2.710   8.562  17.029  1.00  0.00    -0.299 OA
ENDROOT
BRANCH   1   3
ATOM      3  C   UNL     1       1.250   9.292  18.763  1.00  0.00     0.053 C 
ATOM      4  C   UNL     1       0.597   7.920  18.997  1.00  0.00     0.016 C 
BRANCH   3   5
ATOM      5  C   UNL     1       0.212  10.426  18.986  1.00  0.00     0.015 C 
BRANCH   5   6
ATOM      6  C   UNL     1       0.671  11.619  19.852  1.00  0.00     0.028 C 
BRANCH   6   7
ATOM      7  C   UNL     1       2.095  11.635  20.368  1.00  0.00    -0.028 C 
ATOM      8  C   UNL     1       3.160  12.276  19.827  1.00  0.00    -0.070 CG0
ATOM      9  C   UNL     1       4.425  12.331  20.650  1.00  0.00     0.039 C 
ATOM     10  G   UNL     1       3.190  12.876  18.427  1.00  0.00     0.000 G0
ENDBRANCH   6   7
ENDBRANCH   5   6
ENDBRANCH   3   5
ENDBRANCH   1   3
BRANCH   1  11
ATOM     11  C   UNL     1       1.580  10.547  16.435  1.00  0.00     0.087 C 
BRANCH  11  12
ATOM     12  C   UNL     1       2.781  11.485  16.165  1.00  0.00     0.066 C 
BRANCH  12  13
ATOM     13  C   UNL     1       3.609  11.853  17.394  1.00  0.00     0.140 C 
ATOM     14  O   UNL     1       4.710  11.331  17.502  1.00  0.00    -0.299 OA
BRANCH  13  15
ATOM     15  C   UNL     1       3.195  12.886  18.435  1.00  0.00     0.106 CG0
ATOM     16  G   UNL     1       3.149  12.274  19.828  1.00  0.00     0.000 G0
ENDBRANCH  13  15
ENDBRANCH  12  13
BRANCH  12  17
ATOM     17  C   UNL     1       2.361  12.739  15.335  1.00  0.00    -0.006 C 
ATOM     18  C   UNL     1       0.834  12.886  15.258  1.00  0.00     0.008 C 
ATOM     19  C   UNL     1       2.965  12.780  13.921  1.00  0.00     0.008 C 
ENDBRANCH  12  17
ENDBRANCH  11  12
ENDBRANCH   1  11
TORSDOF 1
ENDMDL
MODEL 2
REMARK VINA RESULT:    -3.592      1.980      4.201
REMARK INTER + INTRA:          -5.737
REMARK INTER:                  -5.569
REMARK INTRA:                  -0.168
REMARK UNBOUND:                -0.255
REMARK SMILES CC1=CCC[C@@H](C)C(=O)C[C@@H](C(C)C)C(=O)C1
REMARK SMILES IDX 8 1 9 2 6 3 7 4 5 5 4 6 3 7 2 8 1 9 10 11 11 12 15 13 16 14
REMARK SMILES IDX 17 15 12 17 13 18 14 19
REMARK H PARENT
REMARK Flexibility Score: 70.00
ROOT
ATOM      1  C   UNL     1       1.109  10.519  19.486  1.00  0.00     0.136 C 
ATOM      2  O   UNL     1       0.163  10.815  20.201  1.00  0.00    -0.299 OA
ENDROOT
BRANCH   1   3
ATOM      3  C   UNL     1       0.962   9.399  18.460  1.00  0.00     0.053 C 
ATOM      4  C   UNL     1       0.200   8.188  19.023  1.00  0.00     0.016 C 
BRANCH   3   5
ATOM      5  C   UNL     1       2.347   8.957  17.913  1.00  0.00     0.015 C 
BRANCH   5   6
ATOM      6  C   UNL     1       2.756   9.521  16.535  1.00  0.00     0.028 C 
BRANCH   6   7
ATOM      7  C   UNL     1       1.837  10.518  15.860  1.00  0.00    -0.028 C 
ATOM      8  C   UNL     1       1.935  11.870  15.873  1.00  0.00    -0.070 CG0
ATOM      9  C   UNL     1       1.035  12.638  14.935  1.00  0.00     0.039 C 
ATOM     10  G   UNL     1       2.832  12.663  16.814  1.00  0.00     0.000 G0
ENDBRANCH   6   7
ENDBRANCH   5   6
ENDBRANCH   3   5
ENDBRANCH   1   3
BRANCH   1  11
ATOM     11  C   UNL     1       2.398  11.314  19.633  1.00  0.00     0.087 C 
BRANCH  11  12
ATOM     12  C   UNL     1       2.222  12.837  19.422  1.00  0.00     0.066 C 
BRANCH  12  13
ATOM     13  C   UNL     1       2.076  13.280  17.968  1.00  0.00     0.140 C 
ATOM     14  O   UNL     1       1.344  14.236  17.747  1.00  0.00    -0.299 OA
BRANCH  13  15
ATOM     15  C   UNL     1       2.845  12.675  16.800  1.00  0.00     0.106 CG0
ATOM     16  G   UNL     1       1.922  11.876  15.890  1.00  0.00     0.000 G0
ENDBRANCH  13  15
ENDBRANCH  12  13
BRANCH  12  17
ATOM     17  C   UNL     1       3.311  13.657  20.185  1.00  0.00    -0.006 C 
ATOM     18  C   UNL     1       4.144  12.766  21.119  1.00  0.00     0.008 C 
ATOM     19  C   UNL     1       2.751  14.858  20.966  1.00  0.00     0.008 C 
ENDBRANCH  12  17
ENDBRANCH  11  12
ENDBRANCH   1  11
TORSDOF 1
ENDMDL
MODEL 3
REMARK VINA RESULT:    -3.575      3.345      5.139
REMARK INTER + INTRA:          -5.711
REMARK INTER:                  -5.230
REMARK INTRA:                  -0.481
REMARK UNBOUND:                -0.255
REMARK SMILES CC1=CCC[C@@H](C)C(=O)C[C@@H](C(C)C)C(=O)C1
REMARK SMILES IDX 8 1 9 2 6 3 7 4 5 5 4 6 3 7 2 8 1 9 10 11 11 12 15 13 16 14
REMARK SMILES IDX 17 15 12 17 13 18 14 19
REMARK H PARENT
REMARK Flexibility Score: 70.00
ROOT
ATOM      1  C   UNL     1       1.425  15.617  20.255  1.00  0.00     0.136 C 
ATOM      2  O   UNL     1       0.546  16.145  19.589  1.00  0.00    -0.299 OA
ENDROOT
BRANCH   1   3
ATOM      3  C   UNL     1       1.455  15.822  21.766  1.00  0.00     0.053 C 
ATOM      4  C   UNL     1       0.379  16.811  22.243  1.00  0.00     0.016 C 
BRANCH   3   5
ATOM      5  C   UNL     1       2.860  16.287  22.239  1.00  0.00     0.015 C 
BRANCH   5   6
ATOM      6  C   UNL     1       3.613  15.339  23.198  1.00  0.00     0.028 C 
BRANCH   6   7
ATOM      7  C   UNL     1       3.060  13.947  23.421  1.00  0.00    -0.028 C 
ATOM      8  C   UNL     1       3.347  12.824  22.717  1.00  0.00    -0.070 CG0
ATOM      9  C   UNL     1       2.848  11.512  23.275  1.00  0.00     0.039 C 
ATOM     10  G   UNL     1       4.068  12.803  21.376  1.00  0.00     0.000 G0
ENDBRANCH   6   7
ENDBRANCH   5   6
ENDBRANCH   3   5
ENDBRANCH   1   3
BRANCH   1  11
ATOM     11  C   UNL     1       2.441  14.741  19.538  1.00  0.00     0.087 C 
BRANCH  11  12
ATOM     12  C   UNL     1       2.097  13.232  19.562  1.00  0.00     0.066 C 
BRANCH  12  13
ATOM     13  C   UNL     1       3.132  12.340  20.244  1.00  0.00     0.140 C 
ATOM     14  O   UNL     1       3.265  11.205  19.806  1.00  0.00    -0.299 OA
BRANCH  13  15
ATOM     15  C   UNL     1       4.063  12.796  21.361  1.00  0.00     0.106 CG0
ATOM     16  G   UNL     1       3.341  12.819  22.701  1.00  0.00     0.000 G0
ENDBRANCH  13  15
ENDBRANCH  12  13
BRANCH  12  17
ATOM     17  C   UNL     1       1.702  12.706  18.145  1.00  0.00    -0.006 C 
ATOM     18  C   UNL     1       2.113  13.688  17.038  1.00  0.00     0.008 C 
ATOM     19  C   UNL     1       0.212  12.352  18.007  1.00  0.00     0.008 C 
ENDBRANCH  12  17
ENDBRANCH  11  12
ENDBRANCH   1  11
TORSDOF 1
ENDMDL
MODEL 4
REMARK VINA RESULT:    -3.547      2.181      3.856
REMARK INTER + INTRA:          -5.668
REMARK INTER:                  -5.353
REMARK INTRA:                  -0.315
REMARK UNBOUND:                -0.255
REMARK SMILES CC1=CCC[C@@H](C)C(=O)C[C@@H](C(C)C)C(=O)C1
REMARK SMILES IDX 8 1 9 2 6 3 7 4 5 5 4 6 3 7 2 8 1 9 10 11 11 12 15 13 16 14
REMARK SMILES IDX 17 15 12 17 13 18 14 19
REMARK H PARENT
REMARK Flexibility Score: 70.00
ROOT
ATOM      1  C   UNL     1       1.271  10.202  19.762  1.00  0.00     0.136 C 
ATOM      2  O   UNL     1       2.122   9.738  20.507  1.00  0.00    -0.299 OA
ENDROOT
BRANCH   1   3
ATOM      3  C   UNL     1       0.693   9.341  18.644  1.00  0.00     0.053 C 
ATOM      4  C   UNL     1      -0.060   8.113  19.182  1.00  0.00     0.016 C 
BRANCH   3   5
ATOM      5  C   UNL     1       1.802   8.898  17.650  1.00  0.00     0.015 C 
BRANCH   5   6
ATOM      6  C   UNL     1       1.793   9.575  16.262  1.00  0.00     0.028 C 
BRANCH   6   7
ATOM      7  C   UNL     1       2.822  10.647  15.972  1.00  0.00    -0.028 C 
ATOM      8  C   UNL     1       2.688  11.985  16.140  1.00  0.00    -0.070 CG0
ATOM      9  C   UNL     1       3.933  12.828  16.000  1.00  0.00     0.039 C 
ATOM     10  G   UNL     1       1.365  12.698  16.387  1.00  0.00     0.000 G0
ENDBRANCH   6   7
ENDBRANCH   5   6
ENDBRANCH   3   5
ENDBRANCH   1   3
BRANCH   1  11
ATOM     11  C   UNL     1       0.798  11.627  20.011  1.00  0.00     0.087 C 
BRANCH  11  12
ATOM     12  C   UNL     1       0.161  12.302  18.773  1.00  0.00     0.066 C 
BRANCH  12  13
ATOM     13  C   UNL     1       1.138  13.036  17.858  1.00  0.00     0.140 C 
ATOM     14  O   UNL     1       1.850  13.889  18.371  1.00  0.00    -0.299 OA
BRANCH  13  15
ATOM     15  C   UNL     1       1.347  12.714  16.383  1.00  0.00     0.106 CG0
ATOM     16  G   UNL     1       2.666  11.986  16.162  1.00  0.00     0.000 G0
ENDBRANCH  13  15
ENDBRANCH  12  13
BRANCH  12  17
ATOM     17  C   UNL     1      -1.066  13.186  19.162  1.00  0.00    -0.006 C 
ATOM     18  C   UNL     1      -2.048  12.430  20.070  1.00  0.00     0.008 C 
ATOM     19  C   UNL     1      -1.814  13.777  17.956  1.00  0.00     0.008 C 
ENDBRANCH  12  17
ENDBRANCH  11  12
ENDBRANCH   1  11
TORSDOF 1
ENDMDL
MODEL 5
REMARK VINA RESULT:    -3.461      4.290      6.197
REMARK INTER + INTRA:          -5.538
REMARK INTER:                  -5.066
REMARK INTRA:                  -0.471
REMARK UNBOUND:                -0.255
REMARK SMILES CC1=CCC[C@@H](C)C(=O)C[C@@H](C(C)C)C(=O)C1
REMARK SMILES IDX 8 1 9 2 6 3 7 4 5 5 4 6 3 7 2 8 1 9 10 11 11 12 15 13 16 14
REMARK SMILES IDX 17 15 12 17 13 18 14 19
REMARK H PARENT
REMARK Flexibility Score: 70.00
ROOT
ATOM      1  C   UNL     1       3.225  14.749  23.302  1.00  0.00     0.136 C 
ATOM      2  O   UNL     1       2.908  15.774  23.890  1.00  0.00    -0.299 OA
ENDROOT
BRANCH   1   3
ATOM      3  C   UNL     1       3.817  13.581  24.083  1.00  0.00     0.053 C 
ATOM      4  C   UNL     1       4.673  12.660  23.198  1.00  0.00     0.016 C 
BRANCH   3   5
ATOM      5  C   UNL     1       2.703  12.761  24.792  1.00  0.00     0.015 C 
BRANCH   5   6
ATOM      6  C   UNL     1       2.245  11.467  24.085  1.00  0.00     0.028 C 
BRANCH   6   7
ATOM      7  C   UNL     1       0.836  11.402  23.534  1.00  0.00    -0.028 C 
ATOM      8  C   UNL     1       0.453  11.500  22.237  1.00  0.00    -0.070 CG0
ATOM      9  C   UNL     1      -0.986  11.173  21.915  1.00  0.00     0.039 C 
ATOM     10  G   UNL     1       1.348  11.983  21.104  1.00  0.00     0.000 G0
ENDBRANCH   6   7
ENDBRANCH   5   6
ENDBRANCH   3   5
ENDBRANCH   1   3
BRANCH   1  11
ATOM     11  C   UNL     1       2.978  14.676  21.803  1.00  0.00     0.087 C 
BRANCH  11  12
ATOM     12  C   UNL     1       1.480  14.670  21.413  1.00  0.00     0.066 C 
BRANCH  12  13
ATOM     13  C   UNL     1       1.003  13.417  20.682  1.00  0.00     0.140 C 
ATOM     14  O   UNL     1       0.364  13.581  19.652  1.00  0.00    -0.299 OA
BRANCH  13  15
ATOM     15  C   UNL     1       1.347  11.992  21.099  1.00  0.00     0.106 CG0
ATOM     16  G   UNL     1       0.439  11.515  22.224  1.00  0.00     0.000 G0
ENDBRANCH  13  15
ENDBRANCH  12  13
BRANCH  12  17
ATOM     17  C   UNL     1       1.070  15.982  20.670  1.00  0.00    -0.006 C 
ATOM     18  C   UNL     1       2.203  16.507  19.776  1.00  0.00     0.008 C 
ATOM     19  C   UNL     1       0.579  17.098  21.607  1.00  0.00     0.008 C 
ENDBRANCH  12  17
ENDBRANCH  11  12
ENDBRANCH   1  11
TORSDOF 1
ENDMDL
MODEL 6
REMARK VINA RESULT:    -3.439      3.324      6.047
REMARK INTER + INTRA:          -5.503
REMARK INTER:                  -4.993
REMARK INTRA:                  -0.510
REMARK UNBOUND:                -0.255
REMARK SMILES CC1=CCC[C@@H](C)C(=O)C[C@@H](C(C)C)C(=O)C1
REMARK SMILES IDX 8 1 9 2 6 3 7 4 5 5 4 6 3 7 2 8 1 9 10 11 11 12 15 13 16 14
REMARK SMILES IDX 17 15 12 17 13 18 14 19
REMARK H PARENT
REMARK Flexibility Score: 70.00
ROOT
ATOM      1  C   UNL     1       2.601  14.979  22.620  1.00  0.00     0.136 C 
ATOM      2  O   UNL     1       3.535  14.951  23.407  1.00  0.00    -0.299 OA
ENDROOT
BRANCH   1   3
ATOM      3  C   UNL     1       2.091  16.319  22.098  1.00  0.00     0.053 C 
ATOM      4  C   UNL     1       0.556  16.401  22.099  1.00  0.00     0.016 C 
BRANCH   3   5
ATOM      5  C   UNL     1       2.644  16.611  20.675  1.00  0.00     0.015 C 
BRANCH   5   6
ATOM      6  C   UNL     1       1.664  16.403  19.500  1.00  0.00     0.028 C 
BRANCH   6   7
ATOM      7  C   UNL     1       2.100  15.534  18.339  1.00  0.00    -0.028 C 
ATOM      8  C   UNL     1       1.759  14.244  18.102  1.00  0.00    -0.070 CG0
ATOM      9  C   UNL     1       2.133  13.665  16.758  1.00  0.00     0.039 C 
ATOM     10  G   UNL     1       1.095  13.323  19.118  1.00  0.00     0.000 G0
ENDBRANCH   6   7
ENDBRANCH   5   6
ENDBRANCH   3   5
ENDBRANCH   1   3
BRANCH   1  11
ATOM     11  C   UNL     1       2.003  13.656  22.165  1.00  0.00     0.087 C 
BRANCH  11  12
ATOM     12  C   UNL     1       2.857  12.911  21.111  1.00  0.00     0.066 C 
BRANCH  12  13
ATOM     13  C   UNL     1       2.101  12.461  19.862  1.00  0.00     0.140 C 
ATOM     14  O   UNL     1       2.277  11.309  19.489  1.00  0.00    -0.299 OA
BRANCH  13  15
ATOM     15  C   UNL     1       1.085  13.314  19.115  1.00  0.00     0.106 CG0
ATOM     16  G   UNL     1       1.771  14.239  18.119  1.00  0.00     0.000 G0
ENDBRANCH  13  15
ENDBRANCH  12  13
BRANCH  12  17
ATOM     17  C   UNL     1       3.687  11.753  21.751  1.00  0.00    -0.006 C 
ATOM     18  C   UNL     1       3.037  11.232  23.042  1.00  0.00     0.008 C 
ATOM     19  C   UNL     1       5.159  12.116  22.014  1.00  0.00     0.008 C 
ENDBRANCH  12  17
ENDBRANCH  11  12
ENDBRANCH   1  11
TORSDOF 1
ENDMDL
MODEL 7
REMARK VINA RESULT:    -3.398      3.633      5.548
REMARK INTER + INTRA:          -5.441
REMARK INTER:                  -5.359
REMARK INTRA:                  -0.081
REMARK UNBOUND:                -0.255
REMARK SMILES CC1=CCC[C@@H](C)C(=O)C[C@@H](C(C)C)C(=O)C1
REMARK SMILES IDX 8 1 9 2 6 3 7 4 5 5 4 6 3 7 2 8 1 9 10 11 11 12 15 13 16 14
REMARK SMILES IDX 17 15 12 17 13 18 14 19
REMARK H PARENT
REMARK Flexibility Score: 70.00
ROOT
ATOM      1  C   UNL     1       2.212  15.620  20.578  1.00  0.00     0.136 C 
ATOM      2  O   UNL     1       2.121  16.504  19.739  1.00  0.00    -0.299 OA
ENDROOT
BRANCH   1   3
ATOM      3  C   UNL     1       1.629  15.835  21.971  1.00  0.00     0.053 C 
ATOM      4  C   UNL     1       0.632  17.005  22.013  1.00  0.00     0.016 C 
BRANCH   3   5
ATOM      5  C   UNL     1       2.755  16.051  23.020  1.00  0.00     0.015 C 
BRANCH   5   6
ATOM      6  C   UNL     1       3.380  14.779  23.632  1.00  0.00     0.028 C 
BRANCH   6   7
ATOM      7  C   UNL     1       2.458  13.665  24.082  1.00  0.00    -0.028 C 
ATOM      8  C   UNL     1       2.346  12.422  23.550  1.00  0.00    -0.070 CG0
ATOM      9  C   UNL     1       1.524  11.413  24.317  1.00  0.00     0.039 C 
ATOM     10  G   UNL     1       2.927  12.000  22.207  1.00  0.00     0.000 G0
ENDBRANCH   6   7
ENDBRANCH   5   6
ENDBRANCH   3   5
ENDBRANCH   1   3
BRANCH   1  11
ATOM     11  C   UNL     1       2.882  14.314  20.176  1.00  0.00     0.087 C 
BRANCH  11  12
ATOM     12  C   UNL     1       1.895  13.141  19.966  1.00  0.00     0.066 C 
BRANCH  12  13
ATOM     13  C   UNL     1       1.852  12.116  21.097  1.00  0.00     0.140 C 
ATOM     14  O   UNL     1       0.945  11.296  21.072  1.00  0.00    -0.299 OA
BRANCH  13  15
ATOM     15  C   UNL     1       2.908  11.992  22.189  1.00  0.00     0.106 CG0
ATOM     16  G   UNL     1       2.351  12.418  23.541  1.00  0.00     0.000 G0
ENDBRANCH  13  15
ENDBRANCH  12  13
BRANCH  12  17
ATOM     17  C   UNL     1       2.080  12.473  18.566  1.00  0.00    -0.006 C 
ATOM     18  C   UNL     1       3.076  11.305  18.620  1.00  0.00     0.008 C 
ATOM     19  C   UNL     1       2.483  13.458  17.456  1.00  0.00     0.008 C 
ENDBRANCH  12  17
ENDBRANCH  11  12
ENDBRANCH   1  11
TORSDOF 1
ENDMDL
MODEL 8
REMARK VINA RESULT:    -3.318      3.357      5.637
REMARK INTER + INTRA:          -5.319
REMARK INTER:                  -5.049
REMARK INTRA:                  -0.271
REMARK UNBOUND:                -0.255
REMARK SMILES CC1=CCC[C@@H](C)C(=O)C[C@@H](C(C)C)C(=O)C1
REMARK SMILES IDX 8 1 9 2 6 3 7 4 5 5 4 6 3 7 2 8 1 9 10 11 11 12 15 13 16 14
REMARK SMILES IDX 17 15 12 17 13 18 14 19
REMARK H PARENT
REMARK Flexibility Score: 70.00
ROOT
ATOM      1  C   UNL     1       2.783  12.006  23.014  1.00  0.00     0.136 C 
ATOM      2  O   UNL     1       1.802  11.528  23.566  1.00  0.00    -0.299 OA
ENDROOT
BRANCH   1   3
ATOM      3  C   UNL     1       3.803  11.085  22.351  1.00  0.00     0.053 C 
ATOM      4  C   UNL     1       4.160   9.878  23.233  1.00  0.00     0.016 C 
BRANCH   3   5
ATOM      5  C   UNL     1       5.089  11.865  21.961  1.00  0.00     0.015 C 
BRANCH   5   6
ATOM      6  C   UNL     1       5.184  12.348  20.498  1.00  0.00     0.028 C 
BRANCH   6   7
ATOM      7  C   UNL     1       4.121  11.900  19.517  1.00  0.00    -0.028 C 
ATOM      8  C   UNL     1       3.077  12.625  19.045  1.00  0.00    -0.070 CG0
ATOM      9  C   UNL     1       2.287  12.036  17.900  1.00  0.00     0.039 C 
ATOM     10  G   UNL     1       2.606  13.948  19.634  1.00  0.00     0.000 G0
ENDBRANCH   6   7
ENDBRANCH   5   6
ENDBRANCH   3   5
ENDBRANCH   1   3
BRANCH   1  11
ATOM     11  C   UNL     1       2.925  13.520  22.987  1.00  0.00     0.087 C 
BRANCH  11  12
ATOM     12  C   UNL     1       1.807  14.241  22.197  1.00  0.00     0.066 C 
BRANCH  12  13
ATOM     13  C   UNL     1       1.605  13.754  20.764  1.00  0.00     0.140 C 
ATOM     14  O   UNL     1       0.529  13.236  20.498  1.00  0.00    -0.299 OA
BRANCH  13  15
ATOM     15  C   UNL     1       2.609  13.953  19.635  1.00  0.00     0.106 CG0
ATOM     16  G   UNL     1       3.074  12.616  19.073  1.00  0.00     0.000 G0
ENDBRANCH  13  15
ENDBRANCH  12  13
BRANCH  12  17
ATOM     17  C   UNL     1       1.947  15.795  22.281  1.00  0.00    -0.006 C 
ATOM     18  C   UNL     1       2.537  16.241  23.627  1.00  0.00     0.008 C 
ATOM     19  C   UNL     1       0.638  16.553  22.003  1.00  0.00     0.008 C 
ENDBRANCH  12  17
ENDBRANCH  11  12
ENDBRANCH   1  11
TORSDOF 1
ENDMDL
MODEL 9
REMARK VINA RESULT:    -3.254      2.399      4.807
REMARK INTER + INTRA:          -5.222
REMARK INTER:                  -4.681
REMARK INTRA:                  -0.540
REMARK UNBOUND:                -0.255
REMARK SMILES CC1=CCC[C@@H](C)C(=O)C[C@@H](C(C)C)C(=O)C1
REMARK SMILES IDX 8 1 9 2 6 3 7 4 5 5 4 6 3 7 2 8 1 9 10 11 11 12 15 13 16 14
REMARK SMILES IDX 17 15 12 17 13 18 14 19
REMARK H PARENT
REMARK Flexibility Score: 70.00
ROOT
ATOM      1  C   UNL     1       2.942  11.459  17.566  1.00  0.00     0.136 C 
ATOM      2  O   UNL     1       4.100  11.081  17.675  1.00  0.00    -0.299 OA
ENDROOT
BRANCH   1   3
ATOM      3  C   UNL     1       2.000  10.744  16.604  1.00  0.00     0.053 C 
ATOM      4  C   UNL     1       2.007   9.219  16.804  1.00  0.00     0.016 C 
BRANCH   3   5
ATOM      5  C   UNL     1       2.337  11.093  15.128  1.00  0.00     0.015 C 
BRANCH   5   6
ATOM      6  C   UNL     1       2.800  12.540  14.851  1.00  0.00     0.028 C 
BRANCH   6   7
ATOM      7  C   UNL     1       1.766  13.562  14.428  1.00  0.00    -0.028 C 
ATOM      8  C   UNL     1       1.392  14.681  15.096  1.00  0.00    -0.070 CG0
ATOM      9  C   UNL     1       0.509  15.663  14.362  1.00  0.00     0.039 C 
ATOM     10  G   UNL     1       1.739  14.978  16.549  1.00  0.00     0.000 G0
ENDBRANCH   6   7
ENDBRANCH   5   6
ENDBRANCH   3   5
ENDBRANCH   1   3
BRANCH   1  11
ATOM     11  C   UNL     1       2.481  12.622  18.433  1.00  0.00     0.087 C 
BRANCH  11  12
ATOM     12  C   UNL     1       0.998  13.009  18.227  1.00  0.00     0.066 C 
BRANCH  12  13
ATOM     13  C   UNL     1       0.766  14.344  17.522  1.00  0.00     0.140 C 
ATOM     14  O   UNL     1      -0.244  14.966  17.825  1.00  0.00    -0.299 OA
BRANCH  13  15
ATOM     15  C   UNL     1       1.745  14.987  16.548  1.00  0.00     0.106 CG0
ATOM     16  G   UNL     1       1.368  14.676  15.106  1.00  0.00     0.000 G0
ENDBRANCH  13  15
ENDBRANCH  12  13
BRANCH  12  17
ATOM     17  C   UNL     1       0.178  12.886  19.550  1.00  0.00    -0.006 C 
ATOM     18  C   UNL     1       1.079  12.557  20.750  1.00  0.00     0.008 C 
ATOM     19  C   UNL     1      -0.982  11.879  19.472  1.00  0.00     0.008 C 
ENDBRANCH  12  17
ENDBRANCH  11  12
ENDBRANCH   1  11
TORSDOF 1
ENDMDL
