MODEL 1
REMARK VINA RESULT:    -4.136      0.000      0.000
REMARK INTER + INTRA:          -4.498
REMARK INTER:                  -4.498
REMARK INTRA:                   0.000
REMARK UNBOUND:                 0.000
REMARK SMILES Oc1cccc(O)c1O
REMARK SMILES IDX 4 1 5 2 6 3 8 4 2 5 3 6 7 7 1 9 9 11
REMARK H PARENT 7 8 1 10 9 12
REMARK Flexibility Score: inf
ROOT
ATOM      1  C   UNL     1      10.146  48.997  41.950  1.00  0.00     0.008 A 
ATOM      2  C   UNL     1      11.220  48.637  41.134  1.00  0.00     0.050 A 
ATOM      3  C   UNL     1      12.496  48.461  41.687  1.00  0.00     0.161 A 
ATOM      4  C   UNL     1      12.695  48.648  43.063  1.00  0.00     0.200 A 
ATOM      5  C   UNL     1      11.612  49.012  43.883  1.00  0.00     0.161 A 
ATOM      6  C   UNL     1      10.340  49.186  43.321  1.00  0.00     0.050 A 
ENDROOT
BRANCH   3   7
ATOM      7  O   UNL     1      13.571  48.100  40.876  1.00  0.00    -0.504 OA
ATOM      8  H   UNL     1      13.445  47.516  40.058  1.00  0.00     0.293 HD
ENDBRANCH   3   7
BRANCH   5   9
ATOM      9  O   UNL     1      11.804  49.200  45.251  1.00  0.00    -0.504 OA
ATOM     10  H   UNL     1      11.032  49.418  45.871  1.00  0.00     0.293 HD
ENDBRANCH   5   9
BRANCH   4  11
ATOM     11  O   UNL     1      13.972  48.469  43.597  1.00  0.00    -0.502 OA
ATOM     12  H   UNL     1      14.784  48.317  43.011  1.00  0.00     0.293 HD
ENDBRANCH   4  11
TORSDOF 3
ENDMDL
MODEL 2
REMARK VINA RESULT:    -4.129      0.094      2.799
REMARK INTER + INTRA:          -4.491
REMARK INTER:                  -4.491
REMARK INTRA:                   0.000
REMARK UNBOUND:                 0.000
REMARK SMILES Oc1cccc(O)c1O
REMARK SMILES IDX 4 1 5 2 6 3 8 4 2 5 3 6 7 7 1 9 9 11
REMARK H PARENT 7 8 1 10 9 12
REMARK Flexibility Score: inf
ROOT
ATOM      1  C   UNL     1      10.189  49.069  41.924  1.00  0.00     0.008 A 
ATOM      2  C   UNL     1      10.387  49.297  43.287  1.00  0.00     0.050 A 
ATOM      3  C   UNL     1      11.656  49.118  43.854  1.00  0.00     0.161 A 
ATOM      4  C   UNL     1      12.731  48.708  43.051  1.00  0.00     0.200 A 
ATOM      5  C   UNL     1      12.530  48.478  41.678  1.00  0.00     0.161 A 
ATOM      6  C   UNL     1      11.257  48.659  41.120  1.00  0.00     0.050 A 
ENDROOT
BRANCH   3   7
ATOM      7  O   UNL     1      11.858  49.346  45.215  1.00  0.00    -0.504 OA
ATOM      8  H   UNL     1      12.283  50.201  45.552  1.00  0.00     0.293 HD
ENDBRANCH   3   7
BRANCH   5   9
ATOM      9  O   UNL     1      13.594  48.069  40.875  1.00  0.00    -0.504 OA
ATOM     10  H   UNL     1      14.103  47.213  41.063  1.00  0.00     0.293 HD
ENDBRANCH   5   9
BRANCH   4  11
ATOM     11  O   UNL     1      13.988  48.534  43.632  1.00  0.00    -0.502 OA
ATOM     12  H   UNL     1      14.295  47.638  43.992  1.00  0.00     0.293 HD
ENDBRANCH   4  11
TORSDOF 3
ENDMDL
MODEL 3
REMARK VINA RESULT:    -3.913      1.696      3.518
REMARK INTER + INTRA:          -4.256
REMARK INTER:                  -4.256
REMARK INTRA:                   0.000
REMARK UNBOUND:                 0.000
REMARK SMILES Oc1cccc(O)c1O
REMARK SMILES IDX 4 1 5 2 6 3 8 4 2 5 3 6 7 7 1 9 9 11
REMARK H PARENT 7 8 1 10 9 12
REMARK Flexibility Score: inf
ROOT
ATOM      1  C   UNL     1      13.480  48.984  42.121  1.00  0.00     0.008 A 
ATOM      2  C   UNL     1      13.276  49.046  43.501  1.00  0.00     0.050 A 
ATOM      3  C   UNL     1      11.977  49.154  44.017  1.00  0.00     0.161 A 
ATOM      4  C   UNL     1      10.879  49.199  43.145  1.00  0.00     0.200 A 
ATOM      5  C   UNL     1      11.086  49.136  41.755  1.00  0.00     0.161 A 
ATOM      6  C   UNL     1      12.389  49.029  41.249  1.00  0.00     0.050 A 
ENDROOT
BRANCH   3   7
ATOM      7  O   UNL     1      11.769  49.216  45.394  1.00  0.00    -0.504 OA
ATOM      8  H   UNL     1      11.468  48.406  45.921  1.00  0.00     0.293 HD
ENDBRANCH   3   7
BRANCH   5   9
ATOM      9  O   UNL     1       9.999  49.181  40.884  1.00  0.00    -0.504 OA
ATOM     10  H   UNL     1       9.223  48.535  40.968  1.00  0.00     0.293 HD
ENDBRANCH   5   9
BRANCH   4  11
ATOM     11  O   UNL     1       9.593  49.306  43.675  1.00  0.00    -0.502 OA
ATOM     12  H   UNL     1       8.972  50.069  43.432  1.00  0.00     0.293 HD
ENDBRANCH   4  11
TORSDOF 3
ENDMDL
MODEL 4
REMARK VINA RESULT:    -3.627     22.899     23.849
REMARK INTER + INTRA:          -3.945
REMARK INTER:                  -3.945
REMARK INTRA:                   0.000
REMARK UNBOUND:                 0.000
REMARK SMILES Oc1cccc(O)c1O
REMARK SMILES IDX 4 1 5 2 6 3 8 4 2 5 3 6 7 7 1 9 9 11
REMARK H PARENT 7 8 1 10 9 12
REMARK Flexibility Score: inf
ROOT
ATOM      1  C   UNL     1      25.282  58.411  61.072  1.00  0.00     0.008 A 
ATOM      2  C   UNL     1      24.204  57.524  61.125  1.00  0.00     0.050 A 
ATOM      3  C   UNL     1      22.906  57.976  60.851  1.00  0.00     0.161 A 
ATOM      4  C   UNL     1      22.688  59.323  60.524  1.00  0.00     0.200 A 
ATOM      5  C   UNL     1      23.775  60.215  60.471  1.00  0.00     0.161 A 
ATOM      6  C   UNL     1      25.070  59.753  60.746  1.00  0.00     0.050 A 
ENDROOT
BRANCH   3   7
ATOM      7  O   UNL     1      21.828  57.095  60.903  1.00  0.00    -0.504 OA
ATOM      8  H   UNL     1      20.875  57.427  60.988  1.00  0.00     0.293 HD
ENDBRANCH   3   7
BRANCH   5   9
ATOM      9  O   UNL     1      23.564  61.554  60.146  1.00  0.00    -0.504 OA
ATOM     10  H   UNL     1      22.647  61.981  60.219  1.00  0.00     0.293 HD
ENDBRANCH   5   9
BRANCH   4  11
ATOM     11  O   UNL     1      21.389  59.757  60.255  1.00  0.00    -0.502 OA
ATOM     12  H   UNL     1      20.584  59.379  60.740  1.00  0.00     0.293 HD
ENDBRANCH   4  11
TORSDOF 3
ENDMDL
MODEL 5
REMARK VINA RESULT:    -3.592     22.901     23.757
REMARK INTER + INTRA:          -3.907
REMARK INTER:                  -3.907
REMARK INTRA:                   0.000
REMARK UNBOUND:                 0.000
REMARK SMILES Oc1cccc(O)c1O
REMARK SMILES IDX 4 1 5 2 6 3 8 4 2 5 3 6 7 7 1 9 9 11
REMARK H PARENT 7 8 1 10 9 12
REMARK Flexibility Score: inf
ROOT
ATOM      1  C   UNL     1      25.297  58.258  60.991  1.00  0.00     0.008 A 
ATOM      2  C   UNL     1      25.120  59.587  60.599  1.00  0.00     0.050 A 
ATOM      3  C   UNL     1      23.833  60.079  60.340  1.00  0.00     0.161 A 
ATOM      4  C   UNL     1      22.720  59.235  60.473  1.00  0.00     0.200 A 
ATOM      5  C   UNL     1      22.901  57.897  60.868  1.00  0.00     0.161 A 
ATOM      6  C   UNL     1      24.192  57.414  61.125  1.00  0.00     0.050 A 
ENDROOT
BRANCH   3   7
ATOM      7  O   UNL     1      23.652  61.404  59.949  1.00  0.00    -0.504 OA
ATOM      8  H   UNL     1      24.002  62.174  60.507  1.00  0.00     0.293 HD
ENDBRANCH   3   7
BRANCH   5   9
ATOM      9  O   UNL     1      21.799  57.053  61.002  1.00  0.00    -0.504 OA
ATOM     10  H   UNL     1      21.765  56.332  61.713  1.00  0.00     0.293 HD
ENDBRANCH   5   9
BRANCH   4  11
ATOM     11  O   UNL     1      21.447  59.741  60.212  1.00  0.00    -0.502 OA
ATOM     12  H   UNL     1      21.205  60.708  60.390  1.00  0.00     0.293 HD
ENDBRANCH   4  11
TORSDOF 3
ENDMDL
MODEL 6
REMARK VINA RESULT:    -3.571      1.842      2.614
REMARK INTER + INTRA:          -3.885
REMARK INTER:                  -3.885
REMARK INTRA:                   0.000
REMARK UNBOUND:                 0.000
REMARK SMILES Oc1cccc(O)c1O
REMARK SMILES IDX 4 1 5 2 6 3 8 4 2 5 3 6 7 7 1 9 9 11
REMARK H PARENT 7 8 1 10 9 12
REMARK Flexibility Score: inf
ROOT
ATOM      1  C   UNL     1      10.699  48.019  44.428  1.00  0.00     0.008 A 
ATOM      2  C   UNL     1      12.065  47.926  44.152  1.00  0.00     0.050 A 
ATOM      3  C   UNL     1      12.584  48.474  42.971  1.00  0.00     0.161 A 
ATOM      4  C   UNL     1      11.729  49.118  42.063  1.00  0.00     0.200 A 
ATOM      5  C   UNL     1      10.353  49.211  42.343  1.00  0.00     0.161 A 
ATOM      6  C   UNL     1       9.844  48.659  43.527  1.00  0.00     0.050 A 
ENDROOT
BRANCH   3   7
ATOM      7  O   UNL     1      13.946  48.384  42.692  1.00  0.00    -0.504 OA
ATOM      8  H   UNL     1      14.305  47.725  42.012  1.00  0.00     0.293 HD
ENDBRANCH   3   7
BRANCH   5   9
ATOM      9  O   UNL     1       9.499  49.848  41.444  1.00  0.00    -0.504 OA
ATOM     10  H   UNL     1       8.692  49.376  41.052  1.00  0.00     0.293 HD
ENDBRANCH   5   9
BRANCH   4  11
ATOM     11  O   UNL     1      12.262  49.658  40.892  1.00  0.00    -0.502 OA
ATOM     12  H   UNL     1      13.143  49.342  40.506  1.00  0.00     0.293 HD
ENDBRANCH   4  11
TORSDOF 3
ENDMDL
MODEL 7
REMARK VINA RESULT:    -3.406      1.615      3.523
REMARK INTER + INTRA:          -3.704
REMARK INTER:                  -3.704
REMARK INTRA:                   0.000
REMARK UNBOUND:                 0.000
REMARK SMILES Oc1cccc(O)c1O
REMARK SMILES IDX 4 1 5 2 6 3 8 4 2 5 3 6 7 7 1 9 9 11
REMARK H PARENT 7 8 1 10 9 12
REMARK Flexibility Score: inf
ROOT
ATOM      1  C   UNL     1      12.780  49.028  44.407  1.00  0.00     0.008 A 
ATOM      2  C   UNL     1      11.389  48.904  44.392  1.00  0.00     0.050 A 
ATOM      3  C   UNL     1      10.728  48.538  43.211  1.00  0.00     0.161 A 
ATOM      4  C   UNL     1      11.465  48.296  42.042  1.00  0.00     0.200 A 
ATOM      5  C   UNL     1      12.866  48.421  42.059  1.00  0.00     0.161 A 
ATOM      6  C   UNL     1      13.518  48.788  43.245  1.00  0.00     0.050 A 
ENDROOT
BRANCH   3   7
ATOM      7  O   UNL     1       9.340  48.413  43.191  1.00  0.00    -0.504 OA
ATOM      8  H   UNL     1       8.878  47.578  43.529  1.00  0.00     0.293 HD
ENDBRANCH   3   7
BRANCH   5   9
ATOM      9  O   UNL     1      13.603  48.183  40.901  1.00  0.00    -0.504 OA
ATOM     10  H   UNL     1      14.572  47.888  40.938  1.00  0.00     0.293 HD
ENDBRANCH   5   9
BRANCH   4  11
ATOM     11  O   UNL     1      10.791  47.933  40.875  1.00  0.00    -0.502 OA
ATOM     12  H   UNL     1      10.036  48.491  40.493  1.00  0.00     0.293 HD
ENDBRANCH   4  11
TORSDOF 3
ENDMDL
MODEL 8
REMARK VINA RESULT:    -3.362     23.041     23.890
REMARK INTER + INTRA:          -3.657
REMARK INTER:                  -3.657
REMARK INTRA:                   0.000
REMARK UNBOUND:                 0.000
REMARK SMILES Oc1cccc(O)c1O
REMARK SMILES IDX 4 1 5 2 6 3 8 4 2 5 3 6 7 7 1 9 9 11
REMARK H PARENT 7 8 1 10 9 12
REMARK Flexibility Score: inf
ROOT
ATOM      1  C   UNL     1      25.179  60.167  60.609  1.00  0.00     0.008 A 
ATOM      2  C   UNL     1      23.836  60.517  60.457  1.00  0.00     0.050 A 
ATOM      3  C   UNL     1      22.840  59.534  60.527  1.00  0.00     0.161 A 
ATOM      4  C   UNL     1      23.192  58.194  60.750  1.00  0.00     0.200 A 
ATOM      5  C   UNL     1      24.546  57.843  60.903  1.00  0.00     0.161 A 
ATOM      6  C   UNL     1      25.535  58.834  60.831  1.00  0.00     0.050 A 
ENDROOT
BRANCH   3   7
ATOM      7  O   UNL     1      21.498  59.879  60.376  1.00  0.00    -0.504 OA
ATOM      8  H   UNL     1      21.052  59.887  59.467  1.00  0.00     0.293 HD
ENDBRANCH   3   7
BRANCH   5   9
ATOM      9  O   UNL     1      24.902  56.514  61.125  1.00  0.00    -0.504 OA
ATOM     10  H   UNL     1      25.868  56.210  61.090  1.00  0.00     0.293 HD
ENDBRANCH   5   9
BRANCH   4  11
ATOM     11  O   UNL     1      22.188  57.228  60.817  1.00  0.00    -0.502 OA
ATOM     12  H   UNL     1      21.698  56.902  59.993  1.00  0.00     0.293 HD
ENDBRANCH   4  11
TORSDOF 3
ENDMDL
