MODEL 1
REMARK VINA RESULT:    -4.582      0.000      0.000
REMARK INTER + INTRA:          -5.110
REMARK INTER:                  -4.984
REMARK INTRA:                  -0.126
REMARK UNBOUND:                -0.126
REMARK SMILES Cc1ccc(C(C)C)cc1O
REMARK SMILES IDX 1 1 2 2 10 3 9 4 5 5 4 6 3 7 11 8 6 10 7 11 8 12
REMARK H PARENT 11 9
REMARK Flexibility Score: inf
ROOT
ATOM      1  C   UNL     1     -25.246 -50.458  55.862  1.00  0.00     0.048 C 
ATOM      2  C   UNL     1     -25.980 -51.735  55.560  1.00  0.00    -0.009 A 
ATOM      3  C   UNL     1     -26.378 -52.055  54.243  1.00  0.00     0.118 A 
ATOM      4  C   UNL     1     -27.061 -53.252  53.994  1.00  0.00     0.050 A 
ATOM      5  C   UNL     1     -27.358 -54.145  55.036  1.00  0.00    -0.042 A 
ATOM      6  C   UNL     1     -26.958 -53.820  56.344  1.00  0.00     0.004 A 
ATOM      7  C   UNL     1     -26.277 -52.628  56.601  1.00  0.00     0.007 A 
ENDROOT
BRANCH   3   8
ATOM      8  O   UNL     1     -26.113 -51.208  53.164  1.00  0.00    -0.508 OA
ATOM      9  H   UNL     1     -25.197 -50.822  52.979  1.00  0.00     0.293 HD
ENDBRANCH   3   8
BRANCH   5  10
ATOM     10  C   UNL     1     -28.098 -55.436  54.743  1.00  0.00     0.013 C 
ATOM     11  C   UNL     1     -27.528 -56.599  55.562  1.00  0.00     0.012 C 
ATOM     12  C   UNL     1     -29.604 -55.277  54.984  1.00  0.00     0.012 C 
ENDBRANCH   5  10
TORSDOF 2
ENDMDL
MODEL 2
REMARK VINA RESULT:    -4.558      2.094      3.066
REMARK INTER + INTRA:          -5.084
REMARK INTER:                  -4.958
REMARK INTRA:                  -0.125
REMARK UNBOUND:                -0.126
REMARK SMILES Cc1ccc(C(C)C)cc1O
REMARK SMILES IDX 1 1 2 2 10 3 9 4 5 5 4 6 3 7 11 8 6 10 7 11 8 12
REMARK H PARENT 11 9
REMARK Flexibility Score: inf
ROOT
ATOM      1  C   UNL     1     -25.242 -50.457  56.121  1.00  0.00     0.048 C 
ATOM      2  C   UNL     1     -25.890 -51.437  55.182  1.00  0.00    -0.009 A 
ATOM      3  C   UNL     1     -26.397 -52.670  55.649  1.00  0.00     0.118 A 
ATOM      4  C   UNL     1     -26.993 -53.563  54.750  1.00  0.00     0.050 A 
ATOM      5  C   UNL     1     -27.097 -53.252  53.385  1.00  0.00    -0.042 A 
ATOM      6  C   UNL     1     -26.590 -52.023  52.928  1.00  0.00     0.004 A 
ATOM      7  C   UNL     1     -25.993 -51.127  53.817  1.00  0.00     0.007 A 
ENDROOT
BRANCH   3   8
ATOM      8  O   UNL     1     -26.324 -53.038  56.995  1.00  0.00    -0.508 OA
ATOM      9  H   UNL     1     -25.463 -53.326  57.441  1.00  0.00     0.293 HD
ENDBRANCH   3   8
BRANCH   5  10
ATOM     10  C   UNL     1     -27.748 -54.234  52.429  1.00  0.00     0.013 C 
ATOM     11  C   UNL     1     -28.397 -53.507  51.246  1.00  0.00     0.012 C 
ATOM     12  C   UNL     1     -26.741 -55.285  51.946  1.00  0.00     0.012 C 
ENDBRANCH   5  10
TORSDOF 2
ENDMDL
MODEL 3
REMARK VINA RESULT:    -4.438      2.644      3.987
REMARK INTER + INTRA:          -4.953
REMARK INTER:                  -4.829
REMARK INTRA:                  -0.124
REMARK UNBOUND:                -0.126
REMARK SMILES Cc1ccc(C(C)C)cc1O
REMARK SMILES IDX 1 1 2 2 10 3 9 4 5 5 4 6 3 7 11 8 6 10 7 11 8 12
REMARK H PARENT 11 9
REMARK Flexibility Score: inf
ROOT
ATOM      1  C   UNL     1     -26.286 -53.543  56.502  1.00  0.00     0.048 C 
ATOM      2  C   UNL     1     -26.807 -53.238  55.125  1.00  0.00    -0.009 A 
ATOM      3  C   UNL     1     -27.845 -54.004  54.550  1.00  0.00     0.118 A 
ATOM      4  C   UNL     1     -28.308 -53.695  53.264  1.00  0.00     0.050 A 
ATOM      5  C   UNL     1     -27.754 -52.631  52.534  1.00  0.00    -0.042 A 
ATOM      6  C   UNL     1     -26.721 -51.874  53.112  1.00  0.00     0.004 A 
ATOM      7  C   UNL     1     -26.254 -52.175  54.393  1.00  0.00     0.007 A 
ENDROOT
BRANCH   3   8
ATOM      8  O   UNL     1     -28.437 -55.074  55.226  1.00  0.00    -0.508 OA
ATOM      9  H   UNL     1     -28.421 -55.165  56.233  1.00  0.00     0.293 HD
ENDBRANCH   3   8
BRANCH   5  10
ATOM     10  C   UNL     1     -28.272 -52.315  51.143  1.00  0.00     0.013 C 
ATOM     11  C   UNL     1     -29.606 -53.021  50.875  1.00  0.00     0.012 C 
ATOM     12  C   UNL     1     -28.397 -50.801  50.931  1.00  0.00     0.012 C 
ENDBRANCH   5  10
TORSDOF 2
ENDMDL
MODEL 4
REMARK VINA RESULT:    -4.286      4.252      5.402
REMARK INTER + INTRA:          -4.787
REMARK INTER:                  -4.669
REMARK INTRA:                  -0.118
REMARK UNBOUND:                -0.126
REMARK SMILES Cc1ccc(C(C)C)cc1O
REMARK SMILES IDX 1 1 2 2 10 3 9 4 5 5 4 6 3 7 11 8 6 10 7 11 8 12
REMARK H PARENT 11 9
REMARK Flexibility Score: inf
ROOT
ATOM      1  C   UNL     1     -31.561 -49.709  51.113  1.00  0.00     0.048 C 
ATOM      2  C   UNL     1     -30.496 -50.762  51.251  1.00  0.00    -0.009 A 
ATOM      3  C   UNL     1     -30.830 -52.109  51.517  1.00  0.00     0.118 A 
ATOM      4  C   UNL     1     -29.815 -53.066  51.642  1.00  0.00     0.050 A 
ATOM      5  C   UNL     1     -28.464 -52.708  51.506  1.00  0.00    -0.042 A 
ATOM      6  C   UNL     1     -28.140 -51.366  51.242  1.00  0.00     0.004 A 
ATOM      7  C   UNL     1     -29.145 -50.405  51.116  1.00  0.00     0.007 A 
ENDROOT
BRANCH   3   8
ATOM      8  O   UNL     1     -32.155 -52.527  51.663  1.00  0.00    -0.508 OA
ATOM      9  H   UNL     1     -32.824 -52.043  52.245  1.00  0.00     0.293 HD
ENDBRANCH   3   8
BRANCH   5  10
ATOM     10  C   UNL     1     -27.382 -53.762  51.644  1.00  0.00     0.013 C 
ATOM     11  C   UNL     1     -26.369 -53.376  52.728  1.00  0.00     0.012 C 
ATOM     12  C   UNL     1     -27.987 -55.144  51.922  1.00  0.00     0.012 C 
ENDBRANCH   5  10
TORSDOF 2
ENDMDL
MODEL 5
REMARK VINA RESULT:    -4.244      2.349      3.453
REMARK INTER + INTRA:          -4.742
REMARK INTER:                  -4.619
REMARK INTRA:                  -0.123
REMARK UNBOUND:                -0.126
REMARK SMILES Cc1ccc(C(C)C)cc1O
REMARK SMILES IDX 1 1 2 2 10 3 9 4 5 5 4 6 3 7 11 8 6 10 7 11 8 12
REMARK H PARENT 11 9
REMARK Flexibility Score: inf
ROOT
ATOM      1  C   UNL     1     -28.489 -50.694  50.875  1.00  0.00     0.048 C 
ATOM      2  C   UNL     1     -28.089 -51.668  51.949  1.00  0.00    -0.009 A 
ATOM      3  C   UNL     1     -28.818 -52.859  52.163  1.00  0.00     0.118 A 
ATOM      4  C   UNL     1     -28.421 -53.746  53.172  1.00  0.00     0.050 A 
ATOM      5  C   UNL     1     -27.305 -53.470  53.979  1.00  0.00    -0.042 A 
ATOM      6  C   UNL     1     -26.586 -52.283  53.760  1.00  0.00     0.004 A 
ATOM      7  C   UNL     1     -26.974 -51.393  52.756  1.00  0.00     0.007 A 
ENDROOT
BRANCH   3   8
ATOM      8  O   UNL     1     -29.936 -53.191  51.395  1.00  0.00    -0.508 OA
ATOM      9  H   UNL     1     -30.334 -54.120  51.373  1.00  0.00     0.293 HD
ENDBRANCH   3   8
BRANCH   5  10
ATOM     10  C   UNL     1     -26.894 -54.445  55.066  1.00  0.00     0.013 C 
ATOM     11  C   UNL     1     -26.544 -53.710  56.365  1.00  0.00     0.012 C 
ATOM     12  C   UNL     1     -27.982 -55.499  55.304  1.00  0.00     0.012 C 
ENDBRANCH   5  10
TORSDOF 2
ENDMDL
MODEL 6
REMARK VINA RESULT:    -4.212      1.912      2.573
REMARK INTER + INTRA:          -4.707
REMARK INTER:                  -4.596
REMARK INTRA:                  -0.111
REMARK UNBOUND:                -0.126
REMARK SMILES Cc1ccc(C(C)C)cc1O
REMARK SMILES IDX 1 1 2 2 10 3 9 4 5 5 4 6 3 7 11 8 6 10 7 11 8 12
REMARK H PARENT 11 9
REMARK Flexibility Score: inf
ROOT
ATOM      1  C   UNL     1     -25.916 -52.319  56.450  1.00  0.00     0.048 C 
ATOM      2  C   UNL     1     -26.829 -52.864  55.387  1.00  0.00    -0.009 A 
ATOM      3  C   UNL     1     -26.670 -52.503  54.031  1.00  0.00     0.118 A 
ATOM      4  C   UNL     1     -27.538 -53.027  53.065  1.00  0.00     0.050 A 
ATOM      5  C   UNL     1     -28.569 -53.911  53.423  1.00  0.00    -0.042 A 
ATOM      6  C   UNL     1     -28.720 -54.266  54.774  1.00  0.00     0.004 A 
ATOM      7  C   UNL     1     -27.860 -53.747  55.744  1.00  0.00     0.007 A 
ENDROOT
BRANCH   3   8
ATOM      8  O   UNL     1     -25.665 -51.629  53.611  1.00  0.00    -0.508 OA
ATOM      9  H   UNL     1     -25.088 -51.802  52.799  1.00  0.00     0.293 HD
ENDBRANCH   3   8
BRANCH   5  10
ATOM     10  C   UNL     1     -29.496 -54.467  52.359  1.00  0.00     0.013 C 
ATOM     11  C   UNL     1     -29.419 -53.640  51.071  1.00  0.00     0.012 C 
ATOM     12  C   UNL     1     -29.199 -55.946  52.084  1.00  0.00     0.012 C 
ENDBRANCH   5  10
TORSDOF 2
ENDMDL
MODEL 7
REMARK VINA RESULT:    -4.185      1.711      2.671
REMARK INTER + INTRA:          -4.678
REMARK INTER:                  -4.554
REMARK INTRA:                  -0.125
REMARK UNBOUND:                -0.126
REMARK SMILES Cc1ccc(C(C)C)cc1O
REMARK SMILES IDX 1 1 2 2 10 3 9 4 5 5 4 6 3 7 11 8 6 10 7 11 8 12
REMARK H PARENT 11 9
REMARK Flexibility Score: inf
ROOT
ATOM      1  C   UNL     1     -26.180 -51.861  53.479  1.00  0.00     0.048 C 
ATOM      2  C   UNL     1     -26.969 -52.915  54.206  1.00  0.00    -0.009 A 
ATOM      3  C   UNL     1     -26.780 -53.146  55.587  1.00  0.00     0.118 A 
ATOM      4  C   UNL     1     -27.530 -54.136  56.235  1.00  0.00     0.050 A 
ATOM      5  C   UNL     1     -28.471 -54.906  55.533  1.00  0.00    -0.042 A 
ATOM      6  C   UNL     1     -28.653 -54.670  54.160  1.00  0.00     0.004 A 
ATOM      7  C   UNL     1     -27.909 -53.686  53.505  1.00  0.00     0.007 A 
ENDROOT
BRANCH   3   8
ATOM      8  O   UNL     1     -25.860 -52.413  56.340  1.00  0.00    -0.508 OA
ATOM      9  H   UNL     1     -25.926 -52.314  57.344  1.00  0.00     0.293 HD
ENDBRANCH   3   8
BRANCH   5  10
ATOM     10  C   UNL     1     -29.272 -55.972  56.257  1.00  0.00     0.013 C 
ATOM     11  C   UNL     1     -30.777 -55.771  56.047  1.00  0.00     0.012 C 
ATOM     12  C   UNL     1     -28.837 -57.378  55.825  1.00  0.00     0.012 C 
ENDBRANCH   5  10
TORSDOF 2
ENDMDL
MODEL 8
REMARK VINA RESULT:    -4.164      1.620      2.822
REMARK INTER + INTRA:          -4.655
REMARK INTER:                  -4.530
REMARK INTRA:                  -0.125
REMARK UNBOUND:                -0.126
REMARK SMILES Cc1ccc(C(C)C)cc1O
REMARK SMILES IDX 1 1 2 2 10 3 9 4 5 5 4 6 3 7 11 8 6 10 7 11 8 12
REMARK H PARENT 11 9
REMARK Flexibility Score: inf
ROOT
ATOM      1  C   UNL     1     -27.711 -51.425  51.483  1.00  0.00     0.048 C 
ATOM      2  C   UNL     1     -27.726 -52.434  52.598  1.00  0.00    -0.009 A 
ATOM      3  C   UNL     1     -26.715 -52.448  53.585  1.00  0.00     0.118 A 
ATOM      4  C   UNL     1     -26.757 -53.401  54.610  1.00  0.00     0.050 A 
ATOM      5  C   UNL     1     -27.791 -54.349  54.674  1.00  0.00    -0.042 A 
ATOM      6  C   UNL     1     -28.792 -54.329  53.688  1.00  0.00     0.004 A 
ATOM      7  C   UNL     1     -28.759 -53.382  52.662  1.00  0.00     0.007 A 
ENDROOT
BRANCH   3   8
ATOM      8  O   UNL     1     -25.660 -51.532  53.576  1.00  0.00    -0.508 OA
ATOM      9  H   UNL     1     -25.106 -51.339  52.753  1.00  0.00     0.293 HD
ENDBRANCH   3   8
BRANCH   5  10
ATOM     10  C   UNL     1     -27.816 -55.372  55.794  1.00  0.00     0.013 C 
ATOM     11  C   UNL     1     -29.251 -55.802  56.119  1.00  0.00     0.012 C 
ATOM     12  C   UNL     1     -26.940 -56.585  55.455  1.00  0.00     0.012 C 
ENDBRANCH   5  10
TORSDOF 2
ENDMDL
MODEL 9
REMARK VINA RESULT:    -2.972      2.254      3.556
REMARK INTER + INTRA:          -3.358
REMARK INTER:                  -3.231
REMARK INTRA:                  -0.127
REMARK UNBOUND:                -0.126
REMARK SMILES Cc1ccc(C(C)C)cc1O
REMARK SMILES IDX 1 1 2 2 10 3 9 4 5 5 4 6 3 7 11 8 6 10 7 11 8 12
REMARK H PARENT 11 9
REMARK Flexibility Score: inf
ROOT
ATOM      1  C   UNL     1     -26.166 -53.212  56.506  1.00  0.00     0.048 C 
ATOM      2  C   UNL     1     -26.711 -53.005  55.119  1.00  0.00    -0.009 A 
ATOM      3  C   UNL     1     -26.245 -51.953  54.300  1.00  0.00     0.118 A 
ATOM      4  C   UNL     1     -26.774 -51.786  53.014  1.00  0.00     0.050 A 
ATOM      5  C   UNL     1     -27.763 -52.653  52.521  1.00  0.00    -0.042 A 
ATOM      6  C   UNL     1     -28.221 -53.697  53.343  1.00  0.00     0.004 A 
ATOM      7  C   UNL     1     -27.701 -53.870  54.627  1.00  0.00     0.007 A 
ENDROOT
BRANCH   3   8
ATOM      8  O   UNL     1     -25.263 -51.058  54.732  1.00  0.00    -0.508 OA
ATOM      9  H   UNL     1     -24.682 -51.228  55.542  1.00  0.00     0.293 HD
ENDBRANCH   3   8
BRANCH   5  10
ATOM     10  C   UNL     1     -28.321 -52.453  51.125  1.00  0.00     0.013 C 
ATOM     11  C   UNL     1     -29.531 -53.361  50.877  1.00  0.00     0.012 C 
ATOM     12  C   UNL     1     -28.675 -50.982  50.875  1.00  0.00     0.012 C 
ENDBRANCH   5  10
TORSDOF 2
ENDMDL
