MODEL 1
REMARK VINA RESULT:    -3.861      0.000      0.000
REMARK INTER + INTRA:          -7.490
REMARK INTER:                  -6.569
REMARK INTRA:                  -0.922
REMARK UNBOUND:                -0.922
REMARK SMILES CCCCCCCCCCCCCC(=O)[O-]
REMARK SMILES IDX 8 1 9 2 10 3 11 4 12 5 13 6 14 7 15 8 16 9 7 10 6 11 5 12
REMARK SMILES IDX 4 13 3 14 2 15 1 16
REMARK H PARENT
REMARK Flexibility Score: inf
ROOT
ATOM      1  C   UNL     1      48.742  47.111  42.750  1.00  0.00     0.000 C 
ENDROOT
BRANCH   1   2
ATOM      2  C   UNL     1      49.810  46.695  41.731  1.00  0.00     0.000 C 
BRANCH   2   3
ATOM      3  C   UNL     1      50.879  45.809  42.387  1.00  0.00     0.000 C 
BRANCH   3   4
ATOM      4  C   UNL     1      51.933  46.621  43.155  1.00  0.00     0.000 C 
BRANCH   4   5
ATOM      5  C   UNL     1      52.478  45.873  44.385  1.00  0.00     0.006 C 
BRANCH   5   6
ATOM      6  C   UNL     1      51.366  45.496  45.373  1.00  0.00     0.053 C 
BRANCH   6   7
ATOM      7  C   UNL     1      50.897  46.682  46.160  1.00  0.00     0.041 C 
ATOM      8  O   UNL     1      49.669  46.954  46.222  1.00  0.00    -0.550 OA
ATOM      9  O   UNL     1      51.818  47.506  46.795  1.00  0.00    -0.550 OA
ENDBRANCH   6   7
ENDBRANCH   5   6
ENDBRANCH   4   5
ENDBRANCH   3   4
ENDBRANCH   2   3
ENDBRANCH   1   2
BRANCH   1  10
ATOM     10  C   UNL     1      47.349  47.137  42.108  1.00  0.00     0.000 C 
BRANCH  10  11
ATOM     11  C   UNL     1      46.921  45.733  41.668  1.00  0.00    -0.000 C 
BRANCH  11  12
ATOM     12  C   UNL     1      45.473  45.731  41.161  1.00  0.00    -0.000 C 
BRANCH  12  13
ATOM     13  C   UNL     1      44.846  47.128  41.284  1.00  0.00    -0.000 C 
BRANCH  13  14
ATOM     14  C   UNL     1      43.349  47.077  41.629  1.00  0.00    -0.000 C 
BRANCH  14  15
ATOM     15  C   UNL     1      42.774  48.459  41.971  1.00  0.00    -0.003 C 
ATOM     16  C   UNL     1      43.885  49.446  42.317  1.00  0.00     0.004 C 
ENDBRANCH  14  15
ENDBRANCH  13  14
ENDBRANCH  12  13
ENDBRANCH  11  12
ENDBRANCH  10  11
ENDBRANCH   1  10
TORSDOF 12
ENDMDL
MODEL 2
REMARK VINA RESULT:    -3.671      3.116      7.138
REMARK INTER + INTRA:          -7.168
REMARK INTER:                  -6.112
REMARK INTRA:                  -1.056
REMARK UNBOUND:                -0.922
REMARK SMILES CCCCCCCCCCCCCC(=O)[O-]
REMARK SMILES IDX 8 1 9 2 10 3 11 4 12 5 13 6 14 7 15 8 16 9 7 10 6 11 5 12
REMARK SMILES IDX 4 13 3 14 2 15 1 16
REMARK H PARENT
REMARK Flexibility Score: inf
ROOT
ATOM      1  C   UNL     1      48.826  47.512  41.832  1.00  0.00     0.000 C 
ENDROOT
BRANCH   1   2
ATOM      2  C   UNL     1      48.643  46.006  42.063  1.00  0.00     0.000 C 
BRANCH   2   3
ATOM      3  C   UNL     1      47.175  45.596  41.872  1.00  0.00     0.000 C 
BRANCH   3   4
ATOM      4  C   UNL     1      46.425  46.516  40.897  1.00  0.00     0.000 C 
BRANCH   4   5
ATOM      5  C   UNL     1      45.061  46.975  41.445  1.00  0.00     0.006 C 
BRANCH   5   6
ATOM      6  C   UNL     1      44.918  48.502  41.436  1.00  0.00     0.053 C 
BRANCH   6   7
ATOM      7  C   UNL     1      43.658  48.946  42.115  1.00  0.00     0.041 C 
ATOM      8  O   UNL     1      43.706  49.796  43.043  1.00  0.00    -0.550 OA
ATOM      9  O   UNL     1      42.437  48.396  41.748  1.00  0.00    -0.550 OA
ENDBRANCH   6   7
ENDBRANCH   5   6
ENDBRANCH   4   5
ENDBRANCH   3   4
ENDBRANCH   2   3
ENDBRANCH   1   2
BRANCH   1  10
ATOM     10  C   UNL     1      50.263  47.832  41.405  1.00  0.00     0.000 C 
BRANCH  10  11
ATOM     11  C   UNL     1      51.096  46.552  41.273  1.00  0.00    -0.000 C 
BRANCH  11  12
ATOM     12  C   UNL     1      52.316  46.590  42.202  1.00  0.00    -0.000 C 
BRANCH  12  13
ATOM     13  C   UNL     1      52.247  45.465  43.246  1.00  0.00    -0.000 C 
BRANCH  13  14
ATOM     14  C   UNL     1      52.371  45.986  44.687  1.00  0.00    -0.000 C 
BRANCH  14  15
ATOM     15  C   UNL     1      51.102  46.706  45.167  1.00  0.00    -0.003 C 
ATOM     16  C   UNL     1      51.300  47.297  46.560  1.00  0.00     0.004 C 
ENDBRANCH  14  15
ENDBRANCH  13  14
ENDBRANCH  12  13
ENDBRANCH  11  12
ENDBRANCH  10  11
ENDBRANCH   1  10
TORSDOF 12
ENDMDL
MODEL 3
REMARK VINA RESULT:    -3.641      0.698      1.502
REMARK INTER + INTRA:          -7.117
REMARK INTER:                  -6.287
REMARK INTRA:                  -0.830
REMARK UNBOUND:                -0.922
REMARK SMILES CCCCCCCCCCCCCC(=O)[O-]
REMARK SMILES IDX 8 1 9 2 10 3 11 4 12 5 13 6 14 7 15 8 16 9 7 10 6 11 5 12
REMARK SMILES IDX 4 13 3 14 2 15 1 16
REMARK H PARENT
REMARK Flexibility Score: inf
ROOT
ATOM      1  C   UNL     1      47.103  47.085  41.867  1.00  0.00     0.000 C 
ENDROOT
BRANCH   1   2
ATOM      2  C   UNL     1      48.598  47.384  42.028  1.00  0.00     0.000 C 
BRANCH   2   3
ATOM      3  C   UNL     1      49.349  46.157  42.567  1.00  0.00     0.000 C 
BRANCH   3   4
ATOM      4  C   UNL     1      50.875  46.319  42.500  1.00  0.00     0.000 C 
BRANCH   4   5
ATOM      5  C   UNL     1      51.492  46.693  43.859  1.00  0.00     0.006 C 
BRANCH   5   6
ATOM      6  C   UNL     1      50.745  46.044  45.032  1.00  0.00     0.053 C 
BRANCH   6   7
ATOM      7  C   UNL     1      50.722  46.934  46.237  1.00  0.00     0.041 C 
ATOM      8  O   UNL     1      51.796  47.402  46.698  1.00  0.00    -0.550 OA
ATOM      9  O   UNL     1      49.519  47.217  46.872  1.00  0.00    -0.550 OA
ENDBRANCH   6   7
ENDBRANCH   5   6
ENDBRANCH   4   5
ENDBRANCH   3   4
ENDBRANCH   2   3
ENDBRANCH   1   2
BRANCH   1  10
ATOM     10  C   UNL     1      46.871  45.613  41.507  1.00  0.00     0.000 C 
BRANCH  10  11
ATOM     11  C   UNL     1      45.384  45.335  41.256  1.00  0.00    -0.000 C 
BRANCH  11  12
ATOM     12  C   UNL     1      44.619  46.636  40.985  1.00  0.00    -0.000 C 
BRANCH  12  13
ATOM     13  C   UNL     1      43.214  46.587  41.603  1.00  0.00    -0.000 C 
BRANCH  13  14
ATOM     14  C   UNL     1      42.550  47.972  41.677  1.00  0.00    -0.000 C 
BRANCH  14  15
ATOM     15  C   UNL     1      43.544  49.117  41.435  1.00  0.00    -0.003 C 
ATOM     16  C   UNL     1      43.949  49.779  42.750  1.00  0.00     0.004 C 
ENDBRANCH  14  15
ENDBRANCH  13  14
ENDBRANCH  12  13
ENDBRANCH  11  12
ENDBRANCH  10  11
ENDBRANCH   1  10
TORSDOF 12
ENDMDL
MODEL 4
REMARK VINA RESULT:    -3.406      3.217      7.406
REMARK INTER + INTRA:          -6.717
REMARK INTER:                  -5.704
REMARK INTRA:                  -1.013
REMARK UNBOUND:                -0.922
REMARK SMILES CCCCCCCCCCCCCC(=O)[O-]
REMARK SMILES IDX 8 1 9 2 10 3 11 4 12 5 13 6 14 7 15 8 16 9 7 10 6 11 5 12
REMARK SMILES IDX 4 13 3 14 2 15 1 16
REMARK H PARENT
REMARK Flexibility Score: inf
ROOT
ATOM      1  C   UNL     1      48.779  47.130  43.214  1.00  0.00     0.000 C 
ENDROOT
BRANCH   1   2
ATOM      2  C   UNL     1      48.860  47.217  41.685  1.00  0.00     0.000 C 
BRANCH   2   3
ATOM      3  C   UNL     1      47.605  46.615  41.034  1.00  0.00     0.000 C 
BRANCH   3   4
ATOM      4  C   UNL     1      46.337  46.842  41.871  1.00  0.00     0.000 C 
BRANCH   4   5
ATOM      5  C   UNL     1      45.155  47.354  41.028  1.00  0.00     0.006 C 
BRANCH   5   6
ATOM      6  C   UNL     1      44.826  48.823  41.324  1.00  0.00     0.053 C 
BRANCH   6   7
ATOM      7  C   UNL     1      43.534  48.965  42.068  1.00  0.00     0.041 C 
ATOM      8  O   UNL     1      42.503  48.365  41.665  1.00  0.00    -0.550 OA
ATOM      9  O   UNL     1      43.459  49.788  43.185  1.00  0.00    -0.550 OA
ENDBRANCH   6   7
ENDBRANCH   5   6
ENDBRANCH   4   5
ENDBRANCH   3   4
ENDBRANCH   2   3
ENDBRANCH   1   2
BRANCH   1  10
ATOM     10  C   UNL     1      49.371  45.810  43.723  1.00  0.00     0.000 C 
BRANCH  10  11
ATOM     11  C   UNL     1      49.934  45.970  45.140  1.00  0.00    -0.000 C 
BRANCH  11  12
ATOM     12  C   UNL     1      51.427  46.321  45.104  1.00  0.00    -0.000 C 
BRANCH  12  13
ATOM     13  C   UNL     1      52.212  45.297  44.271  1.00  0.00    -0.000 C 
BRANCH  13  14
ATOM     14  C   UNL     1      53.460  45.904  43.609  1.00  0.00    -0.000 C 
BRANCH  14  15
ATOM     15  C   UNL     1      53.343  45.976  42.080  1.00  0.00    -0.003 C 
ATOM     16  C   UNL     1      52.602  47.238  41.645  1.00  0.00     0.004 C 
ENDBRANCH  14  15
ENDBRANCH  13  14
ENDBRANCH  12  13
ENDBRANCH  11  12
ENDBRANCH  10  11
ENDBRANCH   1  10
TORSDOF 12
ENDMDL
MODEL 5
REMARK VINA RESULT:    -3.318      1.478      2.592
REMARK INTER + INTRA:          -6.567
REMARK INTER:                  -5.906
REMARK INTRA:                  -0.661
REMARK UNBOUND:                -0.922
REMARK SMILES CCCCCCCCCCCCCC(=O)[O-]
REMARK SMILES IDX 8 1 9 2 10 3 11 4 12 5 13 6 14 7 15 8 16 9 7 10 6 11 5 12
REMARK SMILES IDX 4 13 3 14 2 15 1 16
REMARK H PARENT
REMARK Flexibility Score: inf
ROOT
ATOM      1  C   UNL     1      46.416  46.495  41.805  1.00  0.00     0.000 C 
ENDROOT
BRANCH   1   2
ATOM      2  C   UNL     1      47.407  45.357  41.530  1.00  0.00     0.000 C 
BRANCH   2   3
ATOM      3  C   UNL     1      48.817  45.727  42.012  1.00  0.00     0.000 C 
BRANCH   3   4
ATOM      4  C   UNL     1      48.800  46.682  43.216  1.00  0.00     0.000 C 
BRANCH   4   5
ATOM      5  C   UNL     1      49.566  46.123  44.428  1.00  0.00     0.006 C 
BRANCH   5   6
ATOM      6  C   UNL     1      50.723  45.206  44.008  1.00  0.00     0.053 C 
BRANCH   6   7
ATOM      7  C   UNL     1      52.048  45.738  44.464  1.00  0.00     0.041 C 
ATOM      8  O   UNL     1      53.108  45.361  43.900  1.00  0.00    -0.550 OA
ATOM      9  O   UNL     1      52.113  46.621  45.534  1.00  0.00    -0.550 OA
ENDBRANCH   6   7
ENDBRANCH   5   6
ENDBRANCH   4   5
ENDBRANCH   3   4
ENDBRANCH   2   3
ENDBRANCH   1   2
BRANCH   1  10
ATOM     10  C   UNL     1      45.192  46.394  40.886  1.00  0.00     0.000 C 
BRANCH  10  11
ATOM     11  C   UNL     1      43.943  45.989  41.677  1.00  0.00    -0.000 C 
BRANCH  11  12
ATOM     12  C   UNL     1      42.686  46.652  41.100  1.00  0.00    -0.000 C 
BRANCH  12  13
ATOM     13  C   UNL     1      42.538  48.092  41.614  1.00  0.00    -0.000 C 
BRANCH  13  14
ATOM     14  C   UNL     1      43.453  49.081  40.875  1.00  0.00    -0.000 C 
BRANCH  14  15
ATOM     15  C   UNL     1      44.259  49.970  41.833  1.00  0.00    -0.003 C 
ATOM     16  C   UNL     1      43.740  49.848  43.263  1.00  0.00     0.004 C 
ENDBRANCH  14  15
ENDBRANCH  13  14
ENDBRANCH  12  13
ENDBRANCH  11  12
ENDBRANCH  10  11
ENDBRANCH   1  10
TORSDOF 12
ENDMDL
MODEL 6
REMARK VINA RESULT:    -3.299      2.122      2.526
REMARK INTER + INTRA:          -6.535
REMARK INTER:                  -5.989
REMARK INTRA:                  -0.546
REMARK UNBOUND:                -0.922
REMARK SMILES CCCCCCCCCCCCCC(=O)[O-]
REMARK SMILES IDX 8 1 9 2 10 3 11 4 12 5 13 6 14 7 15 8 16 9 7 10 6 11 5 12
REMARK SMILES IDX 4 13 3 14 2 15 1 16
REMARK H PARENT
REMARK Flexibility Score: inf
ROOT
ATOM      1  C   UNL     1      48.230  47.020  41.916  1.00  0.00     0.000 C 
ENDROOT
BRANCH   1   2
ATOM      2  C   UNL     1      48.808  46.934  43.334  1.00  0.00     0.000 C 
BRANCH   2   3
ATOM      3  C   UNL     1      50.292  46.540  43.300  1.00  0.00     0.000 C 
BRANCH   3   4
ATOM      4  C   UNL     1      50.993  46.758  44.650  1.00  0.00     0.000 C 
BRANCH   4   5
ATOM      5  C   UNL     1      52.149  45.768  44.883  1.00  0.00     0.006 C 
BRANCH   5   6
ATOM      6  C   UNL     1      52.611  45.100  43.581  1.00  0.00     0.053 C 
BRANCH   6   7
ATOM      7  C   UNL     1      53.668  45.905  42.887  1.00  0.00     0.041 C 
ATOM      8  O   UNL     1      54.861  45.858  43.286  1.00  0.00    -0.550 OA
ATOM      9  O   UNL     1      53.329  46.732  41.824  1.00  0.00    -0.550 OA
ENDBRANCH   6   7
ENDBRANCH   5   6
ENDBRANCH   4   5
ENDBRANCH   3   4
ENDBRANCH   2   3
ENDBRANCH   1   2
BRANCH   1  10
ATOM     10  C   UNL     1      46.704  46.868  41.933  1.00  0.00     0.000 C 
BRANCH  10  11
ATOM     11  C   UNL     1      46.263  45.655  41.107  1.00  0.00    -0.000 C 
BRANCH  11  12
ATOM     12  C   UNL     1      44.786  45.324  41.358  1.00  0.00    -0.000 C 
BRANCH  12  13
ATOM     13  C   UNL     1      43.877  46.464  40.875  1.00  0.00    -0.000 C 
BRANCH  13  14
ATOM     14  C   UNL     1      42.990  47.029  41.995  1.00  0.00    -0.000 C 
BRANCH  14  15
ATOM     15  C   UNL     1      42.773  48.544  41.872  1.00  0.00    -0.003 C 
ATOM     16  C   UNL     1      44.100  49.296  41.938  1.00  0.00     0.004 C 
ENDBRANCH  14  15
ENDBRANCH  13  14
ENDBRANCH  12  13
ENDBRANCH  11  12
ENDBRANCH  10  11
ENDBRANCH   1  10
TORSDOF 12
ENDMDL
MODEL 7
REMARK VINA RESULT:    -3.240      2.367      3.148
REMARK INTER + INTRA:          -6.434
REMARK INTER:                  -5.890
REMARK INTRA:                  -0.545
REMARK UNBOUND:                -0.922
REMARK SMILES CCCCCCCCCCCCCC(=O)[O-]
REMARK SMILES IDX 8 1 9 2 10 3 11 4 12 5 13 6 14 7 15 8 16 9 7 10 6 11 5 12
REMARK SMILES IDX 4 13 3 14 2 15 1 16
REMARK H PARENT
REMARK Flexibility Score: inf
ROOT
ATOM      1  C   UNL     1      49.775  47.121  43.415  1.00  0.00     0.000 C 
ENDROOT
BRANCH   1   2
ATOM      2  C   UNL     1      50.104  46.580  44.812  1.00  0.00     0.000 C 
BRANCH   2   3
ATOM      3  C   UNL     1      51.618  46.381  44.981  1.00  0.00     0.000 C 
BRANCH   3   4
ATOM      4  C   UNL     1      52.226  45.498  43.881  1.00  0.00     0.000 C 
BRANCH   4   5
ATOM      5  C   UNL     1      53.686  45.868  43.564  1.00  0.00     0.006 C 
BRANCH   5   6
ATOM      6  C   UNL     1      53.937  45.995  42.056  1.00  0.00     0.053 C 
BRANCH   6   7
ATOM      7  C   UNL     1      52.782  46.640  41.353  1.00  0.00     0.041 C 
ATOM      8  O   UNL     1      52.740  47.892  41.221  1.00  0.00    -0.550 OA
ATOM      9  O   UNL     1      51.734  45.863  40.875  1.00  0.00    -0.550 OA
ENDBRANCH   6   7
ENDBRANCH   5   6
ENDBRANCH   4   5
ENDBRANCH   3   4
ENDBRANCH   2   3
ENDBRANCH   1   2
BRANCH   1  10
ATOM     10  C   UNL     1      48.280  46.975  43.106  1.00  0.00     0.000 C 
BRANCH  10  11
ATOM     11  C   UNL     1      48.047  45.953  41.988  1.00  0.00    -0.000 C 
BRANCH  11  12
ATOM     12  C   UNL     1      47.050  46.487  40.951  1.00  0.00    -0.000 C 
BRANCH  12  13
ATOM     13  C   UNL     1      45.768  46.992  41.631  1.00  0.00    -0.000 C 
BRANCH  13  14
ATOM     14  C   UNL     1      45.336  48.377  41.125  1.00  0.00    -0.000 C 
BRANCH  14  15
ATOM     15  C   UNL     1      44.210  48.991  41.969  1.00  0.00    -0.003 C 
ATOM     16  C   UNL     1      42.842  48.510  41.493  1.00  0.00     0.004 C 
ENDBRANCH  14  15
ENDBRANCH  13  14
ENDBRANCH  12  13
ENDBRANCH  11  12
ENDBRANCH  10  11
ENDBRANCH   1  10
TORSDOF 12
ENDMDL
MODEL 8
REMARK VINA RESULT:    -3.128     21.454     24.021
REMARK INTER + INTRA:          -6.244
REMARK INTER:                  -5.450
REMARK INTRA:                  -0.793
REMARK UNBOUND:                -0.922
REMARK SMILES CCCCCCCCCCCCCC(=O)[O-]
REMARK SMILES IDX 8 1 9 2 10 3 11 4 12 5 13 6 14 7 15 8 16 9 7 10 6 11 5 12
REMARK SMILES IDX 4 13 3 14 2 15 1 16
REMARK H PARENT
REMARK Flexibility Score: inf
ROOT
ATOM      1  C   UNL     1      46.382  63.557  58.813  1.00  0.00     0.000 C 
ENDROOT
BRANCH   1   2
ATOM      2  C   UNL     1      45.109  64.280  58.357  1.00  0.00     0.000 C 
BRANCH   2   3
ATOM      3  C   UNL     1      45.059  64.394  56.827  1.00  0.00     0.000 C 
BRANCH   3   4
ATOM      4  C   UNL     1      44.576  63.101  56.152  1.00  0.00     0.000 C 
BRANCH   4   5
ATOM      5  C   UNL     1      44.245  63.298  54.662  1.00  0.00     0.006 C 
BRANCH   5   6
ATOM      6  C   UNL     1      43.775  64.727  54.358  1.00  0.00     0.053 C 
BRANCH   6   7
ATOM      7  C   UNL     1      42.280  64.823  54.314  1.00  0.00     0.041 C 
ATOM      8  O   UNL     1      41.623  64.939  55.382  1.00  0.00    -0.550 OA
ATOM      9  O   UNL     1      41.611  64.749  53.099  1.00  0.00    -0.550 OA
ENDBRANCH   6   7
ENDBRANCH   5   6
ENDBRANCH   4   5
ENDBRANCH   3   4
ENDBRANCH   2   3
ENDBRANCH   1   2
BRANCH   1  10
ATOM     10  C   UNL     1      46.213  62.980  60.224  1.00  0.00     0.000 C 
BRANCH  10  11
ATOM     11  C   UNL     1      47.388  63.378  61.125  1.00  0.00    -0.000 C 
BRANCH  11  12
ATOM     12  C   UNL     1      47.706  64.872  60.989  1.00  0.00    -0.000 C 
BRANCH  12  13
ATOM     13  C   UNL     1      49.218  65.124  61.096  1.00  0.00    -0.000 C 
BRANCH  13  14
ATOM     14  C   UNL     1      49.921  65.102  59.730  1.00  0.00    -0.000 C 
BRANCH  14  15
ATOM     15  C   UNL     1      50.938  63.958  59.607  1.00  0.00    -0.003 C 
ATOM     16  C   UNL     1      52.070  64.330  58.653  1.00  0.00     0.004 C 
ENDBRANCH  14  15
ENDBRANCH  13  14
ENDBRANCH  12  13
ENDBRANCH  11  12
ENDBRANCH  10  11
ENDBRANCH   1  10
TORSDOF 12
ENDMDL
MODEL 9
REMARK VINA RESULT:    -3.066     20.959     23.510
REMARK INTER + INTRA:          -6.139
REMARK INTER:                  -5.241
REMARK INTRA:                  -0.898
REMARK UNBOUND:                -0.922
REMARK SMILES CCCCCCCCCCCCCC(=O)[O-]
REMARK SMILES IDX 8 1 9 2 10 3 11 4 12 5 13 6 14 7 15 8 16 9 7 10 6 11 5 12
REMARK SMILES IDX 4 13 3 14 2 15 1 16
REMARK H PARENT
REMARK Flexibility Score: inf
ROOT
ATOM      1  C   UNL     1      46.378  63.437  58.985  1.00  0.00     0.000 C 
ENDROOT
BRANCH   1   2
ATOM      2  C   UNL     1      45.348  64.570  58.907  1.00  0.00     0.000 C 
BRANCH   2   3
ATOM      3  C   UNL     1      45.039  64.933  57.447  1.00  0.00     0.000 C 
BRANCH   3   4
ATOM      4  C   UNL     1      43.580  64.647  57.061  1.00  0.00     0.000 C 
BRANCH   4   5
ATOM      5  C   UNL     1      43.451  63.510  56.031  1.00  0.00     0.006 C 
BRANCH   5   6
ATOM      6  C   UNL     1      44.818  62.994  55.565  1.00  0.00     0.053 C 
BRANCH   6   7
ATOM      7  C   UNL     1      44.830  61.503  55.421  1.00  0.00     0.041 C 
ATOM      8  O   UNL     1      43.747  60.860  55.411  1.00  0.00    -0.550 OA
ATOM      9  O   UNL     1      46.037  60.820  55.334  1.00  0.00    -0.550 OA
ENDBRANCH   6   7
ENDBRANCH   5   6
ENDBRANCH   4   5
ENDBRANCH   3   4
ENDBRANCH   2   3
ENDBRANCH   1   2
BRANCH   1  10
ATOM     10  C   UNL     1      46.569  62.965  60.432  1.00  0.00     0.000 C 
BRANCH  10  11
ATOM     11  C   UNL     1      48.047  63.007  60.834  1.00  0.00    -0.000 C 
BRANCH  11  12
ATOM     12  C   UNL     1      48.499  64.444  61.124  1.00  0.00    -0.000 C 
BRANCH  12  13
ATOM     13  C   UNL     1      49.569  64.898  60.120  1.00  0.00    -0.000 C 
BRANCH  13  14
ATOM     14  C   UNL     1      50.339  63.719  59.503  1.00  0.00    -0.000 C 
BRANCH  14  15
ATOM     15  C   UNL     1      51.839  64.009  59.347  1.00  0.00    -0.003 C 
ATOM     16  C   UNL     1      52.091  65.012  58.224  1.00  0.00     0.004 C 
ENDBRANCH  14  15
ENDBRANCH  13  14
ENDBRANCH  12  13
ENDBRANCH  11  12
ENDBRANCH  10  11
ENDBRANCH   1  10
TORSDOF 12
ENDMDL
