MODEL 1
REMARK VINA RESULT:    68.609      0.000      0.000
REMARK INTER + INTRA:          90.574
REMARK INTER:                  90.669
REMARK INTRA:                  -0.095
REMARK UNBOUND:                -0.095
REMARK SMILES CC[C@@H](C=C[C@H](C)[C@@H]1CC[C@H]2C3=CC[C@@H]4C[C@H](O)CC[C@@]4(C)[C@@H]3CC[C@]21C)C(C)C
REMARK SMILES IDX 6 1 7 2 5 3 4 4 3 5 2 6 1 7 28 8 29 9 30 10 8 11 9 12 26 13
REMARK SMILES IDX 10 14 11 15 25 16 27 17 12 18 24 19 23 20 13 21 21 22 14 23
REMARK SMILES IDX 15 24 20 25 22 26 16 27 19 28 17 29 18 30
REMARK H PARENT 18 31
REMARK Flexibility Score: inf
ROOT
ATOM      1  C   UNL     1     -26.618  32.242  -4.187  1.00  0.00     0.012 C 
ATOM      2  C   UNL     1     -25.857  31.654  -2.981  1.00  0.00     0.012 C 
ENDROOT
BRANCH   1   3
ATOM      3  C   UNL     1     -26.363  31.321  -5.371  1.00  0.00    -0.028 C 
ATOM      4  C   UNL     1     -27.161  31.338  -6.453  1.00  0.00    -0.027 C 
BRANCH   4   5
ATOM      5  C   UNL     1     -26.792  30.697  -7.782  1.00  0.00     0.014 C 
BRANCH   5   6
ATOM      6  C   UNL     1     -26.682  29.146  -7.626  1.00  0.00     0.004 C 
ATOM      7  C   UNL     1     -27.851  28.486  -6.887  1.00  0.00     0.004 C 
ENDBRANCH   5   6
BRANCH   5   8
ATOM      8  C   UNL     1     -25.505  31.371  -8.369  1.00  0.00    -0.011 C 
ATOM      9  C   UNL     1     -24.253  30.483  -8.188  1.00  0.00     0.008 C 
ATOM     10  C   UNL     1     -25.656  31.702  -9.869  1.00  0.00     0.008 C 
ENDBRANCH   5   8
ENDBRANCH   4   5
ENDBRANCH   1   3
BRANCH   1  11
ATOM     11  C   UNL     1     -28.143  32.446  -3.869  1.00  0.00     0.002 C 
ATOM     12  C   UNL     1     -28.446  33.747  -3.121  1.00  0.00     0.005 C 
ATOM     13  C   UNL     1     -28.890  31.312  -3.062  1.00  0.00    -0.023 C 
ATOM     14  C   UNL     1     -29.775  33.543  -2.429  1.00  0.00     0.009 C 
ATOM     15  C   UNL     1     -29.760  32.077  -2.010  1.00  0.00     0.021 C 
ATOM     16  C   UNL     1     -29.775  30.456  -4.032  1.00  0.00     0.008 C 
ATOM     17  C   UNL     1     -27.947  30.359  -2.275  1.00  0.00     0.012 C 
ATOM     18  C   UNL     1     -31.157  31.489  -1.858  1.00  0.00    -0.067 C 
ATOM     19  C   UNL     1     -31.126  31.119  -4.364  1.00  0.00     0.009 C 
ATOM     20  C   UNL     1     -32.025  31.327  -3.107  1.00  0.00     0.021 C 
ATOM     21  C   UNL     1     -31.585  31.105  -0.631  1.00  0.00    -0.027 C 
ATOM     22  C   UNL     1     -33.187  30.281  -2.931  1.00  0.00    -0.023 C 
ATOM     23  C   UNL     1     -32.903  30.426  -0.380  1.00  0.00     0.031 C 
ATOM     24  C   UNL     1     -33.877  30.590  -1.561  1.00  0.00     0.002 C 
ATOM     25  C   UNL     1     -34.248  30.477  -4.068  1.00  0.00     0.010 C 
ATOM     26  C   UNL     1     -32.632  28.827  -2.989  1.00  0.00     0.012 C 
ATOM     27  C   UNL     1     -35.158  29.768  -1.327  1.00  0.00     0.036 C 
ATOM     28  C   UNL     1     -35.559  29.710  -3.838  1.00  0.00     0.032 C 
ATOM     29  C   UNL     1     -36.167  30.004  -2.456  1.00  0.00     0.114 C 
BRANCH  29  30
ATOM     30  O   UNL     1     -37.328  29.239  -2.241  1.00  0.00    -0.393 OA
ATOM     31  H   UNL     1     -37.150  28.637  -1.470  1.00  0.00     0.210 HD
ENDBRANCH  29  30
ENDBRANCH   1  11
TORSDOF 6
ENDMDL
MODEL 2
REMARK VINA RESULT:    69.442      0.547      1.602
REMARK INTER + INTRA:          91.674
REMARK INTER:                  91.457
REMARK INTRA:                   0.218
REMARK UNBOUND:                -0.095
REMARK SMILES CC[C@@H](C=C[C@H](C)[C@@H]1CC[C@H]2C3=CC[C@@H]4C[C@H](O)CC[C@@]4(C)[C@@H]3CC[C@]21C)C(C)C
REMARK SMILES IDX 6 1 7 2 5 3 4 4 3 5 2 6 1 7 28 8 29 9 30 10 8 11 9 12 26 13
REMARK SMILES IDX 10 14 11 15 25 16 27 17 12 18 24 19 23 20 13 21 21 22 14 23
REMARK SMILES IDX 15 24 20 25 22 26 16 27 19 28 17 29 18 30
REMARK H PARENT 18 31
REMARK Flexibility Score: inf
ROOT
ATOM      1  C   UNL     1     -26.392  32.276  -4.115  1.00  0.00     0.012 C 
ATOM      2  C   UNL     1     -25.652  31.855  -2.829  1.00  0.00     0.012 C 
ENDROOT
BRANCH   1   3
ATOM      3  C   UNL     1     -26.070  31.237  -5.180  1.00  0.00    -0.028 C 
ATOM      4  C   UNL     1     -26.405  31.429  -6.467  1.00  0.00    -0.027 C 
BRANCH   4   5
ATOM      5  C   UNL     1     -25.843  30.607  -7.616  1.00  0.00     0.014 C 
BRANCH   5   6
ATOM      6  C   UNL     1     -25.570  31.518  -8.855  1.00  0.00     0.004 C 
ATOM      7  C   UNL     1     -24.100  31.894  -9.071  1.00  0.00     0.004 C 
ENDBRANCH   5   6
BRANCH   5   8
ATOM      8  C   UNL     1     -26.779  29.386  -7.917  1.00  0.00    -0.011 C 
ATOM      9  C   UNL     1     -26.004  28.049  -7.915  1.00  0.00     0.008 C 
ATOM     10  C   UNL     1     -27.939  29.280  -6.903  1.00  0.00     0.008 C 
ENDBRANCH   5   8
ENDBRANCH   4   5
ENDBRANCH   1   3
BRANCH   1  11
ATOM     11  C   UNL     1     -27.931  32.460  -3.865  1.00  0.00     0.002 C 
ATOM     12  C   UNL     1     -28.299  33.821  -3.270  1.00  0.00     0.005 C 
ATOM     13  C   UNL     1     -28.670  31.392  -2.965  1.00  0.00    -0.023 C 
ATOM     14  C   UNL     1     -29.643  33.646  -2.599  1.00  0.00     0.009 C 
ATOM     15  C   UNL     1     -29.596  32.234  -2.026  1.00  0.00     0.021 C 
ATOM     16  C   UNL     1     -29.496  30.409  -3.864  1.00  0.00     0.008 C 
ATOM     17  C   UNL     1     -27.725  30.561  -2.053  1.00  0.00     0.012 C 
ATOM     18  C   UNL     1     -30.980  31.618  -1.854  1.00  0.00    -0.067 C 
ATOM     19  C   UNL     1     -30.855  30.987  -4.304  1.00  0.00     0.009 C 
ATOM     20  C   UNL     1     -31.800  31.296  -3.103  1.00  0.00     0.021 C 
ATOM     21  C   UNL     1     -31.435  31.352  -0.606  1.00  0.00    -0.027 C 
ATOM     22  C   UNL     1     -32.935  30.235  -2.852  1.00  0.00    -0.023 C 
ATOM     23  C   UNL     1     -32.740  30.659  -0.323  1.00  0.00     0.031 C 
ATOM     24  C   UNL     1     -33.679  30.663  -1.543  1.00  0.00     0.002 C 
ATOM     25  C   UNL     1     -33.963  30.274  -4.034  1.00  0.00     0.010 C 
ATOM     26  C   UNL     1     -32.334  28.803  -2.738  1.00  0.00     0.012 C 
ATOM     27  C   UNL     1     -34.941  29.828  -1.261  1.00  0.00     0.036 C 
ATOM     28  C   UNL     1     -35.257  29.492  -3.762  1.00  0.00     0.032 C 
ATOM     29  C   UNL     1     -35.919  29.909  -2.437  1.00  0.00     0.114 C 
BRANCH  29  30
ATOM     30  O   UNL     1     -37.063  29.132  -2.176  1.00  0.00    -0.393 OA
ATOM     31  H   UNL     1     -37.553  29.026  -3.036  1.00  0.00     0.210 HD
ENDBRANCH  29  30
ENDBRANCH   1  11
TORSDOF 6
ENDMDL
