MODEL 1
REMARK VINA RESULT:    -3.006      0.000      0.000
REMARK INTER + INTRA:          -8.230
REMARK INTER:                  -5.467
REMARK INTRA:                  -2.764
REMARK UNBOUND:                -2.764
REMARK SMILES CCCCCCCCCCCCCC[C@@H](C)C(=O)[O-]
REMARK SMILES IDX 9 1 10 2 11 3 12 4 13 5 14 6 15 7 16 8 17 9 18 10 19 11 8 12
REMARK SMILES IDX 7 13 6 14 5 15 4 16 3 17 2 18 1 19
REMARK H PARENT
REMARK Flexibility Score: inf
ROOT
ATOM      1  C   UNL     1      61.325  32.815  58.476  1.00  0.00     0.000 C 
ENDROOT
BRANCH   1   2
ATOM      2  C   UNL     1      62.625  32.498  57.721  1.00  0.00     0.000 C 
BRANCH   2   3
ATOM      3  C   UNL     1      63.422  31.345  58.357  1.00  0.00     0.000 C 
BRANCH   3   4
ATOM      4  C   UNL     1      64.280  31.740  59.576  1.00  0.00     0.000 C 
BRANCH   4   5
ATOM      5  C   UNL     1      63.729  31.280  60.940  1.00  0.00     0.001 C 
BRANCH   5   6
ATOM      6  C   UNL     1      63.346  29.787  61.023  1.00  0.00     0.009 C 
BRANCH   6   7
ATOM      7  C   UNL     1      61.888  29.511  61.459  1.00  0.00     0.032 C 
ATOM      8  C   UNL     1      61.047  30.792  61.541  1.00  0.00     0.014 C 
BRANCH   7   9
ATOM      9  C   UNL     1      61.251  28.539  60.502  1.00  0.00     0.044 C 
ATOM     10  O   UNL     1      60.979  27.364  60.869  1.00  0.00    -0.550 OA
ATOM     11  O   UNL     1      60.948  28.939  59.207  1.00  0.00    -0.550 OA
ENDBRANCH   7   9
ENDBRANCH   6   7
ENDBRANCH   5   6
ENDBRANCH   4   5
ENDBRANCH   3   4
ENDBRANCH   2   3
ENDBRANCH   1   2
BRANCH   1  12
ATOM     12  C   UNL     1      61.340  34.254  59.013  1.00  0.00     0.000 C 
BRANCH  12  13
ATOM     13  C   UNL     1      61.610  34.321  60.525  1.00  0.00    -0.000 C 
BRANCH  13  14
ATOM     14  C   UNL     1      62.586  35.449  60.903  1.00  0.00    -0.000 C 
BRANCH  14  15
ATOM     15  C   UNL     1      63.983  34.921  61.271  1.00  0.00    -0.000 C 
BRANCH  15  16
ATOM     16  C   UNL     1      65.100  35.602  60.462  1.00  0.00    -0.000 C 
BRANCH  16  17
ATOM     17  C   UNL     1      64.572  36.356  59.227  1.00  0.00    -0.000 C 
BRANCH  17  18
ATOM     18  C   UNL     1      64.631  35.564  57.909  1.00  0.00    -0.003 C 
ATOM     19  C   UNL     1      65.856  34.656  57.810  1.00  0.00     0.004 C 
ENDBRANCH  17  18
ENDBRANCH  16  17
ENDBRANCH  15  16
ENDBRANCH  14  15
ENDBRANCH  13  14
ENDBRANCH  12  13
ENDBRANCH   1  12
TORSDOF 14
ENDMDL
MODEL 2
REMARK VINA RESULT:    -2.986     10.555     12.550
REMARK INTER + INTRA:          -8.194
REMARK INTER:                  -6.236
REMARK INTRA:                  -1.959
REMARK UNBOUND:                -2.764
REMARK SMILES CCCCCCCCCCCCCC[C@@H](C)C(=O)[O-]
REMARK SMILES IDX 9 1 10 2 11 3 12 4 13 5 14 6 15 7 16 8 17 9 18 10 19 11 8 12
REMARK SMILES IDX 7 13 6 14 5 15 4 16 3 17 2 18 1 19
REMARK H PARENT
REMARK Flexibility Score: inf
ROOT
ATOM      1  C   UNL     1      57.454  27.483  52.550  1.00  0.00     0.000 C 
ENDROOT
BRANCH   1   2
ATOM      2  C   UNL     1      57.446  28.893  51.939  1.00  0.00     0.000 C 
BRANCH   2   3
ATOM      3  C   UNL     1      57.808  28.900  50.443  1.00  0.00     0.000 C 
BRANCH   3   4
ATOM      4  C   UNL     1      59.285  29.220  50.132  1.00  0.00     0.000 C 
BRANCH   4   5
ATOM      5  C   UNL     1      60.107  28.039  49.579  1.00  0.00     0.001 C 
BRANCH   5   6
ATOM      6  C   UNL     1      59.563  26.639  49.934  1.00  0.00     0.009 C 
BRANCH   6   7
ATOM      7  C   UNL     1      60.640  25.603  50.335  1.00  0.00     0.032 C 
ATOM      8  C   UNL     1      61.992  26.256  50.652  1.00  0.00     0.014 C 
BRANCH   7   9
ATOM      9  C   UNL     1      60.162  24.812  51.522  1.00  0.00     0.044 C 
ATOM     10  O   UNL     1      59.690  23.653  51.370  1.00  0.00    -0.550 OA
ATOM     11  O   UNL     1      60.248  25.353  52.798  1.00  0.00    -0.550 OA
ENDBRANCH   7   9
ENDBRANCH   6   7
ENDBRANCH   5   6
ENDBRANCH   4   5
ENDBRANCH   3   4
ENDBRANCH   2   3
ENDBRANCH   1   2
BRANCH   1  12
ATOM     12  C   UNL     1      56.055  26.853  52.495  1.00  0.00     0.000 C 
BRANCH  12  13
ATOM     13  C   UNL     1      55.899  25.853  51.338  1.00  0.00    -0.000 C 
BRANCH  13  14
ATOM     14  C   UNL     1      55.157  26.455  50.131  1.00  0.00    -0.000 C 
BRANCH  14  15
ATOM     15  C   UNL     1      53.648  26.607  50.383  1.00  0.00    -0.000 C 
BRANCH  15  16
ATOM     16  C   UNL     1      53.130  28.010  50.022  1.00  0.00    -0.000 C 
BRANCH  16  17
ATOM     17  C   UNL     1      54.003  29.139  50.600  1.00  0.00    -0.000 C 
BRANCH  17  18
ATOM     18  C   UNL     1      53.331  29.981  51.698  1.00  0.00    -0.003 C 
ATOM     19  C   UNL     1      54.265  30.296  52.867  1.00  0.00     0.004 C 
ENDBRANCH  17  18
ENDBRANCH  16  17
ENDBRANCH  15  16
ENDBRANCH  14  15
ENDBRANCH  13  14
ENDBRANCH  12  13
ENDBRANCH   1  12
TORSDOF 14
ENDMDL
MODEL 3
REMARK VINA RESULT:    -2.984      3.396      5.919
REMARK INTER + INTRA:          -8.190
REMARK INTER:                  -6.421
REMARK INTRA:                  -1.769
REMARK UNBOUND:                -2.764
REMARK SMILES CCCCCCCCCCCCCC[C@@H](C)C(=O)[O-]
REMARK SMILES IDX 9 1 10 2 11 3 12 4 13 5 14 6 15 7 16 8 17 9 18 10 19 11 8 12
REMARK SMILES IDX 7 13 6 14 5 15 4 16 3 17 2 18 1 19
REMARK H PARENT
REMARK Flexibility Score: inf
ROOT
ATOM      1  C   UNL     1      61.556  32.110  58.342  1.00  0.00     0.000 C 
ENDROOT
BRANCH   1   2
ATOM      2  C   UNL     1      60.823  33.173  57.509  1.00  0.00     0.000 C 
BRANCH   2   3
ATOM      3  C   UNL     1      60.199  34.284  58.372  1.00  0.00     0.000 C 
BRANCH   3   4
ATOM      4  C   UNL     1      61.206  35.286  58.972  1.00  0.00     0.000 C 
BRANCH   4   5
ATOM      5  C   UNL     1      61.416  35.168  60.495  1.00  0.00     0.001 C 
BRANCH   5   6
ATOM      6  C   UNL     1      62.526  36.069  61.075  1.00  0.00     0.009 C 
BRANCH   6   7
ATOM      7  C   UNL     1      63.860  35.349  61.380  1.00  0.00     0.032 C 
ATOM      8  C   UNL     1      63.865  33.894  60.893  1.00  0.00     0.014 C 
BRANCH   7   9
ATOM      9  C   UNL     1      64.998  36.104  60.749  1.00  0.00     0.044 C 
ATOM     10  O   UNL     1      66.175  35.966  61.179  1.00  0.00    -0.550 OA
ATOM     11  O   UNL     1      64.757  36.954  59.677  1.00  0.00    -0.550 OA
ENDBRANCH   7   9
ENDBRANCH   6   7
ENDBRANCH   5   6
ENDBRANCH   4   5
ENDBRANCH   3   4
ENDBRANCH   2   3
ENDBRANCH   1   2
BRANCH   1  12
ATOM     12  C   UNL     1      60.595  31.424  59.324  1.00  0.00     0.000 C 
BRANCH  12  13
ATOM     13  C   UNL     1      60.973  31.669  60.794  1.00  0.00    -0.000 C 
BRANCH  13  14
ATOM     14  C   UNL     1      61.000  30.371  61.622  1.00  0.00    -0.000 C 
BRANCH  14  15
ATOM     15  C   UNL     1      62.172  29.452  61.240  1.00  0.00    -0.000 C 
BRANCH  15  16
ATOM     16  C   UNL     1      63.532  30.166  61.328  1.00  0.00    -0.000 C 
BRANCH  16  17
ATOM     17  C   UNL     1      64.363  30.034  60.038  1.00  0.00    -0.000 C 
BRANCH  17  18
ATOM     18  C   UNL     1      65.694  29.280  60.197  1.00  0.00    -0.003 C 
ATOM     19  C   UNL     1      65.509  27.779  60.417  1.00  0.00     0.004 C 
ENDBRANCH  17  18
ENDBRANCH  16  17
ENDBRANCH  15  16
ENDBRANCH  14  15
ENDBRANCH  13  14
ENDBRANCH  12  13
ENDBRANCH   1  12
TORSDOF 14
ENDMDL
MODEL 4
REMARK VINA RESULT:    -2.958      1.534      3.001
REMARK INTER + INTRA:          -8.142
REMARK INTER:                  -5.472
REMARK INTRA:                  -2.670
REMARK UNBOUND:                -2.764
REMARK SMILES CCCCCCCCCCCCCC[C@@H](C)C(=O)[O-]
REMARK SMILES IDX 9 1 10 2 11 3 12 4 13 5 14 6 15 7 16 8 17 9 18 10 19 11 8 12
REMARK SMILES IDX 7 13 6 14 5 15 4 16 3 17 2 18 1 19
REMARK H PARENT
REMARK Flexibility Score: inf
ROOT
ATOM      1  C   UNL     1      63.591  32.681  59.518  1.00  0.00     0.000 C 
ENDROOT
BRANCH   1   2
ATOM      2  C   UNL     1      62.522  32.220  58.516  1.00  0.00     0.000 C 
BRANCH   2   3
ATOM      3  C   UNL     1      61.163  31.930  59.180  1.00  0.00     0.000 C 
BRANCH   3   4
ATOM      4  C   UNL     1      61.148  32.060  60.716  1.00  0.00     0.000 C 
BRANCH   4   5
ATOM      5  C   UNL     1      60.923  30.741  61.482  1.00  0.00     0.001 C 
BRANCH   5   6
ATOM      6  C   UNL     1      62.178  29.858  61.649  1.00  0.00     0.009 C 
BRANCH   6   7
ATOM      7  C   UNL     1      62.175  28.556  60.814  1.00  0.00     0.032 C 
ATOM      8  C   UNL     1      60.766  28.154  60.360  1.00  0.00     0.014 C 
BRANCH   7   9
ATOM      9  C   UNL     1      63.072  28.722  59.617  1.00  0.00     0.044 C 
ATOM     10  O   UNL     1      64.308  28.923  59.765  1.00  0.00    -0.550 OA
ATOM     11  O   UNL     1      62.541  28.643  58.336  1.00  0.00    -0.550 OA
ENDBRANCH   7   9
ENDBRANCH   6   7
ENDBRANCH   5   6
ENDBRANCH   4   5
ENDBRANCH   3   4
ENDBRANCH   2   3
ENDBRANCH   1   2
BRANCH   1  12
ATOM     12  C   UNL     1      64.383  33.874  58.964  1.00  0.00     0.000 C 
BRANCH  12  13
ATOM     13  C   UNL     1      64.721  34.916  60.044  1.00  0.00    -0.000 C 
BRANCH  13  14
ATOM     14  C   UNL     1      63.760  34.856  61.245  1.00  0.00    -0.000 C 
BRANCH  14  15
ATOM     15  C   UNL     1      62.754  36.019  61.253  1.00  0.00    -0.000 C 
BRANCH  15  16
ATOM     16  C   UNL     1      61.417  35.644  60.591  1.00  0.00    -0.000 C 
BRANCH  16  17
ATOM     17  C   UNL     1      61.171  36.394  59.269  1.00  0.00    -0.000 C 
BRANCH  17  18
ATOM     18  C   UNL     1      60.888  35.493  58.054  1.00  0.00    -0.003 C 
ATOM     19  C   UNL     1      59.455  34.963  58.023  1.00  0.00     0.004 C 
ENDBRANCH  17  18
ENDBRANCH  16  17
ENDBRANCH  15  16
ENDBRANCH  14  15
ENDBRANCH  13  14
ENDBRANCH  12  13
ENDBRANCH   1  12
TORSDOF 14
ENDMDL
MODEL 5
REMARK VINA RESULT:    -2.957      9.920     12.211
REMARK INTER + INTRA:          -8.141
REMARK INTER:                  -5.782
REMARK INTRA:                  -2.359
REMARK UNBOUND:                -2.764
REMARK SMILES CCCCCCCCCCCCCC[C@@H](C)C(=O)[O-]
REMARK SMILES IDX 9 1 10 2 11 3 12 4 13 5 14 6 15 7 16 8 17 9 18 10 19 11 8 12
REMARK SMILES IDX 7 13 6 14 5 15 4 16 3 17 2 18 1 19
REMARK H PARENT
REMARK Flexibility Score: inf
ROOT
ATOM      1  C   UNL     1      55.134  26.226  50.040  1.00  0.00     0.000 C 
ENDROOT
BRANCH   1   2
ATOM      2  C   UNL     1      56.617  26.233  50.440  1.00  0.00     0.000 C 
BRANCH   2   3
ATOM      3  C   UNL     1      56.860  26.852  51.828  1.00  0.00     0.000 C 
BRANCH   3   4
ATOM      4  C   UNL     1      57.748  28.113  51.832  1.00  0.00     0.000 C 
BRANCH   4   5
ATOM      5  C   UNL     1      57.858  28.839  50.476  1.00  0.00     0.001 C 
BRANCH   5   6
ATOM      6  C   UNL     1      59.209  28.668  49.749  1.00  0.00     0.009 C 
BRANCH   6   7
ATOM      7  C   UNL     1      60.245  27.794  50.494  1.00  0.00     0.032 C 
ATOM      8  C   UNL     1      60.278  26.351  49.972  1.00  0.00     0.014 C 
BRANCH   7   9
ATOM      9  C   UNL     1      61.610  28.415  50.372  1.00  0.00     0.044 C 
ATOM     10  O   UNL     1      61.817  29.591  50.776  1.00  0.00    -0.550 OA
ATOM     11  O   UNL     1      62.657  27.687  49.820  1.00  0.00    -0.550 OA
ENDBRANCH   7   9
ENDBRANCH   6   7
ENDBRANCH   5   6
ENDBRANCH   4   5
ENDBRANCH   3   4
ENDBRANCH   2   3
ENDBRANCH   1   2
BRANCH   1  12
ATOM     12  C   UNL     1      54.231  26.298  51.280  1.00  0.00     0.000 C 
BRANCH  12  13
ATOM     13  C   UNL     1      53.193  27.430  51.194  1.00  0.00    -0.000 C 
BRANCH  13  14
ATOM     14  C   UNL     1      53.647  28.581  50.279  1.00  0.00    -0.000 C 
BRANCH  14  15
ATOM     15  C   UNL     1      54.370  29.697  51.050  1.00  0.00    -0.000 C 
BRANCH  15  16
ATOM     16  C   UNL     1      53.860  29.839  52.495  1.00  0.00    -0.000 C 
BRANCH  16  17
ATOM     17  C   UNL     1      54.996  29.840  53.535  1.00  0.00    -0.000 C 
BRANCH  17  18
ATOM     18  C   UNL     1      55.705  31.193  53.720  1.00  0.00    -0.003 C 
ATOM     19  C   UNL     1      57.207  31.052  53.961  1.00  0.00     0.004 C 
ENDBRANCH  17  18
ENDBRANCH  16  17
ENDBRANCH  15  16
ENDBRANCH  14  15
ENDBRANCH  13  14
ENDBRANCH  12  13
ENDBRANCH   1  12
TORSDOF 14
ENDMDL
MODEL 6
REMARK VINA RESULT:    -2.948     10.997     12.841
REMARK INTER + INTRA:          -8.124
REMARK INTER:                  -6.012
REMARK INTRA:                  -2.112
REMARK UNBOUND:                -2.764
REMARK SMILES CCCCCCCCCCCCCC[C@@H](C)C(=O)[O-]
REMARK SMILES IDX 9 1 10 2 11 3 12 4 13 5 14 6 15 7 16 8 17 9 18 10 19 11 8 12
REMARK SMILES IDX 7 13 6 14 5 15 4 16 3 17 2 18 1 19
REMARK H PARENT
REMARK Flexibility Score: inf
ROOT
ATOM      1  C   UNL     1      53.824  27.472  50.055  1.00  0.00     0.000 C 
ENDROOT
BRANCH   1   2
ATOM      2  C   UNL     1      55.323  27.445  50.391  1.00  0.00     0.000 C 
BRANCH   2   3
ATOM      3  C   UNL     1      55.913  26.023  50.387  1.00  0.00     0.000 C 
BRANCH   3   4
ATOM      4  C   UNL     1      57.118  25.815  51.327  1.00  0.00     0.000 C 
BRANCH   4   5
ATOM      5  C   UNL     1      58.228  26.879  51.212  1.00  0.00     0.001 C 
BRANCH   5   6
ATOM      6  C   UNL     1      59.249  26.640  50.079  1.00  0.00     0.009 C 
BRANCH   6   7
ATOM      7  C   UNL     1      59.900  27.921  49.508  1.00  0.00     0.032 C 
ATOM      8  C   UNL     1      59.041  29.170  49.741  1.00  0.00     0.014 C 
BRANCH   7   9
ATOM      9  C   UNL     1      61.261  28.112  50.122  1.00  0.00     0.044 C 
ATOM     10  O   UNL     1      62.176  27.267  49.927  1.00  0.00    -0.550 OA
ATOM     11  O   UNL     1      61.519  29.232  50.902  1.00  0.00    -0.550 OA
ENDBRANCH   7   9
ENDBRANCH   6   7
ENDBRANCH   5   6
ENDBRANCH   4   5
ENDBRANCH   3   4
ENDBRANCH   2   3
ENDBRANCH   1   2
BRANCH   1  12
ATOM     12  C   UNL     1      53.190  28.804  50.481  1.00  0.00     0.000 C 
BRANCH  12  13
ATOM     13  C   UNL     1      54.232  29.839  50.937  1.00  0.00    -0.000 C 
BRANCH  13  14
ATOM     14  C   UNL     1      53.953  30.375  52.352  1.00  0.00    -0.000 C 
BRANCH  14  15
ATOM     15  C   UNL     1      53.016  29.459  53.156  1.00  0.00    -0.000 C 
BRANCH  15  16
ATOM     16  C   UNL     1      53.747  28.719  54.290  1.00  0.00    -0.000 C 
BRANCH  16  17
ATOM     17  C   UNL     1      54.247  27.324  53.871  1.00  0.00    -0.000 C 
BRANCH  17  18
ATOM     18  C   UNL     1      53.138  26.316  53.520  1.00  0.00    -0.003 C 
ATOM     19  C   UNL     1      53.682  24.947  53.112  1.00  0.00     0.004 C 
ENDBRANCH  17  18
ENDBRANCH  16  17
ENDBRANCH  15  16
ENDBRANCH  14  15
ENDBRANCH  13  14
ENDBRANCH  12  13
ENDBRANCH   1  12
TORSDOF 14
ENDMDL
MODEL 7
REMARK VINA RESULT:    -2.947      1.222      2.792
REMARK INTER + INTRA:          -8.123
REMARK INTER:                  -5.645
REMARK INTRA:                  -2.477
REMARK UNBOUND:                -2.764
REMARK SMILES CCCCCCCCCCCCCC[C@@H](C)C(=O)[O-]
REMARK SMILES IDX 9 1 10 2 11 3 12 4 13 5 14 6 15 7 16 8 17 9 18 10 19 11 8 12
REMARK SMILES IDX 7 13 6 14 5 15 4 16 3 17 2 18 1 19
REMARK H PARENT
REMARK Flexibility Score: inf
ROOT
ATOM      1  C   UNL     1      63.329  36.067  61.164  1.00  0.00     0.000 C 
ENDROOT
BRANCH   1   2
ATOM      2  C   UNL     1      64.517  35.104  61.016  1.00  0.00     0.000 C 
BRANCH   2   3
ATOM      3  C   UNL     1      64.128  33.633  61.252  1.00  0.00     0.000 C 
BRANCH   3   4
ATOM      4  C   UNL     1      64.290  32.712  60.026  1.00  0.00     0.000 C 
BRANCH   4   5
ATOM      5  C   UNL     1      63.234  31.595  59.904  1.00  0.00     0.001 C 
BRANCH   5   6
ATOM      6  C   UNL     1      63.257  30.545  61.035  1.00  0.00     0.009 C 
BRANCH   6   7
ATOM      7  C   UNL     1      61.865  30.086  61.529  1.00  0.00     0.032 C 
ATOM      8  C   UNL     1      60.773  31.127  61.251  1.00  0.00     0.014 C 
BRANCH   7   9
ATOM      9  C   UNL     1      61.504  28.778  60.879  1.00  0.00     0.044 C 
ATOM     10  O   UNL     1      60.309  28.527  60.566  1.00  0.00    -0.550 OA
ATOM     11  O   UNL     1      62.493  27.841  60.609  1.00  0.00    -0.550 OA
ENDBRANCH   7   9
ENDBRANCH   6   7
ENDBRANCH   5   6
ENDBRANCH   4   5
ENDBRANCH   3   4
ENDBRANCH   2   3
ENDBRANCH   1   2
BRANCH   1  12
ATOM     12  C   UNL     1      62.002  35.350  60.875  1.00  0.00     0.000 C 
BRANCH  12  13
ATOM     13  C   UNL     1      60.928  36.294  60.311  1.00  0.00    -0.000 C 
BRANCH  13  14
ATOM     14  C   UNL     1      60.038  35.614  59.255  1.00  0.00    -0.000 C 
BRANCH  14  15
ATOM     15  C   UNL     1      60.609  34.267  58.782  1.00  0.00    -0.000 C 
BRANCH  15  16
ATOM     16  C   UNL     1      61.138  34.327  57.338  1.00  0.00    -0.000 C 
BRANCH  16  17
ATOM     17  C   UNL     1      62.676  34.318  57.262  1.00  0.00    -0.000 C 
BRANCH  17  18
ATOM     18  C   UNL     1      63.338  35.703  57.377  1.00  0.00    -0.003 C 
ATOM     19  C   UNL     1      64.864  35.633  57.432  1.00  0.00     0.004 C 
ENDBRANCH  17  18
ENDBRANCH  16  17
ENDBRANCH  15  16
ENDBRANCH  14  15
ENDBRANCH  13  14
ENDBRANCH  12  13
ENDBRANCH   1  12
TORSDOF 14
ENDMDL
MODEL 8
REMARK VINA RESULT:    -2.920      1.562      2.987
REMARK INTER + INTRA:          -8.073
REMARK INTER:                  -5.898
REMARK INTRA:                  -2.175
REMARK UNBOUND:                -2.764
REMARK SMILES CCCCCCCCCCCCCC[C@@H](C)C(=O)[O-]
REMARK SMILES IDX 9 1 10 2 11 3 12 4 13 5 14 6 15 7 16 8 17 9 18 10 19 11 8 12
REMARK SMILES IDX 7 13 6 14 5 15 4 16 3 17 2 18 1 19
REMARK H PARENT
REMARK Flexibility Score: inf
ROOT
ATOM      1  C   UNL     1      62.491  31.964  57.937  1.00  0.00     0.000 C 
ENDROOT
BRANCH   1   2
ATOM      2  C   UNL     1      61.019  31.984  58.377  1.00  0.00     0.000 C 
BRANCH   2   3
ATOM      3  C   UNL     1      60.424  30.574  58.543  1.00  0.00     0.000 C 
BRANCH   3   4
ATOM      4  C   UNL     1      60.062  30.185  59.990  1.00  0.00     0.000 C 
BRANCH   4   5
ATOM      5  C   UNL     1      60.993  30.764  61.074  1.00  0.00     0.001 C 
BRANCH   5   6
ATOM      6  C   UNL     1      61.979  29.754  61.699  1.00  0.00     0.009 C 
BRANCH   6   7
ATOM      7  C   UNL     1      62.776  28.905  60.682  1.00  0.00     0.032 C 
ATOM      8  C   UNL     1      64.285  29.179  60.744  1.00  0.00     0.014 C 
BRANCH   7   9
ATOM      9  C   UNL     1      62.510  27.445  60.924  1.00  0.00     0.044 C 
ATOM     10  O   UNL     1      63.449  26.605  60.872  1.00  0.00    -0.550 OA
ATOM     11  O   UNL     1      61.222  27.013  61.217  1.00  0.00    -0.550 OA
ENDBRANCH   7   9
ENDBRANCH   6   7
ENDBRANCH   5   6
ENDBRANCH   4   5
ENDBRANCH   3   4
ENDBRANCH   2   3
ENDBRANCH   1   2
BRANCH   1  12
ATOM     12  C   UNL     1      63.282  33.092  58.616  1.00  0.00     0.000 C 
BRANCH  12  13
ATOM     13  C   UNL     1      63.685  32.749  60.059  1.00  0.00    -0.000 C 
BRANCH  13  14
ATOM     14  C   UNL     1      64.211  33.971  60.833  1.00  0.00    -0.000 C 
BRANCH  14  15
ATOM     15  C   UNL     1      63.750  35.302  60.217  1.00  0.00    -0.000 C 
BRANCH  15  16
ATOM     16  C   UNL     1      63.069  36.221  61.246  1.00  0.00    -0.000 C 
BRANCH  16  17
ATOM     17  C   UNL     1      61.570  36.432  60.962  1.00  0.00    -0.000 C 
BRANCH  17  18
ATOM     18  C   UNL     1      60.856  35.229  60.320  1.00  0.00    -0.003 C 
ATOM     19  C   UNL     1      60.135  35.584  59.020  1.00  0.00     0.004 C 
ENDBRANCH  17  18
ENDBRANCH  16  17
ENDBRANCH  15  16
ENDBRANCH  14  15
ENDBRANCH  13  14
ENDBRANCH  12  13
ENDBRANCH   1  12
TORSDOF 14
ENDMDL
MODEL 9
REMARK VINA RESULT:    -2.850      9.727     12.406
REMARK INTER + INTRA:          -7.946
REMARK INTER:                  -5.671
REMARK INTRA:                  -2.275
REMARK UNBOUND:                -2.764
REMARK SMILES CCCCCCCCCCCCCC[C@@H](C)C(=O)[O-]
REMARK SMILES IDX 9 1 10 2 11 3 12 4 13 5 14 6 15 7 16 8 17 9 18 10 19 11 8 12
REMARK SMILES IDX 7 13 6 14 5 15 4 16 3 17 2 18 1 19
REMARK H PARENT
REMARK Flexibility Score: inf
ROOT
ATOM      1  C   UNL     1      58.952  25.392  53.810  1.00  0.00     0.000 C 
ENDROOT
BRANCH   1   2
ATOM      2  C   UNL     1      59.745  26.466  53.051  1.00  0.00     0.000 C 
BRANCH   2   3
ATOM      3  C   UNL     1      60.747  25.872  52.044  1.00  0.00     0.000 C 
BRANCH   3   4
ATOM      4  C   UNL     1      60.145  25.483  50.679  1.00  0.00     0.000 C 
BRANCH   4   5
ATOM      5  C   UNL     1      59.420  26.622  49.936  1.00  0.00     0.001 C 
BRANCH   5   6
ATOM      6  C   UNL     1      60.299  27.843  49.590  1.00  0.00     0.009 C 
BRANCH   6   7
ATOM      7  C   UNL     1      59.711  29.210  50.008  1.00  0.00     0.032 C 
ATOM      8  C   UNL     1      58.248  29.107  50.459  1.00  0.00     0.014 C 
BRANCH   7   9
ATOM      9  C   UNL     1      60.546  29.803  51.111  1.00  0.00     0.044 C 
ATOM     10  O   UNL     1      60.105  29.854  52.291  1.00  0.00    -0.550 OA
ATOM     11  O   UNL     1      61.818  30.288  50.835  1.00  0.00    -0.550 OA
ENDBRANCH   7   9
ENDBRANCH   6   7
ENDBRANCH   5   6
ENDBRANCH   4   5
ENDBRANCH   3   4
ENDBRANCH   2   3
ENDBRANCH   1   2
BRANCH   1  12
ATOM     12  C   UNL     1      57.477  25.797  53.952  1.00  0.00     0.000 C 
BRANCH  12  13
ATOM     13  C   UNL     1      56.939  26.523  52.708  1.00  0.00    -0.000 C 
BRANCH  13  14
ATOM     14  C   UNL     1      56.293  25.562  51.694  1.00  0.00    -0.000 C 
BRANCH  14  15
ATOM     15  C   UNL     1      55.895  26.265  50.386  1.00  0.00    -0.000 C 
BRANCH  15  16
ATOM     16  C   UNL     1      54.395  26.119  50.074  1.00  0.00    -0.000 C 
BRANCH  16  17
ATOM     17  C   UNL     1      53.661  27.472  50.013  1.00  0.00    -0.000 C 
BRANCH  17  18
ATOM     18  C   UNL     1      53.820  28.353  51.265  1.00  0.00    -0.003 C 
ATOM     19  C   UNL     1      54.527  29.677  50.979  1.00  0.00     0.004 C 
ENDBRANCH  17  18
ENDBRANCH  16  17
ENDBRANCH  15  16
ENDBRANCH  14  15
ENDBRANCH  13  14
ENDBRANCH  12  13
ENDBRANCH   1  12
TORSDOF 14
ENDMDL
