MODEL 1
REMARK VINA RESULT:    95.722      0.000      0.000
REMARK INTER + INTRA:         156.023
REMARK INTER:                 157.277
REMARK INTRA:                  -1.253
REMARK UNBOUND:                -1.253
REMARK SMILES COc1ccc([C@H]2CC(=O)c3c(O)cc(O[C@H]4O[C@H](CO[C@H]5O[C@@H](C)[C@H](O)[C@@H](O)[C@H]5O)[C@H](O)[C@@H](O)[C@@H]4O)cc3O2)cc1O
REMARK SMILES IDX 19 1 32 2 34 3 36 4 17 5 18 6 20 7 21 8 22 9 25 10 24 11
REMARK SMILES IDX 26 12 23 13 28 14 30 15 27 16 29 18 31 20 33 22 35 24 16 26
REMARK SMILES IDX 15 27 14 28 38 29 12 30 39 31 11 32 40 33 9 34 7 35 10 36
REMARK SMILES IDX 8 37 13 38 6 40 41 41 5 42 42 43 4 44 3 45 43 46 2 48 1 49
REMARK SMILES IDX 37 50
REMARK H PARENT 27 17 29 19 31 21 33 23 35 25 13 39 43 47 37 51
REMARK Flexibility Score: inf
ROOT
ATOM      1  C   UNL     1      -3.481  -2.147  16.561  1.00  0.00     0.180 C 
ATOM      2  C   UNL     1      -4.337  -1.241  15.642  1.00  0.00     0.177 C 
ATOM      3  C   UNL     1      -3.550  -0.920  14.354  1.00  0.00     0.180 C 
ATOM      4  C   UNL     1      -3.042  -2.218  13.714  1.00  0.00     0.214 C 
ATOM      5  C   UNL     1      -2.271  -3.058  14.750  1.00  0.00     0.339 C 
ATOM      6  O   UNL     1      -3.077  -3.333  15.882  1.00  0.00    -0.332 OA
ENDROOT
BRANCH   1   7
ATOM      7  C   UNL     1      -4.274  -2.571  17.809  1.00  0.00     0.198 C 
BRANCH   7   8
ATOM      8  O   UNL     1      -4.766  -1.453  18.536  1.00  0.00    -0.347 OA
BRANCH   8   9
ATOM      9  C   UNL     1      -4.839  -1.752  19.921  1.00  0.00     0.281 C 
ATOM     10  C   UNL     1      -2.828  -0.489  22.695  1.00  0.00     0.041 C 
ATOM     11  C   UNL     1      -3.677  -1.472  21.894  1.00  0.00     0.150 C 
ATOM     12  C   UNL     1      -4.941  -1.946  22.707  1.00  0.00     0.174 C 
ATOM     13  O   UNL     1      -4.002  -0.883  20.649  1.00  0.00    -0.344 OA
ATOM     14  C   UNL     1      -6.327  -1.823  21.976  1.00  0.00     0.179 C 
ATOM     15  C   UNL     1      -6.262  -1.545  20.444  1.00  0.00     0.202 C 
BRANCH  12  16
ATOM     16  O   UNL     1      -4.741  -3.279  23.122  1.00  0.00    -0.388 OA
ATOM     17  H   UNL     1      -4.761  -3.857  22.316  1.00  0.00     0.211 HD
ENDBRANCH  12  16
BRANCH  14  18
ATOM     18  O   UNL     1      -7.112  -0.838  22.607  1.00  0.00    -0.387 OA
ATOM     19  H   UNL     1      -6.797  -0.775  23.545  1.00  0.00     0.211 HD
ENDBRANCH  14  18
BRANCH  15  20
ATOM     20  O   UNL     1      -6.693  -0.232  20.176  1.00  0.00    -0.385 OA
ATOM     21  H   UNL     1      -5.866   0.298  20.058  1.00  0.00     0.211 HD
ENDBRANCH  15  20
ENDBRANCH   8   9
ENDBRANCH   7   8
ENDBRANCH   1   7
BRANCH   2  22
ATOM     22  O   UNL     1      -5.552  -1.849  15.335  1.00  0.00    -0.387 OA
ATOM     23  H   UNL     1      -5.740  -1.601  14.407  1.00  0.00     0.211 HD
ENDBRANCH   2  22
BRANCH   3  24
ATOM     24  O   UNL     1      -2.462  -0.069  14.629  1.00  0.00    -0.387 OA
ATOM     25  H   UNL     1      -2.322  -0.102  15.605  1.00  0.00     0.211 HD
ENDBRANCH   3  24
BRANCH   5  26
ATOM     26  O   UNL     1      -1.025  -2.478  15.152  1.00  0.00    -0.462 OA
BRANCH  26  27
ATOM     27  C   UNL     1       0.147  -2.421  14.389  1.00  0.00     0.130 A 
ATOM     28  C   UNL     1       1.003  -3.508  14.264  1.00  0.00     0.093 A 
ATOM     29  C   UNL     1       0.466  -1.218  13.732  1.00  0.00     0.094 A 
ATOM     30  C   UNL     1       2.146  -3.437  13.437  1.00  0.00     0.133 A 
ATOM     31  C   UNL     1       1.629  -1.124  12.963  1.00  0.00     0.138 A 
ATOM     32  C   UNL     1       2.499  -2.217  12.822  1.00  0.00     0.102 A 
ATOM     33  O   UNL     1       1.894   0.091  12.305  1.00  0.00    -0.484 OA
ATOM     34  C   UNL     1       3.756  -1.992  12.042  1.00  0.00     0.174 C 
ATOM     35  C   UNL     1       2.783   0.148  11.202  1.00  0.00     0.211 C 
ATOM     36  O   UNL     1       4.596  -2.905  11.825  1.00  0.00    -0.294 OA
ATOM     37  C   UNL     1       4.078  -0.614  11.539  1.00  0.00     0.131 C 
BRANCH  30  38
ATOM     38  O   UNL     1       2.870  -4.629  13.279  1.00  0.00    -0.507 OA
ATOM     39  H   UNL     1       2.819  -5.447  13.861  1.00  0.00     0.293 HD
ENDBRANCH  30  38
BRANCH  35  40
ATOM     40  C   UNL     1       3.095   1.584  10.835  1.00  0.00    -0.003 A 
ATOM     41  C   UNL     1       2.232   2.601  11.259  1.00  0.00     0.057 A 
ATOM     42  C   UNL     1       4.203   1.909  10.040  1.00  0.00     0.011 A 
ATOM     43  C   UNL     1       2.471   3.927  10.868  1.00  0.00     0.158 A 
ATOM     44  C   UNL     1       4.435   3.226   9.646  1.00  0.00     0.051 A 
ATOM     45  C   UNL     1       3.569   4.246  10.053  1.00  0.00     0.160 A 
BRANCH  43  46
ATOM     46  O   UNL     1       1.606   4.945  11.274  1.00  0.00    -0.504 OA
ATOM     47  H   UNL     1       1.909   5.911  11.302  1.00  0.00     0.293 HD
ENDBRANCH  43  46
BRANCH  45  48
ATOM     48  O   UNL     1       3.757   5.586   9.661  1.00  0.00    -0.493 OA
ATOM     49  C   UNL     1       4.785   6.040   8.786  1.00  0.00     0.278 C 
ENDBRANCH  45  48
ENDBRANCH  35  40
ENDBRANCH  26  27
ENDBRANCH   5  26
BRANCH   4  50
ATOM     50  O   UNL     1      -4.115  -2.991  13.243  1.00  0.00    -0.384 OA
ATOM     51  H   UNL     1      -3.768  -3.896  13.063  1.00  0.00     0.211 HD
ENDBRANCH   4  50
TORSDOF 15
ENDMDL
MODEL 2
REMARK VINA RESULT:    97.621      4.161     12.382
REMARK INTER + INTRA:         159.145
REMARK INTER:                 155.990
REMARK INTRA:                   3.155
REMARK UNBOUND:                -1.253
REMARK SMILES COc1ccc([C@H]2CC(=O)c3c(O)cc(O[C@H]4O[C@H](CO[C@H]5O[C@@H](C)[C@H](O)[C@@H](O)[C@H]5O)[C@H](O)[C@@H](O)[C@@H]4O)cc3O2)cc1O
REMARK SMILES IDX 19 1 32 2 34 3 36 4 17 5 18 6 20 7 21 8 22 9 25 10 24 11
REMARK SMILES IDX 26 12 23 13 28 14 30 15 27 16 29 18 31 20 33 22 35 24 16 26
REMARK SMILES IDX 15 27 14 28 38 29 12 30 39 31 11 32 40 33 9 34 7 35 10 36
REMARK SMILES IDX 8 37 13 38 6 40 41 41 5 42 42 43 4 44 3 45 43 46 2 48 1 49
REMARK SMILES IDX 37 50
REMARK H PARENT 27 17 29 19 31 21 33 23 35 25 13 39 43 47 37 51
REMARK Flexibility Score: inf
ROOT
ATOM      1  C   UNL     1       5.576  -2.418  10.018  1.00  0.00     0.180 C 
ATOM      2  C   UNL     1       4.360  -2.131   9.102  1.00  0.00     0.177 C 
ATOM      3  C   UNL     1       3.115  -1.855   9.969  1.00  0.00     0.180 C 
ATOM      4  C   UNL     1       3.430  -0.770  11.007  1.00  0.00     0.214 C 
ATOM      5  C   UNL     1       4.698  -1.141  11.798  1.00  0.00     0.339 C 
ATOM      6  O   UNL     1       5.797  -1.344  10.928  1.00  0.00    -0.332 OA
ENDROOT
BRANCH   1   7
ATOM      7  C   UNL     1       6.860  -2.596   9.188  1.00  0.00     0.198 C 
BRANCH   7   8
ATOM      8  O   UNL     1       6.687  -3.533   8.132  1.00  0.00    -0.347 OA
BRANCH   8   9
ATOM      9  C   UNL     1       6.474  -2.860   6.901  1.00  0.00     0.281 C 
ATOM     10  C   UNL     1       8.868  -1.895   4.317  1.00  0.00     0.041 C 
ATOM     11  C   UNL     1       7.616  -1.820   5.188  1.00  0.00     0.150 C 
ATOM     12  C   UNL     1       6.302  -1.808   4.317  1.00  0.00     0.174 C 
ATOM     13  O   UNL     1       7.653  -2.876   6.130  1.00  0.00    -0.344 OA
ATOM     14  C   UNL     1       5.198  -2.856   4.706  1.00  0.00     0.179 C 
ATOM     15  C   UNL     1       5.393  -3.566   6.081  1.00  0.00     0.202 C 
BRANCH  12  16
ATOM     16  O   UNL     1       5.752  -0.509   4.342  1.00  0.00    -0.388 OA
ATOM     17  H   UNL     1       5.754  -0.195   5.283  1.00  0.00     0.211 HD
ENDBRANCH  12  16
BRANCH  14  18
ATOM     18  O   UNL     1       5.076  -3.820   3.685  1.00  0.00    -0.387 OA
ATOM     19  H   UNL     1       4.595  -4.594   4.075  1.00  0.00     0.211 HD
ENDBRANCH  14  18
BRANCH  15  20
ATOM     20  O   UNL     1       5.739  -4.916   5.879  1.00  0.00    -0.385 OA
ATOM     21  H   UNL     1       6.030  -4.975   4.935  1.00  0.00     0.211 HD
ENDBRANCH  15  20
ENDBRANCH   8   9
ENDBRANCH   7   8
ENDBRANCH   1   7
BRANCH   2  22
ATOM     22  O   UNL     1       4.616  -1.056   8.255  1.00  0.00    -0.387 OA
ATOM     23  H   UNL     1       4.740  -1.448   7.366  1.00  0.00     0.211 HD
ENDBRANCH   2  22
BRANCH   3  24
ATOM     24  O   UNL     1       2.687  -3.027  10.622  1.00  0.00    -0.387 OA
ATOM     25  H   UNL     1       3.502  -3.536  10.843  1.00  0.00     0.211 HD
ENDBRANCH   3  24
BRANCH   5  26
ATOM     26  O   UNL     1       4.529  -2.268  12.664  1.00  0.00    -0.462 OA
BRANCH  26  27
ATOM     27  C   UNL     1       3.347  -2.991  12.863  1.00  0.00     0.130 A 
ATOM     28  C   UNL     1       3.254  -4.350  12.586  1.00  0.00     0.093 A 
ATOM     29  C   UNL     1       2.217  -2.313  13.354  1.00  0.00     0.094 A 
ATOM     30  C   UNL     1       2.065  -5.062  12.855  1.00  0.00     0.133 A 
ATOM     31  C   UNL     1       1.019  -3.003  13.563  1.00  0.00     0.138 A 
ATOM     32  C   UNL     1       0.913  -4.377  13.295  1.00  0.00     0.102 A 
ATOM     33  O   UNL     1      -0.078  -2.287  14.078  1.00  0.00    -0.484 OA
ATOM     34  C   UNL     1      -0.433  -5.005  13.476  1.00  0.00     0.174 C 
ATOM     35  C   UNL     1      -1.160  -2.957  14.704  1.00  0.00     0.211 C 
ATOM     36  O   UNL     1      -0.641  -6.234  13.295  1.00  0.00    -0.294 OA
ATOM     37  C   UNL     1      -1.610  -4.144  13.832  1.00  0.00     0.131 C 
BRANCH  30  38
ATOM     38  O   UNL     1       2.120  -6.452  12.662  1.00  0.00    -0.507 OA
ATOM     39  H   UNL     1       2.940  -7.033  12.690  1.00  0.00     0.293 HD
ENDBRANCH  30  38
BRANCH  35  40
ATOM     40  C   UNL     1      -2.316  -2.008  14.942  1.00  0.00    -0.003 A 
ATOM     41  C   UNL     1      -3.626  -2.475  14.790  1.00  0.00     0.057 A 
ATOM     42  C   UNL     1      -2.098  -0.660  15.263  1.00  0.00     0.011 A 
ATOM     43  C   UNL     1      -4.705  -1.589  14.939  1.00  0.00     0.158 A 
ATOM     44  C   UNL     1      -3.170   0.220  15.403  1.00  0.00     0.051 A 
ATOM     45  C   UNL     1      -4.483  -0.236  15.239  1.00  0.00     0.160 A 
BRANCH  43  46
ATOM     46  O   UNL     1      -6.014  -2.044  14.774  1.00  0.00    -0.504 OA
ATOM     47  H   UNL     1      -6.206  -2.979  14.433  1.00  0.00     0.293 HD
ENDBRANCH  43  46
BRANCH  45  48
ATOM     48  O   UNL     1      -5.592   0.625  15.353  1.00  0.00    -0.493 OA
ATOM     49  C   UNL     1      -5.781   1.812  14.589  1.00  0.00     0.278 C 
ENDBRANCH  45  48
ENDBRANCH  35  40
ENDBRANCH  26  27
ENDBRANCH   5  26
BRANCH   4  50
ATOM     50  O   UNL     1       3.656   0.465  10.379  1.00  0.00    -0.384 OA
ATOM     51  H   UNL     1       4.107   1.048  11.034  1.00  0.00     0.211 HD
ENDBRANCH   4  50
TORSDOF 15
ENDMDL
MODEL 3
REMARK VINA RESULT:    98.621      3.333      6.451
REMARK INTER + INTRA:         160.788
REMARK INTER:                 160.284
REMARK INTRA:                   0.503
REMARK UNBOUND:                -1.253
REMARK SMILES COc1ccc([C@H]2CC(=O)c3c(O)cc(O[C@H]4O[C@H](CO[C@H]5O[C@@H](C)[C@H](O)[C@@H](O)[C@H]5O)[C@H](O)[C@@H](O)[C@@H]4O)cc3O2)cc1O
REMARK SMILES IDX 19 1 32 2 34 3 36 4 17 5 18 6 20 7 21 8 22 9 25 10 24 11
REMARK SMILES IDX 26 12 23 13 28 14 30 15 27 16 29 18 31 20 33 22 35 24 16 26
REMARK SMILES IDX 15 27 14 28 38 29 12 30 39 31 11 32 40 33 9 34 7 35 10 36
REMARK SMILES IDX 8 37 13 38 6 40 41 41 5 42 42 43 4 44 3 45 43 46 2 48 1 49
REMARK SMILES IDX 37 50
REMARK H PARENT 27 17 29 19 31 21 33 23 35 25 13 39 43 47 37 51
REMARK Flexibility Score: inf
ROOT
ATOM      1  C   UNL     1       0.411  -3.111  13.718  1.00  0.00     0.180 C 
ATOM      2  C   UNL     1       0.174  -4.642  13.700  1.00  0.00     0.177 C 
ATOM      3  C   UNL     1       1.360  -5.339  13.002  1.00  0.00     0.180 C 
ATOM      4  C   UNL     1       2.681  -4.883  13.633  1.00  0.00     0.214 C 
ATOM      5  C   UNL     1       2.759  -3.345  13.655  1.00  0.00     0.339 C 
ATOM      6  O   UNL     1       1.652  -2.791  14.342  1.00  0.00    -0.332 OA
ENDROOT
BRANCH   1   7
ATOM      7  C   UNL     1      -0.702  -2.391  14.499  1.00  0.00     0.198 C 
BRANCH   7   8
ATOM      8  O   UNL     1      -1.746  -3.277  14.881  1.00  0.00    -0.347 OA
BRANCH   8   9
ATOM      9  C   UNL     1      -2.941  -2.557  15.138  1.00  0.00     0.281 C 
ATOM     10  C   UNL     1      -3.598   1.030  14.943  1.00  0.00     0.041 C 
ATOM     11  C   UNL     1      -3.729  -0.409  15.434  1.00  0.00     0.150 C 
ATOM     12  C   UNL     1      -5.210  -0.934  15.309  1.00  0.00     0.174 C 
ATOM     13  O   UNL     1      -2.791  -1.213  14.743  1.00  0.00    -0.344 OA
ATOM     14  C   UNL     1      -5.403  -2.308  14.571  1.00  0.00     0.179 C 
ATOM     15  C   UNL     1      -4.104  -3.134  14.328  1.00  0.00     0.202 C 
BRANCH  12  16
ATOM     16  O   UNL     1      -5.779  -1.004  16.598  1.00  0.00    -0.388 OA
ATOM     17  H   UNL     1      -5.882  -0.077  16.937  1.00  0.00     0.211 HD
ENDBRANCH  12  16
BRANCH  14  18
ATOM     18  O   UNL     1      -6.073  -2.102  13.349  1.00  0.00    -0.387 OA
ATOM     19  H   UNL     1      -5.394  -1.795  12.696  1.00  0.00     0.211 HD
ENDBRANCH  14  18
BRANCH  15  20
ATOM     20  O   UNL     1      -3.787  -3.137  12.956  1.00  0.00    -0.385 OA
ATOM     21  H   UNL     1      -4.516  -3.642  12.519  1.00  0.00     0.211 HD
ENDBRANCH  15  20
ENDBRANCH   8   9
ENDBRANCH   7   8
ENDBRANCH   1   7
BRANCH   2  22
ATOM     22  O   UNL     1       0.007  -5.136  14.992  1.00  0.00    -0.387 OA
ATOM     23  H   UNL     1      -0.816  -5.665  14.964  1.00  0.00     0.211 HD
ENDBRANCH   2  22
BRANCH   3  24
ATOM     24  O   UNL     1       1.369  -5.055  11.623  1.00  0.00    -0.387 OA
ATOM     25  H   UNL     1       2.169  -5.500  11.252  1.00  0.00     0.211 HD
ENDBRANCH   3  24
BRANCH   5  26
ATOM     26  O   UNL     1       2.890  -2.755  12.357  1.00  0.00    -0.462 OA
BRANCH  26  27
ATOM     27  C   UNL     1       2.688  -1.407  12.036  1.00  0.00     0.130 A 
ATOM     28  C   UNL     1       3.734  -0.568  11.669  1.00  0.00     0.093 A 
ATOM     29  C   UNL     1       1.381  -0.889  12.092  1.00  0.00     0.094 A 
ATOM     30  C   UNL     1       3.488   0.770  11.292  1.00  0.00     0.133 A 
ATOM     31  C   UNL     1       1.143   0.453  11.780  1.00  0.00     0.138 A 
ATOM     32  C   UNL     1       2.189   1.310  11.401  1.00  0.00     0.102 A 
ATOM     33  O   UNL     1      -0.183   0.920  11.827  1.00  0.00    -0.484 OA
ATOM     34  C   UNL     1       1.842   2.745  11.163  1.00  0.00     0.174 C 
ATOM     35  C   UNL     1      -0.570   2.099  11.140  1.00  0.00     0.211 C 
ATOM     36  O   UNL     1       2.690   3.598  10.790  1.00  0.00    -0.294 OA
ATOM     37  C   UNL     1       0.444   3.222  11.429  1.00  0.00     0.131 C 
BRANCH  30  38
ATOM     38  O   UNL     1       4.595   1.491  10.816  1.00  0.00    -0.507 OA
ATOM     39  H   UNL     1       4.731   1.840   9.882  1.00  0.00     0.293 HD
ENDBRANCH  30  38
BRANCH  35  40
ATOM     40  C   UNL     1      -1.964   2.527  11.546  1.00  0.00    -0.003 A 
ATOM     41  C   UNL     1      -2.969   2.592  10.575  1.00  0.00     0.057 A 
ATOM     42  C   UNL     1      -2.255   2.905  12.865  1.00  0.00     0.011 A 
ATOM     43  C   UNL     1      -4.248   3.054  10.924  1.00  0.00     0.158 A 
ATOM     44  C   UNL     1      -3.523   3.371  13.209  1.00  0.00     0.051 A 
ATOM     45  C   UNL     1      -4.530   3.453  12.241  1.00  0.00     0.160 A 
BRANCH  43  46
ATOM     46  O   UNL     1      -5.251   3.137   9.958  1.00  0.00    -0.504 OA
ATOM     47  H   UNL     1      -6.082   2.558  10.011  1.00  0.00     0.293 HD
ENDBRANCH  43  46
BRANCH  45  48
ATOM     48  O   UNL     1      -5.819   3.936  12.542  1.00  0.00    -0.493 OA
ATOM     49  C   UNL     1      -6.521   4.909  11.776  1.00  0.00     0.278 C 
ENDBRANCH  45  48
ENDBRANCH  35  40
ENDBRANCH  26  27
ENDBRANCH   5  26
BRANCH   4  50
ATOM     50  O   UNL     1       2.782  -5.341  14.956  1.00  0.00    -0.384 OA
ATOM     51  H   UNL     1       2.211  -4.759  15.512  1.00  0.00     0.211 HD
ENDBRANCH   4  50
TORSDOF 15
ENDMDL
MODEL 4
REMARK VINA RESULT:    98.661      8.523     14.786
REMARK INTER + INTRA:         160.853
REMARK INTER:                 155.968
REMARK INTRA:                   4.884
REMARK UNBOUND:                -1.253
REMARK SMILES COc1ccc([C@H]2CC(=O)c3c(O)cc(O[C@H]4O[C@H](CO[C@H]5O[C@@H](C)[C@H](O)[C@@H](O)[C@H]5O)[C@H](O)[C@@H](O)[C@@H]4O)cc3O2)cc1O
REMARK SMILES IDX 19 1 32 2 34 3 36 4 17 5 18 6 20 7 21 8 22 9 25 10 24 11
REMARK SMILES IDX 26 12 23 13 28 14 30 15 27 16 29 18 31 20 33 22 35 24 16 26
REMARK SMILES IDX 15 27 14 28 38 29 12 30 39 31 11 32 40 33 9 34 7 35 10 36
REMARK SMILES IDX 8 37 13 38 6 40 41 41 5 42 42 43 4 44 3 45 43 46 2 48 1 49
REMARK SMILES IDX 37 50
REMARK H PARENT 27 17 29 19 31 21 33 23 35 25 13 39 43 47 37 51
REMARK Flexibility Score: inf
ROOT
ATOM      1  C   UNL     1      11.382   1.411  17.879  1.00  0.00     0.180 C 
ATOM      2  C   UNL     1      11.596   2.934  18.061  1.00  0.00     0.177 C 
ATOM      3  C   UNL     1      10.741   3.438  19.242  1.00  0.00     0.180 C 
ATOM      4  C   UNL     1      11.007   2.579  20.485  1.00  0.00     0.214 C 
ATOM      5  C   UNL     1      10.831   1.086  20.151  1.00  0.00     0.339 C 
ATOM      6  O   UNL     1      11.675   0.703  19.080  1.00  0.00    -0.332 OA
ENDROOT
BRANCH   1   7
ATOM      7  C   UNL     1      12.298   0.855  16.775  1.00  0.00     0.198 C 
BRANCH   7   8
ATOM      8  O   UNL     1      12.656   1.850  15.825  1.00  0.00    -0.347 OA
BRANCH   8   9
ATOM      9  C   UNL     1      11.847   1.742  14.663  1.00  0.00     0.281 C 
ATOM     10  C   UNL     1      12.782   1.913  11.138  1.00  0.00     0.041 C 
ATOM     11  C   UNL     1      11.910   2.067  12.380  1.00  0.00     0.150 C 
ATOM     12  C   UNL     1      10.544   1.294  12.232  1.00  0.00     0.174 C 
ATOM     13  O   UNL     1      12.658   1.667  13.514  1.00  0.00    -0.344 OA
ATOM     14  C   UNL     1      10.162   0.320  13.405  1.00  0.00     0.179 C 
ATOM     15  C   UNL     1      11.010   0.463  14.706  1.00  0.00     0.202 C 
BRANCH  12  16
ATOM     16  O   UNL     1       9.509   2.232  12.039  1.00  0.00    -0.388 OA
ATOM     17  H   UNL     1       9.497   2.480  11.079  1.00  0.00     0.211 HD
ENDBRANCH  12  16
BRANCH  14  18
ATOM     18  O   UNL     1      10.207  -1.013  12.950  1.00  0.00    -0.387 OA
ATOM     19  H   UNL     1       9.288  -1.376  13.033  1.00  0.00     0.211 HD
ENDBRANCH  14  18
BRANCH  15  20
ATOM     20  O   UNL     1      11.845  -0.660  14.859  1.00  0.00    -0.385 OA
ATOM     21  H   UNL     1      12.571  -0.368  15.464  1.00  0.00     0.211 HD
ENDBRANCH  15  20
ENDBRANCH   8   9
ENDBRANCH   7   8
ENDBRANCH   1   7
BRANCH   2  22
ATOM     22  O   UNL     1      12.942   3.226  18.271  1.00  0.00    -0.387 OA
ATOM     23  H   UNL     1      13.250   3.645  17.442  1.00  0.00     0.211 HD
ENDBRANCH   2  22
BRANCH   3  24
ATOM     24  O   UNL     1       9.370   3.398  18.923  1.00  0.00    -0.387 OA
ATOM     25  H   UNL     1       9.055   4.333  18.929  1.00  0.00     0.211 HD
ENDBRANCH   3  24
BRANCH   5  26
ATOM     26  O   UNL     1       9.476   0.711  19.879  1.00  0.00    -0.462 OA
BRANCH  26  27
ATOM     27  C   UNL     1       9.046  -0.182  18.890  1.00  0.00     0.130 A 
ATOM     28  C   UNL     1       9.233   0.066  17.536  1.00  0.00     0.093 A 
ATOM     29  C   UNL     1       8.399  -1.367  19.288  1.00  0.00     0.094 A 
ATOM     30  C   UNL     1       8.842  -0.884  16.566  1.00  0.00     0.133 A 
ATOM     31  C   UNL     1       7.955  -2.281  18.327  1.00  0.00     0.138 A 
ATOM     32  C   UNL     1       8.144  -2.046  16.956  1.00  0.00     0.102 A 
ATOM     33  O   UNL     1       7.336  -3.463  18.773  1.00  0.00    -0.484 OA
ATOM     34  C   UNL     1       7.563  -3.047  16.007  1.00  0.00     0.174 C 
ATOM     35  C   UNL     1       7.242  -4.602  17.934  1.00  0.00     0.211 C 
ATOM     36  O   UNL     1       7.695  -2.957  14.758  1.00  0.00    -0.294 OA
ATOM     37  C   UNL     1       6.736  -4.180  16.542  1.00  0.00     0.131 C 
BRANCH  30  38
ATOM     38  O   UNL     1       9.193  -0.593  15.239  1.00  0.00    -0.507 OA
ATOM     39  H   UNL     1      10.117  -0.407  14.886  1.00  0.00     0.293 HD
ENDBRANCH  30  38
BRANCH  35  40
ATOM     40  C   UNL     1       6.323  -5.642  18.538  1.00  0.00    -0.003 A 
ATOM     41  C   UNL     1       4.959  -5.612  18.225  1.00  0.00     0.057 A 
ATOM     42  C   UNL     1       6.801  -6.603  19.439  1.00  0.00     0.011 A 
ATOM     43  C   UNL     1       4.084  -6.527  18.832  1.00  0.00     0.158 A 
ATOM     44  C   UNL     1       5.930  -7.506  20.047  1.00  0.00     0.051 A 
ATOM     45  C   UNL     1       4.563  -7.474  19.752  1.00  0.00     0.160 A 
BRANCH  43  46
ATOM     46  O   UNL     1       2.720  -6.493  18.538  1.00  0.00    -0.504 OA
ATOM     47  H   UNL     1       2.380  -6.107  17.665  1.00  0.00     0.293 HD
ENDBRANCH  43  46
BRANCH  45  48
ATOM     48  O   UNL     1       3.646  -8.355  20.358  1.00  0.00    -0.493 OA
ATOM     49  C   UNL     1       2.929  -8.082  21.557  1.00  0.00     0.278 C 
ENDBRANCH  45  48
ENDBRANCH  35  40
ENDBRANCH  26  27
ENDBRANCH   5  26
BRANCH   4  50
ATOM     50  O   UNL     1      12.320   2.768  20.945  1.00  0.00    -0.384 OA
ATOM     51  H   UNL     1      12.776   1.895  20.895  1.00  0.00     0.211 HD
ENDBRANCH   4  50
TORSDOF 15
ENDMDL
