MODEL 1
REMARK VINA RESULT:    -3.243      0.000      0.000
REMARK INTER + INTRA:          -5.310
REMARK INTER:                  -4.665
REMARK INTRA:                  -0.645
REMARK UNBOUND:                -0.645
REMARK SMILES CCCCCCCCCO
REMARK SMILES IDX 6 1 5 2 4 3 3 4 2 5 1 6 7 7 8 8 9 9 10 10
REMARK H PARENT 10 11
REMARK Flexibility Score: inf
ROOT
ATOM      1  C   UNL     1     176.342 165.093 188.677  1.00  0.00     0.000 C 
ENDROOT
BRANCH   1   2
ATOM      2  C   UNL     1     175.968 163.800 189.419  1.00  0.00     0.000 C 
BRANCH   2   3
ATOM      3  C   UNL     1     177.188 162.912 189.713  1.00  0.00    -0.000 C 
BRANCH   3   4
ATOM      4  C   UNL     1     177.035 161.536 189.048  1.00  0.00    -0.000 C 
BRANCH   4   5
ATOM      5  C   UNL     1     175.755 161.425 188.205  1.00  0.00    -0.003 C 
ATOM      6  C   UNL     1     175.002 160.116 188.443  1.00  0.00     0.004 C 
ENDBRANCH   4   5
ENDBRANCH   3   4
ENDBRANCH   2   3
ENDBRANCH   1   2
BRANCH   1   7
ATOM      7  C   UNL     1     177.808 165.112 188.222  1.00  0.00     0.002 C 
BRANCH   7   8
ATOM      8  C   UNL     1     177.908 165.273 186.700  1.00  0.00     0.028 C 
BRANCH   8   9
ATOM      9  C   UNL     1     177.255 164.094 185.975  1.00  0.00     0.156 C 
BRANCH   9  10
ATOM     10  O   UNL     1     178.183 163.059 185.798  1.00  0.00    -0.396 OA
ATOM     11  H   UNL     1     177.755 162.232 186.143  1.00  0.00     0.210 HD
ENDBRANCH   9  10
ENDBRANCH   8   9
ENDBRANCH   7   8
ENDBRANCH   1   7
TORSDOF 8
ENDMDL
MODEL 2
REMARK VINA RESULT:    -3.228      9.536     11.239
REMARK INTER + INTRA:          -5.288
REMARK INTER:                  -4.712
REMARK INTRA:                  -0.576
REMARK UNBOUND:                -0.645
REMARK SMILES CCCCCCCCCO
REMARK SMILES IDX 6 1 5 2 4 3 3 4 2 5 1 6 7 7 8 8 9 9 10 10
REMARK H PARENT 10 11
REMARK Flexibility Score: inf
ROOT
ATOM      1  C   UNL     1     176.980 173.903 189.481  1.00  0.00     0.000 C 
ENDROOT
BRANCH   1   2
ATOM      2  C   UNL     1     178.178 174.835 189.723  1.00  0.00     0.000 C 
BRANCH   2   3
ATOM      3  C   UNL     1     179.507 174.225 189.251  1.00  0.00    -0.000 C 
BRANCH   3   4
ATOM      4  C   UNL     1     179.273 173.201 188.130  1.00  0.00    -0.000 C 
BRANCH   4   5
ATOM      5  C   UNL     1     180.018 171.880 188.371  1.00  0.00    -0.003 C 
ATOM      6  C   UNL     1     179.073 170.701 188.603  1.00  0.00     0.004 C 
ENDBRANCH   4   5
ENDBRANCH   3   4
ENDBRANCH   2   3
ENDBRANCH   1   2
BRANCH   1   7
ATOM      7  C   UNL     1     175.867 174.569 188.659  1.00  0.00     0.002 C 
BRANCH   7   8
ATOM      8  C   UNL     1     176.285 175.973 188.206  1.00  0.00     0.028 C 
BRANCH   8   9
ATOM      9  C   UNL     1     176.237 176.100 186.682  1.00  0.00     0.156 C 
BRANCH   9  10
ATOM     10  O   UNL     1     177.526 175.987 186.144  1.00  0.00    -0.396 OA
ATOM     11  H   UNL     1     177.733 176.860 185.718  1.00  0.00     0.210 HD
ENDBRANCH   9  10
ENDBRANCH   8   9
ENDBRANCH   7   8
ENDBRANCH   1   7
TORSDOF 8
ENDMDL
MODEL 3
REMARK VINA RESULT:    -3.134     10.278     11.201
REMARK INTER + INTRA:          -5.153
REMARK INTER:                  -4.694
REMARK INTRA:                  -0.459
REMARK UNBOUND:                -0.645
REMARK SMILES CCCCCCCCCO
REMARK SMILES IDX 6 1 5 2 4 3 3 4 2 5 1 6 7 7 8 8 9 9 10 10
REMARK H PARENT 10 11
REMARK Flexibility Score: inf
ROOT
ATOM      1  C   UNL     1     178.841 172.615 186.829  1.00  0.00     0.000 C 
ENDROOT
BRANCH   1   2
ATOM      2  C   UNL     1     179.683 172.671 188.113  1.00  0.00     0.000 C 
BRANCH   2   3
ATOM      3  C   UNL     1     179.491 173.984 188.889  1.00  0.00    -0.000 C 
BRANCH   3   4
ATOM      4  C   UNL     1     178.057 174.509 188.731  1.00  0.00    -0.000 C 
BRANCH   4   5
ATOM      5  C   UNL     1     177.390 174.825 190.078  1.00  0.00    -0.003 C 
ATOM      6  C   UNL     1     176.215 173.898 190.388  1.00  0.00     0.004 C 
ENDBRANCH   4   5
ENDBRANCH   3   4
ENDBRANCH   2   3
ENDBRANCH   1   2
BRANCH   1   7
ATOM      7  C   UNL     1     179.702 172.603 185.557  1.00  0.00     0.002 C 
BRANCH   7   8
ATOM      8  C   UNL     1     179.094 173.505 184.476  1.00  0.00     0.028 C 
BRANCH   8   9
ATOM      9  C   UNL     1     178.214 174.594 185.093  1.00  0.00     0.156 C 
BRANCH   9  10
ATOM     10  O   UNL     1     178.958 175.766 185.289  1.00  0.00    -0.396 OA
ATOM     11  H   UNL     1     179.790 175.498 185.760  1.00  0.00     0.210 HD
ENDBRANCH   9  10
ENDBRANCH   8   9
ENDBRANCH   7   8
ENDBRANCH   1   7
TORSDOF 8
ENDMDL
MODEL 4
REMARK VINA RESULT:    -3.112      0.983      3.271
REMARK INTER + INTRA:          -5.122
REMARK INTER:                  -4.310
REMARK INTRA:                  -0.812
REMARK UNBOUND:                -0.645
REMARK SMILES CCCCCCCCCO
REMARK SMILES IDX 6 1 5 2 4 3 3 4 2 5 1 6 7 7 8 8 9 9 10 10
REMARK H PARENT 10 11
REMARK Flexibility Score: inf
ROOT
ATOM      1  C   UNL     1     175.668 161.418 187.986  1.00  0.00     0.000 C 
ENDROOT
BRANCH   1   2
ATOM      2  C   UNL     1     176.934 161.433 188.858  1.00  0.00     0.000 C 
BRANCH   2   3
ATOM      3  C   UNL     1     177.125 162.763 189.603  1.00  0.00    -0.000 C 
BRANCH   3   4
ATOM      4  C   UNL     1     175.884 163.657 189.453  1.00  0.00    -0.000 C 
BRANCH   4   5
ATOM      5  C   UNL     1     176.204 165.005 188.789  1.00  0.00    -0.003 C 
ATOM      6  C   UNL     1     177.639 165.081 188.266  1.00  0.00     0.004 C 
ENDBRANCH   4   5
ENDBRANCH   3   4
ENDBRANCH   2   3
ENDBRANCH   1   2
BRANCH   1   7
ATOM      7  C   UNL     1     175.983 161.338 186.485  1.00  0.00     0.002 C 
BRANCH   7   8
ATOM      8  C   UNL     1     175.822 162.708 185.817  1.00  0.00     0.028 C 
BRANCH   8   9
ATOM      9  C   UNL     1     177.049 163.060 184.972  1.00  0.00     0.156 C 
BRANCH   9  10
ATOM     10  O   UNL     1     178.214 162.575 185.583  1.00  0.00    -0.396 OA
ATOM     11  H   UNL     1     178.721 163.369 185.896  1.00  0.00     0.210 HD
ENDBRANCH   9  10
ENDBRANCH   8   9
ENDBRANCH   7   8
ENDBRANCH   1   7
TORSDOF 8
ENDMDL
MODEL 5
REMARK VINA RESULT:    -3.106      0.963      1.987
REMARK INTER + INTRA:          -5.114
REMARK INTER:                  -4.622
REMARK INTRA:                  -0.492
REMARK UNBOUND:                -0.645
REMARK SMILES CCCCCCCCCO
REMARK SMILES IDX 6 1 5 2 4 3 3 4 2 5 1 6 7 7 8 8 9 9 10 10
REMARK H PARENT 10 11
REMARK Flexibility Score: inf
ROOT
ATOM      1  C   UNL     1     176.848 163.154 189.480  1.00  0.00     0.000 C 
ENDROOT
BRANCH   1   2
ATOM      2  C   UNL     1     176.927 161.703 188.978  1.00  0.00     0.000 C 
BRANCH   2   3
ATOM      3  C   UNL     1     176.638 161.580 187.474  1.00  0.00    -0.000 C 
BRANCH   3   4
ATOM      4  C   UNL     1     175.473 160.611 187.218  1.00  0.00    -0.000 C 
BRANCH   4   5
ATOM      5  C   UNL     1     174.865 160.061 188.517  1.00  0.00    -0.003 C 
ATOM      6  C   UNL     1     173.387 160.417 188.675  1.00  0.00     0.004 C 
ENDBRANCH   4   5
ENDBRANCH   3   4
ENDBRANCH   2   3
ENDBRANCH   1   2
BRANCH   1   7
ATOM      7  C   UNL     1     176.631 164.163 188.343  1.00  0.00     0.002 C 
BRANCH   7   8
ATOM      8  C   UNL     1     177.782 165.174 188.280  1.00  0.00     0.028 C 
BRANCH   8   9
ATOM      9  C   UNL     1     178.147 165.508 186.832  1.00  0.00     0.156 C 
BRANCH   9  10
ATOM     10  O   UNL     1     178.215 164.336 186.066  1.00  0.00    -0.396 OA
ATOM     11  H   UNL     1     177.295 164.159 185.736  1.00  0.00     0.210 HD
ENDBRANCH   9  10
ENDBRANCH   8   9
ENDBRANCH   7   8
ENDBRANCH   1   7
TORSDOF 8
ENDMDL
MODEL 6
REMARK VINA RESULT:    -3.069     11.617     13.270
REMARK INTER + INTRA:          -5.059
REMARK INTER:                  -4.711
REMARK INTRA:                  -0.348
REMARK UNBOUND:                -0.645
REMARK SMILES CCCCCCCCCO
REMARK SMILES IDX 6 1 5 2 4 3 3 4 2 5 1 6 7 7 8 8 9 9 10 10
REMARK H PARENT 10 11
REMARK Flexibility Score: inf
ROOT
ATOM      1  C   UNL     1     165.776 160.616 188.555  1.00  0.00     0.000 C 
ENDROOT
BRANCH   1   2
ATOM      2  C   UNL     1     164.319 160.169 188.753  1.00  0.00     0.000 C 
BRANCH   2   3
ATOM      3  C   UNL     1     163.346 160.881 187.800  1.00  0.00    -0.000 C 
BRANCH   3   4
ATOM      4  C   UNL     1     162.449 161.864 188.568  1.00  0.00    -0.000 C 
BRANCH   4   5
ATOM      5  C   UNL     1     160.955 161.641 188.290  1.00  0.00    -0.003 C 
ATOM      6  C   UNL     1     160.053 162.480 189.197  1.00  0.00     0.004 C 
ENDBRANCH   4   5
ENDBRANCH   3   4
ENDBRANCH   2   3
ENDBRANCH   1   2
BRANCH   1   7
ATOM      7  C   UNL     1     166.564 160.670 189.872  1.00  0.00     0.002 C 
BRANCH   7   8
ATOM      8  C   UNL     1     166.579 162.092 190.444  1.00  0.00     0.028 C 
BRANCH   8   9
ATOM      9  C   UNL     1     166.300 163.130 189.355  1.00  0.00     0.156 C 
BRANCH   9  10
ATOM     10  O   UNL     1     165.185 163.908 189.700  1.00  0.00    -0.396 OA
ATOM     11  H   UNL     1     165.342 164.232 190.626  1.00  0.00     0.210 HD
ENDBRANCH   9  10
ENDBRANCH   8   9
ENDBRANCH   7   8
ENDBRANCH   1   7
TORSDOF 8
ENDMDL
MODEL 7
REMARK VINA RESULT:    -3.063     18.494     19.714
REMARK INTER + INTRA:          -5.051
REMARK INTER:                  -4.597
REMARK INTRA:                  -0.453
REMARK UNBOUND:                -0.645
REMARK SMILES CCCCCCCCCO
REMARK SMILES IDX 6 1 5 2 4 3 3 4 2 5 1 6 7 7 8 8 9 9 10 10
REMARK H PARENT 10 11
REMARK Flexibility Score: inf
ROOT
ATOM      1  C   UNL     1     162.243 177.966 187.738  1.00  0.00     0.000 C 
ENDROOT
BRANCH   1   2
ATOM      2  C   UNL     1     160.912 177.237 187.498  1.00  0.00     0.000 C 
BRANCH   2   3
ATOM      3  C   UNL     1     160.271 176.729 188.800  1.00  0.00    -0.000 C 
BRANCH   3   4
ATOM      4  C   UNL     1     160.103 175.203 188.767  1.00  0.00    -0.000 C 
BRANCH   4   5
ATOM      5  C   UNL     1     161.448 174.460 188.772  1.00  0.00    -0.003 C 
ATOM      6  C   UNL     1     161.621 173.542 187.562  1.00  0.00     0.004 C 
ENDBRANCH   4   5
ENDBRANCH   3   4
ENDBRANCH   2   3
ENDBRANCH   1   2
BRANCH   1   7
ATOM      7  C   UNL     1     163.449 177.196 187.179  1.00  0.00     0.002 C 
BRANCH   7   8
ATOM      8  C   UNL     1     164.766 177.851 187.611  1.00  0.00     0.028 C 
BRANCH   8   9
ATOM      9  C   UNL     1     165.750 177.940 186.442  1.00  0.00     0.156 C 
BRANCH   9  10
ATOM     10  O   UNL     1     165.869 179.268 186.009  1.00  0.00    -0.396 OA
ATOM     11  H   UNL     1     166.608 179.284 185.345  1.00  0.00     0.210 HD
ENDBRANCH   9  10
ENDBRANCH   8   9
ENDBRANCH   7   8
ENDBRANCH   1   7
TORSDOF 8
ENDMDL
MODEL 8
REMARK VINA RESULT:    -3.017     15.335     16.062
REMARK INTER + INTRA:          -4.985
REMARK INTER:                  -4.259
REMARK INTRA:                  -0.726
REMARK UNBOUND:                -0.645
REMARK SMILES CCCCCCCCCO
REMARK SMILES IDX 6 1 5 2 4 3 3 4 2 5 1 6 7 7 8 8 9 9 10 10
REMARK H PARENT 10 11
REMARK Flexibility Score: inf
ROOT
ATOM      1  C   UNL     1     161.871 163.615 188.708  1.00  0.00     0.000 C 
ENDROOT
BRANCH   1   2
ATOM      2  C   UNL     1     160.873 162.470 188.940  1.00  0.00     0.000 C 
BRANCH   2   3
ATOM      3  C   UNL     1     161.066 161.306 187.955  1.00  0.00    -0.000 C 
BRANCH   3   4
ATOM      4  C   UNL     1     159.879 161.209 186.985  1.00  0.00    -0.000 C 
BRANCH   4   5
ATOM      5  C   UNL     1     160.322 161.004 185.528  1.00  0.00    -0.003 C 
ATOM      6  C   UNL     1     161.840 161.057 185.358  1.00  0.00     0.004 C 
ENDBRANCH   4   5
ENDBRANCH   3   4
ENDBRANCH   2   3
ENDBRANCH   1   2
BRANCH   1   7
ATOM      7  C   UNL     1     161.269 164.768 187.891  1.00  0.00     0.002 C 
BRANCH   7   8
ATOM      8  C   UNL     1     161.724 164.701 186.428  1.00  0.00     0.028 C 
BRANCH   8   9
ATOM      9  C   UNL     1     160.531 164.775 185.473  1.00  0.00     0.156 C 
BRANCH   9  10
ATOM     10  O   UNL     1     160.334 166.095 185.044  1.00  0.00    -0.396 OA
ATOM     11  H   UNL     1     161.073 166.633 185.432  1.00  0.00     0.210 HD
ENDBRANCH   9  10
ENDBRANCH   8   9
ENDBRANCH   7   8
ENDBRANCH   1   7
TORSDOF 8
ENDMDL
MODEL 9
REMARK VINA RESULT:    -2.970     11.402     13.137
REMARK INTER + INTRA:          -4.917
REMARK INTER:                  -4.540
REMARK INTRA:                  -0.377
REMARK UNBOUND:                -0.645
REMARK SMILES CCCCCCCCCO
REMARK SMILES IDX 6 1 5 2 4 3 3 4 2 5 1 6 7 7 8 8 9 9 10 10
REMARK H PARENT 10 11
REMARK Flexibility Score: inf
ROOT
ATOM      1  C   UNL     1     164.652 159.956 189.561  1.00  0.00     0.000 C 
ENDROOT
BRANCH   1   2
ATOM      2  C   UNL     1     164.033 160.501 188.265  1.00  0.00     0.000 C 
BRANCH   2   3
ATOM      3  C   UNL     1     162.615 161.055 188.473  1.00  0.00    -0.000 C 
BRANCH   3   4
ATOM      4  C   UNL     1     162.571 162.565 188.195  1.00  0.00    -0.000 C 
BRANCH   4   5
ATOM      5  C   UNL     1     161.384 163.259 188.880  1.00  0.00    -0.003 C 
ATOM      6  C   UNL     1     160.124 162.392 188.901  1.00  0.00     0.004 C 
ENDBRANCH   4   5
ENDBRANCH   3   4
ENDBRANCH   2   3
ENDBRANCH   1   2
BRANCH   1   7
ATOM      7  C   UNL     1     166.143 160.301 189.696  1.00  0.00     0.002 C 
BRANCH   7   8
ATOM      8  C   UNL     1     166.576 161.296 188.613  1.00  0.00     0.028 C 
BRANCH   8   9
ATOM      9  C   UNL     1     167.781 160.771 187.829  1.00  0.00     0.156 C 
BRANCH   9  10
ATOM     10  O   UNL     1     167.360 159.876 186.836  1.00  0.00    -0.396 OA
ATOM     11  H   UNL     1     168.041 159.914 186.113  1.00  0.00     0.210 HD
ENDBRANCH   9  10
ENDBRANCH   8   9
ENDBRANCH   7   8
ENDBRANCH   1   7
TORSDOF 8
ENDMDL
