MODEL 1
REMARK VINA RESULT:    -4.907      0.000      0.000
REMARK INTER + INTRA:         -11.527
REMARK INTER:                  -9.209
REMARK INTRA:                  -2.318
REMARK UNBOUND:                -2.318
REMARK SMILES CCCCCCCCC=CCCCCCCCC(=O)[O-]
REMARK SMILES IDX 10 1 9 2 11 3 12 4 13 5 14 6 15 7 16 8 17 9 18 10 19 11
REMARK SMILES IDX 20 12 8 13 7 14 6 15 5 16 4 17 3 18 2 19 1 20
REMARK H PARENT
REMARK Flexibility Score: inf
ROOT
ATOM      1  C   UNL     1       1.054 -37.170  21.329  1.00  0.00    -0.031 C 
ATOM      2  C   UNL     1       1.508 -35.925  21.122  1.00  0.00    -0.031 C 
ENDROOT
BRANCH   1   3
ATOM      3  C   UNL     1       0.085 -37.825  20.382  1.00  0.00     0.027 C 
BRANCH   3   4
ATOM      4  C   UNL     1      -1.299 -38.039  21.013  1.00  0.00     0.004 C 
BRANCH   4   5
ATOM      5  C   UNL     1      -2.408 -37.310  20.235  1.00  0.00     0.000 C 
BRANCH   5   6
ATOM      6  C   UNL     1      -2.509 -35.821  20.602  1.00  0.00     0.000 C 
BRANCH   6   7
ATOM      7  C   UNL     1      -2.477 -35.582  22.120  1.00  0.00     0.000 C 
BRANCH   7   8
ATOM      8  C   UNL     1      -1.528 -34.430  22.473  1.00  0.00     0.006 C 
BRANCH   8   9
ATOM      9  C   UNL     1      -2.295 -33.255  23.086  1.00  0.00     0.053 C 
BRANCH   9  10
ATOM     10  C   UNL     1      -1.540 -32.683  24.244  1.00  0.00     0.041 C 
ATOM     11  O   UNL     1      -1.691 -33.163  25.399  1.00  0.00    -0.550 OA
ATOM     12  O   UNL     1      -0.632 -31.652  24.040  1.00  0.00    -0.550 OA
ENDBRANCH   9  10
ENDBRANCH   8   9
ENDBRANCH   7   8
ENDBRANCH   6   7
ENDBRANCH   5   6
ENDBRANCH   4   5
ENDBRANCH   3   4
ENDBRANCH   1   3
BRANCH   2  13
ATOM     13  C   UNL     1       2.476 -35.270  22.070  1.00  0.00     0.027 C 
BRANCH  13  14
ATOM     14  C   UNL     1       3.940 -35.526  21.681  1.00  0.00     0.004 C 
BRANCH  14  15
ATOM     15  C   UNL     1       4.554 -36.693  22.475  1.00  0.00     0.000 C 
BRANCH  15  16
ATOM     16  C   UNL     1       4.725 -37.963  21.625  1.00  0.00     0.000 C 
BRANCH  16  17
ATOM     17  C   UNL     1       5.179 -37.656  20.188  1.00  0.00    -0.000 C 
BRANCH  17  18
ATOM     18  C   UNL     1       4.128 -38.055  19.139  1.00  0.00    -0.000 C 
BRANCH  18  19
ATOM     19  C   UNL     1       3.929 -36.980  18.062  1.00  0.00    -0.003 C 
ATOM     20  C   UNL     1       2.490 -36.974  17.550  1.00  0.00     0.004 C 
ENDBRANCH  18  19
ENDBRANCH  17  18
ENDBRANCH  16  17
ENDBRANCH  15  16
ENDBRANCH  14  15
ENDBRANCH  13  14
ENDBRANCH   2  13
TORSDOF 15
ENDMDL
MODEL 2
REMARK VINA RESULT:    -4.826      0.883      2.533
REMARK INTER + INTRA:         -11.376
REMARK INTER:                  -9.625
REMARK INTRA:                  -1.750
REMARK UNBOUND:                -2.318
REMARK SMILES CCCCCCCCC=CCCCCCCCC(=O)[O-]
REMARK SMILES IDX 10 1 9 2 11 3 12 4 13 5 14 6 15 7 16 8 17 9 18 10 19 11
REMARK SMILES IDX 20 12 8 13 7 14 6 15 5 16 4 17 3 18 2 19 1 20
REMARK H PARENT
REMARK Flexibility Score: inf
ROOT
ATOM      1  C   UNL     1       1.281 -37.165  19.833  1.00  0.00    -0.031 C 
ATOM      2  C   UNL     1       2.002 -37.794  18.893  1.00  0.00    -0.031 C 
ENDROOT
BRANCH   1   3
ATOM      3  C   UNL     1       0.730 -37.897  21.027  1.00  0.00     0.027 C 
BRANCH   3   4
ATOM      4  C   UNL     1      -0.805 -37.969  21.012  1.00  0.00     0.004 C 
BRANCH   4   5
ATOM      5  C   UNL     1      -1.448 -36.574  20.939  1.00  0.00     0.000 C 
BRANCH   5   6
ATOM      6  C   UNL     1      -2.849 -36.533  21.569  1.00  0.00     0.000 C 
BRANCH   6   7
ATOM      7  C   UNL     1      -3.065 -35.296  22.456  1.00  0.00     0.000 C 
BRANCH   7   8
ATOM      8  C   UNL     1      -1.794 -34.439  22.517  1.00  0.00     0.006 C 
BRANCH   8   9
ATOM      9  C   UNL     1      -2.100 -33.044  23.072  1.00  0.00     0.053 C 
BRANCH   9  10
ATOM     10  C   UNL     1      -1.301 -32.786  24.310  1.00  0.00     0.041 C 
ATOM     11  O   UNL     1      -1.697 -33.225  25.423  1.00  0.00    -0.550 OA
ATOM     12  O   UNL     1      -0.095 -32.103  24.229  1.00  0.00    -0.550 OA
ENDBRANCH   9  10
ENDBRANCH   8   9
ENDBRANCH   7   8
ENDBRANCH   6   7
ENDBRANCH   5   6
ENDBRANCH   4   5
ENDBRANCH   3   4
ENDBRANCH   1   3
BRANCH   2  13
ATOM     13  C   UNL     1       2.553 -37.062  17.700  1.00  0.00     0.027 C 
BRANCH  13  14
ATOM     14  C   UNL     1       4.010 -36.619  17.906  1.00  0.00     0.004 C 
BRANCH  14  15
ATOM     15  C   UNL     1       4.869 -37.731  18.534  1.00  0.00     0.000 C 
BRANCH  15  16
ATOM     16  C   UNL     1       5.983 -37.179  19.439  1.00  0.00     0.000 C 
BRANCH  16  17
ATOM     17  C   UNL     1       5.836 -37.632  20.900  1.00  0.00    -0.000 C 
BRANCH  17  18
ATOM     18  C   UNL     1       4.472 -37.253  21.501  1.00  0.00    -0.000 C 
BRANCH  18  19
ATOM     19  C   UNL     1       4.230 -35.737  21.512  1.00  0.00    -0.003 C 
ATOM     20  C   UNL     1       3.274 -35.341  22.634  1.00  0.00     0.004 C 
ENDBRANCH  18  19
ENDBRANCH  17  18
ENDBRANCH  16  17
ENDBRANCH  15  16
ENDBRANCH  14  15
ENDBRANCH  13  14
ENDBRANCH   2  13
TORSDOF 15
ENDMDL
MODEL 3
REMARK VINA RESULT:    -4.183      2.833      7.388
REMARK INTER + INTRA:         -10.168
REMARK INTER:                  -8.402
REMARK INTRA:                  -1.767
REMARK UNBOUND:                -2.318
REMARK SMILES CCCCCCCCC=CCCCCCCCC(=O)[O-]
REMARK SMILES IDX 10 1 9 2 11 3 12 4 13 5 14 6 15 7 16 8 17 9 18 10 19 11
REMARK SMILES IDX 20 12 8 13 7 14 6 15 5 16 4 17 3 18 2 19 1 20
REMARK H PARENT
REMARK Flexibility Score: inf
ROOT
ATOM      1  C   UNL     1       1.976 -36.599  21.344  1.00  0.00    -0.031 C 
ATOM      2  C   UNL     1       0.704 -36.768  20.954  1.00  0.00    -0.031 C 
ENDROOT
BRANCH   1   3
ATOM      3  C   UNL     1       2.419 -35.361  22.076  1.00  0.00     0.027 C 
BRANCH   3   4
ATOM      4  C   UNL     1       3.873 -35.457  22.563  1.00  0.00     0.004 C 
BRANCH   4   5
ATOM      5  C   UNL     1       4.506 -36.819  22.228  1.00  0.00     0.000 C 
BRANCH   5   6
ATOM      6  C   UNL     1       5.748 -36.691  21.333  1.00  0.00     0.000 C 
BRANCH   6   7
ATOM      7  C   UNL     1       5.884 -37.855  20.338  1.00  0.00     0.000 C 
BRANCH   7   8
ATOM      8  C   UNL     1       5.582 -37.390  18.908  1.00  0.00     0.006 C 
BRANCH   8   9
ATOM      9  C   UNL     1       4.241 -37.948  18.421  1.00  0.00     0.053 C 
BRANCH   9  10
ATOM     10  C   UNL     1       3.327 -36.836  18.014  1.00  0.00     0.041 C 
ATOM     11  O   UNL     1       2.382 -37.054  17.210  1.00  0.00    -0.550 OA
ATOM     12  O   UNL     1       3.488 -35.570  18.560  1.00  0.00    -0.550 OA
ENDBRANCH   9  10
ENDBRANCH   8   9
ENDBRANCH   7   8
ENDBRANCH   6   7
ENDBRANCH   5   6
ENDBRANCH   4   5
ENDBRANCH   3   4
ENDBRANCH   1   3
BRANCH   2  13
ATOM     13  C   UNL     1       0.260 -38.006  20.222  1.00  0.00     0.027 C 
BRANCH  13  14
ATOM     14  C   UNL     1      -1.266 -38.074  20.056  1.00  0.00     0.004 C 
BRANCH  14  15
ATOM     15  C   UNL     1      -2.005 -37.727  21.360  1.00  0.00     0.000 C 
BRANCH  15  16
ATOM     16  C   UNL     1      -3.093 -36.660  21.158  1.00  0.00     0.000 C 
BRANCH  16  17
ATOM     17  C   UNL     1      -3.055 -35.565  22.237  1.00  0.00    -0.000 C 
BRANCH  17  18
ATOM     18  C   UNL     1      -1.823 -34.655  22.110  1.00  0.00    -0.000 C 
BRANCH  18  19
ATOM     19  C   UNL     1      -1.554 -33.840  23.384  1.00  0.00    -0.003 C 
ATOM     20  C   UNL     1      -2.500 -32.646  23.482  1.00  0.00     0.004 C 
ENDBRANCH  18  19
ENDBRANCH  17  18
ENDBRANCH  16  17
ENDBRANCH  15  16
ENDBRANCH  14  15
ENDBRANCH  13  14
ENDBRANCH   2  13
TORSDOF 15
ENDMDL
MODEL 4
REMARK VINA RESULT:    -4.139      2.456      7.065
REMARK INTER + INTRA:         -10.087
REMARK INTER:                  -8.453
REMARK INTRA:                  -1.634
REMARK UNBOUND:                -2.318
REMARK SMILES CCCCCCCCC=CCCCCCCCC(=O)[O-]
REMARK SMILES IDX 10 1 9 2 11 3 12 4 13 5 14 6 15 7 16 8 17 9 18 10 19 11
REMARK SMILES IDX 20 12 8 13 7 14 6 15 5 16 4 17 3 18 2 19 1 20
REMARK H PARENT
REMARK Flexibility Score: inf
ROOT
ATOM      1  C   UNL     1       1.289 -36.353  20.140  1.00  0.00    -0.031 C 
ATOM      2  C   UNL     1       0.825 -37.611  20.128  1.00  0.00    -0.031 C 
ENDROOT
BRANCH   1   3
ATOM      3  C   UNL     1       2.358 -35.897  19.184  1.00  0.00     0.027 C 
BRANCH   3   4
ATOM      4  C   UNL     1       2.402 -36.747  17.904  1.00  0.00     0.004 C 
BRANCH   4   5
ATOM      5  C   UNL     1       3.746 -37.478  17.742  1.00  0.00     0.000 C 
BRANCH   5   6
ATOM      6  C   UNL     1       4.902 -36.754  18.450  1.00  0.00     0.000 C 
BRANCH   6   7
ATOM      7  C   UNL     1       5.943 -37.726  19.030  1.00  0.00     0.000 C 
BRANCH   7   8
ATOM      8  C   UNL     1       5.750 -37.896  20.542  1.00  0.00     0.006 C 
BRANCH   8   9
ATOM      9  C   UNL     1       5.342 -36.572  21.195  1.00  0.00     0.053 C 
BRANCH   9  10
ATOM     10  C   UNL     1       4.379 -36.815  22.314  1.00  0.00     0.041 C 
ATOM     11  O   UNL     1       4.174 -35.923  23.180  1.00  0.00    -0.550 OA
ATOM     12  O   UNL     1       3.670 -38.008  22.375  1.00  0.00    -0.550 OA
ENDBRANCH   9  10
ENDBRANCH   8   9
ENDBRANCH   7   8
ENDBRANCH   6   7
ENDBRANCH   5   6
ENDBRANCH   4   5
ENDBRANCH   3   4
ENDBRANCH   1   3
BRANCH   2  13
ATOM     13  C   UNL     1      -0.244 -38.068  21.084  1.00  0.00     0.027 C 
BRANCH  13  14
ATOM     14  C   UNL     1      -1.632 -38.125  20.428  1.00  0.00     0.004 C 
BRANCH  14  15
ATOM     15  C   UNL     1      -2.606 -37.107  21.046  1.00  0.00     0.000 C 
BRANCH  15  16
ATOM     16  C   UNL     1      -2.031 -35.681  21.078  1.00  0.00     0.000 C 
BRANCH  16  17
ATOM     17  C   UNL     1      -2.090 -35.051  22.479  1.00  0.00    -0.000 C 
BRANCH  17  18
ATOM     18  C   UNL     1      -1.499 -33.632  22.514  1.00  0.00    -0.000 C 
BRANCH  18  19
ATOM     19  C   UNL     1      -2.148 -32.746  23.587  1.00  0.00    -0.003 C 
ATOM     20  C   UNL     1      -1.817 -33.251  24.989  1.00  0.00     0.004 C 
ENDBRANCH  18  19
ENDBRANCH  17  18
ENDBRANCH  16  17
ENDBRANCH  15  16
ENDBRANCH  14  15
ENDBRANCH  13  14
ENDBRANCH   2  13
TORSDOF 15
ENDMDL
MODEL 5
REMARK VINA RESULT:    -4.092      2.430      6.963
REMARK INTER + INTRA:          -9.999
REMARK INTER:                  -8.754
REMARK INTRA:                  -1.245
REMARK UNBOUND:                -2.318
REMARK SMILES CCCCCCCCC=CCCCCCCCC(=O)[O-]
REMARK SMILES IDX 10 1 9 2 11 3 12 4 13 5 14 6 15 7 16 8 17 9 18 10 19 11
REMARK SMILES IDX 20 12 8 13 7 14 6 15 5 16 4 17 3 18 2 19 1 20
REMARK H PARENT
REMARK Flexibility Score: inf
ROOT
ATOM      1  C   UNL     1       0.061 -38.044  19.983  1.00  0.00    -0.031 C 
ATOM      2  C   UNL     1      -0.735 -37.625  20.979  1.00  0.00    -0.031 C 
ENDROOT
BRANCH   1   3
ATOM      3  C   UNL     1       1.557 -37.895  20.054  1.00  0.00     0.027 C 
BRANCH   3   4
ATOM      4  C   UNL     1       2.228 -38.066  18.682  1.00  0.00     0.004 C 
BRANCH   4   5
ATOM      5  C   UNL     1       2.625 -36.716  18.060  1.00  0.00     0.000 C 
BRANCH   5   6
ATOM      6  C   UNL     1       4.137 -36.451  18.136  1.00  0.00     0.000 C 
BRANCH   6   7
ATOM      7  C   UNL     1       4.917 -37.639  18.722  1.00  0.00     0.000 C 
BRANCH   7   8
ATOM      8  C   UNL     1       5.703 -37.215  19.969  1.00  0.00     0.006 C 
BRANCH   8   9
ATOM      9  C   UNL     1       4.891 -37.470  21.243  1.00  0.00     0.053 C 
BRANCH   9  10
ATOM     10  C   UNL     1       4.582 -36.181  21.935  1.00  0.00     0.041 C 
ATOM     11  O   UNL     1       3.621 -35.466  21.544  1.00  0.00    -0.550 OA
ATOM     12  O   UNL     1       5.323 -35.791  23.043  1.00  0.00    -0.550 OA
ENDBRANCH   9  10
ENDBRANCH   8   9
ENDBRANCH   7   8
ENDBRANCH   6   7
ENDBRANCH   5   6
ENDBRANCH   4   5
ENDBRANCH   3   4
ENDBRANCH   1   3
BRANCH   2  13
ATOM     13  C   UNL     1      -2.231 -37.773  20.909  1.00  0.00     0.027 C 
BRANCH  13  14
ATOM     14  C   UNL     1      -2.968 -36.503  21.360  1.00  0.00     0.004 C 
BRANCH  14  15
ATOM     15  C   UNL     1      -1.995 -35.358  21.693  1.00  0.00     0.000 C 
BRANCH  15  16
ATOM     16  C   UNL     1      -2.378 -34.611  22.981  1.00  0.00     0.000 C 
BRANCH  16  17
ATOM     17  C   UNL     1      -1.816 -33.181  23.024  1.00  0.00    -0.000 C 
BRANCH  17  18
ATOM     18  C   UNL     1      -0.928 -32.932  24.255  1.00  0.00    -0.000 C 
BRANCH  18  19
ATOM     19  C   UNL     1       0.087 -31.802  24.034  1.00  0.00    -0.003 C 
ATOM     20  C   UNL     1       1.495 -32.242  24.430  1.00  0.00     0.004 C 
ENDBRANCH  18  19
ENDBRANCH  17  18
ENDBRANCH  16  17
ENDBRANCH  15  16
ENDBRANCH  14  15
ENDBRANCH  13  14
ENDBRANCH   2  13
TORSDOF 15
ENDMDL
MODEL 6
REMARK VINA RESULT:    -4.054      2.960      5.720
REMARK INTER + INTRA:          -9.927
REMARK INTER:                  -7.945
REMARK INTRA:                  -1.982
REMARK UNBOUND:                -2.318
REMARK SMILES CCCCCCCCC=CCCCCCCCC(=O)[O-]
REMARK SMILES IDX 10 1 9 2 11 3 12 4 13 5 14 6 15 7 16 8 17 9 18 10 19 11
REMARK SMILES IDX 20 12 8 13 7 14 6 15 5 16 4 17 3 18 2 19 1 20
REMARK H PARENT
REMARK Flexibility Score: inf
ROOT
ATOM      1  C   UNL     1      -2.252 -33.382  23.256  1.00  0.00    -0.031 C 
ATOM      2  C   UNL     1      -1.675 -34.408  22.614  1.00  0.00    -0.031 C 
ENDROOT
BRANCH   1   3
ATOM      3  C   UNL     1      -1.434 -32.324  23.948  1.00  0.00     0.027 C 
BRANCH   3   4
ATOM      4  C   UNL     1      -0.139 -32.888  24.554  1.00  0.00     0.004 C 
BRANCH   4   5
ATOM      5  C   UNL     1       1.104 -32.115  24.081  1.00  0.00     0.000 C 
BRANCH   5   6
ATOM      6  C   UNL     1       2.362 -32.997  24.020  1.00  0.00     0.000 C 
BRANCH   6   7
ATOM      7  C   UNL     1       2.225 -34.156  23.020  1.00  0.00     0.000 C 
BRANCH   7   8
ATOM      8  C   UNL     1       3.381 -35.152  23.174  1.00  0.00     0.006 C 
BRANCH   8   9
ATOM      9  C   UNL     1       4.006 -35.482  21.816  1.00  0.00     0.053 C 
BRANCH   9  10
ATOM     10  C   UNL     1       4.665 -36.825  21.855  1.00  0.00     0.041 C 
ATOM     11  O   UNL     1       4.090 -37.797  22.412  1.00  0.00    -0.550 OA
ATOM     12  O   UNL     1       5.892 -37.015  21.232  1.00  0.00    -0.550 OA
ENDBRANCH   9  10
ENDBRANCH   8   9
ENDBRANCH   7   8
ENDBRANCH   6   7
ENDBRANCH   5   6
ENDBRANCH   4   5
ENDBRANCH   3   4
ENDBRANCH   1   3
BRANCH   2  13
ATOM     13  C   UNL     1      -2.493 -35.466  21.922  1.00  0.00     0.027 C 
BRANCH  13  14
ATOM     14  C   UNL     1      -1.672 -36.265  20.898  1.00  0.00     0.004 C 
BRANCH  14  15
ATOM     15  C   UNL     1      -0.179 -35.898  20.942  1.00  0.00     0.000 C 
BRANCH  15  16
ATOM     16  C   UNL     1       0.731 -37.131  21.078  1.00  0.00     0.000 C 
BRANCH  16  17
ATOM     17  C   UNL     1       1.418 -37.507  19.755  1.00  0.00    -0.000 C 
BRANCH  17  18
ATOM     18  C   UNL     1       2.036 -36.291  19.044  1.00  0.00    -0.000 C 
BRANCH  18  19
ATOM     19  C   UNL     1       2.806 -36.677  17.773  1.00  0.00    -0.003 C 
ATOM     20  C   UNL     1       4.314 -36.580  17.993  1.00  0.00     0.004 C 
ENDBRANCH  18  19
ENDBRANCH  17  18
ENDBRANCH  16  17
ENDBRANCH  15  16
ENDBRANCH  14  15
ENDBRANCH  13  14
ENDBRANCH   2  13
TORSDOF 15
ENDMDL
MODEL 7
REMARK VINA RESULT:    -4.005      2.601      4.461
REMARK INTER + INTRA:          -9.835
REMARK INTER:                  -8.234
REMARK INTRA:                  -1.601
REMARK UNBOUND:                -2.318
REMARK SMILES CCCCCCCCC=CCCCCCCCC(=O)[O-]
REMARK SMILES IDX 10 1 9 2 11 3 12 4 13 5 14 6 15 7 16 8 17 9 18 10 19 11
REMARK SMILES IDX 20 12 8 13 7 14 6 15 5 16 4 17 3 18 2 19 1 20
REMARK H PARENT
REMARK Flexibility Score: inf
ROOT
ATOM      1  C   UNL     1       2.196 -32.896  23.986  1.00  0.00    -0.031 C 
ATOM      2  C   UNL     1       2.170 -34.027  23.265  1.00  0.00    -0.031 C 
ENDROOT
BRANCH   1   3
ATOM      3  C   UNL     1       0.936 -32.142  24.316  1.00  0.00     0.027 C 
BRANCH   3   4
ATOM      4  C   UNL     1      -0.282 -33.068  24.456  1.00  0.00     0.004 C 
BRANCH   4   5
ATOM      5  C   UNL     1      -1.594 -32.359  24.077  1.00  0.00     0.000 C 
BRANCH   5   6
ATOM      6  C   UNL     1      -2.474 -33.202  23.142  1.00  0.00     0.000 C 
BRANCH   6   7
ATOM      7  C   UNL     1      -1.686 -34.311  22.426  1.00  0.00     0.000 C 
BRANCH   7   8
ATOM      8  C   UNL     1      -2.583 -35.522  22.140  1.00  0.00     0.006 C 
BRANCH   8   9
ATOM      9  C   UNL     1      -2.050 -36.332  20.954  1.00  0.00     0.053 C 
BRANCH   9  10
ATOM     10  C   UNL     1      -3.180 -36.930  20.178  1.00  0.00     0.041 C 
ATOM     11  O   UNL     1      -3.535 -36.421  19.082  1.00  0.00    -0.550 OA
ATOM     12  O   UNL     1      -3.809 -38.078  20.640  1.00  0.00    -0.550 OA
ENDBRANCH   9  10
ENDBRANCH   8   9
ENDBRANCH   7   8
ENDBRANCH   6   7
ENDBRANCH   5   6
ENDBRANCH   4   5
ENDBRANCH   3   4
ENDBRANCH   1   3
BRANCH   2  13
ATOM     13  C   UNL     1       3.430 -34.781  22.934  1.00  0.00     0.027 C 
BRANCH  13  14
ATOM     14  C   UNL     1       3.173 -35.964  21.987  1.00  0.00     0.004 C 
BRANCH  14  15
ATOM     15  C   UNL     1       1.744 -35.949  21.419  1.00  0.00     0.000 C 
BRANCH  15  16
ATOM     16  C   UNL     1       1.176 -37.363  21.206  1.00  0.00     0.000 C 
BRANCH  16  17
ATOM     17  C   UNL     1       1.059 -37.734  19.719  1.00  0.00    -0.000 C 
BRANCH  17  18
ATOM     18  C   UNL     1       2.428 -37.973  19.060  1.00  0.00    -0.000 C 
BRANCH  18  19
ATOM     19  C   UNL     1       2.743 -36.947  17.961  1.00  0.00    -0.003 C 
ATOM     20  C   UNL     1       4.181 -36.448  18.072  1.00  0.00     0.004 C 
ENDBRANCH  18  19
ENDBRANCH  17  18
ENDBRANCH  16  17
ENDBRANCH  15  16
ENDBRANCH  14  15
ENDBRANCH  13  14
ENDBRANCH   2  13
TORSDOF 15
ENDMDL
MODEL 8
REMARK VINA RESULT:    -3.805      2.207      4.021
REMARK INTER + INTRA:          -9.460
REMARK INTER:                  -7.826
REMARK INTRA:                  -1.633
REMARK UNBOUND:                -2.318
REMARK SMILES CCCCCCCCC=CCCCCCCCC(=O)[O-]
REMARK SMILES IDX 10 1 9 2 11 3 12 4 13 5 14 6 15 7 16 8 17 9 18 10 19 11
REMARK SMILES IDX 20 12 8 13 7 14 6 15 5 16 4 17 3 18 2 19 1 20
REMARK H PARENT
REMARK Flexibility Score: inf
ROOT
ATOM      1  C   UNL     1       3.243 -34.735  23.280  1.00  0.00    -0.031 C 
ATOM      2  C   UNL     1       3.481 -35.753  22.440  1.00  0.00    -0.031 C 
ENDROOT
BRANCH   1   3
ATOM      3  C   UNL     1       1.931 -33.996  23.272  1.00  0.00     0.027 C 
BRANCH   3   4
ATOM      4  C   UNL     1       1.977 -32.712  24.116  1.00  0.00     0.004 C 
BRANCH   4   5
ATOM      5  C   UNL     1       0.625 -31.978  24.124  1.00  0.00     0.000 C 
BRANCH   5   6
ATOM      6  C   UNL     1      -0.552 -32.908  24.458  1.00  0.00     0.000 C 
BRANCH   6   7
ATOM      7  C   UNL     1      -1.659 -32.869  23.392  1.00  0.00     0.000 C 
BRANCH   7   8
ATOM      8  C   UNL     1      -2.159 -34.282  23.071  1.00  0.00     0.006 C 
BRANCH   8   9
ATOM      9  C   UNL     1      -1.436 -34.856  21.848  1.00  0.00     0.053 C 
BRANCH   9  10
ATOM     10  C   UNL     1      -2.043 -36.163  21.446  1.00  0.00     0.041 C 
ATOM     11  O   UNL     1      -1.347 -37.030  20.854  1.00  0.00    -0.550 OA
ATOM     12  O   UNL     1      -3.364 -36.445  21.769  1.00  0.00    -0.550 OA
ENDBRANCH   9  10
ENDBRANCH   8   9
ENDBRANCH   7   8
ENDBRANCH   6   7
ENDBRANCH   5   6
ENDBRANCH   4   5
ENDBRANCH   3   4
ENDBRANCH   1   3
BRANCH   2  13
ATOM     13  C   UNL     1       4.792 -36.492  22.448  1.00  0.00     0.027 C 
BRANCH  13  14
ATOM     14  C   UNL     1       5.405 -36.614  21.044  1.00  0.00     0.004 C 
BRANCH  14  15
ATOM     15  C   UNL     1       5.333 -38.053  20.506  1.00  0.00     0.000 C 
BRANCH  15  16
ATOM     16  C   UNL     1       4.881 -38.115  19.037  1.00  0.00     0.000 C 
BRANCH  16  17
ATOM     17  C   UNL     1       4.850 -36.730  18.370  1.00  0.00    -0.000 C 
BRANCH  17  18
ATOM     18  C   UNL     1       3.507 -36.437  17.681  1.00  0.00    -0.000 C 
BRANCH  18  19
ATOM     19  C   UNL     1       2.304 -36.949  18.486  1.00  0.00    -0.003 C 
ATOM     20  C   UNL     1       1.805 -35.888  19.464  1.00  0.00     0.004 C 
ENDBRANCH  18  19
ENDBRANCH  17  18
ENDBRANCH  16  17
ENDBRANCH  15  16
ENDBRANCH  14  15
ENDBRANCH  13  14
ENDBRANCH   2  13
TORSDOF 15
ENDMDL
MODEL 9
REMARK VINA RESULT:    -3.785      2.234      6.454
REMARK INTER + INTRA:          -9.422
REMARK INTER:                  -7.862
REMARK INTRA:                  -1.559
REMARK UNBOUND:                -2.318
REMARK SMILES CCCCCCCCC=CCCCCCCCC(=O)[O-]
REMARK SMILES IDX 10 1 9 2 11 3 12 4 13 5 14 6 15 7 16 8 17 9 18 10 19 11
REMARK SMILES IDX 20 12 8 13 7 14 6 15 5 16 4 17 3 18 2 19 1 20
REMARK H PARENT
REMARK Flexibility Score: inf
ROOT
ATOM      1  C   UNL     1       2.520 -36.655  18.625  1.00  0.00    -0.031 C 
ATOM      2  C   UNL     1       2.021 -37.876  18.868  1.00  0.00    -0.031 C 
ENDROOT
BRANCH   1   3
ATOM      3  C   UNL     1       3.882 -36.467  18.012  1.00  0.00     0.027 C 
BRANCH   3   4
ATOM      4  C   UNL     1       4.513 -37.796  17.567  1.00  0.00     0.004 C 
BRANCH   4   5
ATOM      5  C   UNL     1       5.788 -38.125  18.363  1.00  0.00     0.000 C 
BRANCH   5   6
ATOM      6  C   UNL     1       6.034 -37.142  19.519  1.00  0.00     0.000 C 
BRANCH   6   7
ATOM      7  C   UNL     1       5.341 -37.574  20.821  1.00  0.00     0.000 C 
BRANCH   7   8
ATOM      8  C   UNL     1       5.215 -36.392  21.791  1.00  0.00     0.006 C 
BRANCH   8   9
ATOM      9  C   UNL     1       3.805 -35.795  21.747  1.00  0.00     0.053 C 
BRANCH   9  10
ATOM     10  C   UNL     1       3.484 -35.115  23.041  1.00  0.00     0.041 C 
ATOM     11  O   UNL     1       2.478 -34.362  23.128  1.00  0.00    -0.550 OA
ATOM     12  O   UNL     1       4.266 -35.352  24.164  1.00  0.00    -0.550 OA
ENDBRANCH   9  10
ENDBRANCH   8   9
ENDBRANCH   7   8
ENDBRANCH   6   7
ENDBRANCH   5   6
ENDBRANCH   4   5
ENDBRANCH   3   4
ENDBRANCH   1   3
BRANCH   2  13
ATOM     13  C   UNL     1       0.659 -38.063  19.481  1.00  0.00     0.027 C 
BRANCH  13  14
ATOM     14  C   UNL     1       0.474 -37.236  20.762  1.00  0.00     0.004 C 
BRANCH  14  15
ATOM     15  C   UNL     1      -0.947 -37.370  21.336  1.00  0.00     0.000 C 
BRANCH  15  16
ATOM     16  C   UNL     1      -1.828 -36.147  21.029  1.00  0.00     0.000 C 
BRANCH  16  17
ATOM     17  C   UNL     1      -3.126 -36.523  20.296  1.00  0.00    -0.000 C 
BRANCH  17  18
ATOM     18  C   UNL     1      -3.067 -37.928  19.675  1.00  0.00    -0.000 C 
BRANCH  18  19
ATOM     19  C   UNL     1      -3.864 -38.031  18.367  1.00  0.00    -0.003 C 
ATOM     20  C   UNL     1      -4.315 -36.653  17.888  1.00  0.00     0.004 C 
ENDBRANCH  18  19
ENDBRANCH  17  18
ENDBRANCH  16  17
ENDBRANCH  15  16
ENDBRANCH  14  15
ENDBRANCH  13  14
ENDBRANCH   2  13
TORSDOF 15
ENDMDL
