MODEL 1
REMARK VINA RESULT:    -4.229      0.000      0.000
REMARK INTER + INTRA:          -9.700
REMARK INTER:                  -7.690
REMARK INTRA:                  -2.011
REMARK UNBOUND:                -2.011
REMARK SMILES CCCCCCCCCCCCCC[C@H](C)C(=O)[O-]
REMARK SMILES IDX 9 1 10 2 11 3 12 4 13 5 14 6 15 7 16 8 17 9 18 10 19 11 8 12
REMARK SMILES IDX 7 13 6 14 5 15 4 16 3 17 2 18 1 19
REMARK H PARENT
REMARK Flexibility Score: inf
ROOT
ATOM      1  C   UNL     1     -19.069  13.387  15.668  1.00  0.00     0.000 C 
ENDROOT
BRANCH   1   2
ATOM      2  C   UNL     1     -19.179  13.189  17.188  1.00  0.00     0.000 C 
BRANCH   2   3
ATOM      3  C   UNL     1     -20.345  12.270  17.584  1.00  0.00     0.000 C 
BRANCH   3   4
ATOM      4  C   UNL     1     -19.883  11.197  18.579  1.00  0.00     0.000 C 
BRANCH   4   5
ATOM      5  C   UNL     1     -20.111   9.787  18.017  1.00  0.00     0.001 C 
BRANCH   5   6
ATOM      6  C   UNL     1     -18.825   8.937  17.948  1.00  0.00     0.009 C 
BRANCH   6   7
ATOM      7  C   UNL     1     -19.000   7.400  18.071  1.00  0.00     0.032 C 
ATOM      8  C   UNL     1     -20.441   6.993  18.415  1.00  0.00     0.014 C 
BRANCH   7   9
ATOM      9  C   UNL     1     -17.990   6.779  19.003  1.00  0.00     0.044 C 
ATOM     10  O   UNL     1     -18.294   6.573  20.207  1.00  0.00    -0.550 OA
ATOM     11  O   UNL     1     -16.714   6.445  18.561  1.00  0.00    -0.550 OA
ENDBRANCH   7   9
ENDBRANCH   6   7
ENDBRANCH   5   6
ENDBRANCH   4   5
ENDBRANCH   3   4
ENDBRANCH   2   3
ENDBRANCH   1   2
BRANCH   1  12
ATOM     12  C   UNL     1     -17.735  12.871  15.101  1.00  0.00     0.000 C 
BRANCH  12  13
ATOM     13  C   UNL     1     -17.928  11.768  14.048  1.00  0.00    -0.000 C 
BRANCH  13  14
ATOM     14  C   UNL     1     -18.406  10.441  14.658  1.00  0.00    -0.000 C 
BRANCH  14  15
ATOM     15  C   UNL     1     -19.762  10.025  14.068  1.00  0.00    -0.000 C 
BRANCH  15  16
ATOM     16  C   UNL     1     -19.831  10.204  12.541  1.00  0.00    -0.000 C 
BRANCH  16  17
ATOM     17  C   UNL     1     -21.054  10.992  12.031  1.00  0.00    -0.000 C 
BRANCH  17  18
ATOM     18  C   UNL     1     -21.643  11.998  13.034  1.00  0.00    -0.003 C 
ATOM     19  C   UNL     1     -21.199  13.435  12.767  1.00  0.00     0.004 C 
ENDBRANCH  17  18
ENDBRANCH  16  17
ENDBRANCH  15  16
ENDBRANCH  14  15
ENDBRANCH  13  14
ENDBRANCH  12  13
ENDBRANCH   1  12
TORSDOF 14
ENDMDL
MODEL 2
REMARK VINA RESULT:    -4.224      4.284      6.809
REMARK INTER + INTRA:          -9.692
REMARK INTER:                  -7.537
REMARK INTRA:                  -2.154
REMARK UNBOUND:                -2.011
REMARK SMILES CCCCCCCCCCCCCC[C@H](C)C(=O)[O-]
REMARK SMILES IDX 9 1 10 2 11 3 12 4 13 5 14 6 15 7 16 8 17 9 18 10 19 11 8 12
REMARK SMILES IDX 7 13 6 14 5 15 4 16 3 17 2 18 1 19
REMARK H PARENT
REMARK Flexibility Score: inf
ROOT
ATOM      1  C   UNL     1     -20.492  11.001  14.201  1.00  0.00     0.000 C 
ENDROOT
BRANCH   1   2
ATOM      2  C   UNL     1     -19.778  12.358  14.095  1.00  0.00     0.000 C 
BRANCH   2   3
ATOM      3  C   UNL     1     -18.338  12.315  14.630  1.00  0.00     0.000 C 
BRANCH   3   4
ATOM      4  C   UNL     1     -18.131  13.361  15.733  1.00  0.00     0.000 C 
BRANCH   4   5
ATOM      5  C   UNL     1     -19.234  14.428  15.696  1.00  0.00     0.001 C 
BRANCH   5   6
ATOM      6  C   UNL     1     -19.704  14.876  17.095  1.00  0.00     0.009 C 
BRANCH   6   7
ATOM      7  C   UNL     1     -20.579  16.156  17.158  1.00  0.00     0.032 C 
ATOM      8  C   UNL     1     -21.303  16.445  15.835  1.00  0.00     0.014 C 
BRANCH   7   9
ATOM      9  C   UNL     1     -19.812  17.352  17.666  1.00  0.00     0.044 C 
ATOM     10  O   UNL     1     -19.525  18.292  16.878  1.00  0.00    -0.550 OA
ATOM     11  O   UNL     1     -19.396  17.429  18.991  1.00  0.00    -0.550 OA
ENDBRANCH   7   9
ENDBRANCH   6   7
ENDBRANCH   5   6
ENDBRANCH   4   5
ENDBRANCH   3   4
ENDBRANCH   2   3
ENDBRANCH   1   2
BRANCH   1  12
ATOM     12  C   UNL     1     -19.521   9.844  14.495  1.00  0.00     0.000 C 
BRANCH  12  13
ATOM     13  C   UNL     1     -19.967   8.989  15.693  1.00  0.00    -0.000 C 
BRANCH  13  14
ATOM     14  C   UNL     1     -19.059   9.166  16.921  1.00  0.00    -0.000 C 
BRANCH  14  15
ATOM     15  C   UNL     1     -19.869   9.644  18.135  1.00  0.00    -0.000 C 
BRANCH  15  16
ATOM     16  C   UNL     1     -19.986  11.176  18.211  1.00  0.00    -0.000 C 
BRANCH  16  17
ATOM     17  C   UNL     1     -21.335  11.752  17.736  1.00  0.00    -0.000 C 
BRANCH  17  18
ATOM     18  C   UNL     1     -22.518  10.770  17.795  1.00  0.00    -0.003 C 
ATOM     19  C   UNL     1     -23.035  10.545  19.214  1.00  0.00     0.004 C 
ENDBRANCH  17  18
ENDBRANCH  16  17
ENDBRANCH  15  16
ENDBRANCH  14  15
ENDBRANCH  13  14
ENDBRANCH  12  13
ENDBRANCH   1  12
TORSDOF 14
ENDMDL
MODEL 3
REMARK VINA RESULT:    -4.212      5.078      7.610
REMARK INTER + INTRA:          -9.669
REMARK INTER:                  -7.580
REMARK INTRA:                  -2.089
REMARK UNBOUND:                -2.011
REMARK SMILES CCCCCCCCCCCCCC[C@H](C)C(=O)[O-]
REMARK SMILES IDX 9 1 10 2 11 3 12 4 13 5 14 6 15 7 16 8 17 9 18 10 19 11 8 12
REMARK SMILES IDX 7 13 6 14 5 15 4 16 3 17 2 18 1 19
REMARK H PARENT
REMARK Flexibility Score: inf
ROOT
ATOM      1  C   UNL     1     -18.771  12.995  16.282  1.00  0.00     0.000 C 
ENDROOT
BRANCH   1   2
ATOM      2  C   UNL     1     -19.280  13.896  17.417  1.00  0.00     0.000 C 
BRANCH   2   3
ATOM      3  C   UNL     1     -20.331  14.912  16.944  1.00  0.00     0.000 C 
BRANCH   3   4
ATOM      4  C   UNL     1     -19.964  16.332  17.395  1.00  0.00     0.000 C 
BRANCH   4   5
ATOM      5  C   UNL     1     -19.667  17.234  16.189  1.00  0.00     0.001 C 
BRANCH   5   6
ATOM      6  C   UNL     1     -20.487  16.875  14.933  1.00  0.00     0.009 C 
BRANCH   6   7
ATOM      7  C   UNL     1     -19.694  16.699  13.612  1.00  0.00     0.032 C 
ATOM      8  C   UNL     1     -18.569  15.661  13.728  1.00  0.00     0.014 C 
BRANCH   7   9
ATOM      9  C   UNL     1     -19.206  18.014  13.055  1.00  0.00     0.044 C 
ATOM     10  O   UNL     1     -17.995  18.150  12.740  1.00  0.00    -0.550 OA
ATOM     11  O   UNL     1     -20.070  19.093  12.899  1.00  0.00    -0.550 OA
ENDBRANCH   7   9
ENDBRANCH   6   7
ENDBRANCH   5   6
ENDBRANCH   4   5
ENDBRANCH   3   4
ENDBRANCH   2   3
ENDBRANCH   1   2
BRANCH   1  12
ATOM     12  C   UNL     1     -19.895  12.555  15.328  1.00  0.00     0.000 C 
BRANCH  12  13
ATOM     13  C   UNL     1     -19.545  11.273  14.553  1.00  0.00    -0.000 C 
BRANCH  13  14
ATOM     14  C   UNL     1     -18.841  10.224  15.428  1.00  0.00    -0.000 C 
BRANCH  14  15
ATOM     15  C   UNL     1     -19.833   9.570  16.402  1.00  0.00    -0.000 C 
BRANCH  15  16
ATOM     16  C   UNL     1     -19.407   9.708  17.874  1.00  0.00    -0.000 C 
BRANCH  16  17
ATOM     17  C   UNL     1     -20.264  10.676  18.714  1.00  0.00    -0.000 C 
BRANCH  17  18
ATOM     18  C   UNL     1     -21.662  10.970  18.142  1.00  0.00    -0.003 C 
ATOM     19  C   UNL     1     -22.791  10.488  19.051  1.00  0.00     0.004 C 
ENDBRANCH  17  18
ENDBRANCH  16  17
ENDBRANCH  15  16
ENDBRANCH  14  15
ENDBRANCH  13  14
ENDBRANCH  12  13
ENDBRANCH   1  12
TORSDOF 14
ENDMDL
MODEL 4
REMARK VINA RESULT:    -4.209      0.947      2.303
REMARK INTER + INTRA:          -9.665
REMARK INTER:                  -7.771
REMARK INTRA:                  -1.894
REMARK UNBOUND:                -2.011
REMARK SMILES CCCCCCCCCCCCCC[C@H](C)C(=O)[O-]
REMARK SMILES IDX 9 1 10 2 11 3 12 4 13 5 14 6 15 7 16 8 17 9 18 10 19 11 8 12
REMARK SMILES IDX 7 13 6 14 5 15 4 16 3 17 2 18 1 19
REMARK H PARENT
REMARK Flexibility Score: inf
ROOT
ATOM      1  C   UNL     1     -18.664  13.033  16.401  1.00  0.00     0.000 C 
ENDROOT
BRANCH   1   2
ATOM      2  C   UNL     1     -19.016  13.086  17.896  1.00  0.00     0.000 C 
BRANCH   2   3
ATOM      3  C   UNL     1     -19.632  11.775  18.409  1.00  0.00     0.000 C 
BRANCH   3   4
ATOM      4  C   UNL     1     -20.697  11.252  17.437  1.00  0.00     0.000 C 
BRANCH   4   5
ATOM      5  C   UNL     1     -20.578   9.734  17.250  1.00  0.00     0.001 C 
BRANCH   5   6
ATOM      6  C   UNL     1     -19.866   9.023  18.420  1.00  0.00     0.009 C 
BRANCH   6   7
ATOM      7  C   UNL     1     -19.281   7.616  18.127  1.00  0.00     0.032 C 
ATOM      8  C   UNL     1     -20.296   6.489  18.372  1.00  0.00     0.014 C 
BRANCH   7   9
ATOM      9  C   UNL     1     -17.974   7.377  18.841  1.00  0.00     0.044 C 
ATOM     10  O   UNL     1     -16.892   7.726  18.299  1.00  0.00    -0.550 OA
ATOM     11  O   UNL     1     -17.938   6.756  20.085  1.00  0.00    -0.550 OA
ENDBRANCH   7   9
ENDBRANCH   6   7
ENDBRANCH   5   6
ENDBRANCH   4   5
ENDBRANCH   3   4
ENDBRANCH   2   3
ENDBRANCH   1   2
BRANCH   1  12
ATOM     12  C   UNL     1     -19.044  14.325  15.658  1.00  0.00     0.000 C 
BRANCH  12  13
ATOM     13  C   UNL     1     -20.409  14.224  14.956  1.00  0.00    -0.000 C 
BRANCH  13  14
ATOM     14  C   UNL     1     -20.302  13.672  13.526  1.00  0.00    -0.000 C 
BRANCH  14  15
ATOM     15  C   UNL     1     -21.136  12.392  13.370  1.00  0.00    -0.000 C 
BRANCH  15  16
ATOM     16  C   UNL     1     -20.347  11.238  12.727  1.00  0.00    -0.000 C 
BRANCH  16  17
ATOM     17  C   UNL     1     -19.832  10.170  13.712  1.00  0.00    -0.000 C 
BRANCH  17  18
ATOM     18  C   UNL     1     -18.392  10.386  14.210  1.00  0.00    -0.003 C 
ATOM     19  C   UNL     1     -17.446  10.858  13.108  1.00  0.00     0.004 C 
ENDBRANCH  17  18
ENDBRANCH  16  17
ENDBRANCH  15  16
ENDBRANCH  14  15
ENDBRANCH  13  14
ENDBRANCH  12  13
ENDBRANCH   1  12
TORSDOF 14
ENDMDL
MODEL 5
REMARK VINA RESULT:    -4.206      3.595      7.317
REMARK INTER + INTRA:          -9.659
REMARK INTER:                  -8.359
REMARK INTRA:                  -1.300
REMARK UNBOUND:                -2.011
REMARK SMILES CCCCCCCCCCCCCC[C@H](C)C(=O)[O-]
REMARK SMILES IDX 9 1 10 2 11 3 12 4 13 5 14 6 15 7 16 8 17 9 18 10 19 11 8 12
REMARK SMILES IDX 7 13 6 14 5 15 4 16 3 17 2 18 1 19
REMARK H PARENT
REMARK Flexibility Score: inf
ROOT
ATOM      1  C   UNL     1     -19.077   9.381  17.750  1.00  0.00     0.000 C 
ENDROOT
BRANCH   1   2
ATOM      2  C   UNL     1     -20.491   9.976  17.647  1.00  0.00     0.000 C 
BRANCH   2   3
ATOM      3  C   UNL     1     -20.623  11.323  18.375  1.00  0.00     0.000 C 
BRANCH   3   4
ATOM      4  C   UNL     1     -19.247  11.964  18.596  1.00  0.00     0.000 C 
BRANCH   4   5
ATOM      5  C   UNL     1     -19.070  13.210  17.717  1.00  0.00     0.001 C 
BRANCH   5   6
ATOM      6  C   UNL     1     -18.361  12.923  16.377  1.00  0.00     0.009 C 
BRANCH   6   7
ATOM      7  C   UNL     1     -19.271  12.729  15.136  1.00  0.00     0.032 C 
ATOM      8  C   UNL     1     -19.053  11.374  14.446  1.00  0.00     0.014 C 
BRANCH   7   9
ATOM      9  C   UNL     1     -19.182  13.886  14.171  1.00  0.00     0.044 C 
ATOM     10  O   UNL     1     -18.405  14.846  14.415  1.00  0.00    -0.550 OA
ATOM     11  O   UNL     1     -19.962  13.922  13.020  1.00  0.00    -0.550 OA
ENDBRANCH   7   9
ENDBRANCH   6   7
ENDBRANCH   5   6
ENDBRANCH   4   5
ENDBRANCH   3   4
ENDBRANCH   2   3
ENDBRANCH   1   2
BRANCH   1  12
ATOM     12  C   UNL     1     -19.053   8.047  18.516  1.00  0.00     0.000 C 
BRANCH  12  13
ATOM     13  C   UNL     1     -17.624   7.540  18.774  1.00  0.00    -0.000 C 
BRANCH  13  14
ATOM     14  C   UNL     1     -17.592   6.109  19.333  1.00  0.00    -0.000 C 
BRANCH  14  15
ATOM     15  C   UNL     1     -18.763   5.874  20.299  1.00  0.00    -0.000 C 
BRANCH  15  16
ATOM     16  C   UNL     1     -19.511   4.557  20.024  1.00  0.00    -0.000 C 
BRANCH  16  17
ATOM     17  C   UNL     1     -20.939   4.722  19.467  1.00  0.00    -0.000 C 
BRANCH  17  18
ATOM     18  C   UNL     1     -22.065   4.302  20.428  1.00  0.00    -0.003 C 
ATOM     19  C   UNL     1     -23.390   5.004  20.136  1.00  0.00     0.004 C 
ENDBRANCH  17  18
ENDBRANCH  16  17
ENDBRANCH  15  16
ENDBRANCH  14  15
ENDBRANCH  13  14
ENDBRANCH  12  13
ENDBRANCH   1  12
TORSDOF 14
ENDMDL
MODEL 6
REMARK VINA RESULT:    -4.157      2.758      7.119
REMARK INTER + INTRA:          -9.571
REMARK INTER:                  -8.330
REMARK INTRA:                  -1.241
REMARK UNBOUND:                -2.011
REMARK SMILES CCCCCCCCCCCCCC[C@H](C)C(=O)[O-]
REMARK SMILES IDX 9 1 10 2 11 3 12 4 13 5 14 6 15 7 16 8 17 9 18 10 19 11 8 12
REMARK SMILES IDX 7 13 6 14 5 15 4 16 3 17 2 18 1 19
REMARK H PARENT
REMARK Flexibility Score: inf
ROOT
ATOM      1  C   UNL     1     -20.530   9.711  17.499  1.00  0.00     0.000 C 
ENDROOT
BRANCH   1   2
ATOM      2  C   UNL     1     -20.709  11.154  17.999  1.00  0.00     0.000 C 
BRANCH   2   3
ATOM      3  C   UNL     1     -19.458  11.697  18.705  1.00  0.00     0.000 C 
BRANCH   3   4
ATOM      4  C   UNL     1     -18.978  12.997  18.046  1.00  0.00     0.000 C 
BRANCH   4   5
ATOM      5  C   UNL     1     -19.436  13.078  16.584  1.00  0.00     0.001 C 
BRANCH   5   6
ATOM      6  C   UNL     1     -18.304  12.820  15.568  1.00  0.00     0.009 C 
BRANCH   6   7
ATOM      7  C   UNL     1     -18.719  12.717  14.076  1.00  0.00     0.032 C 
ATOM      8  C   UNL     1     -20.027  13.462  13.771  1.00  0.00     0.014 C 
BRANCH   7   9
ATOM      9  C   UNL     1     -18.740  11.292  13.582  1.00  0.00     0.044 C 
ATOM     10  O   UNL     1     -18.276  10.372  14.305  1.00  0.00    -0.550 OA
ATOM     11  O   UNL     1     -19.249  10.975  12.327  1.00  0.00    -0.550 OA
ENDBRANCH   7   9
ENDBRANCH   6   7
ENDBRANCH   5   6
ENDBRANCH   4   5
ENDBRANCH   3   4
ENDBRANCH   2   3
ENDBRANCH   1   2
BRANCH   1  12
ATOM     12  C   UNL     1     -19.073   9.228  17.601  1.00  0.00     0.000 C 
BRANCH  12  13
ATOM     13  C   UNL     1     -18.929   7.965  18.467  1.00  0.00    -0.000 C 
BRANCH  13  14
ATOM     14  C   UNL     1     -19.908   6.852  18.062  1.00  0.00    -0.000 C 
BRANCH  14  15
ATOM     15  C   UNL     1     -20.008   5.785  19.162  1.00  0.00    -0.000 C 
BRANCH  15  16
ATOM     16  C   UNL     1     -18.784   5.770  20.095  1.00  0.00    -0.000 C 
BRANCH  16  17
ATOM     17  C   UNL     1     -17.816   4.588  19.884  1.00  0.00    -0.000 C 
BRANCH  17  18
ATOM     18  C   UNL     1     -16.327   4.970  19.827  1.00  0.00    -0.003 C 
ATOM     19  C   UNL     1     -15.538   4.473  21.037  1.00  0.00     0.004 C 
ENDBRANCH  17  18
ENDBRANCH  16  17
ENDBRANCH  15  16
ENDBRANCH  14  15
ENDBRANCH  13  14
ENDBRANCH  12  13
ENDBRANCH   1  12
TORSDOF 14
ENDMDL
MODEL 7
REMARK VINA RESULT:    -4.156      3.392      5.198
REMARK INTER + INTRA:          -9.567
REMARK INTER:                  -7.138
REMARK INTRA:                  -2.430
REMARK UNBOUND:                -2.011
REMARK SMILES CCCCCCCCCCCCCC[C@H](C)C(=O)[O-]
REMARK SMILES IDX 9 1 10 2 11 3 12 4 13 5 14 6 15 7 16 8 17 9 18 10 19 11 8 12
REMARK SMILES IDX 7 13 6 14 5 15 4 16 3 17 2 18 1 19
REMARK H PARENT
REMARK Flexibility Score: inf
ROOT
ATOM      1  C   UNL     1     -19.051  13.427  17.461  1.00  0.00     0.000 C 
ENDROOT
BRANCH   1   2
ATOM      2  C   UNL     1     -19.439  12.066  18.061  1.00  0.00     0.000 C 
BRANCH   2   3
ATOM      3  C   UNL     1     -20.861  11.630  17.675  1.00  0.00     0.000 C 
BRANCH   3   4
ATOM      4  C   UNL     1     -20.833  10.344  16.839  1.00  0.00     0.000 C 
BRANCH   4   5
ATOM      5  C   UNL     1     -19.400   9.817  16.684  1.00  0.00     0.001 C 
BRANCH   5   6
ATOM      6  C   UNL     1     -18.880   9.863  15.232  1.00  0.00     0.009 C 
BRANCH   6   7
ATOM      7  C   UNL     1     -19.945  10.023  14.116  1.00  0.00     0.032 C 
ATOM      8  C   UNL     1     -20.562   8.682  13.689  1.00  0.00     0.014 C 
BRANCH   7   9
ATOM      9  C   UNL     1     -19.432  10.819  12.941  1.00  0.00     0.044 C 
ATOM     10  O   UNL     1     -20.215  11.129  12.006  1.00  0.00    -0.550 OA
ATOM     11  O   UNL     1     -18.097  11.202  12.861  1.00  0.00    -0.550 OA
ENDBRANCH   7   9
ENDBRANCH   6   7
ENDBRANCH   5   6
ENDBRANCH   4   5
ENDBRANCH   3   4
ENDBRANCH   2   3
ENDBRANCH   1   2
BRANCH   1  12
ATOM     12  C   UNL     1     -18.304  13.291  16.123  1.00  0.00     0.000 C 
BRANCH  12  13
ATOM     13  C   UNL     1     -18.942  14.131  15.003  1.00  0.00    -0.000 C 
BRANCH  13  14
ATOM     14  C   UNL     1     -20.421  13.784  14.769  1.00  0.00    -0.000 C 
BRANCH  14  15
ATOM     15  C   UNL     1     -21.309  15.022  14.958  1.00  0.00    -0.000 C 
BRANCH  15  16
ATOM     16  C   UNL     1     -22.031  15.040  16.318  1.00  0.00    -0.000 C 
BRANCH  16  17
ATOM     17  C   UNL     1     -21.680  16.234  17.228  1.00  0.00    -0.000 C 
BRANCH  17  18
ATOM     18  C   UNL     1     -20.282  16.835  17.002  1.00  0.00    -0.003 C 
ATOM     19  C   UNL     1     -19.707  17.492  18.255  1.00  0.00     0.004 C 
ENDBRANCH  17  18
ENDBRANCH  16  17
ENDBRANCH  15  16
ENDBRANCH  14  15
ENDBRANCH  13  14
ENDBRANCH  12  13
ENDBRANCH   1  12
TORSDOF 14
ENDMDL
MODEL 8
REMARK VINA RESULT:    -4.142      3.716      6.066
REMARK INTER + INTRA:          -9.543
REMARK INTER:                  -7.375
REMARK INTRA:                  -2.169
REMARK UNBOUND:                -2.011
REMARK SMILES CCCCCCCCCCCCCC[C@H](C)C(=O)[O-]
REMARK SMILES IDX 9 1 10 2 11 3 12 4 13 5 14 6 15 7 16 8 17 9 18 10 19 11 8 12
REMARK SMILES IDX 7 13 6 14 5 15 4 16 3 17 2 18 1 19
REMARK H PARENT
REMARK Flexibility Score: inf
ROOT
ATOM      1  C   UNL     1     -23.710  10.489  18.272  1.00  0.00     0.000 C 
ENDROOT
BRANCH   1   2
ATOM      2  C   UNL     1     -22.383  10.761  18.999  1.00  0.00     0.000 C 
BRANCH   2   3
ATOM      3  C   UNL     1     -21.158  10.559  18.094  1.00  0.00     0.000 C 
BRANCH   3   4
ATOM      4  C   UNL     1     -19.937  11.305  18.649  1.00  0.00     0.000 C 
BRANCH   4   5
ATOM      5  C   UNL     1     -19.283  12.176  17.568  1.00  0.00     0.001 C 
BRANCH   5   6
ATOM      6  C   UNL     1     -19.473  11.630  16.138  1.00  0.00     0.009 C 
BRANCH   6   7
ATOM      7  C   UNL     1     -18.423  12.065  15.082  1.00  0.00     0.032 C 
ATOM      8  C   UNL     1     -17.764  13.411  15.420  1.00  0.00     0.014 C 
BRANCH   7   9
ATOM      9  C   UNL     1     -18.973  12.032  13.677  1.00  0.00     0.044 C 
ATOM     10  O   UNL     1     -19.885  12.833  13.343  1.00  0.00    -0.550 OA
ATOM     11  O   UNL     1     -18.503  11.114  12.744  1.00  0.00    -0.550 OA
ENDBRANCH   7   9
ENDBRANCH   6   7
ENDBRANCH   5   6
ENDBRANCH   4   5
ENDBRANCH   3   4
ENDBRANCH   2   3
ENDBRANCH   1   2
BRANCH   1  12
ATOM     12  C   UNL     1     -24.044  11.570  17.229  1.00  0.00     0.000 C 
BRANCH  12  13
ATOM     13  C   UNL     1     -24.568  12.866  17.870  1.00  0.00    -0.000 C 
BRANCH  13  14
ATOM     14  C   UNL     1     -23.849  14.120  17.348  1.00  0.00    -0.000 C 
BRANCH  14  15
ATOM     15  C   UNL     1     -22.397  13.798  16.964  1.00  0.00    -0.000 C 
BRANCH  15  16
ATOM     16  C   UNL     1     -21.944  14.516  15.680  1.00  0.00    -0.000 C 
BRANCH  16  17
ATOM     17  C   UNL     1     -20.941  15.667  15.895  1.00  0.00    -0.000 C 
BRANCH  17  18
ATOM     18  C   UNL     1     -20.210  15.647  17.249  1.00  0.00    -0.003 C 
ATOM     19  C   UNL     1     -19.874  17.045  17.765  1.00  0.00     0.004 C 
ENDBRANCH  17  18
ENDBRANCH  16  17
ENDBRANCH  15  16
ENDBRANCH  14  15
ENDBRANCH  13  14
ENDBRANCH  12  13
ENDBRANCH   1  12
TORSDOF 14
ENDMDL
MODEL 9
REMARK VINA RESULT:    -4.078      3.139      6.529
REMARK INTER + INTRA:          -9.427
REMARK INTER:                  -7.297
REMARK INTRA:                  -2.130
REMARK UNBOUND:                -2.011
REMARK SMILES CCCCCCCCCCCCCC[C@H](C)C(=O)[O-]
REMARK SMILES IDX 9 1 10 2 11 3 12 4 13 5 14 6 15 7 16 8 17 9 18 10 19 11 8 12
REMARK SMILES IDX 7 13 6 14 5 15 4 16 3 17 2 18 1 19
REMARK H PARENT
REMARK Flexibility Score: inf
ROOT
ATOM      1  C   UNL     1     -22.291  11.174  17.579  1.00  0.00     0.000 C 
ENDROOT
BRANCH   1   2
ATOM      2  C   UNL     1     -21.300  11.097  18.752  1.00  0.00     0.000 C 
BRANCH   2   3
ATOM      3  C   UNL     1     -19.841  11.286  18.310  1.00  0.00     0.000 C 
BRANCH   3   4
ATOM      4  C   UNL     1     -19.672  12.586  17.515  1.00  0.00     0.000 C 
BRANCH   4   5
ATOM      5  C   UNL     1     -18.977  12.326  16.171  1.00  0.00     0.001 C 
BRANCH   5   6
ATOM      6  C   UNL     1     -19.051  10.855  15.713  1.00  0.00     0.009 C 
BRANCH   6   7
ATOM      7  C   UNL     1     -19.945  10.554  14.482  1.00  0.00     0.032 C 
ATOM      8  C   UNL     1     -20.127   9.049  14.234  1.00  0.00     0.014 C 
BRANCH   7   9
ATOM      9  C   UNL     1     -19.488  11.288  13.246  1.00  0.00     0.044 C 
ATOM     10  O   UNL     1     -18.471  10.889  12.621  1.00  0.00    -0.550 OA
ATOM     11  O   UNL     1     -20.162  12.417  12.791  1.00  0.00    -0.550 OA
ENDBRANCH   7   9
ENDBRANCH   6   7
ENDBRANCH   5   6
ENDBRANCH   4   5
ENDBRANCH   3   4
ENDBRANCH   2   3
ENDBRANCH   1   2
BRANCH   1  12
ATOM     12  C   UNL     1     -22.585   9.794  16.964  1.00  0.00     0.000 C 
BRANCH  12  13
ATOM     13  C   UNL     1     -22.429   8.650  17.980  1.00  0.00    -0.000 C 
BRANCH  13  14
ATOM     14  C   UNL     1     -21.518   7.522  17.469  1.00  0.00    -0.000 C 
BRANCH  14  15
ATOM     15  C   UNL     1     -20.084   7.701  17.989  1.00  0.00    -0.000 C 
BRANCH  15  16
ATOM     16  C   UNL     1     -19.349   6.364  18.190  1.00  0.00    -0.000 C 
BRANCH  16  17
ATOM     17  C   UNL     1     -18.734   6.160  19.589  1.00  0.00    -0.000 C 
BRANCH  17  18
ATOM     18  C   UNL     1     -19.425   5.092  20.453  1.00  0.00    -0.003 C 
ATOM     19  C   UNL     1     -20.827   4.741  19.959  1.00  0.00     0.004 C 
ENDBRANCH  17  18
ENDBRANCH  16  17
ENDBRANCH  15  16
ENDBRANCH  14  15
ENDBRANCH  13  14
ENDBRANCH  12  13
ENDBRANCH   1  12
TORSDOF 14
ENDMDL
