MODEL 1
REMARK VINA RESULT:    -4.984      0.000      0.000
REMARK INTER + INTRA:          -6.619
REMARK INTER:                  -5.858
REMARK INTRA:                  -0.760
REMARK UNBOUND:                -0.760
REMARK SMILES C=C(C)[C@H]1CC[C@]2(CO)CC[C@@]3(C)[C@@H](CC[C@H]4[C@]5(C)CC[C@H](O)C(C)(C)[C@@H]5CC[C@]43C)[C@H]12
REMARK SMILES IDX 4 1 5 2 6 3 7 4 32 5 14 6 15 7 16 8 17 9 18 10 20 11 21 12
REMARK SMILES IDX 22 13 24 14 27 15 28 16 29 17 30 18 12 19 11 20 10 21 13 22
REMARK SMILES IDX 31 23 25 24 26 25 19 26 2 27 3 28 1 29 8 30 9 31 23 33
REMARK H PARENT 9 32 23 34
REMARK Flexibility Score: inf
ROOT
ATOM      1  C   UNL     1      -0.894   8.567  19.951  1.00  0.00     0.018 C 
ATOM      2  C   UNL     1      -1.615   7.351  20.528  1.00  0.00     0.009 C 
ATOM      3  C   UNL     1      -2.309   6.651  19.376  1.00  0.00     0.010 C 
ATOM      4  C   UNL     1      -1.614   7.093  18.064  1.00  0.00    -0.003 C 
ATOM      5  C   UNL     1      -0.680   8.299  18.434  1.00  0.00     0.008 C 
ATOM      6  C   UNL     1       0.839   8.052  18.113  1.00  0.00    -0.000 C 
ATOM      7  C   UNL     1       1.686   9.327  18.370  1.00  0.00     0.005 C 
ATOM      8  C   UNL     1       3.129   9.261  17.830  1.00  0.00     0.005 C 
ATOM      9  C   UNL     1       3.685   7.836  17.539  1.00  0.00     0.002 C 
ATOM     10  C   UNL     1       4.449   7.179  18.788  1.00  0.00    -0.026 C 
ATOM     11  C   UNL     1       5.587   8.148  19.279  1.00  0.00     0.010 C 
ATOM     12  C   UNL     1       6.704   7.436  20.044  1.00  0.00     0.033 C 
ATOM     13  C   UNL     1       7.469   6.415  19.183  1.00  0.00     0.120 C 
ATOM     14  C   UNL     1       6.617   5.774  18.019  1.00  0.00    -0.006 C 
ATOM     15  C   UNL     1       5.076   5.773  18.410  1.00  0.00     0.003 C 
ATOM     16  C   UNL     1       4.198   4.930  17.443  1.00  0.00     0.005 C 
ATOM     17  C   UNL     1       2.777   5.443  17.198  1.00  0.00     0.008 C 
ATOM     18  C   UNL     1       2.678   6.920  16.676  1.00  0.00    -0.024 C 
ATOM     19  C   UNL     1       1.135   7.460  16.688  1.00  0.00    -0.024 C 
ATOM     20  C   UNL     1       0.087   6.330  16.326  1.00  0.00     0.008 C 
ATOM     21  C   UNL     1      -0.798   5.899  17.497  1.00  0.00     0.010 C 
ATOM     22  C   UNL     1       0.878   8.579  15.614  1.00  0.00     0.012 C 
ATOM     23  C   UNL     1       3.175   6.891  15.196  1.00  0.00     0.012 C 
ATOM     24  C   UNL     1       6.897   6.504  16.671  1.00  0.00     0.014 C 
ATOM     25  C   UNL     1       7.107   4.308  17.851  1.00  0.00     0.014 C 
ATOM     26  C   UNL     1       3.512   6.984  20.022  1.00  0.00     0.012 C 
ENDROOT
BRANCH   1  27
ATOM     27  C   UNL     1      -1.618   9.886  20.212  1.00  0.00    -0.077 C 
ATOM     28  C   UNL     1      -1.522  11.004  19.203  1.00  0.00     0.039 C 
ATOM     29  C   UNL     1      -2.367  10.083  21.311  1.00  0.00     0.008 C 
ENDBRANCH   1  27
BRANCH   4  30
ATOM     30  C   UNL     1      -2.704   7.544  17.045  1.00  0.00     0.163 C 
BRANCH  30  31
ATOM     31  O   UNL     1      -2.472   8.860  16.617  1.00  0.00    -0.396 OA
ATOM     32  H   UNL     1      -2.757   9.451  17.366  1.00  0.00     0.210 HD
ENDBRANCH  30  31
ENDBRANCH   4  30
BRANCH  13  33
ATOM     33  O   UNL     1       8.638   7.025  18.692  1.00  0.00    -0.393 OA
ATOM     34  H   UNL     1       8.361   7.666  17.985  1.00  0.00     0.210 HD
ENDBRANCH  13  33
TORSDOF 4
ENDMDL
MODEL 2
REMARK VINA RESULT:    -3.399      1.757      7.664
REMARK INTER + INTRA:          -4.756
REMARK INTER:                  -4.125
REMARK INTRA:                  -0.631
REMARK UNBOUND:                -0.760
REMARK SMILES C=C(C)[C@H]1CC[C@]2(CO)CC[C@@]3(C)[C@@H](CC[C@H]4[C@]5(C)CC[C@H](O)C(C)(C)[C@@H]5CC[C@]43C)[C@H]12
REMARK SMILES IDX 4 1 5 2 6 3 7 4 32 5 14 6 15 7 16 8 17 9 18 10 20 11 21 12
REMARK SMILES IDX 22 13 24 14 27 15 28 16 29 17 30 18 12 19 11 20 10 21 13 22
REMARK SMILES IDX 31 23 25 24 26 25 19 26 2 27 3 28 1 29 8 30 9 31 23 33
REMARK H PARENT 9 32 23 34
REMARK Flexibility Score: inf
ROOT
ATOM      1  C   UNL     1       4.223   3.206  16.969  1.00  0.00     0.018 C 
ATOM      2  C   UNL     1       4.068   2.381  18.244  1.00  0.00     0.009 C 
ATOM      3  C   UNL     1       5.043   2.938  19.263  1.00  0.00     0.010 C 
ATOM      4  C   UNL     1       5.403   4.382  18.833  1.00  0.00    -0.003 C 
ATOM      5  C   UNL     1       4.850   4.570  17.377  1.00  0.00     0.008 C 
ATOM      6  C   UNL     1       3.805   5.736  17.235  1.00  0.00    -0.000 C 
ATOM      7  C   UNL     1       3.404   5.959  15.753  1.00  0.00     0.005 C 
ATOM      8  C   UNL     1       2.599   7.248  15.490  1.00  0.00     0.005 C 
ATOM      9  C   UNL     1       1.907   7.885  16.732  1.00  0.00     0.002 C 
ATOM     10  C   UNL     1       0.409   7.362  16.970  1.00  0.00    -0.026 C 
ATOM     11  C   UNL     1      -0.441   7.584  15.666  1.00  0.00     0.010 C 
ATOM     12  C   UNL     1      -1.947   7.663  15.926  1.00  0.00     0.033 C 
ATOM     13  C   UNL     1      -2.345   8.861  16.805  1.00  0.00     0.120 C 
ATOM     14  C   UNL     1      -1.226   9.333  17.812  1.00  0.00    -0.006 C 
ATOM     15  C   UNL     1      -0.280   8.110  18.186  1.00  0.00     0.003 C 
ATOM     16  C   UNL     1       0.684   8.419  19.365  1.00  0.00     0.005 C 
ATOM     17  C   UNL     1       2.061   7.753  19.306  1.00  0.00     0.008 C 
ATOM     18  C   UNL     1       2.887   8.037  18.003  1.00  0.00    -0.024 C 
ATOM     19  C   UNL     1       4.218   7.091  17.915  1.00  0.00    -0.024 C 
ATOM     20  C   UNL     1       4.876   6.826  19.330  1.00  0.00     0.008 C 
ATOM     21  C   UNL     1       4.743   5.384  19.822  1.00  0.00     0.010 C 
ATOM     22  C   UNL     1       5.372   7.747  17.073  1.00  0.00     0.012 C 
ATOM     23  C   UNL     1       3.351   9.526  18.098  1.00  0.00     0.012 C 
ATOM     24  C   UNL     1      -0.441  10.547  17.230  1.00  0.00     0.014 C 
ATOM     25  C   UNL     1      -1.949   9.835  19.094  1.00  0.00     0.014 C 
ATOM     26  C   UNL     1       0.353   5.826  17.243  1.00  0.00     0.012 C 
ENDROOT
BRANCH   1  27
ATOM     27  C   UNL     1       5.027   2.499  15.879  1.00  0.00    -0.077 C 
ATOM     28  C   UNL     1       5.870   1.298  16.233  1.00  0.00     0.039 C 
ATOM     29  C   UNL     1       4.992   2.898  14.596  1.00  0.00     0.008 C 
ENDBRANCH   1  27
BRANCH   4  30
ATOM     30  C   UNL     1       6.954   4.540  18.849  1.00  0.00     0.163 C 
BRANCH  30  31
ATOM     31  O   UNL     1       7.437   4.849  17.568  1.00  0.00    -0.396 OA
ATOM     32  H   UNL     1       7.826   5.763  17.631  1.00  0.00     0.210 HD
ENDBRANCH  30  31
ENDBRANCH   4  30
BRANCH  13  33
ATOM     33  O   UNL     1      -2.765   9.914  15.969  1.00  0.00    -0.393 OA
ATOM     34  H   UNL     1      -3.427   9.537  15.333  1.00  0.00     0.210 HD
ENDBRANCH  13  33
TORSDOF 4
ENDMDL
MODEL 3
REMARK VINA RESULT:    -2.704      4.945      7.863
REMARK INTER + INTRA:          -3.939
REMARK INTER:                  -3.495
REMARK INTRA:                  -0.444
REMARK UNBOUND:                -0.760
REMARK SMILES C=C(C)[C@H]1CC[C@]2(CO)CC[C@@]3(C)[C@@H](CC[C@H]4[C@]5(C)CC[C@H](O)C(C)(C)[C@@H]5CC[C@]43C)[C@H]12
REMARK SMILES IDX 4 1 5 2 6 3 7 4 32 5 14 6 15 7 16 8 17 9 18 10 20 11 21 12
REMARK SMILES IDX 22 13 24 14 27 15 28 16 29 17 30 18 12 19 11 20 10 21 13 22
REMARK SMILES IDX 31 23 25 24 26 25 19 26 2 27 3 28 1 29 8 30 9 31 23 33
REMARK H PARENT 9 32 23 34
REMARK Flexibility Score: inf
ROOT
ATOM      1  C   UNL     1       6.874   1.814  16.855  1.00  0.00     0.018 C 
ATOM      2  C   UNL     1       5.734   1.676  15.849  1.00  0.00     0.009 C 
ATOM      3  C   UNL     1       4.465   1.415  16.639  1.00  0.00     0.010 C 
ATOM      4  C   UNL     1       4.702   1.904  18.090  1.00  0.00    -0.003 C 
ATOM      5  C   UNL     1       6.238   2.193  18.224  1.00  0.00     0.008 C 
ATOM      6  C   UNL     1       6.578   3.678  18.610  1.00  0.00    -0.000 C 
ATOM      7  C   UNL     1       8.098   3.864  18.863  1.00  0.00     0.005 C 
ATOM      8  C   UNL     1       8.484   5.211  19.506  1.00  0.00     0.005 C 
ATOM      9  C   UNL     1       7.430   6.351  19.389  1.00  0.00     0.002 C 
ATOM     10  C   UNL     1       7.620   7.268  18.085  1.00  0.00    -0.026 C 
ATOM     11  C   UNL     1       9.085   7.839  18.052  1.00  0.00     0.010 C 
ATOM     12  C   UNL     1       9.221   9.119  17.225  1.00  0.00     0.033 C 
ATOM     13  C   UNL     1       8.407  10.294  17.796  1.00  0.00     0.120 C 
ATOM     14  C   UNL     1       7.117   9.866  18.598  1.00  0.00    -0.006 C 
ATOM     15  C   UNL     1       6.583   8.467  18.064  1.00  0.00     0.003 C 
ATOM     16  C   UNL     1       5.178   8.096  18.614  1.00  0.00     0.005 C 
ATOM     17  C   UNL     1       4.916   6.607  18.855  1.00  0.00     0.008 C 
ATOM     18  C   UNL     1       5.941   5.892  19.803  1.00  0.00    -0.024 C 
ATOM     19  C   UNL     1       5.736   4.270  19.798  1.00  0.00    -0.024 C 
ATOM     20  C   UNL     1       4.216   3.845  19.669  1.00  0.00     0.008 C 
ATOM     21  C   UNL     1       3.862   3.189  18.334  1.00  0.00     0.010 C 
ATOM     22  C   UNL     1       6.209   3.596  21.137  1.00  0.00     0.012 C 
ATOM     23  C   UNL     1       5.641   6.418  21.243  1.00  0.00     0.012 C 
ATOM     24  C   UNL     1       7.404   9.858  20.130  1.00  0.00     0.014 C 
ATOM     25  C   UNL     1       6.041  10.959  18.345  1.00  0.00     0.014 C 
ATOM     26  C   UNL     1       7.462   6.457  16.760  1.00  0.00     0.012 C 
ENDROOT
BRANCH   1  27
ATOM     27  C   UNL     1       7.757   0.571  16.949  1.00  0.00    -0.077 C 
ATOM     28  C   UNL     1       9.095   0.656  17.642  1.00  0.00     0.039 C 
ATOM     29  C   UNL     1       7.372  -0.616  16.452  1.00  0.00     0.008 C 
ENDBRANCH   1  27
BRANCH   4  30
ATOM     30  C   UNL     1       4.275   0.775  19.077  1.00  0.00     0.163 C 
BRANCH  30  31
ATOM     31  O   UNL     1       3.404  -0.131  18.452  1.00  0.00    -0.396 OA
ATOM     32  H   UNL     1       3.674  -0.161  17.495  1.00  0.00     0.210 HD
ENDBRANCH  30  31
ENDBRANCH   4  30
BRANCH  13  33
ATOM     33  O   UNL     1       9.260  11.096  18.577  1.00  0.00    -0.393 OA
ATOM     34  H   UNL     1       9.802  11.645  17.951  1.00  0.00     0.210 HD
ENDBRANCH  13  33
TORSDOF 4
ENDMDL
MODEL 4
REMARK VINA RESULT:    -2.703      1.682      7.386
REMARK INTER + INTRA:          -3.937
REMARK INTER:                  -3.361
REMARK INTRA:                  -0.576
REMARK UNBOUND:                -0.760
REMARK SMILES C=C(C)[C@H]1CC[C@]2(CO)CC[C@@]3(C)[C@@H](CC[C@H]4[C@]5(C)CC[C@H](O)C(C)(C)[C@@H]5CC[C@]43C)[C@H]12
REMARK SMILES IDX 4 1 5 2 6 3 7 4 32 5 14 6 15 7 16 8 17 9 18 10 20 11 21 12
REMARK SMILES IDX 22 13 24 14 27 15 28 16 29 17 30 18 12 19 11 20 10 21 13 22
REMARK SMILES IDX 31 23 25 24 26 25 19 26 2 27 3 28 1 29 8 30 9 31 23 33
REMARK H PARENT 9 32 23 34
REMARK Flexibility Score: inf
ROOT
ATOM      1  C   UNL     1       6.188   8.212  19.513  1.00  0.00     0.018 C 
ATOM      2  C   UNL     1       7.189   8.909  18.595  1.00  0.00     0.009 C 
ATOM      3  C   UNL     1       7.607   7.904  17.539  1.00  0.00     0.010 C 
ATOM      4  C   UNL     1       6.516   6.806  17.472  1.00  0.00    -0.003 C 
ATOM      5  C   UNL     1       5.584   7.020  18.716  1.00  0.00     0.008 C 
ATOM      6  C   UNL     1       4.080   7.291  18.349  1.00  0.00    -0.000 C 
ATOM      7  C   UNL     1       3.190   7.355  19.619  1.00  0.00     0.005 C 
ATOM      8  C   UNL     1       1.673   7.346  19.343  1.00  0.00     0.005 C 
ATOM      9  C   UNL     1       1.239   7.740  17.901  1.00  0.00     0.002 C 
ATOM     10  C   UNL     1       0.952   9.308  17.723  1.00  0.00    -0.026 C 
ATOM     11  C   UNL     1      -0.110   9.773  18.787  1.00  0.00     0.010 C 
ATOM     12  C   UNL     1      -0.864  11.041  18.380  1.00  0.00     0.033 C 
ATOM     13  C   UNL     1      -1.710  10.856  17.107  1.00  0.00     0.120 C 
ATOM     14  C   UNL     1      -1.153   9.772  16.105  1.00  0.00    -0.006 C 
ATOM     15  C   UNL     1       0.423   9.640  16.266  1.00  0.00     0.003 C 
ATOM     16  C   UNL     1       1.085   8.790  15.146  1.00  0.00     0.005 C 
ATOM     17  C   UNL     1       2.302   7.957  15.557  1.00  0.00     0.008 C 
ATOM     18  C   UNL     1       2.063   6.967  16.751  1.00  0.00    -0.024 C 
ATOM     19  C   UNL     1       3.465   6.315  17.282  1.00  0.00    -0.024 C 
ATOM     20  C   UNL     1       4.499   6.047  16.112  1.00  0.00     0.008 C 
ATOM     21  C   UNL     1       5.727   6.958  16.142  1.00  0.00     0.010 C 
ATOM     22  C   UNL     1       3.263   4.904  17.945  1.00  0.00     0.012 C 
ATOM     23  C   UNL     1       1.171   5.815  16.187  1.00  0.00     0.012 C 
ATOM     24  C   UNL     1      -1.896   8.415  16.299  1.00  0.00     0.014 C 
ATOM     25  C   UNL     1      -1.485  10.268  14.669  1.00  0.00     0.014 C 
ATOM     26  C   UNL     1       2.219  10.179  17.996  1.00  0.00     0.012 C 
ENDROOT
BRANCH   1  27
ATOM     27  C   UNL     1       6.786   7.775  20.849  1.00  0.00    -0.077 C 
ATOM     28  C   UNL     1       7.025   6.310  21.117  1.00  0.00     0.039 C 
ATOM     29  C   UNL     1       7.134   8.661  21.797  1.00  0.00     0.008 C 
ENDBRANCH   1  27
BRANCH   4  30
ATOM     30  C   UNL     1       7.204   5.409  17.544  1.00  0.00     0.163 C 
BRANCH  30  31
ATOM     31  O   UNL     1       8.527   5.480  17.083  1.00  0.00    -0.396 OA
ATOM     32  H   UNL     1       9.080   4.986  17.747  1.00  0.00     0.210 HD
ENDBRANCH  30  31
ENDBRANCH   4  30
BRANCH  13  33
ATOM     33  O   UNL     1      -3.038  10.579  17.484  1.00  0.00    -0.393 OA
ATOM     34  H   UNL     1      -3.519  10.284  16.667  1.00  0.00     0.210 HD
ENDBRANCH  13  33
TORSDOF 4
ENDMDL
