MODEL 1
REMARK VINA RESULT:    -3.545      0.000      0.000
REMARK INTER + INTRA:          -4.714
REMARK INTER:                  -4.581
REMARK INTRA:                  -0.133
REMARK UNBOUND:                -0.133
REMARK SMILES CCCCCCC(=O)[O-]
REMARK SMILES IDX 5 1 6 2 7 3 8 4 9 5 4 6 3 7 2 8 1 9
REMARK H PARENT
REMARK Flexibility Score: inf
ROOT
ATOM      1  C   UNL     1       6.415 -20.379  23.727  1.00  0.00     0.006 C 
ENDROOT
BRANCH   1   2
ATOM      2  C   UNL     1       6.691 -18.901  24.044  1.00  0.00     0.053 C 
BRANCH   2   3
ATOM      3  C   UNL     1       7.066 -18.697  25.480  1.00  0.00     0.041 C 
ATOM      4  O   UNL     1       6.782 -19.571  26.341  1.00  0.00    -0.550 OA
ATOM      5  O   UNL     1       7.700 -17.524  25.873  1.00  0.00    -0.550 OA
ENDBRANCH   2   3
ENDBRANCH   1   2
BRANCH   1   6
ATOM      6  C   UNL     1       7.490 -21.059  22.856  1.00  0.00     0.000 C 
BRANCH   6   7
ATOM      7  C   UNL     1       7.064 -21.351  21.405  1.00  0.00    -0.000 C 
BRANCH   7   8
ATOM      8  C   UNL     1       7.497 -22.743  20.924  1.00  0.00    -0.003 C 
ATOM      9  C   UNL     1       8.881 -23.103  21.456  1.00  0.00     0.004 C 
ENDBRANCH   7   8
ENDBRANCH   6   7
ENDBRANCH   1   6
TORSDOF 5
ENDMDL
MODEL 2
REMARK VINA RESULT:    -3.514      2.438      3.832
REMARK INTER + INTRA:          -4.674
REMARK INTER:                  -4.469
REMARK INTRA:                  -0.205
REMARK UNBOUND:                -0.133
REMARK SMILES CCCCCCC(=O)[O-]
REMARK SMILES IDX 5 1 6 2 7 3 8 4 9 5 4 6 3 7 2 8 1 9
REMARK H PARENT
REMARK Flexibility Score: inf
ROOT
ATOM      1  C   UNL     1       7.656 -17.161  23.116  1.00  0.00     0.006 C 
ENDROOT
BRANCH   1   2
ATOM      2  C   UNL     1       7.831 -15.704  23.573  1.00  0.00     0.053 C 
BRANCH   2   3
ATOM      3  C   UNL     1       9.029 -15.535  24.456  1.00  0.00     0.041 C 
ATOM      4  O   UNL     1      10.110 -15.099  23.982  1.00  0.00    -0.550 OA
ATOM      5  O   UNL     1       8.959 -15.891  25.798  1.00  0.00    -0.550 OA
ENDBRANCH   2   3
ENDBRANCH   1   2
BRANCH   1   6
ATOM      6  C   UNL     1       6.774 -18.022  24.043  1.00  0.00     0.000 C 
BRANCH   6   7
ATOM      7  C   UNL     1       7.470 -19.259  24.640  1.00  0.00    -0.000 C 
BRANCH   7   8
ATOM      8  C   UNL     1       6.764 -20.574  24.281  1.00  0.00    -0.003 C 
ATOM      9  C   UNL     1       7.068 -20.987  22.844  1.00  0.00     0.004 C 
ENDBRANCH   7   8
ENDBRANCH   6   7
ENDBRANCH   1   6
TORSDOF 5
ENDMDL
MODEL 3
REMARK VINA RESULT:    -3.497      3.529      5.079
REMARK INTER + INTRA:          -4.652
REMARK INTER:                  -4.339
REMARK INTRA:                  -0.313
REMARK UNBOUND:                -0.133
REMARK SMILES CCCCCCC(=O)[O-]
REMARK SMILES IDX 5 1 6 2 7 3 8 4 9 5 4 6 3 7 2 8 1 9
REMARK H PARENT
REMARK Flexibility Score: inf
ROOT
ATOM      1  C   UNL     1       7.817 -22.415  20.693  1.00  0.00     0.006 C 
ENDROOT
BRANCH   1   2
ATOM      2  C   UNL     1       8.755 -23.105  21.696  1.00  0.00     0.053 C 
BRANCH   2   3
ATOM      3  C   UNL     1      10.188 -22.735  21.467  1.00  0.00     0.041 C 
ATOM      4  O   UNL     1      10.530 -22.139  20.412  1.00  0.00    -0.550 OA
ATOM      5  O   UNL     1      11.153 -23.080  22.407  1.00  0.00    -0.550 OA
ENDBRANCH   2   3
ENDBRANCH   1   2
BRANCH   1   6
ATOM      6  C   UNL     1       6.873 -21.366  21.314  1.00  0.00     0.000 C 
BRANCH   6   7
ATOM      7  C   UNL     1       7.562 -20.075  21.795  1.00  0.00    -0.000 C 
BRANCH   7   8
ATOM      8  C   UNL     1       7.075 -19.617  23.178  1.00  0.00    -0.003 C 
ATOM      9  C   UNL     1       6.696 -20.811  24.049  1.00  0.00     0.004 C 
ENDBRANCH   7   8
ENDBRANCH   6   7
ENDBRANCH   1   6
TORSDOF 5
ENDMDL
MODEL 4
REMARK VINA RESULT:    -3.491      2.793      4.035
REMARK INTER + INTRA:          -4.644
REMARK INTER:                  -4.377
REMARK INTRA:                  -0.267
REMARK UNBOUND:                -0.133
REMARK SMILES CCCCCCC(=O)[O-]
REMARK SMILES IDX 5 1 6 2 7 3 8 4 9 5 4 6 3 7 2 8 1 9
REMARK H PARENT
REMARK Flexibility Score: inf
ROOT
ATOM      1  C   UNL     1       7.126 -16.315  23.121  1.00  0.00     0.006 C 
ENDROOT
BRANCH   1   2
ATOM      2  C   UNL     1       7.965 -15.103  23.554  1.00  0.00     0.053 C 
BRANCH   2   3
ATOM      3  C   UNL     1       9.064 -15.490  24.495  1.00  0.00     0.041 C 
ATOM      4  O   UNL     1       8.795 -15.856  25.669  1.00  0.00    -0.550 OA
ATOM      5  O   UNL     1      10.390 -15.414  24.084  1.00  0.00    -0.550 OA
ENDBRANCH   2   3
ENDBRANCH   1   2
BRANCH   1   6
ATOM      6  C   UNL     1       7.850 -17.289  22.169  1.00  0.00     0.000 C 
BRANCH   6   7
ATOM      7  C   UNL     1       7.662 -18.782  22.497  1.00  0.00    -0.000 C 
BRANCH   7   8
ATOM      8  C   UNL     1       7.032 -19.015  23.877  1.00  0.00    -0.003 C 
ATOM      9  C   UNL     1       6.654 -20.481  24.068  1.00  0.00     0.004 C 
ENDBRANCH   7   8
ENDBRANCH   6   7
ENDBRANCH   1   6
TORSDOF 5
ENDMDL
MODEL 5
REMARK VINA RESULT:    -3.411      3.390      4.618
REMARK INTER + INTRA:          -4.541
REMARK INTER:                  -4.128
REMARK INTRA:                  -0.414
REMARK UNBOUND:                -0.133
REMARK SMILES CCCCCCC(=O)[O-]
REMARK SMILES IDX 5 1 6 2 7 3 8 4 9 5 4 6 3 7 2 8 1 9
REMARK H PARENT
REMARK Flexibility Score: inf
ROOT
ATOM      1  C   UNL     1       8.301 -16.734  26.001  1.00  0.00     0.006 C 
ENDROOT
BRANCH   1   2
ATOM      2  C   UNL     1       9.689 -16.521  25.379  1.00  0.00     0.053 C 
BRANCH   2   3
ATOM      3  C   UNL     1       9.654 -15.524  24.261  1.00  0.00     0.041 C 
ATOM      4  O   UNL     1       8.560 -15.024  23.891  1.00  0.00    -0.550 OA
ATOM      5  O   UNL     1      10.829 -15.174  23.606  1.00  0.00    -0.550 OA
ENDBRANCH   2   3
ENDBRANCH   1   2
BRANCH   1   6
ATOM      6  C   UNL     1       7.676 -18.116  25.716  1.00  0.00     0.000 C 
BRANCH   6   7
ATOM      7  C   UNL     1       6.784 -18.181  24.463  1.00  0.00    -0.000 C 
BRANCH   7   8
ATOM      8  C   UNL     1       7.454 -18.909  23.289  1.00  0.00    -0.003 C 
ATOM      9  C   UNL     1       7.712 -17.955  22.127  1.00  0.00     0.004 C 
ENDBRANCH   7   8
ENDBRANCH   6   7
ENDBRANCH   1   6
TORSDOF 5
ENDMDL
MODEL 6
REMARK VINA RESULT:    -3.404      1.031      1.452
REMARK INTER + INTRA:          -4.532
REMARK INTER:                  -4.331
REMARK INTRA:                  -0.201
REMARK UNBOUND:                -0.133
REMARK SMILES CCCCCCC(=O)[O-]
REMARK SMILES IDX 5 1 6 2 7 3 8 4 9 5 4 6 3 7 2 8 1 9
REMARK H PARENT
REMARK Flexibility Score: inf
ROOT
ATOM      1  C   UNL     1       7.525 -20.694  23.242  1.00  0.00     0.006 C 
ENDROOT
BRANCH   1   2
ATOM      2  C   UNL     1       6.383 -19.978  23.979  1.00  0.00     0.053 C 
BRANCH   2   3
ATOM      3  C   UNL     1       6.831 -18.682  24.582  1.00  0.00     0.041 C 
ATOM      4  O   UNL     1       6.834 -17.628  23.894  1.00  0.00    -0.550 OA
ATOM      5  O   UNL     1       7.279 -18.647  25.898  1.00  0.00    -0.550 OA
ENDBRANCH   2   3
ENDBRANCH   1   2
BRANCH   1   6
ATOM      6  C   UNL     1       7.476 -20.566  21.705  1.00  0.00     0.000 C 
BRANCH   6   7
ATOM      7  C   UNL     1       7.445 -21.902  20.941  1.00  0.00    -0.000 C 
BRANCH   7   8
ATOM      8  C   UNL     1       8.224 -23.016  21.654  1.00  0.00    -0.003 C 
ATOM      9  C   UNL     1       9.687 -23.028  21.222  1.00  0.00     0.004 C 
ENDBRANCH   7   8
ENDBRANCH   6   7
ENDBRANCH   1   6
TORSDOF 5
ENDMDL
MODEL 7
REMARK VINA RESULT:    -3.388      3.467      5.327
REMARK INTER + INTRA:          -4.511
REMARK INTER:                  -4.358
REMARK INTRA:                  -0.153
REMARK UNBOUND:                -0.133
REMARK SMILES CCCCCCC(=O)[O-]
REMARK SMILES IDX 5 1 6 2 7 3 8 4 9 5 4 6 3 7 2 8 1 9
REMARK H PARENT
REMARK Flexibility Score: inf
ROOT
ATOM      1  C   UNL     1       7.437 -21.143  22.764  1.00  0.00     0.006 C 
ENDROOT
BRANCH   1   2
ATOM      2  C   UNL     1       6.981 -21.519  21.346  1.00  0.00     0.053 C 
BRANCH   2   3
ATOM      3  C   UNL     1       8.003 -22.347  20.631  1.00  0.00     0.041 C 
ATOM      4  O   UNL     1       8.330 -22.070  19.447  1.00  0.00    -0.550 OA
ATOM      5  O   UNL     1       8.570 -23.448  21.262  1.00  0.00    -0.550 OA
ENDBRANCH   2   3
ENDBRANCH   1   2
BRANCH   1   6
ATOM      6  C   UNL     1       6.351 -20.472  23.630  1.00  0.00     0.000 C 
BRANCH   6   7
ATOM      7  C   UNL     1       6.713 -19.072  24.160  1.00  0.00    -0.000 C 
BRANCH   7   8
ATOM      8  C   UNL     1       7.423 -18.202  23.113  1.00  0.00    -0.003 C 
ATOM      9  C   UNL     1       7.391 -16.729  23.509  1.00  0.00     0.004 C 
ENDBRANCH   7   8
ENDBRANCH   6   7
ENDBRANCH   1   6
TORSDOF 5
ENDMDL
MODEL 8
REMARK VINA RESULT:    -3.313      4.484      5.449
REMARK INTER + INTRA:          -4.415
REMARK INTER:                  -4.243
REMARK INTRA:                  -0.172
REMARK UNBOUND:                -0.133
REMARK SMILES CCCCCCC(=O)[O-]
REMARK SMILES IDX 5 1 6 2 7 3 8 4 9 5 4 6 3 7 2 8 1 9
REMARK H PARENT
REMARK Flexibility Score: inf
ROOT
ATOM      1  C   UNL     1       7.922 -16.794  22.523  1.00  0.00     0.006 C 
ENDROOT
BRANCH   1   2
ATOM      2  C   UNL     1       7.950 -15.461  23.286  1.00  0.00     0.053 C 
BRANCH   2   3
ATOM      3  C   UNL     1       9.041 -15.426  24.312  1.00  0.00     0.041 C 
ATOM      4  O   UNL     1      10.209 -15.089  23.986  1.00  0.00    -0.550 OA
ATOM      5  O   UNL     1       8.773 -15.799  25.624  1.00  0.00    -0.550 OA
ENDBRANCH   2   3
ENDBRANCH   1   2
BRANCH   1   6
ATOM      6  C   UNL     1       7.723 -16.657  21.000  1.00  0.00     0.000 C 
BRANCH   6   7
ATOM      7  C   UNL     1       6.762 -15.533  20.567  1.00  0.00    -0.000 C 
BRANCH   7   8
ATOM      8  C   UNL     1       6.856 -15.211  19.069  1.00  0.00    -0.003 C 
ATOM      9  C   UNL     1       8.016 -15.958  18.418  1.00  0.00     0.004 C 
ENDBRANCH   7   8
ENDBRANCH   6   7
ENDBRANCH   1   6
TORSDOF 5
ENDMDL
