MODEL 1
REMARK VINA RESULT:    -4.895      0.000      0.000
REMARK INTER + INTRA:          -5.181
REMARK INTER:                  -5.181
REMARK INTRA:                   0.000
REMARK UNBOUND:                 0.000
REMARK SMILES O=c1ccc2cc(O)c(O)cc2o1
REMARK SMILES IDX 4 1 3 2 2 3 1 4 13 5 12 6 11 7 9 8 7 9 6 10 5 11 8 12 10 14
REMARK H PARENT 8 13 10 15
REMARK Flexibility Score: inf
ROOT
ATOM      1  C   UNL     1      38.999 -20.264   1.767  1.00  0.00     0.019 A 
ATOM      2  C   UNL     1      40.306 -20.749   1.746  1.00  0.00     0.094 A 
ATOM      3  C   UNL     1      40.669 -21.675   0.763  1.00  0.00     0.336 A 
ATOM      4  O   UNL     1      41.845 -22.125   0.726  1.00  0.00    -0.246 OA
ATOM      5  O   UNL     1      39.779 -22.087  -0.137  1.00  0.00    -0.423 OA
ATOM      6  C   UNL     1      38.523 -21.650  -0.152  1.00  0.00     0.142 A 
ATOM      7  C   UNL     1      37.631 -22.118  -1.123  1.00  0.00     0.098 A 
ATOM      8  C   UNL     1      36.305 -21.660  -1.142  1.00  0.00     0.161 A 
ATOM      9  C   UNL     1      35.869 -20.731  -0.186  1.00  0.00     0.158 A 
ATOM     10  C   UNL     1      36.759 -20.258   0.789  1.00  0.00     0.062 A 
ATOM     11  C   UNL     1      38.084 -20.714   0.810  1.00  0.00     0.022 A 
ENDROOT
BRANCH   9  12
ATOM     12  O   UNL     1      34.551 -20.282  -0.214  1.00  0.00    -0.504 OA
ATOM     13  H   UNL     1      34.197 -19.634   0.480  1.00  0.00     0.293 HD
ENDBRANCH   9  12
BRANCH   8  14
ATOM     14  O   UNL     1      35.414 -22.125  -2.108  1.00  0.00    -0.504 OA
ATOM     15  H   UNL     1      35.727 -22.381  -3.038  1.00  0.00     0.293 HD
ENDBRANCH   8  14
TORSDOF 2
ENDMDL
MODEL 2
REMARK VINA RESULT:    -4.646      1.477      4.917
REMARK INTER + INTRA:          -4.918
REMARK INTER:                  -4.918
REMARK INTRA:                   0.000
REMARK UNBOUND:                 0.000
REMARK SMILES O=c1ccc2cc(O)c(O)cc2o1
REMARK SMILES IDX 4 1 3 2 2 3 1 4 13 5 12 6 11 7 9 8 7 9 6 10 5 11 8 12 10 14
REMARK H PARENT 8 13 10 15
REMARK Flexibility Score: inf
ROOT
ATOM      1  C   UNL     1      37.920 -20.055   1.583  1.00  0.00     0.019 A 
ATOM      2  C   UNL     1      37.017 -20.641   0.697  1.00  0.00     0.094 A 
ATOM      3  C   UNL     1      37.487 -21.583  -0.224  1.00  0.00     0.336 A 
ATOM      4  O   UNL     1      36.688 -22.125  -1.033  1.00  0.00    -0.246 OA
ATOM      5  O   UNL     1      38.775 -21.913  -0.253  1.00  0.00    -0.423 OA
ATOM      6  C   UNL     1      39.670 -21.379   0.574  1.00  0.00     0.142 A 
ATOM      7  C   UNL     1      41.012 -21.764   0.498  1.00  0.00     0.098 A 
ATOM      8  C   UNL     1      41.958 -21.202   1.368  1.00  0.00     0.161 A 
ATOM      9  C   UNL     1      41.561 -20.250   2.317  1.00  0.00     0.158 A 
ATOM     10  C   UNL     1      40.216 -19.859   2.399  1.00  0.00     0.062 A 
ATOM     11  C   UNL     1      39.269 -20.420   1.530  1.00  0.00     0.022 A 
ENDROOT
BRANCH   9  12
ATOM     12  O   UNL     1      42.508 -19.698   3.177  1.00  0.00    -0.504 OA
ATOM     13  H   UNL     1      43.498 -19.725   2.963  1.00  0.00     0.293 HD
ENDBRANCH   9  12
BRANCH   8  14
ATOM     14  O   UNL     1      43.297 -21.585   1.294  1.00  0.00    -0.504 OA
ATOM     15  H   UNL     1      43.752 -21.751   0.403  1.00  0.00     0.293 HD
ENDBRANCH   8  14
TORSDOF 2
ENDMDL
MODEL 3
REMARK VINA RESULT:    -4.644      1.351      2.337
REMARK INTER + INTRA:          -4.916
REMARK INTER:                  -4.916
REMARK INTRA:                   0.000
REMARK UNBOUND:                 0.000
REMARK SMILES O=c1ccc2cc(O)c(O)cc2o1
REMARK SMILES IDX 4 1 3 2 2 3 1 4 13 5 12 6 11 7 9 8 7 9 6 10 5 11 8 12 10 14
REMARK H PARENT 8 13 10 15
REMARK Flexibility Score: inf
ROOT
ATOM      1  C   UNL     1      39.755 -21.865   0.169  1.00  0.00     0.019 A 
ATOM      2  C   UNL     1      40.508 -21.338   1.217  1.00  0.00     0.094 A 
ATOM      3  C   UNL     1      39.893 -20.462   2.119  1.00  0.00     0.336 A 
ATOM      4  O   UNL     1      40.555 -19.975   3.073  1.00  0.00    -0.246 OA
ATOM      5  O   UNL     1      38.611 -20.138   1.976  1.00  0.00    -0.423 OA
ATOM      6  C   UNL     1      37.856 -20.619   0.991  1.00  0.00     0.142 A 
ATOM      7  C   UNL     1      36.513 -20.243   0.891  1.00  0.00     0.098 A 
ATOM      8  C   UNL     1      35.715 -20.747  -0.147  1.00  0.00     0.161 A 
ATOM      9  C   UNL     1      36.263 -21.629  -1.089  1.00  0.00     0.158 A 
ATOM     10  C   UNL     1      37.609 -22.010  -0.994  1.00  0.00     0.062 A 
ATOM     11  C   UNL     1      38.408 -21.507   0.042  1.00  0.00     0.022 A 
ENDROOT
BRANCH   9  12
ATOM     12  O   UNL     1      35.462 -22.125  -2.116  1.00  0.00    -0.504 OA
ATOM     13  H   UNL     1      34.476 -22.313  -1.975  1.00  0.00     0.293 HD
ENDBRANCH   9  12
BRANCH   8  14
ATOM     14  O   UNL     1      34.376 -20.374  -0.249  1.00  0.00    -0.504 OA
ATOM     15  H   UNL     1      33.762 -20.788  -0.942  1.00  0.00     0.293 HD
ENDBRANCH   8  14
TORSDOF 2
ENDMDL
MODEL 4
REMARK VINA RESULT:    -4.621      2.033      5.478
REMARK INTER + INTRA:          -4.891
REMARK INTER:                  -4.891
REMARK INTRA:                   0.000
REMARK UNBOUND:                 0.000
REMARK SMILES O=c1ccc2cc(O)c(O)cc2o1
REMARK SMILES IDX 4 1 3 2 2 3 1 4 13 5 12 6 11 7 9 8 7 9 6 10 5 11 8 12 10 14
REMARK H PARENT 8 13 10 15
REMARK Flexibility Score: inf
ROOT
ATOM      1  C   UNL     1      38.574 -21.534   0.009  1.00  0.00     0.019 A 
ATOM      2  C   UNL     1      37.232 -21.388   0.355  1.00  0.00     0.094 A 
ATOM      3  C   UNL     1      36.908 -20.744   1.555  1.00  0.00     0.336 A 
ATOM      4  O   UNL     1      35.701 -20.601   1.886  1.00  0.00    -0.246 OA
ATOM      5  O   UNL     1      37.867 -20.280   2.351  1.00  0.00    -0.423 OA
ATOM      6  C   UNL     1      39.160 -20.398   2.058  1.00  0.00     0.142 A 
ATOM      7  C   UNL     1      40.125 -19.890   2.934  1.00  0.00     0.098 A 
ATOM      8  C   UNL     1      41.489 -20.014   2.629  1.00  0.00     0.161 A 
ATOM      9  C   UNL     1      41.889 -20.648   1.445  1.00  0.00     0.158 A 
ATOM     10  C   UNL     1      40.926 -21.159   0.562  1.00  0.00     0.062 A 
ATOM     11  C   UNL     1      39.562 -21.037   0.865  1.00  0.00     0.022 A 
ENDROOT
BRANCH   9  12
ATOM     12  O   UNL     1      43.245 -20.765   1.150  1.00  0.00    -0.504 OA
ATOM     13  H   UNL     1      43.936 -20.908   1.879  1.00  0.00     0.293 HD
ENDBRANCH   9  12
BRANCH   8  14
ATOM     14  O   UNL     1      42.453 -19.509   3.500  1.00  0.00    -0.504 OA
ATOM     15  H   UNL     1      42.954 -18.651   3.296  1.00  0.00     0.293 HD
ENDBRANCH   8  14
TORSDOF 2
ENDMDL
MODEL 5
REMARK VINA RESULT:    -4.565      1.634      5.114
REMARK INTER + INTRA:          -4.832
REMARK INTER:                  -4.832
REMARK INTRA:                   0.000
REMARK UNBOUND:                 0.000
REMARK SMILES O=c1ccc2cc(O)c(O)cc2o1
REMARK SMILES IDX 4 1 3 2 2 3 1 4 13 5 12 6 11 7 9 8 7 9 6 10 5 11 8 12 10 14
REMARK H PARENT 8 13 10 15
REMARK Flexibility Score: inf
ROOT
ATOM      1  C   UNL     1      38.377 -22.125  -0.614  1.00  0.00     0.019 A 
ATOM      2  C   UNL     1      36.986 -22.099  -0.712  1.00  0.00     0.094 A 
ATOM      3  C   UNL     1      36.259 -21.317   0.192  1.00  0.00     0.336 A 
ATOM      4  O   UNL     1      35.002 -21.279   0.120  1.00  0.00    -0.246 OA
ATOM      5  O   UNL     1      36.885 -20.610   1.128  1.00  0.00    -0.423 OA
ATOM      6  C   UNL     1      38.210 -20.607   1.256  1.00  0.00     0.142 A 
ATOM      7  C   UNL     1      38.814 -19.844   2.261  1.00  0.00     0.098 A 
ATOM      8  C   UNL     1      40.210 -19.838   2.398  1.00  0.00     0.161 A 
ATOM      9  C   UNL     1      41.005 -20.599   1.529  1.00  0.00     0.158 A 
ATOM     10  C   UNL     1      40.405 -21.366   0.520  1.00  0.00     0.062 A 
ATOM     11  C   UNL     1      39.010 -21.373   0.380  1.00  0.00     0.022 A 
ENDROOT
BRANCH   9  12
ATOM     12  O   UNL     1      42.390 -20.586   1.674  1.00  0.00    -0.504 OA
ATOM     13  H   UNL     1      42.850 -19.954   2.319  1.00  0.00     0.293 HD
ENDBRANCH   9  12
BRANCH   8  14
ATOM     14  O   UNL     1      40.815 -19.079   3.399  1.00  0.00    -0.504 OA
ATOM     15  H   UNL     1      41.637 -19.411   3.893  1.00  0.00     0.293 HD
ENDBRANCH   8  14
TORSDOF 2
ENDMDL
MODEL 6
REMARK VINA RESULT:    -4.441      1.116      1.299
REMARK INTER + INTRA:          -4.701
REMARK INTER:                  -4.701
REMARK INTRA:                   0.000
REMARK UNBOUND:                 0.000
REMARK SMILES O=c1ccc2cc(O)c(O)cc2o1
REMARK SMILES IDX 4 1 3 2 2 3 1 4 13 5 12 6 11 7 9 8 7 9 6 10 5 11 8 12 10 14
REMARK H PARENT 8 13 10 15
REMARK Flexibility Score: inf
ROOT
ATOM      1  C   UNL     1      40.058 -19.931   2.405  1.00  0.00     0.019 A 
ATOM      2  C   UNL     1      41.396 -20.276   2.217  1.00  0.00     0.094 A 
ATOM      3  C   UNL     1      41.729 -21.153   1.179  1.00  0.00     0.336 A 
ATOM      4  O   UNL     1      42.932 -21.477   0.992  1.00  0.00    -0.246 OA
ATOM      5  O   UNL     1      40.784 -21.647   0.384  1.00  0.00    -0.423 OA
ATOM      6  C   UNL     1      39.496 -21.343   0.529  1.00  0.00     0.142 A 
ATOM      7  C   UNL     1      38.546 -21.894  -0.337  1.00  0.00     0.098 A 
ATOM      8  C   UNL     1      37.188 -21.577  -0.188  1.00  0.00     0.161 A 
ATOM      9  C   UNL     1      36.778 -20.706   0.832  1.00  0.00     0.158 A 
ATOM     10  C   UNL     1      37.727 -20.150   1.703  1.00  0.00     0.062 A 
ATOM     11  C   UNL     1      39.084 -20.467   1.556  1.00  0.00     0.022 A 
ENDROOT
BRANCH   9  12
ATOM     12  O   UNL     1      35.427 -20.396   0.972  1.00  0.00    -0.504 OA
ATOM     13  H   UNL     1      34.841 -20.205   0.167  1.00  0.00     0.293 HD
ENDBRANCH   9  12
BRANCH   8  14
ATOM     14  O   UNL     1      36.239 -22.125  -1.049  1.00  0.00    -0.504 OA
ATOM     15  H   UNL     1      36.371 -23.036  -1.473  1.00  0.00     0.293 HD
ENDBRANCH   8  14
TORSDOF 2
ENDMDL
MODEL 7
REMARK VINA RESULT:    -4.098      5.290      7.712
REMARK INTER + INTRA:          -4.337
REMARK INTER:                  -4.337
REMARK INTRA:                   0.000
REMARK UNBOUND:                 0.000
REMARK SMILES O=c1ccc2cc(O)c(O)cc2o1
REMARK SMILES IDX 4 1 3 2 2 3 1 4 13 5 12 6 11 7 9 8 7 9 6 10 5 11 8 12 10 14
REMARK H PARENT 8 13 10 15
REMARK Flexibility Score: inf
ROOT
ATOM      1  C   UNL     1      32.044 -20.698   4.395  1.00  0.00     0.019 A 
ATOM      2  C   UNL     1      30.889 -21.079   5.076  1.00  0.00     0.094 A 
ATOM      3  C   UNL     1      29.890 -21.770   4.381  1.00  0.00     0.336 A 
ATOM      4  O   UNL     1      28.839 -22.123   4.978  1.00  0.00    -0.246 OA
ATOM      5  O   UNL     1      30.042 -22.058   3.091  1.00  0.00    -0.423 OA
ATOM      6  C   UNL     1      31.129 -21.714   2.405  1.00  0.00     0.142 A 
ATOM      7  C   UNL     1      31.234 -22.043   1.050  1.00  0.00     0.098 A 
ATOM      8  C   UNL     1      32.378 -21.681   0.322  1.00  0.00     0.161 A 
ATOM      9  C   UNL     1      33.420 -20.986   0.952  1.00  0.00     0.158 A 
ATOM     10  C   UNL     1      33.320 -20.653   2.311  1.00  0.00     0.062 A 
ATOM     11  C   UNL     1      32.178 -21.013   3.039  1.00  0.00     0.022 A 
ENDROOT
BRANCH   9  12
ATOM     12  O   UNL     1      34.551 -20.632   0.221  1.00  0.00    -0.504 OA
ATOM     13  H   UNL     1      35.485 -20.766   0.592  1.00  0.00     0.293 HD
ENDBRANCH   9  12
BRANCH   8  14
ATOM     14  O   UNL     1      32.485 -22.009  -1.029  1.00  0.00    -0.504 OA
ATOM     15  H   UNL     1      31.676 -22.289  -1.572  1.00  0.00     0.293 HD
ENDBRANCH   8  14
TORSDOF 2
ENDMDL
MODEL 8
REMARK VINA RESULT:    -4.079      2.407      5.241
REMARK INTER + INTRA:          -4.317
REMARK INTER:                  -4.317
REMARK INTRA:                   0.000
REMARK UNBOUND:                 0.000
REMARK SMILES O=c1ccc2cc(O)c(O)cc2o1
REMARK SMILES IDX 4 1 3 2 2 3 1 4 13 5 12 6 11 7 9 8 7 9 6 10 5 11 8 12 10 14
REMARK H PARENT 8 13 10 15
REMARK Flexibility Score: inf
ROOT
ATOM      1  C   UNL     1      36.864 -21.039   2.709  1.00  0.00     0.019 A 
ATOM      2  C   UNL     1      36.286 -20.984   1.441  1.00  0.00     0.094 A 
ATOM      3  C   UNL     1      37.060 -20.541   0.363  1.00  0.00     0.336 A 
ATOM      4  O   UNL     1      36.556 -20.485  -0.790  1.00  0.00    -0.246 OA
ATOM      5  O   UNL     1      38.326 -20.178   0.546  1.00  0.00    -0.423 OA
ATOM      6  C   UNL     1      38.916 -20.216   1.738  1.00  0.00     0.142 A 
ATOM      7  C   UNL     1      40.252 -19.822   1.870  1.00  0.00     0.098 A 
ATOM      8  C   UNL     1      40.877 -19.860   3.125  1.00  0.00     0.161 A 
ATOM      9  C   UNL     1      40.165 -20.292   4.252  1.00  0.00     0.158 A 
ATOM     10  C   UNL     1      38.825 -20.689   4.126  1.00  0.00     0.062 A 
ATOM     11  C   UNL     1      38.198 -20.651   2.873  1.00  0.00     0.022 A 
ENDROOT
BRANCH   9  12
ATOM     12  O   UNL     1      40.795 -20.327   5.494  1.00  0.00    -0.504 OA
ATOM     13  H   UNL     1      41.350 -19.548   5.829  1.00  0.00     0.293 HD
ENDBRANCH   9  12
BRANCH   8  14
ATOM     14  O   UNL     1      42.208 -19.468   3.260  1.00  0.00    -0.504 OA
ATOM     15  H   UNL     1      42.931 -20.127   3.527  1.00  0.00     0.293 HD
ENDBRANCH   8  14
TORSDOF 2
ENDMDL
MODEL 9
REMARK VINA RESULT:    -4.058      2.375      2.805
REMARK INTER + INTRA:          -4.295
REMARK INTER:                  -4.295
REMARK INTRA:                   0.000
REMARK UNBOUND:                 0.000
REMARK SMILES O=c1ccc2cc(O)c(O)cc2o1
REMARK SMILES IDX 4 1 3 2 2 3 1 4 13 5 12 6 11 7 9 8 7 9 6 10 5 11 8 12 10 14
REMARK H PARENT 8 13 10 15
REMARK Flexibility Score: inf
ROOT
ATOM      1  C   UNL     1      36.545 -21.735   3.595  1.00  0.00     0.019 A 
ATOM      2  C   UNL     1      37.660 -21.285   4.300  1.00  0.00     0.094 A 
ATOM      3  C   UNL     1      38.618 -20.515   3.631  1.00  0.00     0.336 A 
ATOM      4  O   UNL     1      39.633 -20.098   4.249  1.00  0.00    -0.246 OA
ATOM      5  O   UNL     1      38.466 -20.219   2.343  1.00  0.00    -0.423 OA
ATOM      6  C   UNL     1      37.417 -20.629   1.634  1.00  0.00     0.142 A 
ATOM      7  C   UNL     1      37.310 -20.287   0.282  1.00  0.00     0.098 A 
ATOM      8  C   UNL     1      36.206 -20.717  -0.469  1.00  0.00     0.161 A 
ATOM      9  C   UNL     1      35.206 -21.493   0.134  1.00  0.00     0.158 A 
ATOM     10  C   UNL     1      35.307 -21.838   1.489  1.00  0.00     0.062 A 
ATOM     11  C   UNL     1      36.410 -21.410   2.241  1.00  0.00     0.022 A 
ENDROOT
BRANCH   9  12
ATOM     12  O   UNL     1      34.113 -21.914  -0.620  1.00  0.00    -0.504 OA
ATOM     13  H   UNL     1      33.695 -22.827  -0.483  1.00  0.00     0.293 HD
ENDBRANCH   9  12
BRANCH   8  14
ATOM     14  O   UNL     1      36.097 -20.378  -1.817  1.00  0.00    -0.504 OA
ATOM     15  H   UNL     1      36.810 -19.829  -2.285  1.00  0.00     0.293 HD
ENDBRANCH   8  14
TORSDOF 2
ENDMDL
