MODEL 1
REMARK VINA RESULT:    -4.891      0.000      0.000
REMARK INTER + INTRA:         -15.393
REMARK INTER:                 -12.324
REMARK INTRA:                  -3.068
REMARK UNBOUND:                -3.068
REMARK SMILES CCCCCCCCCCCCCCCCCCCCCCCCCCCC(=O)[O-]
REMARK SMILES IDX 15 1 16 2 17 3 18 4 19 5 20 6 21 7 22 8 23 9 24 10 25 11
REMARK SMILES IDX 26 12 27 13 28 14 29 15 30 16 14 17 13 18 12 19 11 20 10 21
REMARK SMILES IDX 9 22 8 23 7 24 6 25 5 26 4 27 3 28 2 29 1 30
REMARK H PARENT
REMARK Flexibility Score: inf
ROOT
ATOM      1  C   UNL     1      25.633  -0.966  37.213  1.00  0.00     0.000 C 
ENDROOT
BRANCH   1   2
ATOM      2  C   UNL     1      25.626   0.438  37.845  1.00  0.00     0.000 C 
BRANCH   2   3
ATOM      3  C   UNL     1      26.701   0.615  38.932  1.00  0.00     0.000 C 
BRANCH   3   4
ATOM      4  C   UNL     1      26.649   1.951  39.697  1.00  0.00     0.000 C 
BRANCH   4   5
ATOM      5  C   UNL     1      25.225   2.331  40.147  1.00  0.00     0.000 C 
BRANCH   5   6
ATOM      6  C   UNL     1      25.212   3.174  41.437  1.00  0.00     0.000 C 
BRANCH   6   7
ATOM      7  C   UNL     1      26.162   2.671  42.541  1.00  0.00     0.000 C 
BRANCH   7   8
ATOM      8  C   UNL     1      25.473   1.707  43.521  1.00  0.00     0.000 C 
BRANCH   8   9
ATOM      9  C   UNL     1      26.344   0.483  43.863  1.00  0.00     0.000 C 
BRANCH   9  10
ATOM     10  C   UNL     1      26.749  -0.386  42.656  1.00  0.00     0.000 C 
BRANCH  10  11
ATOM     11  C   UNL     1      27.778  -1.488  42.966  1.00  0.00     0.000 C 
BRANCH  11  12
ATOM     12  C   UNL     1      27.736  -1.981  44.429  1.00  0.00     0.006 C 
BRANCH  12  13
ATOM     13  C   UNL     1      27.892  -3.503  44.536  1.00  0.00     0.053 C 
BRANCH  13  14
ATOM     14  C   UNL     1      26.551  -4.162  44.616  1.00  0.00     0.041 C 
ATOM     15  O   UNL     1      25.760  -4.109  43.635  1.00  0.00    -0.550 OA
ATOM     16  O   UNL     1      26.146  -4.780  45.793  1.00  0.00    -0.550 OA
ENDBRANCH  13  14
ENDBRANCH  12  13
ENDBRANCH  11  12
ENDBRANCH  10  11
ENDBRANCH   9  10
ENDBRANCH   8   9
ENDBRANCH   7   8
ENDBRANCH   6   7
ENDBRANCH   5   6
ENDBRANCH   4   5
ENDBRANCH   3   4
ENDBRANCH   2   3
ENDBRANCH   1   2
BRANCH   1  17
ATOM     17  C   UNL     1      24.299  -1.296  36.507  1.00  0.00     0.000 C 
BRANCH  17  18
ATOM     18  C   UNL     1      24.032  -2.808  36.357  1.00  0.00     0.000 C 
BRANCH  18  19
ATOM     19  C   UNL     1      22.592  -3.248  36.671  1.00  0.00     0.000 C 
BRANCH  19  20
ATOM     20  C   UNL     1      22.359  -4.748  36.425  1.00  0.00     0.000 C 
BRANCH  20  21
ATOM     21  C   UNL     1      22.546  -5.141  34.949  1.00  0.00     0.000 C 
BRANCH  21  22
ATOM     22  C   UNL     1      23.276  -6.477  34.719  1.00  0.00    -0.000 C 
BRANCH  22  23
ATOM     23  C   UNL     1      24.373  -6.410  33.635  1.00  0.00    -0.000 C 
BRANCH  23  24
ATOM     24  C   UNL     1      25.728  -5.948  34.200  1.00  0.00    -0.000 C 
BRANCH  24  25
ATOM     25  C   UNL     1      25.897  -6.290  35.689  1.00  0.00    -0.000 C 
BRANCH  25  26
ATOM     26  C   UNL     1      26.799  -5.290  36.426  1.00  0.00    -0.000 C 
BRANCH  26  27
ATOM     27  C   UNL     1      27.226  -4.144  35.495  1.00  0.00    -0.000 C 
BRANCH  27  28
ATOM     28  C   UNL     1      28.471  -3.396  36.002  1.00  0.00    -0.000 C 
BRANCH  28  29
ATOM     29  C   UNL     1      28.869  -3.811  37.426  1.00  0.00    -0.003 C 
ATOM     30  C   UNL     1      28.837  -2.616  38.376  1.00  0.00     0.004 C 
ENDBRANCH  28  29
ENDBRANCH  27  28
ENDBRANCH  26  27
ENDBRANCH  25  26
ENDBRANCH  24  25
ENDBRANCH  23  24
ENDBRANCH  22  23
ENDBRANCH  21  22
ENDBRANCH  20  21
ENDBRANCH  19  20
ENDBRANCH  18  19
ENDBRANCH  17  18
ENDBRANCH   1  17
TORSDOF 26
ENDMDL
MODEL 2
REMARK VINA RESULT:    -4.759      2.326      8.936
REMARK INTER + INTRA:         -15.061
REMARK INTER:                 -12.203
REMARK INTRA:                  -2.859
REMARK UNBOUND:                -3.068
REMARK SMILES CCCCCCCCCCCCCCCCCCCCCCCCCCCC(=O)[O-]
REMARK SMILES IDX 15 1 16 2 17 3 18 4 19 5 20 6 21 7 22 8 23 9 24 10 25 11
REMARK SMILES IDX 26 12 27 13 28 14 29 15 30 16 14 17 13 18 12 19 11 20 10 21
REMARK SMILES IDX 9 22 8 23 7 24 6 25 5 26 4 27 3 28 2 29 1 30
REMARK H PARENT
REMARK Flexibility Score: inf
ROOT
ATOM      1  C   UNL     1      25.657  -0.987  37.159  1.00  0.00     0.000 C 
ENDROOT
BRANCH   1   2
ATOM      2  C   UNL     1      24.363  -1.336  36.401  1.00  0.00     0.000 C 
BRANCH   2   3
ATOM      3  C   UNL     1      24.061  -2.846  36.389  1.00  0.00     0.000 C 
BRANCH   3   4
ATOM      4  C   UNL     1      22.608  -3.228  36.733  1.00  0.00     0.000 C 
BRANCH   4   5
ATOM      5  C   UNL     1      22.016  -4.269  35.764  1.00  0.00     0.000 C 
BRANCH   5   6
ATOM      6  C   UNL     1      22.691  -5.649  35.887  1.00  0.00     0.000 C 
BRANCH   6   7
ATOM      7  C   UNL     1      23.089  -6.290  34.543  1.00  0.00     0.000 C 
BRANCH   7   8
ATOM      8  C   UNL     1      24.568  -6.711  34.504  1.00  0.00     0.000 C 
BRANCH   8   9
ATOM      9  C   UNL     1      25.427  -5.782  33.625  1.00  0.00     0.000 C 
BRANCH   9  10
ATOM     10  C   UNL     1      26.631  -5.138  34.340  1.00  0.00     0.000 C 
BRANCH  10  11
ATOM     11  C   UNL     1      26.722  -5.431  35.850  1.00  0.00     0.000 C 
BRANCH  11  12
ATOM     12  C   UNL     1      27.327  -4.270  36.669  1.00  0.00     0.006 C 
BRANCH  12  13
ATOM     13  C   UNL     1      28.265  -3.392  35.832  1.00  0.00     0.053 C 
BRANCH  13  14
ATOM     14  C   UNL     1      29.658  -3.448  36.375  1.00  0.00     0.041 C 
ATOM     15  O   UNL     1      30.542  -2.664  35.933  1.00  0.00    -0.550 OA
ATOM     16  O   UNL     1      30.000  -4.406  37.321  1.00  0.00    -0.550 OA
ENDBRANCH  13  14
ENDBRANCH  12  13
ENDBRANCH  11  12
ENDBRANCH  10  11
ENDBRANCH   9  10
ENDBRANCH   8   9
ENDBRANCH   7   8
ENDBRANCH   6   7
ENDBRANCH   5   6
ENDBRANCH   4   5
ENDBRANCH   3   4
ENDBRANCH   2   3
ENDBRANCH   1   2
BRANCH   1  17
ATOM     17  C   UNL     1      25.583   0.402  37.831  1.00  0.00     0.000 C 
BRANCH  17  18
ATOM     18  C   UNL     1      26.744   0.685  38.805  1.00  0.00     0.000 C 
BRANCH  18  19
ATOM     19  C   UNL     1      26.766   2.105  39.396  1.00  0.00     0.000 C 
BRANCH  19  20
ATOM     20  C   UNL     1      25.455   2.475  40.112  1.00  0.00     0.000 C 
BRANCH  20  21
ATOM     21  C   UNL     1      25.695   3.193  41.451  1.00  0.00     0.000 C 
BRANCH  21  22
ATOM     22  C   UNL     1      25.188   2.438  42.694  1.00  0.00    -0.000 C 
BRANCH  22  23
ATOM     23  C   UNL     1      26.311   2.010  43.664  1.00  0.00    -0.000 C 
BRANCH  23  24
ATOM     24  C   UNL     1      26.392   0.483  43.829  1.00  0.00    -0.000 C 
BRANCH  24  25
ATOM     25  C   UNL     1      26.814  -0.232  42.535  1.00  0.00    -0.000 C 
BRANCH  25  26
ATOM     26  C   UNL     1      27.743  -1.427  42.797  1.00  0.00    -0.000 C 
BRANCH  26  27
ATOM     27  C   UNL     1      27.941  -1.650  44.304  1.00  0.00    -0.000 C 
BRANCH  27  28
ATOM     28  C   UNL     1      27.947  -3.138  44.692  1.00  0.00    -0.000 C 
BRANCH  28  29
ATOM     29  C   UNL     1      27.372  -4.037  43.587  1.00  0.00    -0.003 C 
ATOM     30  C   UNL     1      25.914  -4.395  43.873  1.00  0.00     0.004 C 
ENDBRANCH  28  29
ENDBRANCH  27  28
ENDBRANCH  26  27
ENDBRANCH  25  26
ENDBRANCH  24  25
ENDBRANCH  23  24
ENDBRANCH  22  23
ENDBRANCH  21  22
ENDBRANCH  20  21
ENDBRANCH  19  20
ENDBRANCH  18  19
ENDBRANCH  17  18
ENDBRANCH   1  17
TORSDOF 26
ENDMDL
MODEL 3
REMARK VINA RESULT:    -4.698      1.330      1.992
REMARK INTER + INTRA:         -14.907
REMARK INTER:                 -12.287
REMARK INTRA:                  -2.620
REMARK UNBOUND:                -3.068
REMARK SMILES CCCCCCCCCCCCCCCCCCCCCCCCCCCC(=O)[O-]
REMARK SMILES IDX 15 1 16 2 17 3 18 4 19 5 20 6 21 7 22 8 23 9 24 10 25 11
REMARK SMILES IDX 26 12 27 13 28 14 29 15 30 16 14 17 13 18 12 19 11 20 10 21
REMARK SMILES IDX 9 22 8 23 7 24 6 25 5 26 4 27 3 28 2 29 1 30
REMARK H PARENT
REMARK Flexibility Score: inf
ROOT
ATOM      1  C   UNL     1      25.537   0.450  37.941  1.00  0.00     0.000 C 
ENDROOT
BRANCH   1   2
ATOM      2  C   UNL     1      26.765   0.677  38.842  1.00  0.00     0.000 C 
BRANCH   2   3
ATOM      3  C   UNL     1      26.648   1.941  39.712  1.00  0.00     0.000 C 
BRANCH   3   4
ATOM      4  C   UNL     1      25.217   2.479  39.901  1.00  0.00     0.000 C 
BRANCH   4   5
ATOM      5  C   UNL     1      24.963   3.028  41.318  1.00  0.00     0.000 C 
BRANCH   5   6
ATOM      6  C   UNL     1      25.996   2.525  42.346  1.00  0.00     0.000 C 
BRANCH   6   7
ATOM      7  C   UNL     1      25.411   1.636  43.460  1.00  0.00     0.000 C 
BRANCH   7   8
ATOM      8  C   UNL     1      26.381   0.526  43.900  1.00  0.00     0.000 C 
BRANCH   8   9
ATOM      9  C   UNL     1      26.748  -0.433  42.751  1.00  0.00     0.000 C 
BRANCH   9  10
ATOM     10  C   UNL     1      27.852  -1.456  43.084  1.00  0.00     0.000 C 
BRANCH  10  11
ATOM     11  C   UNL     1      27.348  -2.783  43.681  1.00  0.00     0.000 C 
BRANCH  11  12
ATOM     12  C   UNL     1      27.554  -2.893  45.207  1.00  0.00     0.006 C 
BRANCH  12  13
ATOM     13  C   UNL     1      28.979  -2.518  45.632  1.00  0.00     0.053 C 
BRANCH  13  14
ATOM     14  C   UNL     1      29.696  -3.714  46.174  1.00  0.00     0.041 C 
ATOM     15  O   UNL     1      30.547  -3.579  47.096  1.00  0.00    -0.550 OA
ATOM     16  O   UNL     1      29.476  -4.969  45.621  1.00  0.00    -0.550 OA
ENDBRANCH  13  14
ENDBRANCH  12  13
ENDBRANCH  11  12
ENDBRANCH  10  11
ENDBRANCH   9  10
ENDBRANCH   8   9
ENDBRANCH   7   8
ENDBRANCH   6   7
ENDBRANCH   5   6
ENDBRANCH   4   5
ENDBRANCH   3   4
ENDBRANCH   2   3
ENDBRANCH   1   2
BRANCH   1  17
ATOM     17  C   UNL     1      25.625  -0.878  37.158  1.00  0.00     0.000 C 
BRANCH  17  18
ATOM     18  C   UNL     1      24.302  -1.291  36.480  1.00  0.00     0.000 C 
BRANCH  18  19
ATOM     19  C   UNL     1      24.036  -2.805  36.442  1.00  0.00     0.000 C 
BRANCH  19  20
ATOM     20  C   UNL     1      22.565  -3.160  36.717  1.00  0.00     0.000 C 
BRANCH  20  21
ATOM     21  C   UNL     1      22.230  -4.617  36.351  1.00  0.00     0.000 C 
BRANCH  21  22
ATOM     22  C   UNL     1      22.753  -5.079  34.978  1.00  0.00    -0.000 C 
BRANCH  22  23
ATOM     23  C   UNL     1      23.687  -6.307  35.048  1.00  0.00    -0.000 C 
BRANCH  23  24
ATOM     24  C   UNL     1      24.277  -6.514  36.454  1.00  0.00    -0.000 C 
BRANCH  24  25
ATOM     25  C   UNL     1      25.809  -6.641  36.441  1.00  0.00    -0.000 C 
BRANCH  25  26
ATOM     26  C   UNL     1      26.477  -5.637  35.490  1.00  0.00    -0.000 C 
BRANCH  26  27
ATOM     27  C   UNL     1      26.990  -4.409  36.259  1.00  0.00    -0.000 C 
BRANCH  27  28
ATOM     28  C   UNL     1      28.180  -3.725  35.566  1.00  0.00    -0.000 C 
BRANCH  28  29
ATOM     29  C   UNL     1      29.234  -3.222  36.563  1.00  0.00    -0.003 C 
ATOM     30  C   UNL     1      28.950  -3.739  37.971  1.00  0.00     0.004 C 
ENDBRANCH  28  29
ENDBRANCH  27  28
ENDBRANCH  26  27
ENDBRANCH  25  26
ENDBRANCH  24  25
ENDBRANCH  23  24
ENDBRANCH  22  23
ENDBRANCH  21  22
ENDBRANCH  20  21
ENDBRANCH  19  20
ENDBRANCH  18  19
ENDBRANCH  17  18
ENDBRANCH   1  17
TORSDOF 26
ENDMDL
MODEL 4
REMARK VINA RESULT:    -4.596      3.106      8.911
REMARK INTER + INTRA:         -14.650
REMARK INTER:                 -12.017
REMARK INTRA:                  -2.633
REMARK UNBOUND:                -3.068
REMARK SMILES CCCCCCCCCCCCCCCCCCCCCCCCCCCC(=O)[O-]
REMARK SMILES IDX 15 1 16 2 17 3 18 4 19 5 20 6 21 7 22 8 23 9 24 10 25 11
REMARK SMILES IDX 26 12 27 13 28 14 29 15 30 16 14 17 13 18 12 19 11 20 10 21
REMARK SMILES IDX 9 22 8 23 7 24 6 25 5 26 4 27 3 28 2 29 1 30
REMARK H PARENT
REMARK Flexibility Score: inf
ROOT
ATOM      1  C   UNL     1      23.903  -2.988  36.476  1.00  0.00     0.000 C 
ENDROOT
BRANCH   1   2
ATOM      2  C   UNL     1      22.402  -3.187  36.756  1.00  0.00     0.000 C 
BRANCH   2   3
ATOM      3  C   UNL     1      21.896  -4.586  36.362  1.00  0.00     0.000 C 
BRANCH   3   4
ATOM      4  C   UNL     1      22.996  -5.633  36.102  1.00  0.00     0.000 C 
BRANCH   4   5
ATOM      5  C   UNL     1      23.043  -6.104  34.636  1.00  0.00     0.000 C 
BRANCH   5   6
ATOM      6  C   UNL     1      24.375  -6.787  34.271  1.00  0.00     0.000 C 
BRANCH   6   7
ATOM      7  C   UNL     1      25.473  -6.667  35.346  1.00  0.00     0.000 C 
BRANCH   7   8
ATOM      8  C   UNL     1      26.426  -5.487  35.087  1.00  0.00     0.000 C 
BRANCH   8   9
ATOM      9  C   UNL     1      27.060  -4.941  36.380  1.00  0.00     0.000 C 
BRANCH   9  10
ATOM     10  C   UNL     1      27.973  -3.714  36.190  1.00  0.00     0.000 C 
BRANCH  10  11
ATOM     11  C   UNL     1      28.812  -3.331  37.424  1.00  0.00     0.000 C 
BRANCH  11  12
ATOM     12  C   UNL     1      30.277  -2.973  37.090  1.00  0.00     0.006 C 
BRANCH  12  13
ATOM     13  C   UNL     1      31.073  -4.183  36.587  1.00  0.00     0.053 C 
BRANCH  13  14
ATOM     14  C   UNL     1      31.512  -3.970  35.172  1.00  0.00     0.041 C 
ATOM     15  O   UNL     1      31.299  -4.858  34.302  1.00  0.00    -0.550 OA
ATOM     16  O   UNL     1      32.213  -2.821  34.825  1.00  0.00    -0.550 OA
ENDBRANCH  13  14
ENDBRANCH  12  13
ENDBRANCH  11  12
ENDBRANCH  10  11
ENDBRANCH   9  10
ENDBRANCH   8   9
ENDBRANCH   7   8
ENDBRANCH   6   7
ENDBRANCH   5   6
ENDBRANCH   4   5
ENDBRANCH   3   4
ENDBRANCH   2   3
ENDBRANCH   1   2
BRANCH   1  17
ATOM     17  C   UNL     1      24.290  -1.495  36.393  1.00  0.00     0.000 C 
BRANCH  17  18
ATOM     18  C   UNL     1      25.613  -1.153  37.108  1.00  0.00     0.000 C 
BRANCH  18  19
ATOM     19  C   UNL     1      25.721   0.293  37.620  1.00  0.00     0.000 C 
BRANCH  19  20
ATOM     20  C   UNL     1      26.587   0.415  38.886  1.00  0.00     0.000 C 
BRANCH  20  21
ATOM     21  C   UNL     1      26.524   1.819  39.512  1.00  0.00     0.000 C 
BRANCH  21  22
ATOM     22  C   UNL     1      25.104   2.329  39.822  1.00  0.00    -0.000 C 
BRANCH  22  23
ATOM     23  C   UNL     1      24.967   2.981  41.215  1.00  0.00    -0.000 C 
BRANCH  23  24
ATOM     24  C   UNL     1      26.050   2.500  42.197  1.00  0.00    -0.000 C 
BRANCH  24  25
ATOM     25  C   UNL     1      25.468   1.711  43.381  1.00  0.00    -0.000 C 
BRANCH  25  26
ATOM     26  C   UNL     1      26.372   0.548  43.817  1.00  0.00    -0.000 C 
BRANCH  26  27
ATOM     27  C   UNL     1      26.711  -0.361  42.626  1.00  0.00    -0.000 C 
BRANCH  27  28
ATOM     28  C   UNL     1      27.736  -1.452  42.981  1.00  0.00    -0.000 C 
BRANCH  28  29
ATOM     29  C   UNL     1      28.001  -1.543  44.491  1.00  0.00    -0.003 C 
ATOM     30  C   UNL     1      27.827  -2.975  44.994  1.00  0.00     0.004 C 
ENDBRANCH  28  29
ENDBRANCH  27  28
ENDBRANCH  26  27
ENDBRANCH  25  26
ENDBRANCH  24  25
ENDBRANCH  23  24
ENDBRANCH  22  23
ENDBRANCH  21  22
ENDBRANCH  20  21
ENDBRANCH  19  20
ENDBRANCH  18  19
ENDBRANCH  17  18
ENDBRANCH   1  17
TORSDOF 26
ENDMDL
MODEL 5
REMARK VINA RESULT:    -4.558      1.385      3.257
REMARK INTER + INTRA:         -14.555
REMARK INTER:                 -11.829
REMARK INTRA:                  -2.726
REMARK UNBOUND:                -3.068
REMARK SMILES CCCCCCCCCCCCCCCCCCCCCCCCCCCC(=O)[O-]
REMARK SMILES IDX 15 1 16 2 17 3 18 4 19 5 20 6 21 7 22 8 23 9 24 10 25 11
REMARK SMILES IDX 26 12 27 13 28 14 29 15 30 16 14 17 13 18 12 19 11 20 10 21
REMARK SMILES IDX 9 22 8 23 7 24 6 25 5 26 4 27 3 28 2 29 1 30
REMARK H PARENT
REMARK Flexibility Score: inf
ROOT
ATOM      1  C   UNL     1      23.770  -3.130  35.753  1.00  0.00     0.000 C 
ENDROOT
BRANCH   1   2
ATOM      2  C   UNL     1      24.034  -1.703  36.269  1.00  0.00     0.000 C 
BRANCH   2   3
ATOM      3  C   UNL     1      25.248  -1.618  37.212  1.00  0.00     0.000 C 
BRANCH   3   4
ATOM      4  C   UNL     1      26.028  -0.291  37.160  1.00  0.00     0.000 C 
BRANCH   4   5
ATOM      5  C   UNL     1      26.158   0.384  38.538  1.00  0.00     0.000 C 
BRANCH   5   6
ATOM      6  C   UNL     1      26.730   1.812  38.451  1.00  0.00     0.000 C 
BRANCH   6   7
ATOM      7  C   UNL     1      26.519   2.667  39.716  1.00  0.00     0.000 C 
BRANCH   7   8
ATOM      8  C   UNL     1      25.061   2.645  40.207  1.00  0.00     0.000 C 
BRANCH   8   9
ATOM      9  C   UNL     1      24.928   3.039  41.691  1.00  0.00     0.000 C 
BRANCH   9  10
ATOM     10  C   UNL     1      26.027   2.480  42.615  1.00  0.00     0.000 C 
BRANCH  10  11
ATOM     11  C   UNL     1      25.526   1.522  43.713  1.00  0.00     0.000 C 
BRANCH  11  12
ATOM     12  C   UNL     1      26.559   0.445  44.112  1.00  0.00     0.006 C 
BRANCH  12  13
ATOM     13  C   UNL     1      26.721  -0.635  43.035  1.00  0.00     0.053 C 
BRANCH  13  14
ATOM     14  C   UNL     1      27.391  -1.846  43.604  1.00  0.00     0.041 C 
ATOM     15  O   UNL     1      26.882  -2.988  43.438  1.00  0.00    -0.550 OA
ATOM     16  O   UNL     1      28.541  -1.710  44.372  1.00  0.00    -0.550 OA
ENDBRANCH  13  14
ENDBRANCH  12  13
ENDBRANCH  11  12
ENDBRANCH  10  11
ENDBRANCH   9  10
ENDBRANCH   8   9
ENDBRANCH   7   8
ENDBRANCH   6   7
ENDBRANCH   5   6
ENDBRANCH   4   5
ENDBRANCH   3   4
ENDBRANCH   2   3
ENDBRANCH   1   2
BRANCH   1  17
ATOM     17  C   UNL     1      22.455  -3.719  36.311  1.00  0.00     0.000 C 
BRANCH  17  18
ATOM     18  C   UNL     1      22.271  -5.221  36.015  1.00  0.00     0.000 C 
BRANCH  18  19
ATOM     19  C   UNL     1      23.059  -5.747  34.803  1.00  0.00     0.000 C 
BRANCH  19  20
ATOM     20  C   UNL     1      23.817  -7.051  35.105  1.00  0.00     0.000 C 
BRANCH  20  21
ATOM     21  C   UNL     1      25.339  -6.843  35.192  1.00  0.00     0.000 C 
BRANCH  21  22
ATOM     22  C   UNL     1      25.816  -6.037  36.415  1.00  0.00    -0.000 C 
BRANCH  22  23
ATOM     23  C   UNL     1      27.344  -5.822  36.462  1.00  0.00    -0.000 C 
BRANCH  23  24
ATOM     24  C   UNL     1      27.843  -4.911  35.326  1.00  0.00    -0.000 C 
BRANCH  24  25
ATOM     25  C   UNL     1      28.002  -3.447  35.766  1.00  0.00    -0.000 C 
BRANCH  25  26
ATOM     26  C   UNL     1      28.596  -3.315  37.177  1.00  0.00    -0.000 C 
BRANCH  26  27
ATOM     27  C   UNL     1      30.086  -2.943  37.114  1.00  0.00    -0.000 C 
BRANCH  27  28
ATOM     28  C   UNL     1      30.991  -4.154  36.828  1.00  0.00    -0.000 C 
BRANCH  28  29
ATOM     29  C   UNL     1      31.664  -4.074  35.449  1.00  0.00    -0.003 C 
ATOM     30  C   UNL     1      31.452  -2.702  34.812  1.00  0.00     0.004 C 
ENDBRANCH  28  29
ENDBRANCH  27  28
ENDBRANCH  26  27
ENDBRANCH  25  26
ENDBRANCH  24  25
ENDBRANCH  23  24
ENDBRANCH  22  23
ENDBRANCH  21  22
ENDBRANCH  20  21
ENDBRANCH  19  20
ENDBRANCH  18  19
ENDBRANCH  17  18
ENDBRANCH   1  17
TORSDOF 26
ENDMDL
MODEL 6
REMARK VINA RESULT:    -4.509      2.361      8.882
REMARK INTER + INTRA:         -14.430
REMARK INTER:                 -12.191
REMARK INTRA:                  -2.239
REMARK UNBOUND:                -3.068
REMARK SMILES CCCCCCCCCCCCCCCCCCCCCCCCCCCC(=O)[O-]
REMARK SMILES IDX 15 1 16 2 17 3 18 4 19 5 20 6 21 7 22 8 23 9 24 10 25 11
REMARK SMILES IDX 26 12 27 13 28 14 29 15 30 16 14 17 13 18 12 19 11 20 10 21
REMARK SMILES IDX 9 22 8 23 7 24 6 25 5 26 4 27 3 28 2 29 1 30
REMARK H PARENT
REMARK Flexibility Score: inf
ROOT
ATOM      1  C   UNL     1      26.693   2.106  39.484  1.00  0.00     0.000 C 
ENDROOT
BRANCH   1   2
ATOM      2  C   UNL     1      26.850   0.845  38.613  1.00  0.00     0.000 C 
BRANCH   2   3
ATOM      3  C   UNL     1      25.564   0.474  37.853  1.00  0.00     0.000 C 
BRANCH   3   4
ATOM      4  C   UNL     1      25.576  -0.910  37.177  1.00  0.00     0.000 C 
BRANCH   4   5
ATOM      5  C   UNL     1      24.236  -1.261  36.503  1.00  0.00     0.000 C 
BRANCH   5   6
ATOM      6  C   UNL     1      24.017  -2.780  36.367  1.00  0.00     0.000 C 
BRANCH   6   7
ATOM      7  C   UNL     1      22.677  -3.289  36.935  1.00  0.00     0.000 C 
BRANCH   7   8
ATOM      8  C   UNL     1      21.949  -4.239  35.969  1.00  0.00     0.000 C 
BRANCH   8   9
ATOM      9  C   UNL     1      22.855  -4.735  34.826  1.00  0.00     0.000 C 
BRANCH   9  10
ATOM     10  C   UNL     1      23.115  -6.254  34.813  1.00  0.00     0.000 C 
BRANCH  10  11
ATOM     11  C   UNL     1      24.269  -6.723  35.718  1.00  0.00     0.000 C 
BRANCH  11  12
ATOM     12  C   UNL     1      25.616  -6.033  35.412  1.00  0.00     0.006 C 
BRANCH  12  13
ATOM     13  C   UNL     1      26.486  -5.870  36.665  1.00  0.00     0.053 C 
BRANCH  13  14
ATOM     14  C   UNL     1      27.631  -4.946  36.391  1.00  0.00     0.041 C 
ATOM     15  O   UNL     1      27.593  -3.752  36.795  1.00  0.00    -0.550 OA
ATOM     16  O   UNL     1      28.712  -5.381  35.634  1.00  0.00    -0.550 OA
ENDBRANCH  13  14
ENDBRANCH  12  13
ENDBRANCH  11  12
ENDBRANCH  10  11
ENDBRANCH   9  10
ENDBRANCH   8   9
ENDBRANCH   7   8
ENDBRANCH   6   7
ENDBRANCH   5   6
ENDBRANCH   4   5
ENDBRANCH   3   4
ENDBRANCH   2   3
ENDBRANCH   1   2
BRANCH   1  17
ATOM     17  C   UNL     1      25.215   2.407  39.814  1.00  0.00     0.000 C 
BRANCH  17  18
ATOM     18  C   UNL     1      25.004   3.048  41.201  1.00  0.00     0.000 C 
BRANCH  18  19
ATOM     19  C   UNL     1      26.297   3.380  41.966  1.00  0.00     0.000 C 
BRANCH  19  20
ATOM     20  C   UNL     1      26.368   2.698  43.343  1.00  0.00     0.000 C 
BRANCH  20  21
ATOM     21  C   UNL     1      25.663   1.330  43.361  1.00  0.00     0.000 C 
BRANCH  21  22
ATOM     22  C   UNL     1      26.494   0.163  42.796  1.00  0.00    -0.000 C 
BRANCH  22  23
ATOM     23  C   UNL     1      26.811  -0.937  43.832  1.00  0.00    -0.000 C 
BRANCH  23  24
ATOM     24  C   UNL     1      27.949  -1.865  43.372  1.00  0.00    -0.000 C 
BRANCH  24  25
ATOM     25  C   UNL     1      27.908  -3.239  44.060  1.00  0.00    -0.000 C 
BRANCH  25  26
ATOM     26  C   UNL     1      28.020  -3.139  45.588  1.00  0.00    -0.000 C 
BRANCH  26  27
ATOM     27  C   UNL     1      27.488  -4.413  46.263  1.00  0.00    -0.000 C 
BRANCH  27  28
ATOM     28  C   UNL     1      26.935  -5.435  45.256  1.00  0.00    -0.000 C 
BRANCH  28  29
ATOM     29  C   UNL     1      25.410  -5.589  45.348  1.00  0.00    -0.003 C 
ATOM     30  C   UNL     1      24.975  -5.912  46.776  1.00  0.00     0.004 C 
ENDBRANCH  28  29
ENDBRANCH  27  28
ENDBRANCH  26  27
ENDBRANCH  25  26
ENDBRANCH  24  25
ENDBRANCH  23  24
ENDBRANCH  22  23
ENDBRANCH  21  22
ENDBRANCH  20  21
ENDBRANCH  19  20
ENDBRANCH  18  19
ENDBRANCH  17  18
ENDBRANCH   1  17
TORSDOF 26
ENDMDL
MODEL 7
REMARK VINA RESULT:    -4.486      1.074      3.308
REMARK INTER + INTRA:         -14.374
REMARK INTER:                 -11.861
REMARK INTRA:                  -2.512
REMARK UNBOUND:                -3.068
REMARK SMILES CCCCCCCCCCCCCCCCCCCCCCCCCCCC(=O)[O-]
REMARK SMILES IDX 15 1 16 2 17 3 18 4 19 5 20 6 21 7 22 8 23 9 24 10 25 11
REMARK SMILES IDX 26 12 27 13 28 14 29 15 30 16 14 17 13 18 12 19 11 20 10 21
REMARK SMILES IDX 9 22 8 23 7 24 6 25 5 26 4 27 3 28 2 29 1 30
REMARK H PARENT
REMARK Flexibility Score: inf
ROOT
ATOM      1  C   UNL     1      26.375   2.514  39.813  1.00  0.00     0.000 C 
ENDROOT
BRANCH   1   2
ATOM      2  C   UNL     1      25.011   2.610  40.520  1.00  0.00     0.000 C 
BRANCH   2   3
ATOM      3  C   UNL     1      25.127   3.015  42.001  1.00  0.00     0.000 C 
BRANCH   3   4
ATOM      4  C   UNL     1      26.377   2.486  42.730  1.00  0.00     0.000 C 
BRANCH   4   5
ATOM      5  C   UNL     1      26.034   1.581  43.929  1.00  0.00     0.000 C 
BRANCH   5   6
ATOM      6  C   UNL     1      25.914   0.095  43.538  1.00  0.00     0.000 C 
BRANCH   6   7
ATOM      7  C   UNL     1      26.868  -0.353  42.414  1.00  0.00     0.000 C 
BRANCH   7   8
ATOM      8  C   UNL     1      27.828  -1.468  42.862  1.00  0.00     0.000 C 
BRANCH   8   9
ATOM      9  C   UNL     1      27.594  -1.903  44.321  1.00  0.00     0.000 C 
BRANCH   9  10
ATOM     10  C   UNL     1      28.157  -3.290  44.687  1.00  0.00     0.000 C 
BRANCH  10  11
ATOM     11  C   UNL     1      27.458  -4.477  43.998  1.00  0.00     0.000 C 
BRANCH  11  12
ATOM     12  C   UNL     1      25.932  -4.517  44.234  1.00  0.00     0.006 C 
BRANCH  12  13
ATOM     13  C   UNL     1      25.467  -5.860  44.810  1.00  0.00     0.053 C 
BRANCH  13  14
ATOM     14  C   UNL     1      25.242  -5.746  46.286  1.00  0.00     0.041 C 
ATOM     15  O   UNL     1      24.276  -6.351  46.827  1.00  0.00    -0.550 OA
ATOM     16  O   UNL     1      26.056  -4.924  47.054  1.00  0.00    -0.550 OA
ENDBRANCH  13  14
ENDBRANCH  12  13
ENDBRANCH  11  12
ENDBRANCH  10  11
ENDBRANCH   9  10
ENDBRANCH   8   9
ENDBRANCH   7   8
ENDBRANCH   6   7
ENDBRANCH   5   6
ENDBRANCH   4   5
ENDBRANCH   3   4
ENDBRANCH   2   3
ENDBRANCH   1   2
BRANCH   1  17
ATOM     17  C   UNL     1      26.593   1.137  39.148  1.00  0.00     0.000 C 
BRANCH  17  18
ATOM     18  C   UNL     1      25.580   0.817  38.030  1.00  0.00     0.000 C 
BRANCH  18  19
ATOM     19  C   UNL     1      25.755  -0.560  37.368  1.00  0.00     0.000 C 
BRANCH  19  20
ATOM     20  C   UNL     1      24.441  -1.117  36.793  1.00  0.00     0.000 C 
BRANCH  20  21
ATOM     21  C   UNL     1      24.465  -2.648  36.641  1.00  0.00     0.000 C 
BRANCH  21  22
ATOM     22  C   UNL     1      23.096  -3.296  36.362  1.00  0.00    -0.000 C 
BRANCH  22  23
ATOM     23  C   UNL     1      23.034  -4.073  35.030  1.00  0.00    -0.000 C 
BRANCH  23  24
ATOM     24  C   UNL     1      22.830  -5.584  35.241  1.00  0.00    -0.000 C 
BRANCH  24  25
ATOM     25  C   UNL     1      23.923  -6.213  36.120  1.00  0.00    -0.000 C 
BRANCH  25  26
ATOM     26  C   UNL     1      25.308  -6.174  35.458  1.00  0.00    -0.000 C 
BRANCH  26  27
ATOM     27  C   UNL     1      26.410  -5.928  36.502  1.00  0.00    -0.000 C 
BRANCH  27  28
ATOM     28  C   UNL     1      27.447  -4.890  36.041  1.00  0.00    -0.000 C 
BRANCH  28  29
ATOM     29  C   UNL     1      28.522  -4.618  37.104  1.00  0.00    -0.003 C 
ATOM     30  C   UNL     1      28.482  -3.163  37.566  1.00  0.00     0.004 C 
ENDBRANCH  28  29
ENDBRANCH  27  28
ENDBRANCH  26  27
ENDBRANCH  25  26
ENDBRANCH  24  25
ENDBRANCH  23  24
ENDBRANCH  22  23
ENDBRANCH  21  22
ENDBRANCH  20  21
ENDBRANCH  19  20
ENDBRANCH  18  19
ENDBRANCH  17  18
ENDBRANCH   1  17
TORSDOF 26
ENDMDL
MODEL 8
REMARK VINA RESULT:    -4.463      1.238      1.992
REMARK INTER + INTRA:         -14.315
REMARK INTER:                 -11.861
REMARK INTRA:                  -2.454
REMARK UNBOUND:                -3.068
REMARK SMILES CCCCCCCCCCCCCCCCCCCCCCCCCCCC(=O)[O-]
REMARK SMILES IDX 15 1 16 2 17 3 18 4 19 5 20 6 21 7 22 8 23 9 24 10 25 11
REMARK SMILES IDX 26 12 27 13 28 14 29 15 30 16 14 17 13 18 12 19 11 20 10 21
REMARK SMILES IDX 9 22 8 23 7 24 6 25 5 26 4 27 3 28 2 29 1 30
REMARK H PARENT
REMARK Flexibility Score: inf
ROOT
ATOM      1  C   UNL     1      24.260  -1.204  36.420  1.00  0.00     0.000 C 
ENDROOT
BRANCH   1   2
ATOM      2  C   UNL     1      25.545  -0.779  37.155  1.00  0.00     0.000 C 
BRANCH   2   3
ATOM      3  C   UNL     1      25.430   0.605  37.818  1.00  0.00     0.000 C 
BRANCH   3   4
ATOM      4  C   UNL     1      26.765   1.236  38.258  1.00  0.00     0.000 C 
BRANCH   4   5
ATOM      5  C   UNL     1      26.605   2.225  39.428  1.00  0.00     0.000 C 
BRANCH   5   6
ATOM      6  C   UNL     1      25.158   2.296  39.955  1.00  0.00     0.000 C 
BRANCH   6   7
ATOM      7  C   UNL     1      24.986   3.118  41.248  1.00  0.00     0.000 C 
BRANCH   7   8
ATOM      8  C   UNL     1      26.324   3.398  41.953  1.00  0.00     0.000 C 
BRANCH   8   9
ATOM      9  C   UNL     1      26.427   2.710  43.327  1.00  0.00     0.000 C 
BRANCH   9  10
ATOM     10  C   UNL     1      25.714   1.348  43.429  1.00  0.00     0.000 C 
BRANCH  10  11
ATOM     11  C   UNL     1      26.474   0.168  42.795  1.00  0.00     0.000 C 
BRANCH  11  12
ATOM     12  C   UNL     1      27.173  -0.744  43.827  1.00  0.00     0.006 C 
BRANCH  12  13
ATOM     13  C   UNL     1      26.902  -2.231  43.569  1.00  0.00     0.053 C 
BRANCH  13  14
ATOM     14  C   UNL     1      27.920  -3.077  44.269  1.00  0.00     0.041 C 
ATOM     15  O   UNL     1      28.537  -2.626  45.271  1.00  0.00    -0.550 OA
ATOM     16  O   UNL     1      28.234  -4.338  43.778  1.00  0.00    -0.550 OA
ENDBRANCH  13  14
ENDBRANCH  12  13
ENDBRANCH  11  12
ENDBRANCH  10  11
ENDBRANCH   9  10
ENDBRANCH   8   9
ENDBRANCH   7   8
ENDBRANCH   6   7
ENDBRANCH   5   6
ENDBRANCH   4   5
ENDBRANCH   3   4
ENDBRANCH   2   3
ENDBRANCH   1   2
BRANCH   1  17
ATOM     17  C   UNL     1      24.161  -2.737  36.256  1.00  0.00     0.000 C 
BRANCH  17  18
ATOM     18  C   UNL     1      22.813  -3.327  36.719  1.00  0.00     0.000 C 
BRANCH  18  19
ATOM     19  C   UNL     1      22.075  -4.168  35.664  1.00  0.00     0.000 C 
BRANCH  19  20
ATOM     20  C   UNL     1      22.412  -5.667  35.753  1.00  0.00     0.000 C 
BRANCH  20  21
ATOM     21  C   UNL     1      23.212  -6.165  34.537  1.00  0.00     0.000 C 
BRANCH  21  22
ATOM     22  C   UNL     1      24.432  -7.043  34.877  1.00  0.00    -0.000 C 
BRANCH  22  23
ATOM     23  C   UNL     1      24.912  -6.905  36.338  1.00  0.00    -0.000 C 
BRANCH  23  24
ATOM     24  C   UNL     1      25.969  -5.799  36.504  1.00  0.00    -0.000 C 
BRANCH  24  25
ATOM     25  C   UNL     1      26.890  -5.669  35.280  1.00  0.00    -0.000 C 
BRANCH  25  26
ATOM     26  C   UNL     1      27.319  -4.219  35.016  1.00  0.00    -0.000 C 
BRANCH  26  27
ATOM     27  C   UNL     1      28.848  -4.076  35.088  1.00  0.00    -0.000 C 
BRANCH  27  28
ATOM     28  C   UNL     1      29.356  -3.817  36.517  1.00  0.00    -0.000 C 
BRANCH  28  29
ATOM     29  C   UNL     1      30.106  -5.022  37.104  1.00  0.00    -0.003 C 
ATOM     30  C   UNL     1      31.609  -4.759  37.162  1.00  0.00     0.004 C 
ENDBRANCH  28  29
ENDBRANCH  27  28
ENDBRANCH  26  27
ENDBRANCH  25  26
ENDBRANCH  24  25
ENDBRANCH  23  24
ENDBRANCH  22  23
ENDBRANCH  21  22
ENDBRANCH  20  21
ENDBRANCH  19  20
ENDBRANCH  18  19
ENDBRANCH  17  18
ENDBRANCH   1  17
TORSDOF 26
ENDMDL
MODEL 9
REMARK VINA RESULT:    -4.446      2.375      8.862
REMARK INTER + INTRA:         -14.272
REMARK INTER:                 -11.746
REMARK INTRA:                  -2.526
REMARK UNBOUND:                -3.068
REMARK SMILES CCCCCCCCCCCCCCCCCCCCCCCCCCCC(=O)[O-]
REMARK SMILES IDX 15 1 16 2 17 3 18 4 19 5 20 6 21 7 22 8 23 9 24 10 25 11
REMARK SMILES IDX 26 12 27 13 28 14 29 15 30 16 14 17 13 18 12 19 11 20 10 21
REMARK SMILES IDX 9 22 8 23 7 24 6 25 5 26 4 27 3 28 2 29 1 30
REMARK H PARENT
REMARK Flexibility Score: inf
ROOT
ATOM      1  C   UNL     1      26.594   0.377  38.630  1.00  0.00     0.000 C 
ENDROOT
BRANCH   1   2
ATOM      2  C   UNL     1      25.589   0.051  37.509  1.00  0.00     0.000 C 
BRANCH   2   3
ATOM      3  C   UNL     1      25.555  -1.445  37.148  1.00  0.00     0.000 C 
BRANCH   3   4
ATOM      4  C   UNL     1      24.425  -1.863  36.188  1.00  0.00     0.000 C 
BRANCH   4   5
ATOM      5  C   UNL     1      23.431  -2.853  36.824  1.00  0.00     0.000 C 
BRANCH   5   6
ATOM      6  C   UNL     1      22.592  -3.611  35.778  1.00  0.00     0.000 C 
BRANCH   6   7
ATOM      7  C   UNL     1      22.373  -5.105  36.091  1.00  0.00     0.000 C 
BRANCH   7   8
ATOM      8  C   UNL     1      23.358  -6.016  35.340  1.00  0.00     0.000 C 
BRANCH   8   9
ATOM      9  C   UNL     1      24.295  -5.233  34.400  1.00  0.00     0.000 C 
BRANCH   9  10
ATOM     10  C   UNL     1      25.787  -5.278  34.781  1.00  0.00     0.000 C 
BRANCH  10  11
ATOM     11  C   UNL     1      26.070  -5.308  36.295  1.00  0.00     0.000 C 
BRANCH  11  12
ATOM     12  C   UNL     1      27.575  -5.284  36.644  1.00  0.00     0.006 C 
BRANCH  12  13
ATOM     13  C   UNL     1      28.349  -4.250  35.816  1.00  0.00     0.053 C 
BRANCH  13  14
ATOM     14  C   UNL     1      29.247  -3.440  36.698  1.00  0.00     0.041 C 
ATOM     15  O   UNL     1      28.955  -3.269  37.913  1.00  0.00    -0.550 OA
ATOM     16  O   UNL     1      30.371  -2.821  36.166  1.00  0.00    -0.550 OA
ENDBRANCH  13  14
ENDBRANCH  12  13
ENDBRANCH  11  12
ENDBRANCH  10  11
ENDBRANCH   9  10
ENDBRANCH   8   9
ENDBRANCH   7   8
ENDBRANCH   6   7
ENDBRANCH   5   6
ENDBRANCH   4   5
ENDBRANCH   3   4
ENDBRANCH   2   3
ENDBRANCH   1   2
BRANCH   1  17
ATOM     17  C   UNL     1      25.938   1.146  39.798  1.00  0.00     0.000 C 
BRANCH  17  18
ATOM     18  C   UNL     1      26.417   2.606  39.930  1.00  0.00     0.000 C 
BRANCH  18  19
ATOM     19  C   UNL     1      26.317   3.197  41.347  1.00  0.00     0.000 C 
BRANCH  19  20
ATOM     20  C   UNL     1      25.640   2.243  42.346  1.00  0.00     0.000 C 
BRANCH  20  21
ATOM     21  C   UNL     1      26.404   2.141  43.677  1.00  0.00     0.000 C 
BRANCH  21  22
ATOM     22  C   UNL     1      26.624   0.707  44.194  1.00  0.00    -0.000 C 
BRANCH  22  23
ATOM     23  C   UNL     1      26.600  -0.366  43.083  1.00  0.00    -0.000 C 
BRANCH  23  24
ATOM     24  C   UNL     1      27.745  -1.383  43.228  1.00  0.00    -0.000 C 
BRANCH  24  25
ATOM     25  C   UNL     1      27.240  -2.810  43.499  1.00  0.00    -0.000 C 
BRANCH  25  26
ATOM     26  C   UNL     1      27.440  -3.240  44.960  1.00  0.00    -0.000 C 
BRANCH  26  27
ATOM     27  C   UNL     1      28.666  -2.546  45.575  1.00  0.00    -0.000 C 
BRANCH  27  28
ATOM     28  C   UNL     1      29.576  -3.517  46.347  1.00  0.00    -0.000 C 
BRANCH  28  29
ATOM     29  C   UNL     1      29.493  -4.954  45.812  1.00  0.00    -0.003 C 
ATOM     30  C   UNL     1      30.785  -5.720  46.093  1.00  0.00     0.004 C 
ENDBRANCH  28  29
ENDBRANCH  27  28
ENDBRANCH  26  27
ENDBRANCH  25  26
ENDBRANCH  24  25
ENDBRANCH  23  24
ENDBRANCH  22  23
ENDBRANCH  21  22
ENDBRANCH  20  21
ENDBRANCH  19  20
ENDBRANCH  18  19
ENDBRANCH  17  18
ENDBRANCH   1  17
TORSDOF 26
ENDMDL
