MODEL 1
REMARK VINA RESULT:    -6.049      0.000      0.000
REMARK INTER + INTRA:          -6.630
REMARK INTER:                  -6.579
REMARK INTRA:                  -0.051
REMARK UNBOUND:                -0.051
REMARK SMILES CC1=CCC[C@@]2(C)CC[C@@H](C(C)(C)O)C[C@H]12
REMARK SMILES IDX 11 1 12 2 13 3 10 4 1 5 2 6 3 7 16 8 4 9 6 10 15 11 5 12
REMARK SMILES IDX 7 13 8 14 9 15 14 16
REMARK H PARENT 14 17
REMARK Flexibility Score: inf
ROOT
ATOM      1  C   UNL     1     112.954 116.842 129.492  1.00  0.00     0.062 C 
ATOM      2  C   UNL     1     111.625 116.338 128.889  1.00  0.00     0.042 C 
ATOM      3  C   UNL     1     113.575 115.658 130.276  1.00  0.00     0.042 C 
ENDROOT
BRANCH   1   4
ATOM      4  C   UNL     1     113.871 117.416 128.331  1.00  0.00     0.021 C 
ATOM      5  C   UNL     1     113.065 114.885 124.675  1.00  0.00     0.039 C 
ATOM      6  C   UNL     1     112.584 116.316 124.740  1.00  0.00    -0.074 C 
ATOM      7  C   UNL     1     111.909 116.826 123.684  1.00  0.00    -0.028 C 
ATOM      8  C   UNL     1     112.688 117.112 126.041  1.00  0.00     0.021 C 
ATOM      9  C   UNL     1     111.431 118.258 123.605  1.00  0.00     0.028 C 
ATOM     10  C   UNL     1     112.759 118.643 125.768  1.00  0.00    -0.026 C 
ATOM     11  C   UNL     1     113.828 116.652 126.975  1.00  0.00     0.015 C 
ATOM     12  C   UNL     1     111.505 119.019 124.939  1.00  0.00     0.011 C 
ATOM     13  C   UNL     1     114.039 119.056 124.984  1.00  0.00     0.012 C 
ATOM     14  C   UNL     1     112.710 119.407 127.118  1.00  0.00     0.008 C 
ATOM     15  C   UNL     1     113.788 118.953 128.123  1.00  0.00     0.007 C 
ENDBRANCH   1   4
BRANCH   1  16
ATOM     16  O   UNL     1     112.608 117.871 130.392  1.00  0.00    -0.390 OA
ATOM     17  H   UNL     1     112.580 118.731 129.896  1.00  0.00     0.211 HD
ENDBRANCH   1  16
TORSDOF 2
ENDMDL
MODEL 2
REMARK VINA RESULT:    -5.935      1.426      1.951
REMARK INTER + INTRA:          -6.507
REMARK INTER:                  -6.285
REMARK INTRA:                  -0.221
REMARK UNBOUND:                -0.051
REMARK SMILES CC1=CCC[C@@]2(C)CC[C@@H](C(C)(C)O)C[C@H]12
REMARK SMILES IDX 11 1 12 2 13 3 10 4 1 5 2 6 3 7 16 8 4 9 6 10 15 11 5 12
REMARK SMILES IDX 7 13 8 14 9 15 14 16
REMARK H PARENT 14 17
REMARK Flexibility Score: inf
ROOT
ATOM      1  C   UNL     1     112.917 116.535 129.597  1.00  0.00     0.062 C 
ATOM      2  C   UNL     1     114.065 115.595 130.027  1.00  0.00     0.042 C 
ATOM      3  C   UNL     1     112.334 117.161 130.889  1.00  0.00     0.042 C 
ENDROOT
BRANCH   1   4
ATOM      4  C   UNL     1     113.470 117.588 128.546  1.00  0.00     0.021 C 
ATOM      5  C   UNL     1     115.973 115.269 125.583  1.00  0.00     0.039 C 
ATOM      6  C   UNL     1     114.639 115.850 125.174  1.00  0.00    -0.074 C 
ATOM      7  C   UNL     1     114.209 115.663 123.905  1.00  0.00    -0.028 C 
ATOM      8  C   UNL     1     113.708 116.468 126.216  1.00  0.00     0.021 C 
ATOM      9  C   UNL     1     112.925 116.245 123.360  1.00  0.00     0.028 C 
ATOM     10  C   UNL     1     112.760 117.526 125.579  1.00  0.00    -0.026 C 
ATOM     11  C   UNL     1     114.434 117.035 127.456  1.00  0.00     0.015 C 
ATOM     12  C   UNL     1     111.988 116.818 124.436  1.00  0.00     0.011 C 
ATOM     13  C   UNL     1     113.529 118.751 125.001  1.00  0.00     0.012 C 
ATOM     14  C   UNL     1     111.741 118.009 126.644  1.00  0.00     0.008 C 
ATOM     15  C   UNL     1     112.400 118.535 127.935  1.00  0.00     0.007 C 
ENDBRANCH   1   4
BRANCH   1  16
ATOM     16  O   UNL     1     111.945 115.711 128.993  1.00  0.00    -0.390 OA
ATOM     17  H   UNL     1     111.993 114.808 129.404  1.00  0.00     0.211 HD
ENDBRANCH   1  16
TORSDOF 2
ENDMDL
MODEL 3
REMARK VINA RESULT:    -5.645      2.361      4.614
REMARK INTER + INTRA:          -6.191
REMARK INTER:                  -6.173
REMARK INTRA:                  -0.017
REMARK UNBOUND:                -0.051
REMARK SMILES CC1=CCC[C@@]2(C)CC[C@@H](C(C)(C)O)C[C@H]12
REMARK SMILES IDX 11 1 12 2 13 3 10 4 1 5 2 6 3 7 16 8 4 9 6 10 15 11 5 12
REMARK SMILES IDX 7 13 8 14 9 15 14 16
REMARK H PARENT 14 17
REMARK Flexibility Score: inf
ROOT
ATOM      1  C   UNL     1     113.642 115.291 123.857  1.00  0.00     0.062 C 
ATOM      2  C   UNL     1     114.919 116.059 124.260  1.00  0.00     0.042 C 
ATOM      3  C   UNL     1     113.846 113.815 124.283  1.00  0.00     0.042 C 
ENDROOT
BRANCH   1   4
ATOM      4  C   UNL     1     112.379 115.996 124.510  1.00  0.00     0.021 C 
ATOM      5  C   UNL     1     113.064 115.997 128.977  1.00  0.00     0.039 C 
ATOM      6  C   UNL     1     113.133 117.284 128.189  1.00  0.00    -0.074 C 
ATOM      7  C   UNL     1     113.403 118.436 128.844  1.00  0.00    -0.028 C 
ATOM      8  C   UNL     1     113.090 117.263 126.661  1.00  0.00     0.021 C 
ATOM      9  C   UNL     1     113.440 119.793 128.178  1.00  0.00     0.028 C 
ATOM     10  C   UNL     1     112.544 118.603 126.087  1.00  0.00    -0.026 C 
ATOM     11  C   UNL     1     112.345 116.049 126.065  1.00  0.00     0.015 C 
ATOM     12  C   UNL     1     113.442 119.738 126.641  1.00  0.00     0.011 C 
ATOM     13  C   UNL     1     111.065 118.871 126.491  1.00  0.00     0.012 C 
ATOM     14  C   UNL     1     112.663 118.585 124.540  1.00  0.00     0.008 C 
ATOM     15  C   UNL     1     111.988 117.363 123.884  1.00  0.00     0.007 C 
ENDBRANCH   1   4
BRANCH   1  16
ATOM     16  O   UNL     1     113.568 115.368 122.451  1.00  0.00    -0.390 OA
ATOM     17  H   UNL     1     112.615 115.309 122.179  1.00  0.00     0.211 HD
ENDBRANCH   1  16
TORSDOF 2
ENDMDL
MODEL 4
REMARK VINA RESULT:    -5.561      1.553      3.492
REMARK INTER + INTRA:          -6.099
REMARK INTER:                  -5.880
REMARK INTRA:                  -0.219
REMARK UNBOUND:                -0.051
REMARK SMILES CC1=CCC[C@@]2(C)CC[C@@H](C(C)(C)O)C[C@H]12
REMARK SMILES IDX 11 1 12 2 13 3 10 4 1 5 2 6 3 7 16 8 4 9 6 10 15 11 5 12
REMARK SMILES IDX 7 13 8 14 9 15 14 16
REMARK H PARENT 14 17
REMARK Flexibility Score: inf
ROOT
ATOM      1  C   UNL     1     113.220 117.495 129.401  1.00  0.00     0.062 C 
ATOM      2  C   UNL     1     112.869 115.993 129.339  1.00  0.00     0.042 C 
ATOM      3  C   UNL     1     114.703 117.633 128.974  1.00  0.00     0.042 C 
ENDROOT
BRANCH   1   4
ATOM      4  C   UNL     1     112.197 118.309 128.501  1.00  0.00     0.021 C 
ATOM      5  C   UNL     1     114.176 122.257 127.540  1.00  0.00     0.039 C 
ATOM      6  C   UNL     1     113.989 121.209 126.467  1.00  0.00    -0.074 C 
ATOM      7  C   UNL     1     114.424 121.475 125.214  1.00  0.00    -0.028 C 
ATOM      8  C   UNL     1     113.495 119.808 126.826  1.00  0.00     0.021 C 
ATOM      9  C   UNL     1     114.240 120.535 124.044  1.00  0.00     0.028 C 
ATOM     10  C   UNL     1     112.782 119.128 125.620  1.00  0.00    -0.026 C 
ATOM     11  C   UNL     1     112.625 119.751 128.101  1.00  0.00     0.015 C 
ATOM     12  C   UNL     1     113.787 119.120 124.440  1.00  0.00     0.011 C 
ATOM     13  C   UNL     1     111.486 119.874 125.190  1.00  0.00     0.012 C 
ATOM     14  C   UNL     1     112.437 117.661 125.990  1.00  0.00     0.008 C 
ATOM     15  C   UNL     1     111.617 117.528 127.289  1.00  0.00     0.007 C 
ENDBRANCH   1   4
BRANCH   1  16
ATOM     16  O   UNL     1     113.084 117.872 130.753  1.00  0.00    -0.390 OA
ATOM     17  H   UNL     1     113.058 117.051 131.311  1.00  0.00     0.211 HD
ENDBRANCH   1  16
TORSDOF 2
ENDMDL
MODEL 5
REMARK VINA RESULT:    -5.479      1.506      2.950
REMARK INTER + INTRA:          -6.010
REMARK INTER:                  -5.794
REMARK INTRA:                  -0.216
REMARK UNBOUND:                -0.051
REMARK SMILES CC1=CCC[C@@]2(C)CC[C@@H](C(C)(C)O)C[C@H]12
REMARK SMILES IDX 11 1 12 2 13 3 10 4 1 5 2 6 3 7 16 8 4 9 6 10 15 11 5 12
REMARK SMILES IDX 7 13 8 14 9 15 14 16
REMARK H PARENT 14 17
REMARK Flexibility Score: inf
ROOT
ATOM      1  C   UNL     1     114.577 116.932 129.912  1.00  0.00     0.062 C 
ATOM      2  C   UNL     1     114.050 115.624 130.541  1.00  0.00     0.042 C 
ATOM      3  C   UNL     1     115.456 116.532 128.700  1.00  0.00     0.042 C 
ENDROOT
BRANCH   1   4
ATOM      4  C   UNL     1     113.349 117.872 129.553  1.00  0.00     0.021 C 
ATOM      5  C   UNL     1     114.768 120.667 126.297  1.00  0.00     0.039 C 
ATOM      6  C   UNL     1     113.772 119.572 125.991  1.00  0.00    -0.074 C 
ATOM      7  C   UNL     1     113.313 119.445 124.725  1.00  0.00    -0.028 C 
ATOM      8  C   UNL     1     113.435 118.512 127.039  1.00  0.00     0.021 C 
ATOM      9  C   UNL     1     112.273 118.431 124.306  1.00  0.00     0.028 C 
ATOM     10  C   UNL     1     112.017 117.912 126.808  1.00  0.00    -0.026 C 
ATOM     11  C   UNL     1     113.617 118.984 128.498  1.00  0.00     0.015 C 
ATOM     12  C   UNL     1     111.988 117.351 125.363  1.00  0.00     0.011 C 
ATOM     13  C   UNL     1     110.884 118.966 126.975  1.00  0.00     0.012 C 
ATOM     14  C   UNL     1     111.787 116.743 127.801  1.00  0.00     0.008 C 
ATOM     15  C   UNL     1     112.011 117.132 129.276  1.00  0.00     0.007 C 
ENDBRANCH   1   4
BRANCH   1  16
ATOM     16  O   UNL     1     115.382 117.541 130.896  1.00  0.00    -0.390 OA
ATOM     17  H   UNL     1     115.462 118.509 130.688  1.00  0.00     0.211 HD
ENDBRANCH   1  16
TORSDOF 2
ENDMDL
MODEL 6
REMARK VINA RESULT:    -5.418      2.420      4.994
REMARK INTER + INTRA:          -5.944
REMARK INTER:                  -5.753
REMARK INTRA:                  -0.191
REMARK UNBOUND:                -0.051
REMARK SMILES CC1=CCC[C@@]2(C)CC[C@@H](C(C)(C)O)C[C@H]12
REMARK SMILES IDX 11 1 12 2 13 3 10 4 1 5 2 6 3 7 16 8 4 9 6 10 15 11 5 12
REMARK SMILES IDX 7 13 8 14 9 15 14 16
REMARK H PARENT 14 17
REMARK Flexibility Score: inf
ROOT
ATOM      1  C   UNL     1     114.037 120.484 126.857  1.00  0.00     0.062 C 
ATOM      2  C   UNL     1     115.546 120.367 127.159  1.00  0.00     0.042 C 
ATOM      3  C   UNL     1     113.891 121.400 125.615  1.00  0.00     0.042 C 
ENDROOT
BRANCH   1   4
ATOM      4  C   UNL     1     113.424 119.031 126.679  1.00  0.00     0.021 C 
ATOM      5  C   UNL     1     116.275 116.168 128.703  1.00  0.00     0.039 C 
ATOM      6  C   UNL     1     114.919 116.456 129.304  1.00  0.00    -0.074 C 
ATOM      7  C   UNL     1     114.574 115.841 130.459  1.00  0.00    -0.028 C 
ATOM      8  C   UNL     1     114.032 117.560 128.729  1.00  0.00     0.021 C 
ATOM      9  C   UNL     1     113.226 116.000 131.125  1.00  0.00     0.028 C 
ATOM     10  C   UNL     1     112.526 117.292 129.019  1.00  0.00    -0.026 C 
ATOM     11  C   UNL     1     114.275 117.850 127.232  1.00  0.00     0.015 C 
ATOM     12  C   UNL     1     112.375 117.147 130.555  1.00  0.00     0.011 C 
ATOM     13  C   UNL     1     112.001 116.001 128.326  1.00  0.00     0.012 C 
ATOM     14  C   UNL     1     111.688 118.509 128.549  1.00  0.00     0.008 C 
ATOM     15  C   UNL     1     111.928 118.891 127.075  1.00  0.00     0.007 C 
ENDBRANCH   1   4
BRANCH   1  16
ATOM     16  O   UNL     1     113.463 121.119 127.978  1.00  0.00    -0.390 OA
ATOM     17  H   UNL     1     114.164 121.653 128.434  1.00  0.00     0.211 HD
ENDBRANCH   1  16
TORSDOF 2
ENDMDL
MODEL 7
REMARK VINA RESULT:    -5.395      2.551      4.440
REMARK INTER + INTRA:          -5.919
REMARK INTER:                  -5.705
REMARK INTRA:                  -0.214
REMARK UNBOUND:                -0.051
REMARK SMILES CC1=CCC[C@@]2(C)CC[C@@H](C(C)(C)O)C[C@H]12
REMARK SMILES IDX 11 1 12 2 13 3 10 4 1 5 2 6 3 7 16 8 4 9 6 10 15 11 5 12
REMARK SMILES IDX 7 13 8 14 9 15 14 16
REMARK H PARENT 14 17
REMARK Flexibility Score: inf
ROOT
ATOM      1  C   UNL     1     114.886 121.444 125.370  1.00  0.00     0.062 C 
ATOM      2  C   UNL     1     115.861 121.782 126.519  1.00  0.00     0.042 C 
ATOM      3  C   UNL     1     115.604 120.427 124.448  1.00  0.00     0.042 C 
ENDROOT
BRANCH   1   4
ATOM      4  C   UNL     1     113.516 120.926 125.982  1.00  0.00     0.021 C 
ATOM      5  C   UNL     1     111.598 118.314 122.832  1.00  0.00     0.039 C 
ATOM      6  C   UNL     1     112.169 117.705 124.092  1.00  0.00    -0.074 C 
ATOM      7  C   UNL     1     112.094 116.365 124.259  1.00  0.00    -0.028 C 
ATOM      8  C   UNL     1     112.982 118.556 125.067  1.00  0.00     0.021 C 
ATOM      9  C   UNL     1     112.574 115.646 125.500  1.00  0.00     0.028 C 
ATOM     10  C   UNL     1     112.926 117.979 126.512  1.00  0.00    -0.026 C 
ATOM     11  C   UNL     1     112.626 120.059 125.045  1.00  0.00     0.015 C 
ATOM     12  C   UNL     1     113.427 116.515 126.439  1.00  0.00     0.011 C 
ATOM     13  C   UNL     1     111.491 118.004 127.113  1.00  0.00     0.012 C 
ATOM     14  C   UNL     1     113.884 118.788 127.424  1.00  0.00     0.008 C 
ATOM     15  C   UNL     1     113.620 120.308 127.404  1.00  0.00     0.007 C 
ENDBRANCH   1   4
BRANCH   1  16
ATOM     16  O   UNL     1     114.678 122.649 124.668  1.00  0.00    -0.390 OA
ATOM     17  H   UNL     1     114.409 122.433 123.737  1.00  0.00     0.211 HD
ENDBRANCH   1  16
TORSDOF 2
ENDMDL
MODEL 8
REMARK VINA RESULT:    -5.361      2.041      4.806
REMARK INTER + INTRA:          -5.882
REMARK INTER:                  -5.748
REMARK INTRA:                  -0.134
REMARK UNBOUND:                -0.051
REMARK SMILES CC1=CCC[C@@]2(C)CC[C@@H](C(C)(C)O)C[C@H]12
REMARK SMILES IDX 11 1 12 2 13 3 10 4 1 5 2 6 3 7 16 8 4 9 6 10 15 11 5 12
REMARK SMILES IDX 7 13 8 14 9 15 14 16
REMARK H PARENT 14 17
REMARK Flexibility Score: inf
ROOT
ATOM      1  C   UNL     1     112.770 116.939 123.912  1.00  0.00     0.062 C 
ATOM      2  C   UNL     1     112.377 115.620 124.611  1.00  0.00     0.042 C 
ATOM      3  C   UNL     1     111.990 116.993 122.573  1.00  0.00     0.042 C 
ENDROOT
BRANCH   1   4
ATOM      4  C   UNL     1     112.483 118.155 124.890  1.00  0.00     0.021 C 
ATOM      5  C   UNL     1     111.472 116.367 128.915  1.00  0.00     0.039 C 
ATOM      6  C   UNL     1     112.780 117.095 128.704  1.00  0.00    -0.074 C 
ATOM      7  C   UNL     1     113.641 117.203 129.742  1.00  0.00    -0.028 C 
ATOM      8  C   UNL     1     113.207 117.535 127.304  1.00  0.00     0.021 C 
ATOM      9  C   UNL     1     114.949 117.958 129.673  1.00  0.00     0.028 C 
ATOM     10  C   UNL     1     114.173 118.754 127.359  1.00  0.00    -0.026 C 
ATOM     11  C   UNL     1     112.033 117.788 126.334  1.00  0.00     0.015 C 
ATOM     12  C   UNL     1     115.375 118.346 128.247  1.00  0.00     0.011 C 
ATOM     13  C   UNL     1     113.501 120.027 127.952  1.00  0.00     0.012 C 
ATOM     14  C   UNL     1     114.692 119.062 125.930  1.00  0.00     0.008 C 
ATOM     15  C   UNL     1     113.567 119.268 124.895  1.00  0.00     0.007 C 
ENDBRANCH   1   4
BRANCH   1  16
ATOM     16  O   UNL     1     114.151 116.844 123.647  1.00  0.00    -0.390 OA
ATOM     17  H   UNL     1     114.415 115.886 123.672  1.00  0.00     0.211 HD
ENDBRANCH   1  16
TORSDOF 2
ENDMDL
MODEL 9
REMARK VINA RESULT:    -5.317      2.093      4.609
REMARK INTER + INTRA:          -5.834
REMARK INTER:                  -5.616
REMARK INTRA:                  -0.218
REMARK UNBOUND:                -0.051
REMARK SMILES CC1=CCC[C@@]2(C)CC[C@@H](C(C)(C)O)C[C@H]12
REMARK SMILES IDX 11 1 12 2 13 3 10 4 1 5 2 6 3 7 16 8 4 9 6 10 15 11 5 12
REMARK SMILES IDX 7 13 8 14 9 15 14 16
REMARK H PARENT 14 17
REMARK Flexibility Score: inf
ROOT
ATOM      1  C   UNL     1     114.388 121.328 126.229  1.00  0.00     0.062 C 
ATOM      2  C   UNL     1     115.812 121.386 126.821  1.00  0.00     0.042 C 
ATOM      3  C   UNL     1     114.268 122.499 125.220  1.00  0.00     0.042 C 
ENDROOT
BRANCH   1   4
ATOM      4  C   UNL     1     114.139 119.891 125.603  1.00  0.00     0.021 C 
ATOM      5  C   UNL     1     115.567 116.884 128.659  1.00  0.00     0.039 C 
ATOM      6  C   UNL     1     114.092 117.051 128.375  1.00  0.00    -0.074 C 
ATOM      7  C   UNL     1     113.207 116.283 129.053  1.00  0.00    -0.028 C 
ATOM      8  C   UNL     1     113.595 118.191 127.487  1.00  0.00     0.021 C 
ATOM      9  C   UNL     1     111.714 116.314 128.815  1.00  0.00     0.028 C 
ATOM     10  C   UNL     1     112.233 117.841 126.818  1.00  0.00    -0.026 C 
ATOM     11  C   UNL     1     114.627 118.677 126.446  1.00  0.00     0.015 C 
ATOM     12  C   UNL     1     111.240 117.497 127.956  1.00  0.00     0.011 C 
ATOM     13  C   UNL     1     112.336 116.633 125.841  1.00  0.00     0.012 C 
ATOM     14  C   UNL     1     111.704 119.082 126.053  1.00  0.00     0.008 C 
ATOM     15  C   UNL     1     112.711 119.656 125.036  1.00  0.00     0.007 C 
ENDBRANCH   1   4
BRANCH   1  16
ATOM     16  O   UNL     1     113.507 121.547 127.308  1.00  0.00    -0.390 OA
ATOM     17  H   UNL     1     113.464 120.720 127.856  1.00  0.00     0.211 HD
ENDBRANCH   1  16
TORSDOF 2
ENDMDL
