MODEL 1
REMARK VINA RESULT:    -2.736      0.000      0.000
REMARK INTER + INTRA:          -7.024
REMARK INTER:                  -5.295
REMARK INTRA:                  -1.729
REMARK UNBOUND:                -1.729
REMARK SMILES CCCCCC=CCC=CCCCCCCCCOC(C)=O
REMARK SMILES IDX 12 1 11 2 10 3 9 4 8 5 7 6 6 7 5 8 4 9 3 10 2 11 1 12 13 13
REMARK SMILES IDX 14 14 15 15 16 16 17 17 18 18 19 19 20 20 22 21 21 22
REMARK H PARENT
REMARK Flexibility Score: inf
ROOT
ATOM      1  C   UNL     1      19.450  52.305  55.507  1.00  0.00     0.004 C 
ENDROOT
BRANCH   1   2
ATOM      2  C   UNL     1      18.851  53.566  54.859  1.00  0.00     0.027 C 
BRANCH   2   3
ATOM      3  C   UNL     1      18.849  54.748  55.798  1.00  0.00    -0.031 C 
ATOM      4  C   UNL     1      19.722  55.769  55.738  1.00  0.00    -0.027 C 
BRANCH   4   5
ATOM      5  C   UNL     1      20.869  55.834  54.761  1.00  0.00     0.054 C 
BRANCH   5   6
ATOM      6  C   UNL     1      22.161  56.124  55.482  1.00  0.00    -0.027 C 
ATOM      7  C   UNL     1      23.391  55.819  55.026  1.00  0.00    -0.031 C 
BRANCH   7   8
ATOM      8  C   UNL     1      23.687  55.178  53.693  1.00  0.00     0.027 C 
BRANCH   8   9
ATOM      9  C   UNL     1      23.262  56.083  52.526  1.00  0.00     0.004 C 
BRANCH   9  10
ATOM     10  C   UNL     1      23.904  55.671  51.193  1.00  0.00     0.000 C 
BRANCH  10  11
ATOM     11  C   UNL     1      22.902  55.015  50.231  1.00  0.00    -0.003 C 
ATOM     12  C   UNL     1      23.472  54.932  48.817  1.00  0.00     0.004 C 
ENDBRANCH  10  11
ENDBRANCH   9  10
ENDBRANCH   8   9
ENDBRANCH   7   8
ENDBRANCH   5   6
ENDBRANCH   4   5
ENDBRANCH   2   3
ENDBRANCH   1   2
BRANCH   1  13
ATOM     13  C   UNL     1      20.941  52.433  55.875  1.00  0.00     0.000 C 
BRANCH  13  14
ATOM     14  C   UNL     1      21.762  51.199  55.458  1.00  0.00     0.000 C 
BRANCH  14  15
ATOM     15  C   UNL     1      23.264  51.372  55.737  1.00  0.00     0.000 C 
BRANCH  15  16
ATOM     16  C   UNL     1      24.124  51.123  54.485  1.00  0.00     0.003 C 
BRANCH  16  17
ATOM     17  C   UNL     1      23.566  51.820  53.232  1.00  0.00     0.042 C 
BRANCH  17  18
ATOM     18  C   UNL     1      23.427  50.891  52.020  1.00  0.00     0.233 C 
BRANCH  18  19
ATOM     19  O   UNL     1      22.157  51.072  51.400  1.00  0.00    -0.466 OA
BRANCH  19  20
ATOM     20  C   UNL     1      22.018  51.419  50.052  1.00  0.00     0.302 C 
ATOM     21  O   UNL     1      20.999  52.044  49.651  1.00  0.00    -0.253 OA
ATOM     22  C   UNL     1      23.109  51.088  49.092  1.00  0.00     0.139 C 
ENDBRANCH  19  20
ENDBRANCH  18  19
ENDBRANCH  17  18
ENDBRANCH  16  17
ENDBRANCH  15  16
ENDBRANCH  14  15
ENDBRANCH  13  14
ENDBRANCH   1  13
TORSDOF 16
ENDMDL
MODEL 2
REMARK VINA RESULT:    -2.330      2.302      4.966
REMARK INTER + INTRA:          -6.238
REMARK INTER:                  -4.606
REMARK INTRA:                  -1.632
REMARK UNBOUND:                -1.729
REMARK SMILES CCCCCC=CCC=CCCCCCCCCOC(C)=O
REMARK SMILES IDX 12 1 11 2 10 3 9 4 8 5 7 6 6 7 5 8 4 9 3 10 2 11 1 12 13 13
REMARK SMILES IDX 14 14 15 15 16 16 17 17 18 18 19 19 20 20 22 21 21 22
REMARK H PARENT
REMARK Flexibility Score: inf
ROOT
ATOM      1  C   UNL     1      21.104  51.886  52.063  1.00  0.00     0.004 C 
ENDROOT
BRANCH   1   2
ATOM      2  C   UNL     1      21.358  53.392  51.872  1.00  0.00     0.027 C 
BRANCH   2   3
ATOM      3  C   UNL     1      22.742  53.800  52.316  1.00  0.00    -0.031 C 
ATOM      4  C   UNL     1      23.400  54.881  51.859  1.00  0.00    -0.027 C 
BRANCH   4   5
ATOM      5  C   UNL     1      22.865  55.794  50.786  1.00  0.00     0.054 C 
BRANCH   5   6
ATOM      6  C   UNL     1      23.550  55.521  49.470  1.00  0.00    -0.027 C 
ATOM      7  C   UNL     1      23.217  54.540  48.609  1.00  0.00    -0.031 C 
BRANCH   7   8
ATOM      8  C   UNL     1      22.070  53.578  48.793  1.00  0.00     0.027 C 
BRANCH   8   9
ATOM      9  C   UNL     1      22.105  52.454  47.745  1.00  0.00     0.004 C 
BRANCH   9  10
ATOM     10  C   UNL     1      22.849  51.205  48.243  1.00  0.00     0.000 C 
BRANCH  10  11
ATOM     11  C   UNL     1      23.348  51.349  49.688  1.00  0.00    -0.003 C 
ATOM     12  C   UNL     1      24.125  50.111  50.128  1.00  0.00     0.004 C 
ENDBRANCH  10  11
ENDBRANCH   9  10
ENDBRANCH   8   9
ENDBRANCH   7   8
ENDBRANCH   5   6
ENDBRANCH   4   5
ENDBRANCH   2   3
ENDBRANCH   1   2
BRANCH   1  13
ATOM     13  C   UNL     1      21.515  51.348  53.446  1.00  0.00     0.000 C 
BRANCH  13  14
ATOM     14  C   UNL     1      22.974  50.859  53.483  1.00  0.00     0.000 C 
BRANCH  14  15
ATOM     15  C   UNL     1      23.659  51.152  54.828  1.00  0.00     0.000 C 
BRANCH  15  16
ATOM     16  C   UNL     1      24.084  52.626  54.960  1.00  0.00     0.003 C 
BRANCH  16  17
ATOM     17  C   UNL     1      23.382  53.345  56.125  1.00  0.00     0.042 C 
BRANCH  17  18
ATOM     18  C   UNL     1      21.855  53.218  56.099  1.00  0.00     0.233 C 
BRANCH  18  19
ATOM     19  O   UNL     1      21.251  54.507  56.033  1.00  0.00    -0.466 OA
BRANCH  19  20
ATOM     20  C   UNL     1      20.355  54.869  55.022  1.00  0.00     0.302 C 
ATOM     21  O   UNL     1      20.594  55.857  54.274  1.00  0.00    -0.253 OA
ATOM     22  C   UNL     1      19.130  54.050  54.796  1.00  0.00     0.139 C 
ENDBRANCH  19  20
ENDBRANCH  18  19
ENDBRANCH  17  18
ENDBRANCH  16  17
ENDBRANCH  15  16
ENDBRANCH  14  15
ENDBRANCH  13  14
ENDBRANCH   1  13
TORSDOF 16
ENDMDL
MODEL 3
REMARK VINA RESULT:    -2.098     11.692     15.278
REMARK INTER + INTRA:          -5.789
REMARK INTER:                  -4.568
REMARK INTRA:                  -1.221
REMARK UNBOUND:                -1.729
REMARK SMILES CCCCCC=CCC=CCCCCCCCCOC(C)=O
REMARK SMILES IDX 12 1 11 2 10 3 9 4 8 5 7 6 6 7 5 8 4 9 3 10 2 11 1 12 13 13
REMARK SMILES IDX 14 14 15 15 16 16 17 17 18 18 19 19 20 20 22 21 21 22
REMARK H PARENT
REMARK Flexibility Score: inf
ROOT
ATOM      1  C   UNL     1      21.762  53.510  39.314  1.00  0.00     0.004 C 
ENDROOT
BRANCH   1   2
ATOM      2  C   UNL     1      23.159  53.439  38.673  1.00  0.00     0.027 C 
BRANCH   2   3
ATOM      3  C   UNL     1      23.770  52.062  38.779  1.00  0.00    -0.031 C 
ATOM      4  C   UNL     1      23.921  51.215  37.746  1.00  0.00    -0.027 C 
BRANCH   4   5
ATOM      5  C   UNL     1      23.436  51.505  36.348  1.00  0.00     0.054 C 
BRANCH   5   6
ATOM      6  C   UNL     1      22.503  50.417  35.877  1.00  0.00    -0.027 C 
ATOM      7  C   UNL     1      21.180  50.368  36.120  1.00  0.00    -0.031 C 
BRANCH   7   8
ATOM      8  C   UNL     1      20.396  51.419  36.866  1.00  0.00     0.027 C 
BRANCH   8   9
ATOM      9  C   UNL     1      19.938  52.548  35.929  1.00  0.00     0.004 C 
BRANCH   9  10
ATOM     10  C   UNL     1      19.120  53.626  36.658  1.00  0.00     0.000 C 
BRANCH  10  11
ATOM     11  C   UNL     1      19.865  54.965  36.762  1.00  0.00    -0.003 C 
ATOM     12  C   UNL     1      21.113  54.970  35.883  1.00  0.00     0.004 C 
ENDBRANCH  10  11
ENDBRANCH   9  10
ENDBRANCH   8   9
ENDBRANCH   7   8
ENDBRANCH   5   6
ENDBRANCH   4   5
ENDBRANCH   2   3
ENDBRANCH   1   2
BRANCH   1  13
ATOM     13  C   UNL     1      21.620  52.686  40.607  1.00  0.00     0.000 C 
BRANCH  13  14
ATOM     14  C   UNL     1      22.253  53.381  41.826  1.00  0.00     0.000 C 
BRANCH  14  15
ATOM     15  C   UNL     1      23.557  54.115  41.473  1.00  0.00     0.000 C 
BRANCH  15  16
ATOM     16  C   UNL     1      23.385  55.644  41.466  1.00  0.00     0.003 C 
BRANCH  16  17
ATOM     17  C   UNL     1      22.142  56.106  42.246  1.00  0.00     0.042 C 
BRANCH  17  18
ATOM     18  C   UNL     1      20.859  56.124  41.408  1.00  0.00     0.233 C 
BRANCH  18  19
ATOM     19  O   UNL     1      19.853  55.325  42.022  1.00  0.00    -0.466 OA
BRANCH  19  20
ATOM     20  C   UNL     1      18.570  55.181  41.485  1.00  0.00     0.302 C 
ATOM     21  O   UNL     1      17.577  55.730  42.036  1.00  0.00    -0.253 OA
ATOM     22  C   UNL     1      18.384  54.413  40.221  1.00  0.00     0.139 C 
ENDBRANCH  19  20
ENDBRANCH  18  19
ENDBRANCH  17  18
ENDBRANCH  16  17
ENDBRANCH  15  16
ENDBRANCH  14  15
ENDBRANCH  13  14
ENDBRANCH   1  13
TORSDOF 16
ENDMDL
MODEL 4
REMARK VINA RESULT:    -1.369     24.075     26.202
REMARK INTER + INTRA:          -4.377
REMARK INTER:                  -3.448
REMARK INTRA:                  -0.929
REMARK UNBOUND:                -1.729
REMARK SMILES CCCCCC=CCC=CCCCCCCCCOC(C)=O
REMARK SMILES IDX 12 1 11 2 10 3 9 4 8 5 7 6 6 7 5 8 4 9 3 10 2 11 1 12 13 13
REMARK SMILES IDX 14 14 15 15 16 16 17 17 18 18 19 19 20 20 22 21 21 22
REMARK H PARENT
REMARK Flexibility Score: inf
ROOT
ATOM      1  C   UNL     1       5.720  37.807  43.362  1.00  0.00     0.004 C 
ENDROOT
BRANCH   1   2
ATOM      2  C   UNL     1       4.819  37.467  44.562  1.00  0.00     0.027 C 
BRANCH   2   3
ATOM      3  C   UNL     1       5.366  36.325  45.384  1.00  0.00    -0.031 C 
ATOM      4  C   UNL     1       4.953  36.015  46.626  1.00  0.00    -0.027 C 
BRANCH   4   5
ATOM      5  C   UNL     1       3.931  36.815  47.392  1.00  0.00     0.054 C 
BRANCH   5   6
ATOM      6  C   UNL     1       4.598  37.625  48.476  1.00  0.00    -0.027 C 
ATOM      7  C   UNL     1       4.677  37.271  49.773  1.00  0.00    -0.031 C 
BRANCH   7   8
ATOM      8  C   UNL     1       4.152  35.982  50.354  1.00  0.00     0.027 C 
BRANCH   8   9
ATOM      9  C   UNL     1       3.899  36.107  51.864  1.00  0.00     0.004 C 
BRANCH   9  10
ATOM     10  C   UNL     1       4.734  37.222  52.513  1.00  0.00     0.000 C 
BRANCH  10  11
ATOM     11  C   UNL     1       4.702  37.169  54.048  1.00  0.00    -0.003 C 
ATOM     12  C   UNL     1       4.004  35.903  54.539  1.00  0.00     0.004 C 
ENDBRANCH  10  11
ENDBRANCH   9  10
ENDBRANCH   8   9
ENDBRANCH   7   8
ENDBRANCH   5   6
ENDBRANCH   4   5
ENDBRANCH   2   3
ENDBRANCH   1   2
BRANCH   1  13
ATOM     13  C   UNL     1       5.850  36.670  42.330  1.00  0.00     0.000 C 
BRANCH  13  14
ATOM     14  C   UNL     1       4.524  35.922  42.101  1.00  0.00     0.000 C 
BRANCH  14  15
ATOM     15  C   UNL     1       4.124  35.875  40.617  1.00  0.00     0.000 C 
BRANCH  15  16
ATOM     16  C   UNL     1       4.497  37.168  39.869  1.00  0.00     0.003 C 
BRANCH  16  17
ATOM     17  C   UNL     1       4.336  37.040  38.344  1.00  0.00     0.042 C 
BRANCH  17  18
ATOM     18  C   UNL     1       5.641  36.709  37.611  1.00  0.00     0.233 C 
BRANCH  18  19
ATOM     19  O   UNL     1       5.943  37.720  36.654  1.00  0.00    -0.466 OA
BRANCH  19  20
ATOM     20  C   UNL     1       7.245  38.169  36.416  1.00  0.00     0.302 C 
ATOM     21  O   UNL     1       8.151  37.363  36.071  1.00  0.00    -0.253 OA
ATOM     22  C   UNL     1       7.553  39.624  36.526  1.00  0.00     0.139 C 
ENDBRANCH  19  20
ENDBRANCH  18  19
ENDBRANCH  17  18
ENDBRANCH  16  17
ENDBRANCH  15  16
ENDBRANCH  14  15
ENDBRANCH  13  14
ENDBRANCH   1  13
TORSDOF 16
ENDMDL
MODEL 5
REMARK VINA RESULT:    -1.346      7.201     10.887
REMARK INTER + INTRA:          -4.333
REMARK INTER:                  -3.088
REMARK INTRA:                  -1.244
REMARK UNBOUND:                -1.729
REMARK SMILES CCCCCC=CCC=CCCCCCCCCOC(C)=O
REMARK SMILES IDX 12 1 11 2 10 3 9 4 8 5 7 6 6 7 5 8 4 9 3 10 2 11 1 12 13 13
REMARK SMILES IDX 14 14 15 15 16 16 17 17 18 18 19 19 20 20 22 21 21 22
REMARK H PARENT
REMARK Flexibility Score: inf
ROOT
ATOM      1  C   UNL     1      21.603  52.347  45.312  1.00  0.00     0.004 C 
ENDROOT
BRANCH   1   2
ATOM      2  C   UNL     1      20.745  52.753  44.100  1.00  0.00     0.027 C 
BRANCH   2   3
ATOM      3  C   UNL     1      21.574  52.966  42.857  1.00  0.00    -0.031 C 
ATOM      4  C   UNL     1      21.070  53.065  41.614  1.00  0.00    -0.027 C 
BRANCH   4   5
ATOM      5  C   UNL     1      19.607  52.907  41.289  1.00  0.00     0.054 C 
BRANCH   5   6
ATOM      6  C   UNL     1      19.019  54.222  40.844  1.00  0.00    -0.027 C 
ATOM      7  C   UNL     1      18.797  54.582  39.565  1.00  0.00    -0.031 C 
BRANCH   7   8
ATOM      8  C   UNL     1      19.056  53.708  38.362  1.00  0.00     0.027 C 
BRANCH   8   9
ATOM      9  C   UNL     1      20.451  53.964  37.771  1.00  0.00     0.004 C 
BRANCH   9  10
ATOM     10  C   UNL     1      20.925  52.821  36.859  1.00  0.00     0.000 C 
BRANCH  10  11
ATOM     11  C   UNL     1      21.267  51.543  37.640  1.00  0.00    -0.003 C 
ATOM     12  C   UNL     1      22.563  51.712  38.429  1.00  0.00     0.004 C 
ENDBRANCH  10  11
ENDBRANCH   9  10
ENDBRANCH   8   9
ENDBRANCH   7   8
ENDBRANCH   5   6
ENDBRANCH   4   5
ENDBRANCH   2   3
ENDBRANCH   1   2
BRANCH   1  13
ATOM     13  C   UNL     1      20.952  52.653  46.675  1.00  0.00     0.000 C 
BRANCH  13  14
ATOM     14  C   UNL     1      21.930  52.480  47.851  1.00  0.00     0.000 C 
BRANCH  14  15
ATOM     15  C   UNL     1      21.245  52.659  49.216  1.00  0.00     0.000 C 
BRANCH  15  16
ATOM     16  C   UNL     1      21.986  53.663  50.116  1.00  0.00     0.003 C 
BRANCH  16  17
ATOM     17  C   UNL     1      22.338  53.078  51.495  1.00  0.00     0.042 C 
BRANCH  17  18
ATOM     18  C   UNL     1      22.001  51.590  51.639  1.00  0.00     0.233 C 
BRANCH  18  19
ATOM     19  O   UNL     1      20.983  51.404  52.618  1.00  0.00    -0.466 OA
BRANCH  19  20
ATOM     20  C   UNL     1      21.216  51.557  53.988  1.00  0.00     0.302 C 
ATOM     21  O   UNL     1      20.483  52.310  54.685  1.00  0.00    -0.253 OA
ATOM     22  C   UNL     1      22.313  50.784  54.638  1.00  0.00     0.139 C 
ENDBRANCH  19  20
ENDBRANCH  18  19
ENDBRANCH  17  18
ENDBRANCH  16  17
ENDBRANCH  15  16
ENDBRANCH  14  15
ENDBRANCH  13  14
ENDBRANCH   1  13
TORSDOF 16
ENDMDL
MODEL 6
REMARK VINA RESULT:    -1.268      5.929      9.021
REMARK INTER + INTRA:          -4.183
REMARK INTER:                  -2.859
REMARK INTRA:                  -1.324
REMARK UNBOUND:                -1.729
REMARK SMILES CCCCCC=CCC=CCCCCCCCCOC(C)=O
REMARK SMILES IDX 12 1 11 2 10 3 9 4 8 5 7 6 6 7 5 8 4 9 3 10 2 11 1 12 13 13
REMARK SMILES IDX 14 14 15 15 16 16 17 17 18 18 19 19 20 20 22 21 21 22
REMARK H PARENT
REMARK Flexibility Score: inf
ROOT
ATOM      1  C   UNL     1      21.878  52.866  47.721  1.00  0.00     0.004 C 
ENDROOT
BRANCH   1   2
ATOM      2  C   UNL     1      21.451  52.297  49.085  1.00  0.00     0.027 C 
BRANCH   2   3
ATOM      3  C   UNL     1      21.479  53.340  50.176  1.00  0.00    -0.031 C 
ATOM      4  C   UNL     1      21.462  53.065  51.492  1.00  0.00    -0.027 C 
BRANCH   4   5
ATOM      5  C   UNL     1      21.342  51.672  52.055  1.00  0.00     0.054 C 
BRANCH   5   6
ATOM      6  C   UNL     1      22.707  51.110  52.368  1.00  0.00    -0.027 C 
ATOM      7  C   UNL     1      23.360  51.261  53.536  1.00  0.00    -0.031 C 
BRANCH   7   8
ATOM      8  C   UNL     1      22.818  51.979  54.747  1.00  0.00     0.027 C 
BRANCH   8   9
ATOM      9  C   UNL     1      21.922  51.059  55.591  1.00  0.00     0.004 C 
BRANCH   9  10
ATOM     10  C   UNL     1      20.494  51.605  55.747  1.00  0.00     0.000 C 
BRANCH  10  11
ATOM     11  C   UNL     1      20.390  53.098  55.398  1.00  0.00    -0.003 C 
ATOM     12  C   UNL     1      19.121  53.388  54.600  1.00  0.00     0.004 C 
ENDBRANCH  10  11
ENDBRANCH   9  10
ENDBRANCH   8   9
ENDBRANCH   7   8
ENDBRANCH   5   6
ENDBRANCH   4   5
ENDBRANCH   2   3
ENDBRANCH   1   2
BRANCH   1  13
ATOM     13  C   UNL     1      20.903  52.545  46.571  1.00  0.00     0.000 C 
BRANCH  13  14
ATOM     14  C   UNL     1      21.615  52.396  45.215  1.00  0.00     0.000 C 
BRANCH  14  15
ATOM     15  C   UNL     1      20.729  52.831  44.035  1.00  0.00     0.000 C 
BRANCH  15  16
ATOM     16  C   UNL     1      21.497  52.847  42.702  1.00  0.00     0.003 C 
BRANCH  16  17
ATOM     17  C   UNL     1      20.564  52.842  41.478  1.00  0.00     0.042 C 
BRANCH  17  18
ATOM     18  C   UNL     1      20.261  54.240  40.928  1.00  0.00     0.233 C 
BRANCH  18  19
ATOM     19  O   UNL     1      20.524  54.290  39.528  1.00  0.00    -0.466 OA
BRANCH  19  20
ATOM     20  C   UNL     1      19.914  53.426  38.614  1.00  0.00     0.302 C 
ATOM     21  O   UNL     1      18.662  53.431  38.461  1.00  0.00    -0.253 OA
ATOM     22  C   UNL     1      20.758  52.525  37.778  1.00  0.00     0.139 C 
ENDBRANCH  19  20
ENDBRANCH  18  19
ENDBRANCH  17  18
ENDBRANCH  16  17
ENDBRANCH  15  16
ENDBRANCH  14  15
ENDBRANCH  13  14
ENDBRANCH   1  13
TORSDOF 16
ENDMDL
MODEL 7
REMARK VINA RESULT:    -1.247      8.926     13.248
REMARK INTER + INTRA:          -4.141
REMARK INTER:                  -2.086
REMARK INTRA:                  -2.055
REMARK UNBOUND:                -1.729
REMARK SMILES CCCCCC=CCC=CCCCCCCCCOC(C)=O
REMARK SMILES IDX 12 1 11 2 10 3 9 4 8 5 7 6 6 7 5 8 4 9 3 10 2 11 1 12 13 13
REMARK SMILES IDX 14 14 15 15 16 16 17 17 18 18 19 19 20 20 22 21 21 22
REMARK H PARENT
REMARK Flexibility Score: inf
ROOT
ATOM      1  C   UNL     1      19.497  53.877  40.880  1.00  0.00     0.004 C 
ENDROOT
BRANCH   1   2
ATOM      2  C   UNL     1      18.948  53.952  39.445  1.00  0.00     0.027 C 
BRANCH   2   3
ATOM      3  C   UNL     1      19.094  55.329  38.845  1.00  0.00    -0.031 C 
ATOM      4  C   UNL     1      20.183  55.759  38.183  1.00  0.00    -0.027 C 
BRANCH   4   5
ATOM      5  C   UNL     1      21.436  54.939  38.011  1.00  0.00     0.054 C 
BRANCH   5   6
ATOM      6  C   UNL     1      21.697  54.672  36.550  1.00  0.00    -0.027 C 
ATOM      7  C   UNL     1      21.292  53.579  35.875  1.00  0.00    -0.031 C 
BRANCH   7   8
ATOM      8  C   UNL     1      20.467  52.457  36.456  1.00  0.00     0.027 C 
BRANCH   8   9
ATOM      9  C   UNL     1      21.334  51.231  36.780  1.00  0.00     0.004 C 
BRANCH   9  10
ATOM     10  C   UNL     1      21.966  51.306  38.178  1.00  0.00     0.000 C 
BRANCH  10  11
ATOM     11  C   UNL     1      23.435  51.754  38.140  1.00  0.00    -0.003 C 
ATOM     12  C   UNL     1      23.838  52.426  39.450  1.00  0.00     0.004 C 
ENDBRANCH  10  11
ENDBRANCH   9  10
ENDBRANCH   8   9
ENDBRANCH   7   8
ENDBRANCH   5   6
ENDBRANCH   4   5
ENDBRANCH   2   3
ENDBRANCH   1   2
BRANCH   1  13
ATOM     13  C   UNL     1      20.458  52.699  41.128  1.00  0.00     0.000 C 
BRANCH  13  14
ATOM     14  C   UNL     1      21.445  52.970  42.277  1.00  0.00     0.000 C 
BRANCH  14  15
ATOM     15  C   UNL     1      20.740  53.113  43.636  1.00  0.00     0.000 C 
BRANCH  15  16
ATOM     16  C   UNL     1      21.509  52.414  44.771  1.00  0.00     0.003 C 
BRANCH  16  17
ATOM     17  C   UNL     1      20.777  52.495  46.123  1.00  0.00     0.042 C 
BRANCH  17  18
ATOM     18  C   UNL     1      21.715  52.462  47.335  1.00  0.00     0.233 C 
BRANCH  18  19
ATOM     19  O   UNL     1      21.002  52.795  48.523  1.00  0.00    -0.466 OA
BRANCH  19  20
ATOM     20  C   UNL     1      21.473  52.476  49.800  1.00  0.00     0.302 C 
ATOM     21  O   UNL     1      21.379  53.304  50.746  1.00  0.00    -0.253 OA
ATOM     22  C   UNL     1      22.047  51.124  50.055  1.00  0.00     0.139 C 
ENDBRANCH  19  20
ENDBRANCH  18  19
ENDBRANCH  17  18
ENDBRANCH  16  17
ENDBRANCH  15  16
ENDBRANCH  14  15
ENDBRANCH  13  14
ENDBRANCH   1  13
TORSDOF 16
ENDMDL
MODEL 8
REMARK VINA RESULT:    -1.238      7.898     12.109
REMARK INTER + INTRA:          -4.124
REMARK INTER:                  -2.541
REMARK INTRA:                  -1.584
REMARK UNBOUND:                -1.729
REMARK SMILES CCCCCC=CCC=CCCCCCCCCOC(C)=O
REMARK SMILES IDX 12 1 11 2 10 3 9 4 8 5 7 6 6 7 5 8 4 9 3 10 2 11 1 12 13 13
REMARK SMILES IDX 14 14 15 15 16 16 17 17 18 18 19 19 20 20 22 21 21 22
REMARK H PARENT
REMARK Flexibility Score: inf
ROOT
ATOM      1  C   UNL     1      20.626  53.137  42.884  1.00  0.00     0.004 C 
ENDROOT
BRANCH   1   2
ATOM      2  C   UNL     1      21.067  52.702  41.476  1.00  0.00     0.027 C 
BRANCH   2   3
ATOM      3  C   UNL     1      22.109  53.624  40.890  1.00  0.00    -0.031 C 
ATOM      4  C   UNL     1      22.762  53.399  39.736  1.00  0.00    -0.027 C 
BRANCH   4   5
ATOM      5  C   UNL     1      22.587  52.155  38.904  1.00  0.00     0.054 C 
BRANCH   5   6
ATOM      6  C   UNL     1      22.563  52.499  37.436  1.00  0.00    -0.027 C 
ATOM      7  C   UNL     1      21.457  52.570  36.671  1.00  0.00    -0.031 C 
BRANCH   7   8
ATOM      8  C   UNL     1      20.047  52.363  37.165  1.00  0.00     0.027 C 
BRANCH   8   9
ATOM      9  C   UNL     1      19.363  53.700  37.490  1.00  0.00     0.004 C 
BRANCH   9  10
ATOM     10  C   UNL     1      18.911  53.793  38.956  1.00  0.00     0.000 C 
BRANCH  10  11
ATOM     11  C   UNL     1      18.832  55.242  39.460  1.00  0.00    -0.003 C 
ATOM     12  C   UNL     1      18.301  55.297  40.890  1.00  0.00     0.004 C 
ENDBRANCH  10  11
ENDBRANCH   9  10
ENDBRANCH   8   9
ENDBRANCH   7   8
ENDBRANCH   5   6
ENDBRANCH   4   5
ENDBRANCH   2   3
ENDBRANCH   1   2
BRANCH   1  13
ATOM     13  C   UNL     1      21.441  52.500  44.025  1.00  0.00     0.000 C 
BRANCH  13  14
ATOM     14  C   UNL     1      20.793  52.709  45.406  1.00  0.00     0.000 C 
BRANCH  14  15
ATOM     15  C   UNL     1      21.650  52.143  46.550  1.00  0.00     0.000 C 
BRANCH  15  16
ATOM     16  C   UNL     1      21.575  53.008  47.820  1.00  0.00     0.003 C 
BRANCH  16  17
ATOM     17  C   UNL     1      21.563  52.170  49.111  1.00  0.00     0.042 C 
BRANCH  17  18
ATOM     18  C   UNL     1      21.333  52.996  50.381  1.00  0.00     0.233 C 
BRANCH  18  19
ATOM     19  O   UNL     1      21.914  52.345  51.508  1.00  0.00    -0.466 OA
BRANCH  19  20
ATOM     20  C   UNL     1      21.310  52.336  52.769  1.00  0.00     0.302 C 
ATOM     21  O   UNL     1      21.185  51.260  53.414  1.00  0.00    -0.253 OA
ATOM     22  C   UNL     1      20.853  53.620  53.375  1.00  0.00     0.139 C 
ENDBRANCH  19  20
ENDBRANCH  18  19
ENDBRANCH  17  18
ENDBRANCH  16  17
ENDBRANCH  15  16
ENDBRANCH  14  15
ENDBRANCH  13  14
ENDBRANCH   1  13
TORSDOF 16
ENDMDL
