MODEL 1
REMARK VINA RESULT:    -3.935      0.000      0.000
REMARK INTER + INTRA:          -5.833
REMARK INTER:                  -5.545
REMARK INTRA:                  -0.288
REMARK UNBOUND:                -0.288
REMARK SMILES CCCCCCCCC(=O)[O-]
REMARK SMILES IDX 6 1 7 2 8 3 9 4 10 5 11 6 5 7 4 8 3 9 2 10 1 11
REMARK H PARENT
REMARK Flexibility Score: inf
ROOT
ATOM      1  C   UNL     1      27.170  33.637   3.732  1.00  0.00     0.000 C 
ENDROOT
BRANCH   1   2
ATOM      2  C   UNL     1      26.994  32.882   2.405  1.00  0.00     0.006 C 
BRANCH   2   3
ATOM      3  C   UNL     1      26.523  33.794   1.264  1.00  0.00     0.053 C 
BRANCH   3   4
ATOM      4  C   UNL     1      25.041  33.689   1.092  1.00  0.00     0.041 C 
ATOM      5  O   UNL     1      24.516  32.589   0.778  1.00  0.00    -0.550 OA
ATOM      6  O   UNL     1      24.243  34.817   1.231  1.00  0.00    -0.550 OA
ENDBRANCH   3   4
ENDBRANCH   2   3
ENDBRANCH   1   2
BRANCH   1   7
ATOM      7  C   UNL     1      28.552  34.300   3.856  1.00  0.00     0.000 C 
BRANCH   7   8
ATOM      8  C   UNL     1      29.659  33.244   3.953  1.00  0.00    -0.000 C 
BRANCH   8   9
ATOM      9  C   UNL     1      30.621  33.343   2.762  1.00  0.00    -0.000 C 
BRANCH   9  10
ATOM     10  C   UNL     1      32.079  33.234   3.222  1.00  0.00    -0.003 C 
ATOM     11  C   UNL     1      32.959  32.635   2.129  1.00  0.00     0.004 C 
ENDBRANCH   9  10
ENDBRANCH   8   9
ENDBRANCH   7   8
ENDBRANCH   1   7
TORSDOF 7
ENDMDL
MODEL 2
REMARK VINA RESULT:    -3.915      3.186      5.739
REMARK INTER + INTRA:          -5.804
REMARK INTER:                  -5.428
REMARK INTRA:                  -0.376
REMARK UNBOUND:                -0.288
REMARK SMILES CCCCCCCCC(=O)[O-]
REMARK SMILES IDX 6 1 7 2 8 3 9 4 10 5 11 6 5 7 4 8 3 9 2 10 1 11
REMARK H PARENT
REMARK Flexibility Score: inf
ROOT
ATOM      1  C   UNL     1      28.660  34.049   3.921  1.00  0.00     0.000 C 
ENDROOT
BRANCH   1   2
ATOM      2  C   UNL     1      29.643  32.867   3.898  1.00  0.00     0.006 C 
BRANCH   2   3
ATOM      3  C   UNL     1      31.079  33.300   3.576  1.00  0.00     0.053 C 
BRANCH   3   4
ATOM      4  C   UNL     1      31.475  32.818   2.217  1.00  0.00     0.041 C 
ATOM      5  O   UNL     1      30.624  32.760   1.291  1.00  0.00    -0.550 OA
ATOM      6  O   UNL     1      32.775  32.387   1.983  1.00  0.00    -0.550 OA
ENDBRANCH   3   4
ENDBRANCH   2   3
ENDBRANCH   1   2
BRANCH   1   7
ATOM      7  C   UNL     1      27.231  33.638   3.534  1.00  0.00     0.000 C 
BRANCH   7   8
ATOM      8  C   UNL     1      27.224  32.855   2.215  1.00  0.00    -0.000 C 
BRANCH   8   9
ATOM      9  C   UNL     1      26.515  33.646   1.108  1.00  0.00    -0.000 C 
BRANCH   9  10
ATOM     10  C   UNL     1      25.035  33.855   1.444  1.00  0.00    -0.003 C 
ATOM     11  C   UNL     1      24.152  32.876   0.676  1.00  0.00     0.004 C 
ENDBRANCH   9  10
ENDBRANCH   8   9
ENDBRANCH   7   8
ENDBRANCH   1   7
TORSDOF 7
ENDMDL
MODEL 3
REMARK VINA RESULT:    -3.907      1.149      1.622
REMARK INTER + INTRA:          -5.793
REMARK INTER:                  -5.318
REMARK INTRA:                  -0.475
REMARK UNBOUND:                -0.288
REMARK SMILES CCCCCCCCC(=O)[O-]
REMARK SMILES IDX 6 1 7 2 8 3 9 4 10 5 11 6 5 7 4 8 3 9 2 10 1 11
REMARK H PARENT
REMARK Flexibility Score: inf
ROOT
ATOM      1  C   UNL     1      27.084  32.858   2.458  1.00  0.00     0.000 C 
ENDROOT
BRANCH   1   2
ATOM      2  C   UNL     1      26.515  33.705   1.309  1.00  0.00     0.006 C 
BRANCH   2   3
ATOM      3  C   UNL     1      25.010  33.967   1.459  1.00  0.00     0.053 C 
BRANCH   3   4
ATOM      4  C   UNL     1      24.253  33.294   0.359  1.00  0.00     0.041 C 
ATOM      5  O   UNL     1      23.578  32.258   0.596  1.00  0.00    -0.550 OA
ATOM      6  O   UNL     1      24.330  33.782  -0.939  1.00  0.00    -0.550 OA
ENDBRANCH   3   4
ENDBRANCH   2   3
ENDBRANCH   1   2
BRANCH   1   7
ATOM      7  C   UNL     1      27.181  33.640   3.778  1.00  0.00     0.000 C 
BRANCH   7   8
ATOM      8  C   UNL     1      28.571  34.264   3.944  1.00  0.00    -0.000 C 
BRANCH   8   9
ATOM      9  C   UNL     1      29.666  33.191   3.898  1.00  0.00    -0.000 C 
BRANCH   9  10
ATOM     10  C   UNL     1      30.782  33.585   2.924  1.00  0.00    -0.003 C 
ATOM     11  C   UNL     1      30.682  32.796   1.622  1.00  0.00     0.004 C 
ENDBRANCH   9  10
ENDBRANCH   8   9
ENDBRANCH   7   8
ENDBRANCH   1   7
TORSDOF 7
ENDMDL
MODEL 4
REMARK VINA RESULT:    -3.896      0.763      1.610
REMARK INTER + INTRA:          -5.778
REMARK INTER:                  -5.390
REMARK INTRA:                  -0.388
REMARK UNBOUND:                -0.288
REMARK SMILES CCCCCCCCC(=O)[O-]
REMARK SMILES IDX 6 1 7 2 8 3 9 4 10 5 11 6 5 7 4 8 3 9 2 10 1 11
REMARK H PARENT
REMARK Flexibility Score: inf
ROOT
ATOM      1  C   UNL     1      28.546  34.131   3.946  1.00  0.00     0.000 C 
ENDROOT
BRANCH   1   2
ATOM      2  C   UNL     1      27.166  33.564   3.577  1.00  0.00     0.006 C 
BRANCH   2   3
ATOM      3  C   UNL     1      27.073  33.149   2.102  1.00  0.00     0.053 C 
BRANCH   3   4
ATOM      4  C   UNL     1      25.816  33.679   1.490  1.00  0.00     0.041 C 
ATOM      5  O   UNL     1      25.562  34.912   1.532  1.00  0.00    -0.550 OA
ATOM      6  O   UNL     1      24.901  32.807   0.916  1.00  0.00    -0.550 OA
ENDBRANCH   3   4
ENDBRANCH   2   3
ENDBRANCH   1   2
BRANCH   1   7
ATOM      7  C   UNL     1      29.631  33.044   4.023  1.00  0.00     0.000 C 
BRANCH   7   8
ATOM      8  C   UNL     1      30.887  33.470   3.254  1.00  0.00    -0.000 C 
BRANCH   8   9
ATOM      9  C   UNL     1      30.697  33.286   1.743  1.00  0.00    -0.000 C 
BRANCH   9  10
ATOM     10  C   UNL     1      32.021  32.919   1.063  1.00  0.00    -0.003 C 
ATOM     11  C   UNL     1      33.087  32.555   2.092  1.00  0.00     0.004 C 
ENDBRANCH   9  10
ENDBRANCH   8   9
ENDBRANCH   7   8
ENDBRANCH   1   7
TORSDOF 7
ENDMDL
MODEL 5
REMARK VINA RESULT:    -3.806      4.021      6.327
REMARK INTER + INTRA:          -5.651
REMARK INTER:                  -5.428
REMARK INTRA:                  -0.224
REMARK UNBOUND:                -0.288
REMARK SMILES CCCCCCCCC(=O)[O-]
REMARK SMILES IDX 6 1 7 2 8 3 9 4 10 5 11 6 5 7 4 8 3 9 2 10 1 11
REMARK H PARENT
REMARK Flexibility Score: inf
ROOT
ATOM      1  C   UNL     1      29.219  32.915   3.320  1.00  0.00     0.000 C 
ENDROOT
BRANCH   1   2
ATOM      2  C   UNL     1      30.657  33.128   3.819  1.00  0.00     0.006 C 
BRANCH   2   3
ATOM      3  C   UNL     1      31.534  33.865   2.798  1.00  0.00     0.053 C 
BRANCH   3   4
ATOM      4  C   UNL     1      32.913  33.288   2.783  1.00  0.00     0.041 C 
ATOM      5  O   UNL     1      33.848  33.864   3.400  1.00  0.00    -0.550 OA
ATOM      6  O   UNL     1      33.179  32.139   2.049  1.00  0.00    -0.550 OA
ENDBRANCH   3   4
ENDBRANCH   2   3
ENDBRANCH   1   2
BRANCH   1   7
ATOM      7  C   UNL     1      28.238  33.958   3.881  1.00  0.00     0.000 C 
BRANCH   7   8
ATOM      8  C   UNL     1      26.790  33.586   3.539  1.00  0.00    -0.000 C 
BRANCH   8   9
ATOM      9  C   UNL     1      26.664  33.152   2.073  1.00  0.00    -0.000 C 
BRANCH   9  10
ATOM     10  C   UNL     1      25.578  33.957   1.352  1.00  0.00    -0.003 C 
ATOM     11  C   UNL     1      24.545  33.037   0.708  1.00  0.00     0.004 C 
ENDBRANCH   9  10
ENDBRANCH   8   9
ENDBRANCH   7   8
ENDBRANCH   1   7
TORSDOF 7
ENDMDL
MODEL 6
REMARK VINA RESULT:    -3.788      0.627      1.298
REMARK INTER + INTRA:          -5.626
REMARK INTER:                  -5.358
REMARK INTRA:                  -0.268
REMARK UNBOUND:                -0.288
REMARK SMILES CCCCCCCCC(=O)[O-]
REMARK SMILES IDX 6 1 7 2 8 3 9 4 10 5 11 6 5 7 4 8 3 9 2 10 1 11
REMARK H PARENT
REMARK Flexibility Score: inf
ROOT
ATOM      1  C   UNL     1      28.528  34.275   3.698  1.00  0.00     0.000 C 
ENDROOT
BRANCH   1   2
ATOM      2  C   UNL     1      27.158  33.608   3.490  1.00  0.00     0.006 C 
BRANCH   2   3
ATOM      3  C   UNL     1      26.969  33.082   2.061  1.00  0.00     0.053 C 
BRANCH   3   4
ATOM      4  C   UNL     1      25.680  33.579   1.490  1.00  0.00     0.041 C 
ATOM      5  O   UNL     1      24.886  32.780   0.927  1.00  0.00    -0.550 OA
ATOM      6  O   UNL     1      25.375  34.934   1.536  1.00  0.00    -0.550 OA
ENDBRANCH   3   4
ENDBRANCH   2   3
ENDBRANCH   1   2
BRANCH   1   7
ATOM      7  C   UNL     1      29.648  33.256   3.962  1.00  0.00     0.000 C 
BRANCH   7   8
ATOM      8  C   UNL     1      30.677  33.266   2.825  1.00  0.00    -0.000 C 
BRANCH   8   9
ATOM      9  C   UNL     1      32.108  33.275   3.378  1.00  0.00    -0.000 C 
BRANCH   9  10
ATOM     10  C   UNL     1      33.112  32.827   2.311  1.00  0.00    -0.003 C 
ATOM     11  C   UNL     1      32.521  32.951   0.909  1.00  0.00     0.004 C 
ENDBRANCH   9  10
ENDBRANCH   8   9
ENDBRANCH   7   8
ENDBRANCH   1   7
TORSDOF 7
ENDMDL
MODEL 7
REMARK VINA RESULT:    -3.733      3.055      5.658
REMARK INTER + INTRA:          -5.549
REMARK INTER:                  -5.017
REMARK INTRA:                  -0.532
REMARK UNBOUND:                -0.288
REMARK SMILES CCCCCCCCC(=O)[O-]
REMARK SMILES IDX 6 1 7 2 8 3 9 4 10 5 11 6 5 7 4 8 3 9 2 10 1 11
REMARK H PARENT
REMARK Flexibility Score: inf
ROOT
ATOM      1  C   UNL     1      27.435  33.807   3.823  1.00  0.00     0.000 C 
ENDROOT
BRANCH   1   2
ATOM      2  C   UNL     1      28.876  34.332   3.722  1.00  0.00     0.006 C 
BRANCH   2   3
ATOM      3  C   UNL     1      29.921  33.212   3.814  1.00  0.00     0.053 C 
BRANCH   3   4
ATOM      4  C   UNL     1      30.841  33.260   2.636  1.00  0.00     0.041 C 
ATOM      5  O   UNL     1      31.886  33.961   2.676  1.00  0.00    -0.550 OA
ATOM      6  O   UNL     1      30.520  32.570   1.474  1.00  0.00    -0.550 OA
ENDBRANCH   3   4
ENDBRANCH   2   3
ENDBRANCH   1   2
BRANCH   1   7
ATOM      7  C   UNL     1      27.085  32.820   2.698  1.00  0.00     0.000 C 
BRANCH   7   8
ATOM      8  C   UNL     1      26.814  33.562   1.384  1.00  0.00    -0.000 C 
BRANCH   8   9
ATOM      9  C   UNL     1      25.394  33.278   0.874  1.00  0.00    -0.000 C 
BRANCH   9  10
ATOM     10  C   UNL     1      24.453  34.445   1.189  1.00  0.00    -0.003 C 
ATOM     11  C   UNL     1      25.213  35.768   1.239  1.00  0.00     0.004 C 
ENDBRANCH   9  10
ENDBRANCH   8   9
ENDBRANCH   7   8
ENDBRANCH   1   7
TORSDOF 7
ENDMDL
MODEL 8
REMARK VINA RESULT:    -3.698      3.543      5.255
REMARK INTER + INTRA:          -5.499
REMARK INTER:                  -4.807
REMARK INTRA:                  -0.692
REMARK UNBOUND:                -0.288
REMARK SMILES CCCCCCCCC(=O)[O-]
REMARK SMILES IDX 6 1 7 2 8 3 9 4 10 5 11 6 5 7 4 8 3 9 2 10 1 11
REMARK H PARENT
REMARK Flexibility Score: inf
ROOT
ATOM      1  C   UNL     1      30.659  33.482   2.989  1.00  0.00     0.000 C 
ENDROOT
BRANCH   1   2
ATOM      2  C   UNL     1      30.389  32.803   1.637  1.00  0.00     0.006 C 
BRANCH   2   3
ATOM      3  C   UNL     1      30.499  33.776   0.455  1.00  0.00     0.053 C 
BRANCH   3   4
ATOM      4  C   UNL     1      31.510  33.285  -0.531  1.00  0.00     0.041 C 
ATOM      5  O   UNL     1      31.281  33.365  -1.766  1.00  0.00    -0.550 OA
ATOM      6  O   UNL     1      32.685  32.693  -0.086  1.00  0.00    -0.550 OA
ENDBRANCH   3   4
ENDBRANCH   2   3
ENDBRANCH   1   2
BRANCH   1   7
ATOM      7  C   UNL     1      29.534  33.240   4.008  1.00  0.00     0.000 C 
BRANCH   7   8
ATOM      8  C   UNL     1      28.383  34.232   3.798  1.00  0.00    -0.000 C 
BRANCH   8   9
ATOM      9  C   UNL     1      27.044  33.497   3.648  1.00  0.00    -0.000 C 
BRANCH   9  10
ATOM     10  C   UNL     1      26.749  33.188   2.177  1.00  0.00    -0.003 C 
ATOM     11  C   UNL     1      26.984  34.413   1.298  1.00  0.00     0.004 C 
ENDBRANCH   9  10
ENDBRANCH   8   9
ENDBRANCH   7   8
ENDBRANCH   1   7
TORSDOF 7
ENDMDL
MODEL 9
REMARK VINA RESULT:    -2.969     17.624     18.912
REMARK INTER + INTRA:          -4.471
REMARK INTER:                  -4.148
REMARK INTRA:                  -0.323
REMARK UNBOUND:                -0.288
REMARK SMILES CCCCCCCCC(=O)[O-]
REMARK SMILES IDX 6 1 7 2 8 3 9 4 10 5 11 6 5 7 4 8 3 9 2 10 1 11
REMARK H PARENT
REMARK Flexibility Score: inf
ROOT
ATOM      1  C   UNL     1      35.743  22.760  15.551  1.00  0.00     0.000 C 
ENDROOT
BRANCH   1   2
ATOM      2  C   UNL     1      35.301  24.195  15.884  1.00  0.00     0.006 C 
BRANCH   2   3
ATOM      3  C   UNL     1      34.122  24.236  16.864  1.00  0.00     0.053 C 
BRANCH   3   4
ATOM      4  C   UNL     1      33.532  25.610  16.912  1.00  0.00     0.041 C 
ATOM      5  O   UNL     1      32.767  26.004  15.993  1.00  0.00    -0.550 OA
ATOM      6  O   UNL     1      33.867  26.474  17.947  1.00  0.00    -0.550 OA
ENDBRANCH   3   4
ENDBRANCH   2   3
ENDBRANCH   1   2
BRANCH   1   7
ATOM      7  C   UNL     1      35.554  22.413  14.065  1.00  0.00     0.000 C 
BRANCH   7   8
ATOM      8  C   UNL     1      35.745  20.911  13.825  1.00  0.00    -0.000 C 
BRANCH   8   9
ATOM      9  C   UNL     1      36.125  20.189  15.125  1.00  0.00    -0.000 C 
BRANCH   9  10
ATOM     10  C   UNL     1      35.068  19.148  15.505  1.00  0.00    -0.003 C 
ATOM     11  C   UNL     1      35.122  18.825  16.995  1.00  0.00     0.004 C 
ENDBRANCH   9  10
ENDBRANCH   8   9
ENDBRANCH   7   8
ENDBRANCH   1   7
TORSDOF 7
ENDMDL
