MODEL 1
REMARK VINA RESULT:    -3.787      0.000      0.000
REMARK INTER + INTRA:          -5.542
REMARK INTER:                  -5.004
REMARK INTRA:                  -0.537
REMARK UNBOUND:                -0.537
REMARK SMILES C=CCC[C@H](O)CCC
REMARK SMILES IDX 4 1 5 2 7 3 8 4 9 5 6 6 3 8 2 9 1 10
REMARK H PARENT 6 7
REMARK Flexibility Score: inf
ROOT
ATOM      1  C   UNL     1     122.812 132.061 128.824  1.00  0.00     0.036 C 
ENDROOT
BRANCH   1   2
ATOM      2  C   UNL     1     121.835 130.871 128.783  1.00  0.00     0.114 C 
BRANCH   2   3
ATOM      3  C   UNL     1     120.668 131.054 129.778  1.00  0.00     0.031 C 
BRANCH   3   4
ATOM      4  C   UNL     1     119.289 130.942 129.110  1.00  0.00    -0.001 C 
ATOM      5  C   UNL     1     118.666 132.320 128.904  1.00  0.00     0.004 C 
ENDBRANCH   3   4
ENDBRANCH   2   3
BRANCH   2   6
ATOM      6  O   UNL     1     121.313 130.752 127.484  1.00  0.00    -0.393 OA
ATOM      7  H   UNL     1     120.985 129.819 127.389  1.00  0.00     0.210 HD
ENDBRANCH   2   6
ENDBRANCH   1   2
BRANCH   1   8
ATOM      8  C   UNL     1     122.265 133.270 128.050  1.00  0.00     0.029 C 
BRANCH   8   9
ATOM      9  C   UNL     1     121.820 134.361 128.985  1.00  0.00    -0.035 C 
ATOM     10  C   UNL     1     122.246 134.421 130.250  1.00  0.00     0.004 C 
ENDBRANCH   8   9
ENDBRANCH   1   8
TORSDOF 6
ENDMDL
MODEL 2
REMARK VINA RESULT:    -3.700      1.344      2.090
REMARK INTER + INTRA:          -5.427
REMARK INTER:                  -4.764
REMARK INTRA:                  -0.663
REMARK UNBOUND:                -0.537
REMARK SMILES C=CCC[C@H](O)CCC
REMARK SMILES IDX 4 1 5 2 7 3 8 4 9 5 6 6 3 8 2 9 1 10
REMARK H PARENT 6 7
REMARK Flexibility Score: inf
ROOT
ATOM      1  C   UNL     1     122.000 132.991 129.471  1.00  0.00     0.036 C 
ENDROOT
BRANCH   1   2
ATOM      2  C   UNL     1     122.578 131.769 128.732  1.00  0.00     0.114 C 
BRANCH   2   3
ATOM      3  C   UNL     1     121.530 130.646 128.577  1.00  0.00     0.031 C 
BRANCH   3   4
ATOM      4  C   UNL     1     120.655 130.466 129.827  1.00  0.00    -0.001 C 
ATOM      5  C   UNL     1     119.185 130.313 129.452  1.00  0.00     0.004 C 
ENDBRANCH   3   4
ENDBRANCH   2   3
BRANCH   2   6
ATOM      6  O   UNL     1     123.010 132.169 127.456  1.00  0.00    -0.393 OA
ATOM      7  H   UNL     1     123.118 133.156 127.484  1.00  0.00     0.210 HD
ENDBRANCH   2   6
ENDBRANCH   1   2
BRANCH   1   8
ATOM      8  C   UNL     1     121.596 134.106 128.495  1.00  0.00     0.029 C 
BRANCH   8   9
ATOM      9  C   UNL     1     120.101 134.195 128.358  1.00  0.00    -0.035 C 
ATOM     10  C   UNL     1     119.445 133.568 127.378  1.00  0.00     0.004 C 
ENDBRANCH   8   9
ENDBRANCH   1   8
TORSDOF 6
ENDMDL
MODEL 3
REMARK VINA RESULT:    -3.602      1.958      3.296
REMARK INTER + INTRA:          -5.297
REMARK INTER:                  -4.773
REMARK INTRA:                  -0.525
REMARK UNBOUND:                -0.537
REMARK SMILES C=CCC[C@H](O)CCC
REMARK SMILES IDX 4 1 5 2 7 3 8 4 9 5 6 6 3 8 2 9 1 10
REMARK H PARENT 6 7
REMARK Flexibility Score: inf
ROOT
ATOM      1  C   UNL     1     122.071 132.741 129.345  1.00  0.00     0.036 C 
ENDROOT
BRANCH   1   2
ATOM      2  C   UNL     1     121.710 133.949 128.459  1.00  0.00     0.114 C 
BRANCH   2   3
ATOM      3  C   UNL     1     120.274 133.841 127.902  1.00  0.00     0.031 C 
BRANCH   3   4
ATOM      4  C   UNL     1     119.203 133.835 129.003  1.00  0.00    -0.001 C 
ATOM      5  C   UNL     1     118.012 132.967 128.607  1.00  0.00     0.004 C 
ENDBRANCH   3   4
ENDBRANCH   2   3
BRANCH   2   6
ATOM      6  O   UNL     1     121.816 135.124 129.223  1.00  0.00    -0.393 OA
ATOM      7  H   UNL     1     121.255 134.994 130.032  1.00  0.00     0.210 HD
ENDBRANCH   2   6
ENDBRANCH   1   2
BRANCH   1   8
ATOM      8  C   UNL     1     122.554 131.548 128.506  1.00  0.00     0.029 C 
BRANCH   8   9
ATOM      9  C   UNL     1     121.792 130.297 128.846  1.00  0.00    -0.035 C 
ATOM     10  C   UNL     1     120.489 130.172 128.575  1.00  0.00     0.004 C 
ENDBRANCH   8   9
ENDBRANCH   1   8
TORSDOF 6
ENDMDL
MODEL 4
REMARK VINA RESULT:    -3.578      1.936      3.675
REMARK INTER + INTRA:          -5.266
REMARK INTER:                  -4.720
REMARK INTRA:                  -0.546
REMARK UNBOUND:                -0.537
REMARK SMILES C=CCC[C@H](O)CCC
REMARK SMILES IDX 4 1 5 2 7 3 8 4 9 5 6 6 3 8 2 9 1 10
REMARK H PARENT 6 7
REMARK Flexibility Score: inf
ROOT
ATOM      1  C   UNL     1     120.553 134.541 128.887  1.00  0.00     0.036 C 
ENDROOT
BRANCH   1   2
ATOM      2  C   UNL     1     121.830 133.802 129.328  1.00  0.00     0.114 C 
BRANCH   2   3
ATOM      3  C   UNL     1     122.551 133.141 128.133  1.00  0.00     0.031 C 
BRANCH   3   4
ATOM      4  C   UNL     1     123.037 131.716 128.440  1.00  0.00    -0.001 C 
ATOM      5  C   UNL     1     121.866 130.794 128.765  1.00  0.00     0.004 C 
ENDBRANCH   3   4
ENDBRANCH   2   3
BRANCH   2   6
ATOM      6  O   UNL     1     122.703 134.719 129.937  1.00  0.00    -0.393 OA
ATOM      7  H   UNL     1     122.907 134.367 130.843  1.00  0.00     0.210 HD
ENDBRANCH   2   6
ENDBRANCH   1   2
BRANCH   1   8
ATOM      8  C   UNL     1     119.936 133.908 127.631  1.00  0.00     0.029 C 
BRANCH   8   9
ATOM      9  C   UNL     1     118.596 133.294 127.931  1.00  0.00    -0.035 C 
ATOM     10  C   UNL     1     118.452 132.329 128.843  1.00  0.00     0.004 C 
ENDBRANCH   8   9
ENDBRANCH   1   8
TORSDOF 6
ENDMDL
MODEL 5
REMARK VINA RESULT:    -3.565      1.320      3.342
REMARK INTER + INTRA:          -5.249
REMARK INTER:                  -4.665
REMARK INTRA:                  -0.584
REMARK UNBOUND:                -0.537
REMARK SMILES C=CCC[C@H](O)CCC
REMARK SMILES IDX 4 1 5 2 7 3 8 4 9 5 6 6 3 8 2 9 1 10
REMARK H PARENT 6 7
REMARK Flexibility Score: inf
ROOT
ATOM      1  C   UNL     1     120.215 131.261 128.068  1.00  0.00     0.036 C 
ENDROOT
BRANCH   1   2
ATOM      2  C   UNL     1     121.414 130.701 128.856  1.00  0.00     0.114 C 
BRANCH   2   3
ATOM      3  C   UNL     1     122.686 131.551 128.644  1.00  0.00     0.031 C 
BRANCH   3   4
ATOM      4  C   UNL     1     122.377 133.028 128.355  1.00  0.00    -0.001 C 
ATOM      5  C   UNL     1     122.471 133.867 129.626  1.00  0.00     0.004 C 
ENDBRANCH   3   4
ENDBRANCH   2   3
BRANCH   2   6
ATOM      6  O   UNL     1     121.097 130.689 130.225  1.00  0.00    -0.393 OA
ATOM      7  H   UNL     1     120.662 131.557 130.428  1.00  0.00     0.210 HD
ENDBRANCH   2   6
ENDBRANCH   1   2
BRANCH   1   8
ATOM      8  C   UNL     1     119.047 131.625 128.997  1.00  0.00     0.029 C 
BRANCH   8   9
ATOM      9  C   UNL     1     118.493 132.984 128.670  1.00  0.00    -0.035 C 
ATOM     10  C   UNL     1     118.761 133.594 127.512  1.00  0.00     0.004 C 
ENDBRANCH   8   9
ENDBRANCH   1   8
TORSDOF 6
ENDMDL
MODEL 6
REMARK VINA RESULT:    -3.546      1.400      2.033
REMARK INTER + INTRA:          -5.223
REMARK INTER:                  -4.822
REMARK INTRA:                  -0.401
REMARK UNBOUND:                -0.537
REMARK SMILES C=CCC[C@H](O)CCC
REMARK SMILES IDX 4 1 5 2 7 3 8 4 9 5 6 6 3 8 2 9 1 10
REMARK H PARENT 6 7
REMARK Flexibility Score: inf
ROOT
ATOM      1  C   UNL     1     121.074 131.883 129.741  1.00  0.00     0.036 C 
ENDROOT
BRANCH   1   2
ATOM      2  C   UNL     1     120.036 131.435 128.695  1.00  0.00     0.114 C 
BRANCH   2   3
ATOM      3  C   UNL     1     118.968 132.522 128.446  1.00  0.00     0.031 C 
BRANCH   3   4
ATOM      4  C   UNL     1     119.420 133.585 127.433  1.00  0.00    -0.001 C 
ATOM      5  C   UNL     1     118.465 133.652 126.244  1.00  0.00     0.004 C 
ENDBRANCH   3   4
ENDBRANCH   2   3
BRANCH   2   6
ATOM      6  O   UNL     1     120.696 131.158 127.485  1.00  0.00    -0.393 OA
ATOM      7  H   UNL     1     120.651 130.176 127.351  1.00  0.00     0.210 HD
ENDBRANCH   2   6
ENDBRANCH   1   2
BRANCH   1   8
ATOM      8  C   UNL     1     122.336 132.457 129.079  1.00  0.00     0.029 C 
BRANCH   8   9
ATOM      9  C   UNL     1     122.724 133.774 129.691  1.00  0.00    -0.035 C 
ATOM     10  C   UNL     1     121.810 134.679 130.052  1.00  0.00     0.004 C 
ENDBRANCH   8   9
ENDBRANCH   1   8
TORSDOF 6
ENDMDL
MODEL 7
REMARK VINA RESULT:    -3.508      1.516      3.779
REMARK INTER + INTRA:          -5.173
REMARK INTER:                  -4.522
REMARK INTRA:                  -0.650
REMARK UNBOUND:                -0.537
REMARK SMILES C=CCC[C@H](O)CCC
REMARK SMILES IDX 4 1 5 2 7 3 8 4 9 5 6 6 3 8 2 9 1 10
REMARK H PARENT 6 7
REMARK Flexibility Score: inf
ROOT
ATOM      1  C   UNL     1     119.047 132.422 128.850  1.00  0.00     0.036 C 
ENDROOT
BRANCH   1   2
ATOM      2  C   UNL     1     119.189 133.821 128.220  1.00  0.00     0.114 C 
BRANCH   2   3
ATOM      3  C   UNL     1     119.948 134.793 129.149  1.00  0.00     0.031 C 
BRANCH   3   4
ATOM      4  C   UNL     1     121.473 134.714 128.980  1.00  0.00    -0.001 C 
ATOM      5  C   UNL     1     122.163 134.486 130.322  1.00  0.00     0.004 C 
ENDBRANCH   3   4
ENDBRANCH   2   3
BRANCH   2   6
ATOM      6  O   UNL     1     119.890 133.708 127.007  1.00  0.00    -0.393 OA
ATOM      7  H   UNL     1     120.669 134.320 127.066  1.00  0.00     0.210 HD
ENDBRANCH   2   6
ENDBRANCH   1   2
BRANCH   1   8
ATOM      8  C   UNL     1     119.936 131.389 128.142  1.00  0.00     0.029 C 
BRANCH   8   9
ATOM      9  C   UNL     1     121.102 130.990 129.004  1.00  0.00    -0.035 C 
ATOM     10  C   UNL     1     122.365 131.146 128.597  1.00  0.00     0.004 C 
ENDBRANCH   8   9
ENDBRANCH   1   8
TORSDOF 6
ENDMDL
MODEL 8
REMARK VINA RESULT:    -3.470     11.505     13.173
REMARK INTER + INTRA:          -5.124
REMARK INTER:                  -4.499
REMARK INTRA:                  -0.625
REMARK UNBOUND:                -0.537
REMARK SMILES C=CCC[C@H](O)CCC
REMARK SMILES IDX 4 1 5 2 7 3 8 4 9 5 6 6 3 8 2 9 1 10
REMARK H PARENT 6 7
REMARK Flexibility Score: inf
ROOT
ATOM      1  C   UNL     1     114.765 121.247 132.101  1.00  0.00     0.036 C 
ENDROOT
BRANCH   1   2
ATOM      2  C   UNL     1     115.958 122.220 132.135  1.00  0.00     0.114 C 
BRANCH   2   3
ATOM      3  C   UNL     1     117.072 121.795 131.154  1.00  0.00     0.031 C 
BRANCH   3   4
ATOM      4  C   UNL     1     118.428 121.579 131.844  1.00  0.00    -0.001 C 
ATOM      5  C   UNL     1     118.671 120.099 132.125  1.00  0.00     0.004 C 
ENDBRANCH   3   4
ENDBRANCH   2   3
BRANCH   2   6
ATOM      6  O   UNL     1     115.510 123.506 131.788  1.00  0.00    -0.393 OA
ATOM      7  H   UNL     1     115.455 123.534 130.797  1.00  0.00     0.210 HD
ENDBRANCH   2   6
ENDBRANCH   1   2
BRANCH   1   8
ATOM      8  C   UNL     1     114.996 120.035 133.017  1.00  0.00     0.029 C 
BRANCH   8   9
ATOM      9  C   UNL     1     115.495 120.461 134.371  1.00  0.00    -0.035 C 
ATOM     10  C   UNL     1     116.389 119.738 135.051  1.00  0.00     0.004 C 
ENDBRANCH   8   9
ENDBRANCH   1   8
TORSDOF 6
ENDMDL
MODEL 9
REMARK VINA RESULT:    -3.432     11.454     12.954
REMARK INTER + INTRA:          -5.073
REMARK INTER:                  -4.715
REMARK INTRA:                  -0.358
REMARK UNBOUND:                -0.537
REMARK SMILES C=CCC[C@H](O)CCC
REMARK SMILES IDX 4 1 5 2 7 3 8 4 9 5 6 6 3 8 2 9 1 10
REMARK H PARENT 6 7
REMARK Flexibility Score: inf
ROOT
ATOM      1  C   UNL     1     116.432 121.318 131.950  1.00  0.00     0.036 C 
ENDROOT
BRANCH   1   2
ATOM      2  C   UNL     1     115.942 122.471 131.054  1.00  0.00     0.114 C 
BRANCH   2   3
ATOM      3  C   UNL     1     114.726 122.055 130.199  1.00  0.00     0.031 C 
BRANCH   3   4
ATOM      4  C   UNL     1     115.053 121.954 128.701  1.00  0.00    -0.001 C 
ATOM      5  C   UNL     1     114.662 120.588 128.145  1.00  0.00     0.004 C 
ENDBRANCH   3   4
ENDBRANCH   2   3
BRANCH   2   6
ATOM      6  O   UNL     1     115.578 123.559 131.867  1.00  0.00    -0.393 OA
ATOM      7  H   UNL     1     114.591 123.647 131.806  1.00  0.00     0.210 HD
ENDBRANCH   2   6
ENDBRANCH   1   2
BRANCH   1   8
ATOM      8  C   UNL     1     115.323 120.284 132.200  1.00  0.00     0.029 C 
BRANCH   8   9
ATOM      9  C   UNL     1     114.806 120.367 133.610  1.00  0.00    -0.035 C 
ATOM     10  C   UNL     1     115.630 120.395 134.661  1.00  0.00     0.004 C 
ENDBRANCH   8   9
ENDBRANCH   1   8
TORSDOF 6
ENDMDL
