MODEL 1
REMARK VINA RESULT:    -6.355      0.000      0.000
REMARK INTER + INTRA:          -7.197
REMARK INTER:                  -6.912
REMARK INTRA:                  -0.285
REMARK UNBOUND:                -0.285
REMARK SMILES C[C@@H]1[C@H](C)CC[C@]2(C(=O)[O-])CC[C@@]3(C)C(=CC[C@@H]4[C@]5(C)CC[C@@H](O)C(C)(C)[C@H]5CC[C@]43C)[C@H]12
REMARK SMILES IDX 7 1 6 2 11 3 33 4 5 5 12 6 15 7 2 8 3 9 13 10 16 11 1 12
REMARK SMILES IDX 4 13 14 14 31 15 17 16 18 17 30 18 32 19 19 20 29 21 28 22
REMARK SMILES IDX 21 23 20 24 25 25 22 26 23 27 26 28 27 29 8 30 9 31 10 32
REMARK SMILES IDX 24 33
REMARK H PARENT 24 34
REMARK Flexibility Score: inf
ROOT
ATOM      1  C   UNL     1      15.377  49.481  28.938  1.00  0.00     0.017 C 
ATOM      2  C   UNL     1      16.866  49.082  29.165  1.00  0.00     0.014 C 
ATOM      3  C   UNL     1      15.246  50.997  29.333  1.00  0.00     0.014 C 
ATOM      4  C   UNL     1      14.435  48.569  29.815  1.00  0.00     0.030 C 
ATOM      5  C   UNL     1      17.140  47.592  28.938  1.00  0.00     0.004 C 
ATOM      6  C   UNL     1      13.825  51.467  29.744  1.00  0.00     0.013 C 
ATOM      7  C   UNL     1      14.005  49.328  31.074  1.00  0.00    -0.063 C 
ATOM      8  C   UNL     1      14.847  47.054  29.911  1.00  0.00    -0.003 C 
ATOM      9  C   UNL     1      16.370  46.713  29.934  1.00  0.00    -0.011 C 
ATOM     10  C   UNL     1      13.083  50.555  30.809  1.00  0.00    -0.006 C 
ATOM     11  C   UNL     1      14.732  49.212  32.221  1.00  0.00    -0.027 C 
ATOM     12  C   UNL     1      14.000  46.244  30.909  1.00  0.00     0.008 C 
ATOM     13  C   UNL     1      17.066  46.674  31.308  1.00  0.00     0.008 C 
ATOM     14  C   UNL     1      11.744  50.069  30.152  1.00  0.00     0.017 C 
ATOM     15  C   UNL     1      12.755  51.287  32.205  1.00  0.00    -0.020 C 
ATOM     16  C   UNL     1      14.738  50.215  33.360  1.00  0.00     0.032 C 
ATOM     17  C   UNL     1      14.153  51.566  32.900  1.00  0.00     0.006 C 
ATOM     18  C   UNL     1      11.947  52.629  32.046  1.00  0.00     0.008 C 
ATOM     19  C   UNL     1      11.842  50.297  33.042  1.00  0.00     0.012 C 
ATOM     20  C   UNL     1      14.236  52.839  33.876  1.00  0.00    -0.025 C 
ATOM     21  C   UNL     1      11.786  53.471  33.344  1.00  0.00     0.005 C 
ATOM     22  C   UNL     1      12.808  53.122  34.454  1.00  0.00     0.003 C 
ATOM     23  C   UNL     1      15.262  52.693  35.056  1.00  0.00     0.010 C 
ATOM     24  C   UNL     1      14.755  54.042  33.015  1.00  0.00     0.012 C 
ATOM     25  C   UNL     1      12.748  53.964  35.792  1.00  0.00    -0.006 C 
ATOM     26  C   UNL     1      14.625  52.203  36.357  1.00  0.00     0.033 C 
ATOM     27  C   UNL     1      13.582  53.208  36.910  1.00  0.00     0.120 C 
ATOM     28  C   UNL     1      11.277  54.054  36.280  1.00  0.00     0.014 C 
ATOM     29  C   UNL     1      13.243  55.423  35.605  1.00  0.00     0.014 C 
ENDROOT
BRANCH   1  30
ATOM     30  C   UNL     1      15.013  49.362  27.458  1.00  0.00     0.048 C 
ATOM     31  O   UNL     1      15.772  49.822  26.562  1.00  0.00    -0.550 OA
ATOM     32  O   UNL     1      13.779  48.846  27.076  1.00  0.00    -0.550 OA
ENDBRANCH   1  30
BRANCH  27  33
ATOM     33  O   UNL     1      14.231  54.109  37.775  1.00  0.00    -0.393 OA
ATOM     34  H   UNL     1      14.097  55.017  37.398  1.00  0.00     0.210 HD
ENDBRANCH  27  33
TORSDOF 2
ENDMDL
MODEL 2
REMARK VINA RESULT:    -5.748      3.204      8.562
REMARK INTER + INTRA:          -6.537
REMARK INTER:                  -6.563
REMARK INTRA:                   0.026
REMARK UNBOUND:                -0.285
REMARK SMILES C[C@@H]1[C@H](C)CC[C@]2(C(=O)[O-])CC[C@@]3(C)C(=CC[C@@H]4[C@]5(C)CC[C@@H](O)C(C)(C)[C@H]5CC[C@]43C)[C@H]12
REMARK SMILES IDX 7 1 6 2 11 3 33 4 5 5 12 6 15 7 2 8 3 9 13 10 16 11 1 12
REMARK SMILES IDX 4 13 14 14 31 15 17 16 18 17 30 18 32 19 19 20 29 21 28 22
REMARK SMILES IDX 21 23 20 24 25 25 22 26 23 27 26 28 27 29 8 30 9 31 10 32
REMARK SMILES IDX 24 33
REMARK H PARENT 24 34
REMARK Flexibility Score: inf
ROOT
ATOM      1  C   UNL     1      15.574  57.888  33.476  1.00  0.00     0.017 C 
ATOM      2  C   UNL     1      15.299  58.836  32.270  1.00  0.00     0.014 C 
ATOM      3  C   UNL     1      16.101  56.533  32.879  1.00  0.00     0.014 C 
ATOM      4  C   UNL     1      14.253  57.680  34.311  1.00  0.00     0.030 C 
ATOM      5  C   UNL     1      14.663  60.169  32.676  1.00  0.00     0.004 C 
ATOM      6  C   UNL     1      15.902  55.279  33.772  1.00  0.00     0.013 C 
ATOM      7  C   UNL     1      13.615  56.336  33.945  1.00  0.00    -0.063 C 
ATOM      8  C   UNL     1      13.351  58.956  34.492  1.00  0.00    -0.003 C 
ATOM      9  C   UNL     1      13.278  59.971  33.308  1.00  0.00    -0.011 C 
ATOM     10  C   UNL     1      14.444  55.087  34.369  1.00  0.00    -0.006 C 
ATOM     11  C   UNL     1      12.679  56.273  32.956  1.00  0.00    -0.027 C 
ATOM     12  C   UNL     1      11.996  58.667  35.163  1.00  0.00     0.008 C 
ATOM     13  C   UNL     1      12.197  59.733  32.236  1.00  0.00     0.008 C 
ATOM     14  C   UNL     1      14.582  55.058  35.931  1.00  0.00     0.017 C 
ATOM     15  C   UNL     1      13.688  53.754  33.876  1.00  0.00    -0.020 C 
ATOM     16  C   UNL     1      12.318  55.026  32.169  1.00  0.00     0.032 C 
ATOM     17  C   UNL     1      13.408  53.947  32.328  1.00  0.00     0.006 C 
ATOM     18  C   UNL     1      14.507  52.431  34.122  1.00  0.00     0.008 C 
ATOM     19  C   UNL     1      12.357  53.635  34.729  1.00  0.00     0.012 C 
ATOM     20  C   UNL     1      13.341  52.616  31.431  1.00  0.00    -0.025 C 
ATOM     21  C   UNL     1      13.909  51.146  33.480  1.00  0.00     0.005 C 
ATOM     22  C   UNL     1      12.898  51.420  32.341  1.00  0.00     0.003 C 
ATOM     23  C   UNL     1      12.389  52.712  30.186  1.00  0.00     0.010 C 
ATOM     24  C   UNL     1      14.777  52.388  30.844  1.00  0.00     0.012 C 
ATOM     25  C   UNL     1      12.278  50.168  31.599  1.00  0.00    -0.006 C 
ATOM     26  C   UNL     1      10.987  52.159  30.451  1.00  0.00     0.033 C 
ATOM     27  C   UNL     1      11.010  50.642  30.769  1.00  0.00     0.120 C 
ATOM     28  C   UNL     1      11.793  49.133  32.649  1.00  0.00     0.014 C 
ATOM     29  C   UNL     1      13.305  49.436  30.695  1.00  0.00     0.014 C 
ENDROOT
BRANCH   1  30
ATOM     30  C   UNL     1      16.683  58.458  34.361  1.00  0.00     0.048 C 
ATOM     31  O   UNL     1      16.430  59.319  35.247  1.00  0.00    -0.550 OA
ATOM     32  O   UNL     1      18.013  58.124  34.127  1.00  0.00    -0.550 OA
ENDBRANCH   1  30
BRANCH  27  33
ATOM     33  O   UNL     1      10.875  49.922  29.567  1.00  0.00    -0.393 OA
ATOM     34  H   UNL     1      11.781  49.856  29.167  1.00  0.00     0.210 HD
ENDBRANCH  27  33
TORSDOF 2
ENDMDL
MODEL 3
REMARK VINA RESULT:    -5.391     11.391     13.279
REMARK INTER + INTRA:          -6.149
REMARK INTER:                  -5.908
REMARK INTRA:                  -0.241
REMARK UNBOUND:                -0.285
REMARK SMILES C[C@@H]1[C@H](C)CC[C@]2(C(=O)[O-])CC[C@@]3(C)C(=CC[C@@H]4[C@]5(C)CC[C@@H](O)C(C)(C)[C@H]5CC[C@]43C)[C@H]12
REMARK SMILES IDX 7 1 6 2 11 3 33 4 5 5 12 6 15 7 2 8 3 9 13 10 16 11 1 12
REMARK SMILES IDX 4 13 14 14 31 15 17 16 18 17 30 18 32 19 19 20 29 21 28 22
REMARK SMILES IDX 21 23 20 24 25 25 22 26 23 27 26 28 27 29 8 30 9 31 10 32
REMARK SMILES IDX 24 33
REMARK H PARENT 24 34
REMARK Flexibility Score: inf
ROOT
ATOM      1  C   UNL     1      24.672  52.222  28.105  1.00  0.00     0.017 C 
ATOM      2  C   UNL     1      24.993  52.579  26.622  1.00  0.00     0.014 C 
ATOM      3  C   UNL     1      24.032  53.503  28.753  1.00  0.00     0.014 C 
ATOM      4  C   UNL     1      25.992  51.790  28.853  1.00  0.00     0.030 C 
ATOM      5  C   UNL     1      25.737  51.467  25.875  1.00  0.00     0.004 C 
ATOM      6  C   UNL     1      24.155  53.611  30.297  1.00  0.00     0.013 C 
ATOM      7  C   UNL     1      26.518  52.960  29.691  1.00  0.00    -0.063 C 
ATOM      8  C   UNL     1      26.992  50.906  28.021  1.00  0.00    -0.003 C 
ATOM      9  C   UNL     1      27.116  51.190  26.491  1.00  0.00    -0.011 C 
ATOM     10  C   UNL     1      25.606  53.363  30.888  1.00  0.00    -0.006 C 
ATOM     11  C   UNL     1      27.426  53.826  29.158  1.00  0.00    -0.027 C 
ATOM     12  C   UNL     1      28.334  50.655  28.729  1.00  0.00     0.008 C 
ATOM     13  C   UNL     1      28.152  52.241  26.047  1.00  0.00     0.008 C 
ATOM     14  C   UNL     1      25.500  52.161  31.891  1.00  0.00     0.017 C 
ATOM     15  C   UNL     1      26.248  54.631  31.644  1.00  0.00    -0.020 C 
ATOM     16  C   UNL     1      27.674  55.243  29.643  1.00  0.00     0.032 C 
ATOM     17  C   UNL     1      26.510  55.728  30.529  1.00  0.00     0.006 C 
ATOM     18  C   UNL     1      25.337  55.219  32.785  1.00  0.00     0.008 C 
ATOM     19  C   UNL     1      27.584  54.130  32.334  1.00  0.00     0.012 C 
ATOM     20  C   UNL     1      26.456  57.264  30.996  1.00  0.00    -0.025 C 
ATOM     21  C   UNL     1      25.822  56.563  33.403  1.00  0.00     0.005 C 
ATOM     22  C   UNL     1      26.827  57.339  32.517  1.00  0.00     0.003 C 
ATOM     23  C   UNL     1      27.386  58.230  30.179  1.00  0.00     0.010 C 
ATOM     24  C   UNL     1      24.995  57.770  30.737  1.00  0.00     0.012 C 
ATOM     25  C   UNL     1      27.334  58.741  33.045  1.00  0.00    -0.006 C 
ATOM     26  C   UNL     1      28.747  58.462  30.838  1.00  0.00     0.033 C 
ATOM     27  C   UNL     1      28.616  59.168  32.212  1.00  0.00     0.120 C 
ATOM     28  C   UNL     1      27.761  58.608  34.532  1.00  0.00     0.014 C 
ATOM     29  C   UNL     1      26.236  59.835  32.995  1.00  0.00     0.014 C 
ENDROOT
BRANCH   1  30
ATOM     30  C   UNL     1      23.629  51.106  28.172  1.00  0.00     0.048 C 
ATOM     31  O   UNL     1      23.830  50.069  28.860  1.00  0.00    -0.550 OA
ATOM     32  O   UNL     1      22.487  51.162  27.381  1.00  0.00    -0.550 OA
ENDBRANCH   1  30
BRANCH  27  33
ATOM     33  O   UNL     1      28.671  60.561  32.017  1.00  0.00    -0.393 OA
ATOM     34  H   UNL     1      27.762  60.849  31.741  1.00  0.00     0.210 HD
ENDBRANCH  27  33
TORSDOF 2
ENDMDL
MODEL 4
REMARK VINA RESULT:    -5.371      2.782      7.475
REMARK INTER + INTRA:          -6.127
REMARK INTER:                  -6.450
REMARK INTRA:                   0.323
REMARK UNBOUND:                -0.285
REMARK SMILES C[C@@H]1[C@H](C)CC[C@]2(C(=O)[O-])CC[C@@]3(C)C(=CC[C@@H]4[C@]5(C)CC[C@@H](O)C(C)(C)[C@H]5CC[C@]43C)[C@H]12
REMARK SMILES IDX 7 1 6 2 11 3 33 4 5 5 12 6 15 7 2 8 3 9 13 10 16 11 1 12
REMARK SMILES IDX 4 13 14 14 31 15 17 16 18 17 30 18 32 19 19 20 29 21 28 22
REMARK SMILES IDX 21 23 20 24 25 25 22 26 23 27 26 28 27 29 8 30 9 31 10 32
REMARK SMILES IDX 24 33
REMARK H PARENT 24 34
REMARK Flexibility Score: inf
ROOT
ATOM      1  C   UNL     1      11.837  54.031  34.093  1.00  0.00     0.017 C 
ATOM      2  C   UNL     1      11.769  54.010  35.650  1.00  0.00     0.014 C 
ATOM      3  C   UNL     1      11.031  52.781  33.585  1.00  0.00     0.014 C 
ATOM      4  C   UNL     1      13.341  53.984  33.619  1.00  0.00     0.030 C 
ATOM      5  C   UNL     1      12.612  55.105  36.312  1.00  0.00     0.004 C 
ATOM      6  C   UNL     1      11.415  52.258  32.175  1.00  0.00     0.013 C 
ATOM      7  C   UNL     1      13.706  52.558  33.194  1.00  0.00    -0.063 C 
ATOM      8  C   UNL     1      14.353  54.835  34.471  1.00  0.00    -0.003 C 
ATOM      9  C   UNL     1      14.107  54.934  36.010  1.00  0.00    -0.011 C 
ATOM     10  C   UNL     1      12.967  52.052  31.920  1.00  0.00    -0.006 C 
ATOM     11  C   UNL     1      14.247  51.695  34.099  1.00  0.00    -0.027 C 
ATOM     12  C   UNL     1      15.825  54.623  34.077  1.00  0.00     0.008 C 
ATOM     13  C   UNL     1      14.742  53.847  36.900  1.00  0.00     0.008 C 
ATOM     14  C   UNL     1      13.360  52.952  30.697  1.00  0.00     0.017 C 
ATOM     15  C   UNL     1      13.402  50.530  31.621  1.00  0.00    -0.020 C 
ATOM     16  C   UNL     1      14.219  50.181  33.992  1.00  0.00     0.032 C 
ATOM     17  C   UNL     1      13.161  49.727  32.967  1.00  0.00     0.006 C 
ATOM     18  C   UNL     1      12.606  49.863  30.437  1.00  0.00     0.008 C 
ATOM     19  C   UNL     1      14.927  50.561  31.191  1.00  0.00     0.012 C 
ATOM     20  C   UNL     1      12.813  48.165  32.827  1.00  0.00    -0.025 C 
ATOM     21  C   UNL     1      12.846  48.337  30.247  1.00  0.00     0.005 C 
ATOM     22  C   UNL     1      13.435  47.630  31.492  1.00  0.00     0.003 C 
ATOM     23  C   UNL     1      13.296  47.276  34.027  1.00  0.00     0.010 C 
ATOM     24  C   UNL     1      11.249  48.044  32.819  1.00  0.00     0.012 C 
ATOM     25  C   UNL     1      13.665  46.068  31.403  1.00  0.00    -0.006 C 
ATOM     26  C   UNL     1      14.655  46.616  33.784  1.00  0.00     0.033 C 
ATOM     27  C   UNL     1      14.615  45.622  32.595  1.00  0.00     0.120 C 
ATOM     28  C   UNL     1      14.387  45.727  30.073  1.00  0.00     0.014 C 
ATOM     29  C   UNL     1      12.338  45.264  31.407  1.00  0.00     0.014 C 
ENDROOT
BRANCH   1  30
ATOM     30  C   UNL     1      11.141  55.277  33.545  1.00  0.00     0.048 C 
ATOM     31  O   UNL     1      10.878  55.387  32.317  1.00  0.00    -0.550 OA
ATOM     32  O   UNL     1      10.889  56.364  34.374  1.00  0.00    -0.550 OA
ENDBRANCH   1  30
BRANCH  27  33
ATOM     33  O   UNL     1      14.279  44.344  33.079  1.00  0.00    -0.393 OA
ATOM     34  H   UNL     1      14.038  44.452  34.036  1.00  0.00     0.210 HD
ENDBRANCH  27  33
TORSDOF 2
ENDMDL
MODEL 5
REMARK VINA RESULT:    -5.338      3.716      6.931
REMARK INTER + INTRA:          -6.092
REMARK INTER:                  -5.913
REMARK INTRA:                  -0.179
REMARK UNBOUND:                -0.285
REMARK SMILES C[C@@H]1[C@H](C)CC[C@]2(C(=O)[O-])CC[C@@]3(C)C(=CC[C@@H]4[C@]5(C)CC[C@@H](O)C(C)(C)[C@H]5CC[C@]43C)[C@H]12
REMARK SMILES IDX 7 1 6 2 11 3 33 4 5 5 12 6 15 7 2 8 3 9 13 10 16 11 1 12
REMARK SMILES IDX 4 13 14 14 31 15 17 16 18 17 30 18 32 19 19 20 29 21 28 22
REMARK SMILES IDX 21 23 20 24 25 25 22 26 23 27 26 28 27 29 8 30 9 31 10 32
REMARK SMILES IDX 24 33
REMARK H PARENT 24 34
REMARK Flexibility Score: inf
ROOT
ATOM      1  C   UNL     1      15.806  49.035  28.736  1.00  0.00     0.017 C 
ATOM      2  C   UNL     1      15.278  48.620  27.330  1.00  0.00     0.014 C 
ATOM      3  C   UNL     1      16.288  47.718  29.448  1.00  0.00     0.014 C 
ATOM      4  C   UNL     1      14.662  49.750  29.553  1.00  0.00     0.030 C 
ATOM      5  C   UNL     1      14.656  49.780  26.546  1.00  0.00     0.004 C 
ATOM      6  C   UNL     1      16.310  47.759  30.999  1.00  0.00     0.013 C 
ATOM      7  C   UNL     1      14.038  48.763  30.545  1.00  0.00    -0.063 C 
ATOM      8  C   UNL     1      13.742  50.725  28.729  1.00  0.00    -0.003 C 
ATOM      9  C   UNL     1      13.414  50.343  27.252  1.00  0.00    -0.011 C 
ATOM     10  C   UNL     1      14.990  48.305  31.690  1.00  0.00    -0.006 C 
ATOM     11  C   UNL     1      12.949  48.029  30.182  1.00  0.00    -0.027 C 
ATOM     12  C   UNL     1      12.541  51.264  29.526  1.00  0.00     0.008 C 
ATOM     13  C   UNL     1      12.176  49.458  27.007  1.00  0.00     0.008 C 
ATOM     14  C   UNL     1      15.399  49.547  32.556  1.00  0.00     0.017 C 
ATOM     15  C   UNL     1      14.228  47.235  32.620  1.00  0.00    -0.020 C 
ATOM     16  C   UNL     1      12.520  46.721  30.823  1.00  0.00     0.032 C 
ATOM     17  C   UNL     1      13.673  46.114  31.646  1.00  0.00     0.006 C 
ATOM     18  C   UNL     1      15.143  46.591  33.729  1.00  0.00     0.008 C 
ATOM     19  C   UNL     1      13.073  48.017  33.374  1.00  0.00     0.012 C 
ATOM     20  C   UNL     1      13.518  44.635  32.255  1.00  0.00    -0.025 C 
ATOM     21  C   UNL     1      14.508  45.408  34.515  1.00  0.00     0.005 C 
ATOM     22  C   UNL     1      13.301  44.750  33.803  1.00  0.00     0.003 C 
ATOM     23  C   UNL     1      12.361  43.784  31.622  1.00  0.00     0.010 C 
ATOM     24  C   UNL     1      14.840  43.861  31.918  1.00  0.00     0.012 C 
ATOM     25  C   UNL     1      12.625  43.507  34.509  1.00  0.00    -0.006 C 
ATOM     26  C   UNL     1      11.056  43.848  32.419  1.00  0.00     0.033 C 
ATOM     27  C   UNL     1      11.211  43.245  33.838  1.00  0.00     0.120 C 
ATOM     28  C   UNL     1      12.384  43.833  36.007  1.00  0.00     0.014 C 
ATOM     29  C   UNL     1      13.515  42.237  34.469  1.00  0.00     0.014 C 
ENDROOT
BRANCH   1  30
ATOM     30  C   UNL     1      17.021  49.952  28.601  1.00  0.00     0.048 C 
ATOM     31  O   UNL     1      18.134  49.504  28.210  1.00  0.00    -0.550 OA
ATOM     32  O   UNL     1      16.954  51.276  29.018  1.00  0.00    -0.550 OA
ENDBRANCH   1  30
BRANCH  27  33
ATOM     33  O   UNL     1      10.905  41.872  33.787  1.00  0.00    -0.393 OA
ATOM     34  H   UNL     1      10.451  41.710  32.918  1.00  0.00     0.210 HD
ENDBRANCH  27  33
TORSDOF 2
ENDMDL
MODEL 6
REMARK VINA RESULT:    -5.217      1.816      7.861
REMARK INTER + INTRA:          -5.960
REMARK INTER:                  -5.747
REMARK INTRA:                  -0.213
REMARK UNBOUND:                -0.285
REMARK SMILES C[C@@H]1[C@H](C)CC[C@]2(C(=O)[O-])CC[C@@]3(C)C(=CC[C@@H]4[C@]5(C)CC[C@@H](O)C(C)(C)[C@H]5CC[C@]43C)[C@H]12
REMARK SMILES IDX 7 1 6 2 11 3 33 4 5 5 12 6 15 7 2 8 3 9 13 10 16 11 1 12
REMARK SMILES IDX 4 13 14 14 31 15 17 16 18 17 30 18 32 19 19 20 29 21 28 22
REMARK SMILES IDX 21 23 20 24 25 25 22 26 23 27 26 28 27 29 8 30 9 31 10 32
REMARK SMILES IDX 24 33
REMARK H PARENT 24 34
REMARK Flexibility Score: inf
ROOT
ATOM      1  C   UNL     1      14.255  54.408  34.603  1.00  0.00     0.017 C 
ATOM      2  C   UNL     1      15.601  55.185  34.495  1.00  0.00     0.014 C 
ATOM      3  C   UNL     1      14.612  52.877  34.607  1.00  0.00     0.014 C 
ATOM      4  C   UNL     1      13.317  54.783  33.391  1.00  0.00     0.030 C 
ATOM      5  C   UNL     1      15.421  56.701  34.359  1.00  0.00     0.004 C 
ATOM      6  C   UNL     1      13.485  51.920  34.134  1.00  0.00     0.013 C 
ATOM      7  C   UNL     1      13.380  53.682  32.328  1.00  0.00    -0.063 C 
ATOM      8  C   UNL     1      13.330  56.295  32.959  1.00  0.00    -0.003 C 
ATOM      9  C   UNL     1      14.680  57.072  33.066  1.00  0.00    -0.011 C 
ATOM     10  C   UNL     1      12.776  52.316  32.771  1.00  0.00    -0.006 C 
ATOM     11  C   UNL     1      14.280  53.770  31.308  1.00  0.00    -0.027 C 
ATOM     12  C   UNL     1      12.536  56.578  31.672  1.00  0.00     0.008 C 
ATOM     13  C   UNL     1      15.620  57.031  31.846  1.00  0.00     0.008 C 
ATOM     14  C   UNL     1      11.248  52.497  33.078  1.00  0.00     0.017 C 
ATOM     15  C   UNL     1      12.957  51.243  31.585  1.00  0.00    -0.020 C 
ATOM     16  C   UNL     1      14.791  52.600  30.487  1.00  0.00     0.032 C 
ATOM     17  C   UNL     1      14.495  51.264  31.197  1.00  0.00     0.006 C 
ATOM     18  C   UNL     1      12.513  49.783  31.975  1.00  0.00     0.008 C 
ATOM     19  C   UNL     1      12.019  51.707  30.395  1.00  0.00     0.012 C 
ATOM     20  C   UNL     1      15.114  49.902  30.613  1.00  0.00    -0.025 C 
ATOM     21  C   UNL     1      12.859  48.679  30.935  1.00  0.00     0.005 C 
ATOM     22  C   UNL     1      13.967  49.081  29.931  1.00  0.00     0.003 C 
ATOM     23  C   UNL     1      16.295  50.102  29.598  1.00  0.00     0.010 C 
ATOM     24  C   UNL     1      15.732  49.124  31.826  1.00  0.00     0.012 C 
ATOM     25  C   UNL     1      14.417  47.999  28.869  1.00  0.00    -0.006 C 
ATOM     26  C   UNL     1      15.845  50.089  28.135  1.00  0.00     0.033 C 
ATOM     27  C   UNL     1      15.245  48.721  27.723  1.00  0.00     0.120 C 
ATOM     28  C   UNL     1      13.161  47.364  28.215  1.00  0.00     0.014 C 
ATOM     29  C   UNL     1      15.224  46.835  29.502  1.00  0.00     0.014 C 
ENDROOT
BRANCH   1  30
ATOM     30  C   UNL     1      13.564  54.719  35.931  1.00  0.00     0.048 C 
ATOM     31  O   UNL     1      14.084  54.381  37.029  1.00  0.00    -0.550 OA
ATOM     32  O   UNL     1      12.291  55.278  35.948  1.00  0.00    -0.550 OA
ENDBRANCH   1  30
BRANCH  27  33
ATOM     33  O   UNL     1      16.276  47.900  27.228  1.00  0.00    -0.393 OA
ATOM     34  H   UNL     1      16.975  48.504  26.864  1.00  0.00     0.210 HD
ENDBRANCH  27  33
TORSDOF 2
ENDMDL
MODEL 7
REMARK VINA RESULT:    -5.116      3.524      7.599
REMARK INTER + INTRA:          -5.850
REMARK INTER:                  -5.566
REMARK INTRA:                  -0.284
REMARK UNBOUND:                -0.285
REMARK SMILES C[C@@H]1[C@H](C)CC[C@]2(C(=O)[O-])CC[C@@]3(C)C(=CC[C@@H]4[C@]5(C)CC[C@@H](O)C(C)(C)[C@H]5CC[C@]43C)[C@H]12
REMARK SMILES IDX 7 1 6 2 11 3 33 4 5 5 12 6 15 7 2 8 3 9 13 10 16 11 1 12
REMARK SMILES IDX 4 13 14 14 31 15 17 16 18 17 30 18 32 19 19 20 29 21 28 22
REMARK SMILES IDX 21 23 20 24 25 25 22 26 23 27 26 28 27 29 8 30 9 31 10 32
REMARK SMILES IDX 24 33
REMARK H PARENT 24 34
REMARK Flexibility Score: inf
ROOT
ATOM      1  C   UNL     1      13.661  49.859  30.175  1.00  0.00     0.017 C 
ATOM      2  C   UNL     1      12.287  50.584  30.296  1.00  0.00     0.014 C 
ATOM      3  C   UNL     1      13.359  48.386  29.715  1.00  0.00     0.014 C 
ATOM      4  C   UNL     1      14.412  49.891  31.562  1.00  0.00     0.030 C 
ATOM      5  C   UNL     1      12.397  52.007  30.854  1.00  0.00     0.004 C 
ATOM      6  C   UNL     1      14.443  47.333  30.069  1.00  0.00     0.013 C 
ATOM      7  C   UNL     1      14.242  48.546  32.275  1.00  0.00    -0.063 C 
ATOM      8  C   UNL     1      14.290  51.233  32.373  1.00  0.00    -0.003 C 
ATOM      9  C   UNL     1      12.942  52.016  32.289  1.00  0.00    -0.011 C 
ATOM     10  C   UNL     1      14.946  47.346  31.574  1.00  0.00    -0.006 C 
ATOM     11  C   UNL     1      13.209  48.362  33.145  1.00  0.00    -0.027 C 
ATOM     12  C   UNL     1      14.892  51.158  33.788  1.00  0.00     0.008 C 
ATOM     13  C   UNL     1      11.847  51.654  33.311  1.00  0.00     0.008 C 
ATOM     14  C   UNL     1      16.495  47.596  31.543  1.00  0.00     0.017 C 
ATOM     15  C   UNL     1      14.642  45.996  32.395  1.00  0.00    -0.020 C 
ATOM     16  C   UNL     1      12.631  47.017  33.546  1.00  0.00     0.032 C 
ATOM     17  C   UNL     1      13.066  45.919  32.556  1.00  0.00     0.006 C 
ATOM     18  C   UNL     1      15.183  44.692  31.698  1.00  0.00     0.008 C 
ATOM     19  C   UNL     1      15.393  46.120  33.785  1.00  0.00     0.012 C 
ATOM     20  C   UNL     1      12.418  44.453  32.665  1.00  0.00    -0.025 C 
ATOM     21  C   UNL     1      14.736  43.351  32.348  1.00  0.00     0.005 C 
ATOM     22  C   UNL     1      13.489  43.474  33.258  1.00  0.00     0.003 C 
ATOM     23  C   UNL     1      11.105  44.379  33.521  1.00  0.00     0.010 C 
ATOM     24  C   UNL     1      11.997  44.030  31.214  1.00  0.00     0.012 C 
ATOM     25  C   UNL     1      12.935  42.149  33.921  1.00  0.00    -0.006 C 
ATOM     26  C   UNL     1      11.351  43.973  34.976  1.00  0.00     0.033 C 
ATOM     27  C   UNL     1      11.936  42.542  35.090  1.00  0.00     0.120 C 
ATOM     28  C   UNL     1      14.111  41.358  34.552  1.00  0.00     0.014 C 
ATOM     29  C   UNL     1      12.262  41.200  32.895  1.00  0.00     0.014 C 
ENDROOT
BRANCH   1  30
ATOM     30  C   UNL     1      14.515  50.510  29.088  1.00  0.00     0.048 C 
ATOM     31  O   UNL     1      14.031  50.779  27.955  1.00  0.00    -0.550 OA
ATOM     32  O   UNL     1      15.876  50.713  29.288  1.00  0.00    -0.550 OA
ENDBRANCH   1  30
BRANCH  27  33
ATOM     33  O   UNL     1      10.875  41.623  35.200  1.00  0.00    -0.393 OA
ATOM     34  H   UNL     1      10.584  41.407  34.275  1.00  0.00     0.210 HD
ENDBRANCH  27  33
TORSDOF 2
ENDMDL
MODEL 8
REMARK VINA RESULT:    -5.109      2.052      7.754
REMARK INTER + INTRA:          -5.842
REMARK INTER:                  -5.712
REMARK INTRA:                  -0.130
REMARK UNBOUND:                -0.285
REMARK SMILES C[C@@H]1[C@H](C)CC[C@]2(C(=O)[O-])CC[C@@]3(C)C(=CC[C@@H]4[C@]5(C)CC[C@@H](O)C(C)(C)[C@H]5CC[C@]43C)[C@H]12
REMARK SMILES IDX 7 1 6 2 11 3 33 4 5 5 12 6 15 7 2 8 3 9 13 10 16 11 1 12
REMARK SMILES IDX 4 13 14 14 31 15 17 16 18 17 30 18 32 19 19 20 29 21 28 22
REMARK SMILES IDX 21 23 20 24 25 25 22 26 23 27 26 28 27 29 8 30 9 31 10 32
REMARK SMILES IDX 24 33
REMARK H PARENT 24 34
REMARK Flexibility Score: inf
ROOT
ATOM      1  C   UNL     1      13.688  52.458  33.032  1.00  0.00     0.017 C 
ATOM      2  C   UNL     1      14.637  53.550  32.451  1.00  0.00     0.014 C 
ATOM      3  C   UNL     1      14.594  51.240  33.442  1.00  0.00     0.014 C 
ATOM      4  C   UNL     1      12.615  52.046  31.951  1.00  0.00     0.030 C 
ATOM      5  C   UNL     1      13.894  54.767  31.890  1.00  0.00     0.004 C 
ATOM      6  C   UNL     1      13.885  49.860  33.496  1.00  0.00     0.013 C 
ATOM      7  C   UNL     1      13.030  50.731  31.285  1.00  0.00    -0.063 C 
ATOM      8  C   UNL     1      12.036  53.221  31.081  1.00  0.00    -0.003 C 
ATOM      9  C   UNL     1      12.999  54.390  30.700  1.00  0.00    -0.011 C 
ATOM     10  C   UNL     1      13.007  49.490  32.227  1.00  0.00    -0.006 C 
ATOM     11  C   UNL     1      13.775  50.750  30.144  1.00  0.00    -0.027 C 
ATOM     12  C   UNL     1      11.126  52.751  29.933  1.00  0.00     0.008 C 
ATOM     13  C   UNL     1      13.819  54.239  29.404  1.00  0.00     0.008 C 
ATOM     14  C   UNL     1      11.542  49.245  32.731  1.00  0.00     0.017 C 
ATOM     15  C   UNL     1      13.514  48.195  31.416  1.00  0.00    -0.020 C 
ATOM     16  C   UNL     1      14.643  49.609  29.644  1.00  0.00     0.032 C 
ATOM     17  C   UNL     1      14.908  48.592  30.772  1.00  0.00     0.006 C 
ATOM     18  C   UNL     1      13.672  46.907  32.308  1.00  0.00     0.008 C 
ATOM     19  C   UNL     1      12.408  47.869  30.328  1.00  0.00     0.012 C 
ATOM     20  C   UNL     1      15.962  47.402  30.534  1.00  0.00    -0.025 C 
ATOM     21  C   UNL     1      14.351  45.692  31.614  1.00  0.00     0.005 C 
ATOM     22  C   UNL     1      15.172  46.061  30.354  1.00  0.00     0.003 C 
ATOM     23  C   UNL     1      16.924  47.615  29.312  1.00  0.00     0.010 C 
ATOM     24  C   UNL     1      16.890  47.356  31.796  1.00  0.00     0.012 C 
ATOM     25  C   UNL     1      15.937  44.892  29.613  1.00  0.00    -0.006 C 
ATOM     26  C   UNL     1      16.435  46.939  28.030  1.00  0.00     0.033 C 
ATOM     27  C   UNL     1      16.371  45.397  28.172  1.00  0.00     0.120 C 
ATOM     28  C   UNL     1      14.978  43.687  29.422  1.00  0.00     0.014 C 
ATOM     29  C   UNL     1      17.155  44.366  30.419  1.00  0.00     0.014 C 
ENDROOT
BRANCH   1  30
ATOM     30  C   UNL     1      13.003  52.966  34.301  1.00  0.00     0.048 C 
ATOM     31  O   UNL     1      11.792  53.314  34.291  1.00  0.00    -0.550 OA
ATOM     32  O   UNL     1      13.737  53.163  35.466  1.00  0.00    -0.550 OA
ENDBRANCH   1  30
BRANCH  27  33
ATOM     33  O   UNL     1      17.606  44.850  27.778  1.00  0.00    -0.393 OA
ATOM     34  H   UNL     1      17.708  45.038  26.808  1.00  0.00     0.210 HD
ENDBRANCH  27  33
TORSDOF 2
ENDMDL
MODEL 9
REMARK VINA RESULT:    -5.072     11.841     15.126
REMARK INTER + INTRA:          -5.802
REMARK INTER:                  -5.522
REMARK INTRA:                  -0.280
REMARK UNBOUND:                -0.285
REMARK SMILES C[C@@H]1[C@H](C)CC[C@]2(C(=O)[O-])CC[C@@]3(C)C(=CC[C@@H]4[C@]5(C)CC[C@@H](O)C(C)(C)[C@H]5CC[C@]43C)[C@H]12
REMARK SMILES IDX 7 1 6 2 11 3 33 4 5 5 12 6 15 7 2 8 3 9 13 10 16 11 1 12
REMARK SMILES IDX 4 13 14 14 31 15 17 16 18 17 30 18 32 19 19 20 29 21 28 22
REMARK SMILES IDX 21 23 20 24 25 25 22 26 23 27 26 28 27 29 8 30 9 31 10 32
REMARK SMILES IDX 24 33
REMARK H PARENT 24 34
REMARK Flexibility Score: inf
ROOT
ATOM      1  C   UNL     1      27.401  56.939  33.095  1.00  0.00     0.017 C 
ATOM      2  C   UNL     1      28.764  56.454  33.674  1.00  0.00     0.014 C 
ATOM      3  C   UNL     1      26.441  55.694  33.088  1.00  0.00     0.014 C 
ATOM      4  C   UNL     1      27.608  57.520  31.643  1.00  0.00     0.030 C 
ATOM      5  C   UNL     1      29.858  57.527  33.637  1.00  0.00     0.004 C 
ATOM      6  C   UNL     1      25.272  55.749  32.068  1.00  0.00     0.013 C 
ATOM      7  C   UNL     1      27.196  56.474  30.603  1.00  0.00    -0.063 C 
ATOM      8  C   UNL     1      28.912  58.373  31.428  1.00  0.00    -0.003 C 
ATOM      9  C   UNL     1      30.199  57.945  32.200  1.00  0.00    -0.011 C 
ATOM     10  C   UNL     1      25.675  56.140  30.584  1.00  0.00    -0.006 C 
ATOM     11  C   UNL     1      28.125  55.613  30.097  1.00  0.00    -0.027 C 
ATOM     12  C   UNL     1      29.155  58.773  29.962  1.00  0.00     0.008 C 
ATOM     13  C   UNL     1      31.124  56.917  31.519  1.00  0.00     0.008 C 
ATOM     14  C   UNL     1      24.863  57.428  30.207  1.00  0.00     0.017 C 
ATOM     15  C   UNL     1      25.393  54.994  29.489  1.00  0.00    -0.020 C 
ATOM     16  C   UNL     1      27.819  54.269  29.462  1.00  0.00     0.032 C 
ATOM     17  C   UNL     1      26.393  53.808  29.820  1.00  0.00     0.006 C 
ATOM     18  C   UNL     1      23.908  54.471  29.484  1.00  0.00     0.008 C 
ATOM     19  C   UNL     1      25.659  55.639  28.066  1.00  0.00     0.012 C 
ATOM     20  C   UNL     1      25.916  52.326  29.423  1.00  0.00    -0.025 C 
ATOM     21  C   UNL     1      23.641  53.227  28.588  1.00  0.00     0.005 C 
ATOM     22  C   UNL     1      24.914  52.426  28.222  1.00  0.00     0.003 C 
ATOM     23  C   UNL     1      27.081  51.339  29.057  1.00  0.00     0.010 C 
ATOM     24  C   UNL     1      25.230  51.711  30.692  1.00  0.00     0.012 C 
ATOM     25  C   UNL     1      24.729  51.117  27.354  1.00  0.00    -0.006 C 
ATOM     26  C   UNL     1      27.354  51.254  27.554  1.00  0.00     0.033 C 
ATOM     27  C   UNL     1      26.141  50.684  26.774  1.00  0.00     0.120 C 
ATOM     28  C   UNL     1      23.798  51.423  26.151  1.00  0.00     0.014 C 
ATOM     29  C   UNL     1      24.064  49.960  28.147  1.00  0.00     0.014 C 
ENDROOT
BRANCH   1  30
ATOM     30  C   UNL     1      26.777  57.992  34.010  1.00  0.00     0.048 C 
ATOM     31  O   UNL     1      26.668  57.794  35.250  1.00  0.00    -0.550 OA
ATOM     32  O   UNL     1      26.209  59.143  33.474  1.00  0.00    -0.550 OA
ENDBRANCH   1  30
BRANCH  27  33
ATOM     33  O   UNL     1      26.266  49.284  26.695  1.00  0.00    -0.393 OA
ATOM     34  H   UNL     1      26.533  48.968  27.598  1.00  0.00     0.210 HD
ENDBRANCH  27  33
TORSDOF 2
ENDMDL
