MODEL 1
REMARK VINA RESULT:    -3.711      0.000      0.000
REMARK INTER + INTRA:          -5.518
REMARK INTER:                  -5.229
REMARK INTRA:                  -0.289
REMARK UNBOUND:                -0.289
REMARK SMILES CCCCCCCCC(=O)[O-]
REMARK SMILES IDX 6 1 7 2 8 3 9 4 10 5 11 6 5 7 4 8 3 9 2 10 1 11
REMARK H PARENT
REMARK Flexibility Score: inf
ROOT
ATOM      1  C   UNL     1      -7.873   2.422  -3.413  1.00  0.00     0.000 C 
ENDROOT
BRANCH   1   2
ATOM      2  C   UNL     1      -8.782   2.094  -4.608  1.00  0.00     0.006 C 
BRANCH   2   3
ATOM      3  C   UNL     1      -8.812   0.585  -4.875  1.00  0.00     0.053 C 
BRANCH   3   4
ATOM      4  C   UNL     1      -9.047   0.315  -6.328  1.00  0.00     0.041 C 
ATOM      5  O   UNL     1      -9.706  -0.697  -6.685  1.00  0.00    -0.550 OA
ATOM      6  O   UNL     1      -8.497   1.154  -7.289  1.00  0.00    -0.550 OA
ENDBRANCH   3   4
ENDBRANCH   2   3
ENDBRANCH   1   2
BRANCH   1   7
ATOM      7  C   UNL     1      -6.578   1.595  -3.409  1.00  0.00     0.000 C 
BRANCH   7   8
ATOM      8  C   UNL     1      -5.580   2.062  -2.338  1.00  0.00    -0.000 C 
BRANCH   8   9
ATOM      9  C   UNL     1      -6.308   2.731  -1.165  1.00  0.00    -0.000 C 
BRANCH   9  10
ATOM     10  C   UNL     1      -5.309   3.312  -0.158  1.00  0.00    -0.003 C 
ATOM     11  C   UNL     1      -5.316   2.519   1.146  1.00  0.00     0.004 C 
ENDBRANCH   9  10
ENDBRANCH   8   9
ENDBRANCH   7   8
ENDBRANCH   1   7
TORSDOF 7
ENDMDL
MODEL 2
REMARK VINA RESULT:    -3.623      1.614      2.287
REMARK INTER + INTRA:          -5.394
REMARK INTER:                  -5.146
REMARK INTRA:                  -0.248
REMARK UNBOUND:                -0.289
REMARK SMILES CCCCCCCCC(=O)[O-]
REMARK SMILES IDX 6 1 7 2 8 3 9 4 10 5 11 6 5 7 4 8 3 9 2 10 1 11
REMARK H PARENT
REMARK Flexibility Score: inf
ROOT
ATOM      1  C   UNL     1      -6.454   1.574  -3.402  1.00  0.00     0.000 C 
ENDROOT
BRANCH   1   2
ATOM      2  C   UNL     1      -7.819   2.281  -3.404  1.00  0.00     0.006 C 
BRANCH   2   3
ATOM      3  C   UNL     1      -8.627   1.908  -4.652  1.00  0.00     0.053 C 
BRANCH   3   4
ATOM      4  C   UNL     1      -8.928   3.128  -5.465  1.00  0.00     0.041 C 
ATOM      5  O   UNL     1      -9.583   4.078  -4.962  1.00  0.00    -0.550 OA
ATOM      6  O   UNL     1      -8.527   3.193  -6.793  1.00  0.00    -0.550 OA
ENDBRANCH   3   4
ENDBRANCH   2   3
ENDBRANCH   1   2
BRANCH   1   7
ATOM      7  C   UNL     1      -5.558   2.021  -2.237  1.00  0.00     0.000 C 
BRANCH   7   8
ATOM      8  C   UNL     1      -6.303   2.895  -1.217  1.00  0.00    -0.000 C 
BRANCH   8   9
ATOM      9  C   UNL     1      -5.389   3.269  -0.043  1.00  0.00    -0.000 C 
BRANCH   9  10
ATOM     10  C   UNL     1      -5.282   2.115   0.959  1.00  0.00    -0.003 C 
ATOM     11  C   UNL     1      -5.173   2.635   2.389  1.00  0.00     0.004 C 
ENDBRANCH   9  10
ENDBRANCH   8   9
ENDBRANCH   7   8
ENDBRANCH   1   7
TORSDOF 7
ENDMDL
MODEL 3
REMARK VINA RESULT:    -3.387     14.328     15.993
REMARK INTER + INTRA:          -5.062
REMARK INTER:                  -4.395
REMARK INTRA:                  -0.666
REMARK UNBOUND:                -0.289
REMARK SMILES CCCCCCCCC(=O)[O-]
REMARK SMILES IDX 6 1 7 2 8 3 9 4 10 5 11 6 5 7 4 8 3 9 2 10 1 11
REMARK H PARENT
REMARK Flexibility Score: inf
ROOT
ATOM      1  C   UNL     1       4.093   8.131  -3.721  1.00  0.00     0.000 C 
ENDROOT
BRANCH   1   2
ATOM      2  C   UNL     1       4.996   7.186  -2.913  1.00  0.00     0.006 C 
BRANCH   2   3
ATOM      3  C   UNL     1       6.203   7.938  -2.342  1.00  0.00     0.053 C 
BRANCH   3   4
ATOM      4  C   UNL     1       7.473   7.224  -2.680  1.00  0.00     0.041 C 
ATOM      5  O   UNL     1       7.441   6.152  -3.338  1.00  0.00    -0.550 OA
ATOM      6  O   UNL     1       8.689   7.717  -2.225  1.00  0.00    -0.550 OA
ENDBRANCH   3   4
ENDBRANCH   2   3
ENDBRANCH   1   2
BRANCH   1   7
ATOM      7  C   UNL     1       4.891   9.152  -4.547  1.00  0.00     0.000 C 
BRANCH   7   8
ATOM      8  C   UNL     1       4.693   8.974  -6.060  1.00  0.00    -0.000 C 
BRANCH   8   9
ATOM      9  C   UNL     1       6.043   8.913  -6.786  1.00  0.00    -0.000 C 
BRANCH   9  10
ATOM     10  C   UNL     1       7.204   9.113  -5.806  1.00  0.00    -0.003 C 
ATOM     11  C   UNL     1       8.480   8.453  -6.320  1.00  0.00     0.004 C 
ENDBRANCH   9  10
ENDBRANCH   8   9
ENDBRANCH   7   8
ENDBRANCH   1   7
TORSDOF 7
ENDMDL
MODEL 4
REMARK VINA RESULT:    -3.309     14.949     16.582
REMARK INTER + INTRA:          -4.952
REMARK INTER:                  -4.605
REMARK INTRA:                  -0.347
REMARK UNBOUND:                -0.289
REMARK SMILES CCCCCCCCC(=O)[O-]
REMARK SMILES IDX 6 1 7 2 8 3 9 4 10 5 11 6 5 7 4 8 3 9 2 10 1 11
REMARK H PARENT
REMARK Flexibility Score: inf
ROOT
ATOM      1  C   UNL     1       7.464   9.222  -0.189  1.00  0.00     0.000 C 
ENDROOT
BRANCH   1   2
ATOM      2  C   UNL     1       7.819   8.470  -1.481  1.00  0.00     0.006 C 
BRANCH   2   3
ATOM      3  C   UNL     1       6.613   8.400  -2.423  1.00  0.00     0.053 C 
BRANCH   3   4
ATOM      4  C   UNL     1       6.420   7.004  -2.925  1.00  0.00     0.041 C 
ATOM      5  O   UNL     1       7.407   6.335  -3.331  1.00  0.00    -0.550 OA
ATOM      6  O   UNL     1       5.144   6.460  -2.991  1.00  0.00    -0.550 OA
ENDBRANCH   3   4
ENDBRANCH   2   3
ENDBRANCH   1   2
BRANCH   1   7
ATOM      7  C   UNL     1       8.699   9.551   0.664  1.00  0.00     0.000 C 
BRANCH   7   8
ATOM      8  C   UNL     1       8.338   9.927   2.109  1.00  0.00    -0.000 C 
BRANCH   8   9
ATOM      9  C   UNL     1       6.817   9.965   2.302  1.00  0.00    -0.000 C 
BRANCH   9  10
ATOM     10  C   UNL     1       6.378   8.998   3.408  1.00  0.00    -0.003 C 
ATOM     11  C   UNL     1       7.548   8.631   4.316  1.00  0.00     0.004 C 
ENDBRANCH   9  10
ENDBRANCH   8   9
ENDBRANCH   7   8
ENDBRANCH   1   7
TORSDOF 7
ENDMDL
MODEL 5
REMARK VINA RESULT:    -3.182     14.363     16.434
REMARK INTER + INTRA:          -4.773
REMARK INTER:                  -4.092
REMARK INTRA:                  -0.681
REMARK UNBOUND:                -0.289
REMARK SMILES CCCCCCCCC(=O)[O-]
REMARK SMILES IDX 6 1 7 2 8 3 9 4 10 5 11 6 5 7 4 8 3 9 2 10 1 11
REMARK H PARENT
REMARK Flexibility Score: inf
ROOT
ATOM      1  C   UNL     1       7.447   8.785  -0.847  1.00  0.00     0.000 C 
ENDROOT
BRANCH   1   2
ATOM      2  C   UNL     1       8.741   8.749  -1.677  1.00  0.00     0.006 C 
BRANCH   2   3
ATOM      3  C   UNL     1       9.040   7.328  -2.162  1.00  0.00     0.053 C 
BRANCH   3   4
ATOM      4  C   UNL     1       8.217   7.002  -3.369  1.00  0.00     0.041 C 
ATOM      5  O   UNL     1       8.524   7.478  -4.492  1.00  0.00    -0.550 OA
ATOM      6  O   UNL     1       7.081   6.212  -3.242  1.00  0.00    -0.550 OA
ENDBRANCH   3   4
ENDBRANCH   2   3
ENDBRANCH   1   2
BRANCH   1   7
ATOM      7  C   UNL     1       6.507   9.926  -1.266  1.00  0.00     0.000 C 
BRANCH   7   8
ATOM      8  C   UNL     1       5.942   9.739  -2.682  1.00  0.00    -0.000 C 
BRANCH   8   9
ATOM      9  C   UNL     1       4.571   9.051  -2.639  1.00  0.00    -0.000 C 
BRANCH   9  10
ATOM     10  C   UNL     1       4.296   8.292  -3.942  1.00  0.00    -0.003 C 
ATOM     11  C   UNL     1       5.256   8.726  -5.046  1.00  0.00     0.004 C 
ENDBRANCH   9  10
ENDBRANCH   8   9
ENDBRANCH   7   8
ENDBRANCH   1   7
TORSDOF 7
ENDMDL
MODEL 6
REMARK VINA RESULT:    -3.099     13.709     14.857
REMARK INTER + INTRA:          -4.656
REMARK INTER:                  -4.232
REMARK INTRA:                  -0.424
REMARK UNBOUND:                -0.289
REMARK SMILES CCCCCCCCC(=O)[O-]
REMARK SMILES IDX 6 1 7 2 8 3 9 4 10 5 11 6 5 7 4 8 3 9 2 10 1 11
REMARK H PARENT
REMARK Flexibility Score: inf
ROOT
ATOM      1  C   UNL     1       4.541   8.066  -3.721  1.00  0.00     0.000 C 
ENDROOT
BRANCH   1   2
ATOM      2  C   UNL     1       5.409   8.693  -4.825  1.00  0.00     0.006 C 
BRANCH   2   3
ATOM      3  C   UNL     1       4.620   9.747  -5.609  1.00  0.00     0.053 C 
BRANCH   3   4
ATOM      4  C   UNL     1       4.093   9.166  -6.883  1.00  0.00     0.041 C 
ATOM      5  O   UNL     1       4.886   8.834  -7.803  1.00  0.00    -0.550 OA
ATOM      6  O   UNL     1       2.724   9.038  -7.074  1.00  0.00    -0.550 OA
ENDBRANCH   3   4
ENDBRANCH   2   3
ENDBRANCH   1   2
BRANCH   1   7
ATOM      7  C   UNL     1       5.374   7.336  -2.656  1.00  0.00     0.000 C 
BRANCH   7   8
ATOM      8  C   UNL     1       6.833   7.124  -3.087  1.00  0.00    -0.000 C 
BRANCH   8   9
ATOM      9  C   UNL     1       7.801   7.748  -2.074  1.00  0.00    -0.000 C 
BRANCH   9  10
ATOM     10  C   UNL     1       7.143   8.919  -1.335  1.00  0.00    -0.003 C 
ATOM     11  C   UNL     1       7.818   9.171   0.010  1.00  0.00     0.004 C 
ENDBRANCH   9  10
ENDBRANCH   8   9
ENDBRANCH   7   8
ENDBRANCH   1   7
TORSDOF 7
ENDMDL
MODEL 7
REMARK VINA RESULT:    -3.088     14.646     15.959
REMARK INTER + INTRA:          -4.641
REMARK INTER:                  -3.989
REMARK INTRA:                  -0.652
REMARK UNBOUND:                -0.289
REMARK SMILES CCCCCCCCC(=O)[O-]
REMARK SMILES IDX 6 1 7 2 8 3 9 4 10 5 11 6 5 7 4 8 3 9 2 10 1 11
REMARK H PARENT
REMARK Flexibility Score: inf
ROOT
ATOM      1  C   UNL     1       4.986   9.616  -5.449  1.00  0.00     0.000 C 
ENDROOT
BRANCH   1   2
ATOM      2  C   UNL     1       6.031   8.956  -6.363  1.00  0.00     0.006 C 
BRANCH   2   3
ATOM      3  C   UNL     1       7.442   9.449  -6.025  1.00  0.00     0.053 C 
BRANCH   3   4
ATOM      4  C   UNL     1       8.458   8.406  -6.371  1.00  0.00     0.041 C 
ATOM      5  O   UNL     1       8.685   8.117  -7.575  1.00  0.00    -0.550 OA
ATOM      6  O   UNL     1       9.118   7.717  -5.362  1.00  0.00    -0.550 OA
ENDBRANCH   3   4
ENDBRANCH   2   3
ENDBRANCH   1   2
BRANCH   1   7
ATOM      7  C   UNL     1       4.130   8.590  -4.691  1.00  0.00     0.000 C 
BRANCH   7   8
ATOM      8  C   UNL     1       4.499   8.494  -3.203  1.00  0.00    -0.000 C 
BRANCH   8   9
ATOM      9  C   UNL     1       5.065   7.109  -2.866  1.00  0.00    -0.000 C 
BRANCH   9  10
ATOM     10  C   UNL     1       6.597   7.112  -2.924  1.00  0.00    -0.003 C 
ATOM     11  C   UNL     1       7.184   8.107  -1.927  1.00  0.00     0.004 C 
ENDBRANCH   9  10
ENDBRANCH   8   9
ENDBRANCH   7   8
ENDBRANCH   1   7
TORSDOF 7
ENDMDL
MODEL 8
REMARK VINA RESULT:    -3.014     14.782     16.455
REMARK INTER + INTRA:          -4.537
REMARK INTER:                  -3.788
REMARK INTRA:                  -0.749
REMARK UNBOUND:                -0.289
REMARK SMILES CCCCCCCCC(=O)[O-]
REMARK SMILES IDX 6 1 7 2 8 3 9 4 10 5 11 6 5 7 4 8 3 9 2 10 1 11
REMARK H PARENT
REMARK Flexibility Score: inf
ROOT
ATOM      1  C   UNL     1       6.426   6.993  -2.933  1.00  0.00     0.000 C 
ENDROOT
BRANCH   1   2
ATOM      2  C   UNL     1       7.196   8.032  -2.103  1.00  0.00     0.006 C 
BRANCH   2   3
ATOM      3  C   UNL     1       8.417   8.549  -2.871  1.00  0.00     0.053 C 
BRANCH   3   4
ATOM      4  C   UNL     1       9.246   7.407  -3.368  1.00  0.00     0.041 C 
ATOM      5  O   UNL     1       9.809   6.631  -2.552  1.00  0.00    -0.550 OA
ATOM      6  O   UNL     1       9.438   7.230  -4.732  1.00  0.00    -0.550 OA
ENDBRANCH   3   4
ENDBRANCH   2   3
ENDBRANCH   1   2
BRANCH   1   7
ATOM      7  C   UNL     1       4.903   7.191  -2.865  1.00  0.00     0.000 C 
BRANCH   7   8
ATOM      8  C   UNL     1       4.472   8.609  -3.268  1.00  0.00    -0.000 C 
BRANCH   8   9
ATOM      9  C   UNL     1       4.293   8.717  -4.788  1.00  0.00    -0.000 C 
BRANCH   9  10
ATOM     10  C   UNL     1       5.351   9.640  -5.402  1.00  0.00    -0.003 C 
ATOM     11  C   UNL     1       6.448   8.837  -6.094  1.00  0.00     0.004 C 
ENDBRANCH   9  10
ENDBRANCH   8   9
ENDBRANCH   7   8
ENDBRANCH   1   7
TORSDOF 7
ENDMDL
