MODEL 1
REMARK VINA RESULT:    -3.413      0.000      0.000
REMARK INTER + INTRA:          -3.966
REMARK INTER:                  -3.912
REMARK INTRA:                  -0.055
REMARK UNBOUND:                -0.055
REMARK SMILES CC(C)[C@@H]([NH3+])C(=O)[O-]
REMARK SMILES IDX 4 1 5 2 6 6 7 7 8 8 2 9 1 10 3 11
REMARK H PARENT 5 3 5 4 5 5
REMARK Flexibility Score: inf
ROOT
ATOM      1  C   UNL     1       2.043  -0.048 -22.603  1.00  0.00     0.230 C 
ENDROOT
BRANCH   1   2
ATOM      2  N   UNL     1       0.823   0.681 -22.230  1.00  0.00    -0.350 N 
ATOM      3  H   UNL     1      -0.006   0.227 -22.680  1.00  0.00     0.345 HD
ATOM      4  H   UNL     1       0.687   0.647 -21.192  1.00  0.00     0.345 HD
ATOM      5  H   UNL     1       0.863   1.679 -22.538  1.00  0.00     0.345 HD
ENDBRANCH   1   2
BRANCH   1   6
ATOM      6  C   UNL     1       1.893  -1.522 -22.310  1.00  0.00     0.099 C 
ATOM      7  O   UNL     1       2.591  -2.363 -22.936  1.00  0.00    -0.544 OA
ATOM      8  O   UNL     1       0.969  -1.967 -21.372  1.00  0.00    -0.544 OA
ENDBRANCH   1   6
BRANCH   1   9
ATOM      9  C   UNL     1       2.452   0.231 -24.081  1.00  0.00     0.047 C 
ATOM     10  C   UNL     1       1.359   1.014 -24.825  1.00  0.00     0.014 C 
ATOM     11  C   UNL     1       3.804   0.952 -24.222  1.00  0.00     0.014 C 
ENDBRANCH   1   9
TORSDOF 3
ENDMDL
MODEL 2
REMARK VINA RESULT:    -3.366      7.053      7.901
REMARK INTER + INTRA:          -3.912
REMARK INTER:                  -3.894
REMARK INTRA:                  -0.017
REMARK UNBOUND:                -0.055
REMARK SMILES CC(C)[C@@H]([NH3+])C(=O)[O-]
REMARK SMILES IDX 4 1 5 2 6 6 7 7 8 8 2 9 1 10 3 11
REMARK H PARENT 5 3 5 4 5 5
REMARK Flexibility Score: inf
ROOT
ATOM      1  C   UNL     1      -4.228   2.965 -21.798  1.00  0.00     0.230 C 
ENDROOT
BRANCH   1   2
ATOM      2  N   UNL     1      -3.787   3.088 -20.402  1.00  0.00    -0.350 N 
ATOM      3  H   UNL     1      -2.743   3.037 -20.360  1.00  0.00     0.345 HD
ATOM      4  H   UNL     1      -4.081   4.015 -20.013  1.00  0.00     0.345 HD
ATOM      5  H   UNL     1      -4.181   2.325 -19.806  1.00  0.00     0.345 HD
ENDBRANCH   1   2
BRANCH   1   6
ATOM      6  C   UNL     1      -5.685   3.338 -21.931  1.00  0.00     0.099 C 
ATOM      7  O   UNL     1      -6.105   4.420 -21.443  1.00  0.00    -0.544 OA
ATOM      8  O   UNL     1      -6.580   2.484 -22.565  1.00  0.00    -0.544 OA
ENDBRANCH   1   6
BRANCH   1   9
ATOM      9  C   UNL     1      -3.311   3.772 -22.766  1.00  0.00     0.047 C 
ATOM     10  C   UNL     1      -1.983   3.041 -23.018  1.00  0.00     0.014 C 
ATOM     11  C   UNL     1      -3.982   4.122 -24.105  1.00  0.00     0.014 C 
ENDBRANCH   1   9
TORSDOF 3
ENDMDL
MODEL 3
REMARK VINA RESULT:    -3.270      7.187      8.034
REMARK INTER + INTRA:          -3.803
REMARK INTER:                  -3.759
REMARK INTRA:                  -0.044
REMARK UNBOUND:                -0.055
REMARK SMILES CC(C)[C@@H]([NH3+])C(=O)[O-]
REMARK SMILES IDX 4 1 5 2 6 6 7 7 8 8 2 9 1 10 3 11
REMARK H PARENT 5 3 5 4 5 5
REMARK Flexibility Score: inf
ROOT
ATOM      1  C   UNL     1      -4.326   3.568 -21.812  1.00  0.00     0.230 C 
ENDROOT
BRANCH   1   2
ATOM      2  N   UNL     1      -3.825   3.068 -20.524  1.00  0.00    -0.350 N 
ATOM      3  H   UNL     1      -4.511   3.300 -19.769  1.00  0.00     0.345 HD
ATOM      4  H   UNL     1      -3.721   2.027 -20.558  1.00  0.00     0.345 HD
ATOM      5  H   UNL     1      -2.904   3.497 -20.278  1.00  0.00     0.345 HD
ENDBRANCH   1   2
BRANCH   1   6
ATOM      6  C   UNL     1      -3.227   3.565 -22.848  1.00  0.00     0.099 C 
ATOM      7  O   UNL     1      -2.103   3.067 -22.573  1.00  0.00    -0.544 OA
ATOM      8  O   UNL     1      -3.432   4.133 -24.100  1.00  0.00    -0.544 OA
ENDBRANCH   1   6
BRANCH   1   9
ATOM      9  C   UNL     1      -5.593   2.789 -22.278  1.00  0.00     0.047 C 
ATOM     10  C   UNL     1      -5.923   1.633 -21.322  1.00  0.00     0.014 C 
ATOM     11  C   UNL     1      -6.831   3.683 -22.471  1.00  0.00     0.014 C 
ENDBRANCH   1   9
TORSDOF 3
ENDMDL
MODEL 4
REMARK VINA RESULT:    -3.113      7.662      8.414
REMARK INTER + INTRA:          -3.622
REMARK INTER:                  -3.612
REMARK INTRA:                  -0.010
REMARK UNBOUND:                -0.055
REMARK SMILES CC(C)[C@@H]([NH3+])C(=O)[O-]
REMARK SMILES IDX 4 1 5 2 6 6 7 7 8 8 2 9 1 10 3 11
REMARK H PARENT 5 3 5 4 5 5
REMARK Flexibility Score: inf
ROOT
ATOM      1  C   UNL     1      -4.560   3.173 -22.405  1.00  0.00     0.230 C 
ENDROOT
BRANCH   1   2
ATOM      2  N   UNL     1      -3.252   3.754 -22.070  1.00  0.00    -0.350 N 
ATOM      3  H   UNL     1      -2.939   4.380 -22.848  1.00  0.00     0.345 HD
ATOM      4  H   UNL     1      -3.327   4.331 -21.200  1.00  0.00     0.345 HD
ATOM      5  H   UNL     1      -2.529   3.013 -21.929  1.00  0.00     0.345 HD
ENDBRANCH   1   2
BRANCH   1   6
ATOM      6  C   UNL     1      -5.089   2.354 -21.251  1.00  0.00     0.099 C 
ATOM      7  O   UNL     1      -5.929   1.439 -21.462  1.00  0.00    -0.544 OA
ATOM      8  O   UNL     1      -4.680   2.616 -19.950  1.00  0.00    -0.544 OA
ENDBRANCH   1   6
BRANCH   1   9
ATOM      9  C   UNL     1      -5.569   4.262 -22.881  1.00  0.00     0.047 C 
ATOM     10  C   UNL     1      -6.418   3.761 -24.059  1.00  0.00     0.014 C 
ATOM     11  C   UNL     1      -6.482   4.789 -21.761  1.00  0.00     0.014 C 
ENDBRANCH   1   9
TORSDOF 3
ENDMDL
MODEL 5
REMARK VINA RESULT:    -3.083      7.340      8.176
REMARK INTER + INTRA:          -3.588
REMARK INTER:                  -3.558
REMARK INTRA:                  -0.030
REMARK UNBOUND:                -0.055
REMARK SMILES CC(C)[C@@H]([NH3+])C(=O)[O-]
REMARK SMILES IDX 4 1 5 2 6 6 7 7 8 8 2 9 1 10 3 11
REMARK H PARENT 5 3 5 4 5 5
REMARK Flexibility Score: inf
ROOT
ATOM      1  C   UNL     1      -3.848   3.106 -21.830  1.00  0.00     0.230 C 
ENDROOT
BRANCH   1   2
ATOM      2  N   UNL     1      -3.117   1.873 -22.155  1.00  0.00    -0.350 N 
ATOM      3  H   UNL     1      -3.517   1.076 -21.608  1.00  0.00     0.345 HD
ATOM      4  H   UNL     1      -3.222   1.652 -23.173  1.00  0.00     0.345 HD
ATOM      5  H   UNL     1      -2.102   1.958 -21.925  1.00  0.00     0.345 HD
ENDBRANCH   1   2
BRANCH   1   6
ATOM      6  C   UNL     1      -4.159   3.888 -23.085  1.00  0.00     0.099 C 
ATOM      7  O   UNL     1      -5.202   4.590 -23.147  1.00  0.00    -0.544 OA
ATOM      8  O   UNL     1      -3.316   3.820 -24.188  1.00  0.00    -0.544 OA
ENDBRANCH   1   6
BRANCH   1   9
ATOM      9  C   UNL     1      -5.119   2.814 -20.975  1.00  0.00     0.047 C 
ATOM     10  C   UNL     1      -5.918   1.633 -21.547  1.00  0.00     0.014 C 
ATOM     11  C   UNL     1      -4.819   2.575 -19.486  1.00  0.00     0.014 C 
ENDBRANCH   1   9
TORSDOF 3
ENDMDL
MODEL 6
REMARK VINA RESULT:    -3.019      4.579      5.345
REMARK INTER + INTRA:          -3.514
REMARK INTER:                  -3.459
REMARK INTRA:                  -0.055
REMARK UNBOUND:                -0.055
REMARK SMILES CC(C)[C@@H]([NH3+])C(=O)[O-]
REMARK SMILES IDX 4 1 5 2 6 6 7 7 8 8 2 9 1 10 3 11
REMARK H PARENT 5 3 5 4 5 5
REMARK Flexibility Score: inf
ROOT
ATOM      1  C   UNL     1      -1.545   3.076 -23.058  1.00  0.00     0.230 C 
ENDROOT
BRANCH   1   2
ATOM      2  N   UNL     1      -2.644   3.027 -22.084  1.00  0.00    -0.350 N 
ATOM      3  H   UNL     1      -2.960   4.001 -21.866  1.00  0.00     0.345 HD
ATOM      4  H   UNL     1      -3.458   2.506 -22.486  1.00  0.00     0.345 HD
ATOM      5  H   UNL     1      -2.348   2.567 -21.194  1.00  0.00     0.345 HD
ENDBRANCH   1   2
BRANCH   1   6
ATOM      6  C   UNL     1      -1.316   1.714 -23.671  1.00  0.00     0.099 C 
ATOM      7  O   UNL     1      -1.323   0.687 -22.943  1.00  0.00    -0.544 OA
ATOM      8  O   UNL     1      -1.070   1.583 -25.032  1.00  0.00    -0.544 OA
ENDBRANCH   1   6
BRANCH   1   9
ATOM      9  C   UNL     1      -1.771   4.186 -24.128  1.00  0.00     0.047 C 
ATOM     10  C   UNL     1      -3.264   4.520 -24.280  1.00  0.00     0.014 C 
ATOM     11  C   UNL     1      -0.968   5.471 -23.865  1.00  0.00     0.014 C 
ENDBRANCH   1   9
TORSDOF 3
ENDMDL
MODEL 7
REMARK VINA RESULT:    -2.995      8.407      9.203
REMARK INTER + INTRA:          -3.488
REMARK INTER:                  -3.426
REMARK INTRA:                  -0.061
REMARK UNBOUND:                -0.055
REMARK SMILES CC(C)[C@@H]([NH3+])C(=O)[O-]
REMARK SMILES IDX 4 1 5 2 6 6 7 7 8 8 2 9 1 10 3 11
REMARK H PARENT 5 3 5 4 5 5
REMARK Flexibility Score: inf
ROOT
ATOM      1  C   UNL     1      -6.004   3.836 -22.100  1.00  0.00     0.230 C 
ENDROOT
BRANCH   1   2
ATOM      2  N   UNL     1      -5.392   4.891 -22.921  1.00  0.00    -0.350 N 
ATOM      3  H   UNL     1      -4.779   4.455 -23.648  1.00  0.00     0.345 HD
ATOM      4  H   UNL     1      -6.135   5.441 -23.412  1.00  0.00     0.345 HD
ATOM      5  H   UNL     1      -4.812   5.539 -22.342  1.00  0.00     0.345 HD
ENDBRANCH   1   2
BRANCH   1   6
ATOM      6  C   UNL     1      -7.172   3.209 -22.825  1.00  0.00     0.099 C 
ATOM      7  O   UNL     1      -7.313   1.957 -22.826  1.00  0.00    -0.544 OA
ATOM      8  O   UNL     1      -8.083   3.998 -23.517  1.00  0.00    -0.544 OA
ENDBRANCH   1   6
BRANCH   1   9
ATOM      9  C   UNL     1      -4.952   2.785 -21.635  1.00  0.00     0.047 C 
ATOM     10  C   UNL     1      -3.571   3.065 -22.249  1.00  0.00     0.014 C 
ATOM     11  C   UNL     1      -4.833   2.666 -20.106  1.00  0.00     0.014 C 
ENDBRANCH   1   9
TORSDOF 3
ENDMDL
MODEL 8
REMARK VINA RESULT:    -2.995      7.842      8.706
REMARK INTER + INTRA:          -3.487
REMARK INTER:                  -3.432
REMARK INTRA:                  -0.055
REMARK UNBOUND:                -0.055
REMARK SMILES CC(C)[C@@H]([NH3+])C(=O)[O-]
REMARK SMILES IDX 4 1 5 2 6 6 7 7 8 8 2 9 1 10 3 11
REMARK H PARENT 5 3 5 4 5 5
REMARK Flexibility Score: inf
ROOT
ATOM      1  C   UNL     1      -5.042   3.755 -22.987  1.00  0.00     0.230 C 
ENDROOT
BRANCH   1   2
ATOM      2  N   UNL     1      -4.846   5.113 -23.513  1.00  0.00    -0.350 N 
ATOM      3  H   UNL     1      -5.717   5.428 -24.000  1.00  0.00     0.345 HD
ATOM      4  H   UNL     1      -4.655   5.779 -22.728  1.00  0.00     0.345 HD
ATOM      5  H   UNL     1      -4.054   5.149 -24.194  1.00  0.00     0.345 HD
ENDBRANCH   1   2
BRANCH   1   6
ATOM      6  C   UNL     1      -3.913   3.376 -22.057  1.00  0.00     0.099 C 
ATOM      7  O   UNL     1      -2.742   3.255 -22.505  1.00  0.00    -0.544 OA
ATOM      8  O   UNL     1      -4.156   3.131 -20.711  1.00  0.00    -0.544 OA
ENDBRANCH   1   6
BRANCH   1   9
ATOM      9  C   UNL     1      -6.444   3.590 -22.326  1.00  0.00     0.047 C 
ATOM     10  C   UNL     1      -7.136   4.949 -22.137  1.00  0.00     0.014 C 
ATOM     11  C   UNL     1      -7.374   2.627 -23.084  1.00  0.00     0.014 C 
ENDBRANCH   1   9
TORSDOF 3
ENDMDL
MODEL 9
REMARK VINA RESULT:    -2.958      8.659      9.553
REMARK INTER + INTRA:          -3.445
REMARK INTER:                  -3.389
REMARK INTRA:                  -0.056
REMARK UNBOUND:                -0.055
REMARK SMILES CC(C)[C@@H]([NH3+])C(=O)[O-]
REMARK SMILES IDX 4 1 5 2 6 6 7 7 8 8 2 9 1 10 3 11
REMARK H PARENT 5 3 5 4 5 5
REMARK Flexibility Score: inf
ROOT
ATOM      1  C   UNL     1      -6.304   3.310 -22.877  1.00  0.00     0.230 C 
ENDROOT
BRANCH   1   2
ATOM      2  N   UNL     1      -6.309   4.762 -22.649  1.00  0.00    -0.350 N 
ATOM      3  H   UNL     1      -6.207   5.258 -23.565  1.00  0.00     0.345 HD
ATOM      4  H   UNL     1      -7.218   5.055 -22.221  1.00  0.00     0.345 HD
ATOM      5  H   UNL     1      -5.524   5.054 -22.024  1.00  0.00     0.345 HD
ENDBRANCH   1   2
BRANCH   1   6
ATOM      6  C   UNL     1      -5.476   2.609 -21.825  1.00  0.00     0.099 C 
ATOM      7  O   UNL     1      -5.834   1.483 -21.390  1.00  0.00    -0.544 OA
ATOM      8  O   UNL     1      -4.333   3.207 -21.309  1.00  0.00    -0.544 OA
ENDBRANCH   1   6
BRANCH   1   9
ATOM      9  C   UNL     1      -7.750   2.738 -22.981  1.00  0.00     0.047 C 
ATOM     10  C   UNL     1      -8.801   3.855 -22.885  1.00  0.00     0.014 C 
ATOM     11  C   UNL     1      -7.991   1.895 -24.245  1.00  0.00     0.014 C 
ENDBRANCH   1   9
TORSDOF 3
ENDMDL
