MODEL 1
REMARK VINA RESULT:    -4.453      0.000      0.000
REMARK INTER + INTRA:          -4.805
REMARK INTER:                  -4.714
REMARK INTRA:                  -0.092
REMARK UNBOUND:                -0.092
REMARK SMILES C=C(C)[C@H]1CC=C(C)C(=O)C1
REMARK SMILES IDX 8 1 7 2 6 3 5 4 4 5 11 6 9 7 10 8 2 9 1 10 3 11
REMARK H PARENT
REMARK Flexibility Score: inf
ROOT
ATOM      1  C   UNL     1       1.961   7.370  -8.323  1.00  0.00     0.048 C 
ATOM      2  C   UNL     1       0.591   7.483  -8.934  1.00  0.00    -0.012 C 
ATOM      3  C   UNL     1      -0.453   7.852  -8.173  1.00  0.00    -0.019 C 
ATOM      4  C   UNL     1      -1.848   7.964  -8.729  1.00  0.00     0.036 C 
ATOM      5  C   UNL     1      -1.822   8.407 -10.204  1.00  0.00     0.025 C 
ATOM      6  C   UNL     1      -0.937   7.456 -11.033  1.00  0.00     0.089 C 
ATOM      7  C   UNL     1       0.419   7.309 -10.399  1.00  0.00     0.158 C 
ATOM      8  O   UNL     1       1.404   6.998 -11.121  1.00  0.00    -0.295 OA
ENDROOT
BRANCH   5   9
ATOM      9  C   UNL     1      -3.227   8.514 -10.784  1.00  0.00    -0.077 C 
ATOM     10  C   UNL     1      -4.084   9.463 -10.370  1.00  0.00     0.008 C 
ATOM     11  C   UNL     1      -3.682   7.545 -11.845  1.00  0.00     0.039 C 
ENDBRANCH   5   9
TORSDOF 1
ENDMDL
MODEL 2
REMARK VINA RESULT:    -4.169      1.614      4.295
REMARK INTER + INTRA:          -4.504
REMARK INTER:                  -4.416
REMARK INTRA:                  -0.088
REMARK UNBOUND:                -0.092
REMARK SMILES C=C(C)[C@H]1CC=C(C)C(=O)C1
REMARK SMILES IDX 8 1 7 2 6 3 5 4 4 5 11 6 9 7 10 8 2 9 1 10 3 11
REMARK H PARENT
REMARK Flexibility Score: inf
ROOT
ATOM      1  C   UNL     1      -4.047   7.583 -11.993  1.00  0.00     0.048 C 
ATOM      2  C   UNL     1      -2.686   7.700 -11.364  1.00  0.00    -0.012 C 
ATOM      3  C   UNL     1      -2.381   8.779 -10.623  1.00  0.00    -0.019 C 
ATOM      4  C   UNL     1      -1.028   8.956  -9.986  1.00  0.00     0.036 C 
ATOM      5  C   UNL     1      -0.422   7.596  -9.587  1.00  0.00     0.025 C 
ATOM      6  C   UNL     1      -0.376   6.653 -10.805  1.00  0.00     0.089 C 
ATOM      7  C   UNL     1      -1.728   6.570 -11.460  1.00  0.00     0.158 C 
ATOM      8  O   UNL     1      -2.025   5.541 -12.124  1.00  0.00    -0.295 OA
ENDROOT
BRANCH   5   9
ATOM      9  C   UNL     1       0.953   7.758  -8.950  1.00  0.00    -0.077 C 
ATOM     10  C   UNL     1       1.117   7.702  -7.618  1.00  0.00     0.008 C 
ATOM     11  C   UNL     1       2.165   7.984  -9.818  1.00  0.00     0.039 C 
ENDBRANCH   5   9
TORSDOF 1
ENDMDL
MODEL 3
REMARK VINA RESULT:    -4.162      1.834      4.467
REMARK INTER + INTRA:          -4.496
REMARK INTER:                  -4.400
REMARK INTRA:                  -0.096
REMARK UNBOUND:                -0.092
REMARK SMILES C=C(C)[C@H]1CC=C(C)C(=O)C1
REMARK SMILES IDX 8 1 7 2 6 3 5 4 4 5 11 6 9 7 10 8 2 9 1 10 3 11
REMARK H PARENT
REMARK Flexibility Score: inf
ROOT
ATOM      1  C   UNL     1      -4.000   8.036 -11.440  1.00  0.00     0.048 C 
ATOM      2  C   UNL     1      -2.687   8.061 -10.706  1.00  0.00    -0.012 C 
ATOM      3  C   UNL     1      -2.307   6.997  -9.979  1.00  0.00    -0.019 C 
ATOM      4  C   UNL     1      -1.012   6.974  -9.211  1.00  0.00     0.036 C 
ATOM      5  C   UNL     1       0.074   7.797  -9.931  1.00  0.00     0.025 C 
ATOM      6  C   UNL     1      -0.427   9.231 -10.191  1.00  0.00     0.089 C 
ATOM      7  C   UNL     1      -1.761   9.207 -10.887  1.00  0.00     0.158 C 
ATOM      8  O   UNL     1      -2.101  10.191 -11.598  1.00  0.00    -0.295 OA
ENDROOT
BRANCH   5   9
ATOM      9  C   UNL     1       1.387   7.793  -9.160  1.00  0.00    -0.077 C 
ATOM     10  C   UNL     1       1.466   7.288  -7.917  1.00  0.00     0.008 C 
ATOM     11  C   UNL     1       2.634   8.362  -9.788  1.00  0.00     0.039 C 
ENDBRANCH   5   9
TORSDOF 1
ENDMDL
MODEL 4
REMARK VINA RESULT:    -4.057      2.511      3.525
REMARK INTER + INTRA:          -4.386
REMARK INTER:                  -4.289
REMARK INTRA:                  -0.097
REMARK UNBOUND:                -0.092
REMARK SMILES C=C(C)[C@H]1CC=C(C)C(=O)C1
REMARK SMILES IDX 8 1 7 2 6 3 5 4 4 5 11 6 9 7 10 8 2 9 1 10 3 11
REMARK H PARENT
REMARK Flexibility Score: inf
ROOT
ATOM      1  C   UNL     1       4.447   8.866 -11.846  1.00  0.00     0.048 C 
ATOM      2  C   UNL     1       3.010   8.625 -11.473  1.00  0.00    -0.012 C 
ATOM      3  C   UNL     1       2.323   7.632 -12.062  1.00  0.00    -0.019 C 
ATOM      4  C   UNL     1       0.878   7.359 -11.739  1.00  0.00     0.036 C 
ATOM      5  C   UNL     1       0.565   7.696 -10.268  1.00  0.00     0.025 C 
ATOM      6  C   UNL     1       0.969   9.150  -9.955  1.00  0.00     0.089 C 
ATOM      7  C   UNL     1       2.394   9.403 -10.368  1.00  0.00     0.158 C 
ATOM      8  O   UNL     1       3.048  10.311  -9.789  1.00  0.00    -0.295 OA
ENDROOT
BRANCH   5   9
ATOM      9  C   UNL     1      -0.897   7.435  -9.929  1.00  0.00    -0.077 C 
ATOM     10  C   UNL     1      -1.414   7.794  -8.743  1.00  0.00     0.008 C 
ATOM     11  C   UNL     1      -1.797   6.763 -10.935  1.00  0.00     0.039 C 
ENDBRANCH   5   9
TORSDOF 1
ENDMDL
MODEL 5
REMARK VINA RESULT:    -4.041      1.479      2.204
REMARK INTER + INTRA:          -4.368
REMARK INTER:                  -4.280
REMARK INTRA:                  -0.089
REMARK UNBOUND:                -0.092
REMARK SMILES C=C(C)[C@H]1CC=C(C)C(=O)C1
REMARK SMILES IDX 8 1 7 2 6 3 5 4 4 5 11 6 9 7 10 8 2 9 1 10 3 11
REMARK H PARENT
REMARK Flexibility Score: inf
ROOT
ATOM      1  C   UNL     1       2.249   8.170  -9.480  1.00  0.00     0.048 C 
ATOM      2  C   UNL     1       0.797   8.474  -9.724  1.00  0.00    -0.012 C 
ATOM      3  C   UNL     1       0.444   9.289 -10.733  1.00  0.00    -0.019 C 
ATOM      4  C   UNL     1      -0.993   9.641 -11.011  1.00  0.00     0.036 C 
ATOM      5  C   UNL     1      -1.930   8.472 -10.649  1.00  0.00     0.025 C 
ATOM      6  C   UNL     1      -1.706   8.040  -9.187  1.00  0.00     0.089 C 
ATOM      7  C   UNL     1      -0.248   7.777  -8.931  1.00  0.00     0.158 C 
ATOM      8  O   UNL     1       0.080   6.985  -8.008  1.00  0.00    -0.295 OA
ENDROOT
BRANCH   5   9
ATOM      9  C   UNL     1      -3.390   8.818 -10.915  1.00  0.00    -0.077 C 
ATOM     10  C   UNL     1      -4.139   8.088 -11.759  1.00  0.00     0.008 C 
ATOM     11  C   UNL     1      -4.024   9.998 -10.225  1.00  0.00     0.039 C 
ENDBRANCH   5   9
TORSDOF 1
ENDMDL
MODEL 6
REMARK VINA RESULT:    -3.915     15.731     16.390
REMARK INTER + INTRA:          -4.236
REMARK INTER:                  -4.141
REMARK INTRA:                  -0.095
REMARK UNBOUND:                -0.092
REMARK SMILES C=C(C)[C@H]1CC=C(C)C(=O)C1
REMARK SMILES IDX 8 1 7 2 6 3 5 4 4 5 11 6 9 7 10 8 2 9 1 10 3 11
REMARK H PARENT
REMARK Flexibility Score: inf
ROOT
ATOM      1  C   UNL     1       3.874  13.743   5.334  1.00  0.00     0.048 C 
ATOM      2  C   UNL     1       2.440  13.295   5.393  1.00  0.00    -0.012 C 
ATOM      3  C   UNL     1       1.596  13.617   4.398  1.00  0.00    -0.019 C 
ATOM      4  C   UNL     1       0.146  13.210   4.415  1.00  0.00     0.036 C 
ATOM      5  C   UNL     1      -0.040  11.856   5.127  1.00  0.00     0.025 C 
ATOM      6  C   UNL     1       0.569  11.907   6.541  1.00  0.00     0.089 C 
ATOM      7  C   UNL     1       1.991  12.396   6.486  1.00  0.00     0.158 C 
ATOM      8  O   UNL     1       2.790  12.064   7.402  1.00  0.00    -0.295 OA
ENDROOT
BRANCH   5   9
ATOM      9  C   UNL     1      -1.504  11.435   5.161  1.00  0.00    -0.077 C 
ATOM     10  C   UNL     1      -2.491  12.345   5.210  1.00  0.00     0.008 C 
ATOM     11  C   UNL     1      -1.871   9.974   5.139  1.00  0.00     0.039 C 
ENDBRANCH   5   9
TORSDOF 1
ENDMDL
MODEL 7
REMARK VINA RESULT:    -3.873      3.161      5.547
REMARK INTER + INTRA:          -4.191
REMARK INTER:                  -4.098
REMARK INTRA:                  -0.093
REMARK UNBOUND:                -0.092
REMARK SMILES C=C(C)[C@H]1CC=C(C)C(=O)C1
REMARK SMILES IDX 8 1 7 2 6 3 5 4 4 5 11 6 9 7 10 8 2 9 1 10 3 11
REMARK H PARENT
REMARK Flexibility Score: inf
ROOT
ATOM      1  C   UNL     1      -5.058  12.828 -11.695  1.00  0.00     0.048 C 
ATOM      2  C   UNL     1      -4.394  11.510 -11.409  1.00  0.00    -0.012 C 
ATOM      3  C   UNL     1      -3.060  11.396 -11.516  1.00  0.00    -0.019 C 
ATOM      4  C   UNL     1      -2.345  10.095 -11.259  1.00  0.00     0.036 C 
ATOM      5  C   UNL     1      -3.067   9.271 -10.176  1.00  0.00     0.025 C 
ATOM      6  C   UNL     1      -4.544   9.060 -10.561  1.00  0.00     0.089 C 
ATOM      7  C   UNL     1      -5.198  10.375 -10.889  1.00  0.00     0.158 C 
ATOM      8  O   UNL     1      -6.445  10.491 -10.753  1.00  0.00    -0.295 OA
ENDROOT
BRANCH   5   9
ATOM      9  C   UNL     1      -2.361   7.947  -9.912  1.00  0.00    -0.077 C 
ATOM     10  C   UNL     1      -2.428   6.933 -10.790  1.00  0.00     0.008 C 
ATOM     11  C   UNL     1      -1.566   7.754  -8.646  1.00  0.00     0.039 C 
ENDBRANCH   5   9
TORSDOF 1
ENDMDL
MODEL 8
REMARK VINA RESULT:    -3.862      2.759      4.952
REMARK INTER + INTRA:          -4.179
REMARK INTER:                  -4.085
REMARK INTRA:                  -0.094
REMARK UNBOUND:                -0.092
REMARK SMILES C=C(C)[C@H]1CC=C(C)C(=O)C1
REMARK SMILES IDX 8 1 7 2 6 3 5 4 4 5 11 6 9 7 10 8 2 9 1 10 3 11
REMARK H PARENT
REMARK Flexibility Score: inf
ROOT
ATOM      1  C   UNL     1      -1.316   6.670  -9.204  1.00  0.00     0.048 C 
ATOM      2  C   UNL     1      -0.035   7.209  -9.777  1.00  0.00    -0.012 C 
ATOM      3  C   UNL     1       0.066   7.433 -11.098  1.00  0.00    -0.019 C 
ATOM      4  C   UNL     1       1.331   7.954 -11.727  1.00  0.00     0.036 C 
ATOM      5  C   UNL     1       2.081   8.895 -10.764  1.00  0.00     0.025 C 
ATOM      6  C   UNL     1       2.345   8.187  -9.421  1.00  0.00     0.089 C 
ATOM      7  C   UNL     1       1.070   7.610  -8.869  1.00  0.00     0.158 C 
ATOM      8  O   UNL     1       0.963   7.435  -7.625  1.00  0.00    -0.295 OA
ENDROOT
BRANCH   5   9
ATOM      9  C   UNL     1       3.370   9.423 -11.382  1.00  0.00    -0.077 C 
ATOM     10  C   UNL     1       4.211   8.611 -12.043  1.00  0.00     0.008 C 
ATOM     11  C   UNL     1       3.722  10.883 -11.262  1.00  0.00     0.039 C 
ENDBRANCH   5   9
TORSDOF 1
ENDMDL
MODEL 9
REMARK VINA RESULT:    -3.849     11.274     12.733
REMARK INTER + INTRA:          -4.165
REMARK INTER:                  -4.074
REMARK INTRA:                  -0.092
REMARK UNBOUND:                -0.092
REMARK SMILES C=C(C)[C@H]1CC=C(C)C(=O)C1
REMARK SMILES IDX 8 1 7 2 6 3 5 4 4 5 11 6 9 7 10 8 2 9 1 10 3 11
REMARK H PARENT
REMARK Flexibility Score: inf
ROOT
ATOM      1  C   UNL     1       9.147  10.334  -5.566  1.00  0.00     0.048 C 
ATOM      2  C   UNL     1      10.035   9.746  -6.627  1.00  0.00    -0.012 C 
ATOM      3  C   UNL     1      11.106   9.014  -6.275  1.00  0.00    -0.019 C 
ATOM      4  C   UNL     1      12.038   8.417  -7.296  1.00  0.00     0.036 C 
ATOM      5  C   UNL     1      11.280   8.036  -8.582  1.00  0.00     0.025 C 
ATOM      6  C   UNL     1      10.514   9.255  -9.132  1.00  0.00     0.089 C 
ATOM      7  C   UNL     1       9.658   9.870  -8.058  1.00  0.00     0.158 C 
ATOM      8  O   UNL     1       8.634  10.525  -8.390  1.00  0.00    -0.295 OA
ENDROOT
BRANCH   5   9
ATOM      9  C   UNL     1      12.212   7.441  -9.630  1.00  0.00    -0.077 C 
ATOM     10  C   UNL     1      12.797   6.245  -9.446  1.00  0.00     0.008 C 
ATOM     11  C   UNL     1      12.495   8.194 -10.904  1.00  0.00     0.039 C 
ENDBRANCH   5   9
TORSDOF 1
ENDMDL
