MODEL 1
REMARK VINA RESULT:    -4.408      0.000      0.000
REMARK INTER + INTRA:          -4.829
REMARK INTER:                  -4.795
REMARK INTRA:                  -0.034
REMARK UNBOUND:                -0.034
REMARK SMILES O=C([O-])c1ccc(O)cc1
REMARK SMILES IDX 7 1 6 2 9 3 5 4 10 5 4 6 8 7 2 9 1 10 3 11
REMARK H PARENT 8 8
REMARK Flexibility Score: inf
ROOT
ATOM      1  C   UNL     1     132.036 122.739 139.717  1.00  0.00     0.115 A 
ATOM      2  C   UNL     1     131.141 122.477 140.762  1.00  0.00     0.047 A 
ATOM      3  C   UNL     1     131.847 122.131 138.473  1.00  0.00     0.047 A 
ATOM      4  C   UNL     1     130.061 121.611 140.562  1.00  0.00     0.014 A 
ATOM      5  C   UNL     1     130.768 121.264 138.269  1.00  0.00     0.014 A 
ATOM      6  C   UNL     1     129.864 120.995 139.312  1.00  0.00    -0.003 A 
ENDROOT
BRANCH   1   7
ATOM      7  O   UNL     1     133.114 123.601 139.904  1.00  0.00    -0.508 OA
ATOM      8  H   UNL     1     134.028 123.398 139.517  1.00  0.00     0.293 HD
ENDBRANCH   1   7
BRANCH   6   9
ATOM      9  C   UNL     1     128.724 120.077 139.094  1.00  0.00     0.071 C 
ATOM     10  O   UNL     1     128.800 119.152 138.242  1.00  0.00    -0.545 OA
ATOM     11  O   UNL     1     127.551 120.224 139.826  1.00  0.00    -0.545 OA
ENDBRANCH   6   9
TORSDOF 2
ENDMDL
MODEL 2
REMARK VINA RESULT:    -4.121      2.099      2.311
REMARK INTER + INTRA:          -4.516
REMARK INTER:                  -4.489
REMARK INTRA:                  -0.027
REMARK UNBOUND:                -0.034
REMARK SMILES O=C([O-])c1ccc(O)cc1
REMARK SMILES IDX 7 1 6 2 9 3 5 4 10 5 4 6 8 7 2 9 1 10 3 11
REMARK H PARENT 8 8
REMARK Flexibility Score: inf
ROOT
ATOM      1  C   UNL     1     130.395 121.885 140.608  1.00  0.00     0.115 A 
ATOM      2  C   UNL     1     129.050 122.158 140.887  1.00  0.00     0.047 A 
ATOM      3  C   UNL     1     130.761 121.426 139.339  1.00  0.00     0.047 A 
ATOM      4  C   UNL     1     128.075 121.974 139.900  1.00  0.00     0.014 A 
ATOM      5  C   UNL     1     129.790 121.239 138.350  1.00  0.00     0.014 A 
ATOM      6  C   UNL     1     128.436 121.512 138.621  1.00  0.00    -0.003 A 
ENDROOT
BRANCH   1   7
ATOM      7  O   UNL     1     131.373 122.067 141.582  1.00  0.00    -0.508 OA
ATOM      8  H   UNL     1     132.360 121.999 141.361  1.00  0.00     0.293 HD
ENDBRANCH   1   7
BRANCH   6   9
ATOM      9  C   UNL     1     127.411 121.314 137.573  1.00  0.00     0.071 C 
ATOM     10  O   UNL     1     127.206 122.200 136.700  1.00  0.00    -0.545 OA
ATOM     11  O   UNL     1     126.656 120.147 137.537  1.00  0.00    -0.545 OA
ENDBRANCH   6   9
TORSDOF 2
ENDMDL
MODEL 3
REMARK VINA RESULT:    -3.984      1.893      2.486
REMARK INTER + INTRA:          -4.367
REMARK INTER:                  -4.332
REMARK INTRA:                  -0.035
REMARK UNBOUND:                -0.034
REMARK SMILES O=C([O-])c1ccc(O)cc1
REMARK SMILES IDX 7 1 6 2 9 3 5 4 10 5 4 6 8 7 2 9 1 10 3 11
REMARK H PARENT 8 8
REMARK Flexibility Score: inf
ROOT
ATOM      1  C   UNL     1     131.575 121.166 138.646  1.00  0.00     0.115 A 
ATOM      2  C   UNL     1     131.575 122.173 139.620  1.00  0.00     0.047 A 
ATOM      3  C   UNL     1     130.386 120.495 138.343  1.00  0.00     0.047 A 
ATOM      4  C   UNL     1     130.391 122.507 140.286  1.00  0.00     0.014 A 
ATOM      5  C   UNL     1     129.201 120.826 139.008  1.00  0.00     0.014 A 
ATOM      6  C   UNL     1     129.192 121.836 139.986  1.00  0.00    -0.003 A 
ENDROOT
BRANCH   1   7
ATOM      7  O   UNL     1     132.747 120.826 137.975  1.00  0.00    -0.508 OA
ATOM      8  H   UNL     1     133.648 121.186 138.267  1.00  0.00     0.293 HD
ENDBRANCH   1   7
BRANCH   6   9
ATOM      9  C   UNL     1     127.936 122.184 140.688  1.00  0.00     0.071 C 
ATOM     10  O   UNL     1     126.820 121.852 140.208  1.00  0.00    -0.545 OA
ATOM     11  O   UNL     1     127.971 122.886 141.888  1.00  0.00    -0.545 OA
ENDBRANCH   6   9
TORSDOF 2
ENDMDL
MODEL 4
REMARK VINA RESULT:    -3.912      1.448      4.369
REMARK INTER + INTRA:          -4.289
REMARK INTER:                  -4.262
REMARK INTRA:                  -0.028
REMARK UNBOUND:                -0.034
REMARK SMILES O=C([O-])c1ccc(O)cc1
REMARK SMILES IDX 7 1 6 2 9 3 5 4 10 5 4 6 8 7 2 9 1 10 3 11
REMARK H PARENT 8 8
REMARK Flexibility Score: inf
ROOT
ATOM      1  C   UNL     1     128.402 119.689 138.084  1.00  0.00     0.115 A 
ATOM      2  C   UNL     1     128.207 121.075 138.110  1.00  0.00     0.047 A 
ATOM      3  C   UNL     1     129.517 119.133 138.720  1.00  0.00     0.047 A 
ATOM      4  C   UNL     1     129.122 121.902 138.771  1.00  0.00     0.014 A 
ATOM      5  C   UNL     1     130.434 119.956 139.381  1.00  0.00     0.014 A 
ATOM      6  C   UNL     1     130.245 121.349 139.413  1.00  0.00    -0.003 A 
ENDROOT
BRANCH   1   7
ATOM      7  O   UNL     1     127.497 118.856 137.430  1.00  0.00    -0.508 OA
ATOM      8  H   UNL     1     126.661 119.223 136.990  1.00  0.00     0.293 HD
ENDBRANCH   1   7
BRANCH   6   9
ATOM      9  C   UNL     1     131.217 122.218 140.114  1.00  0.00     0.071 C 
ATOM     10  O   UNL     1     131.260 122.248 141.373  1.00  0.00    -0.545 OA
ATOM     11  O   UNL     1     132.096 123.017 139.392  1.00  0.00    -0.545 OA
ENDBRANCH   6   9
TORSDOF 2
ENDMDL
MODEL 5
REMARK VINA RESULT:    -3.768      2.981      3.860
REMARK INTER + INTRA:          -4.132
REMARK INTER:                  -4.101
REMARK INTRA:                  -0.031
REMARK UNBOUND:                -0.034
REMARK SMILES O=C([O-])c1ccc(O)cc1
REMARK SMILES IDX 7 1 6 2 9 3 5 4 10 5 4 6 8 7 2 9 1 10 3 11
REMARK H PARENT 8 8
REMARK Flexibility Score: inf
ROOT
ATOM      1  C   UNL     1     128.545 120.784 137.986  1.00  0.00     0.115 A 
ATOM      2  C   UNL     1     127.809 119.652 138.359  1.00  0.00     0.047 A 
ATOM      3  C   UNL     1     129.890 120.890 138.355  1.00  0.00     0.047 A 
ATOM      4  C   UNL     1     128.417 118.630 139.096  1.00  0.00     0.014 A 
ATOM      5  C   UNL     1     130.500 119.870 139.093  1.00  0.00     0.014 A 
ATOM      6  C   UNL     1     129.769 118.730 139.471  1.00  0.00    -0.003 A 
ENDROOT
BRANCH   1   7
ATOM      7  O   UNL     1     127.951 121.807 137.251  1.00  0.00    -0.508 OA
ATOM      8  H   UNL     1     127.331 122.481 137.686  1.00  0.00     0.293 HD
ENDBRANCH   1   7
BRANCH   6   9
ATOM      9  C   UNL     1     130.417 117.652 140.251  1.00  0.00     0.071 C 
ATOM     10  O   UNL     1     131.545 117.204 139.911  1.00  0.00    -0.545 OA
ATOM     11  O   UNL     1     129.789 117.117 141.370  1.00  0.00    -0.545 OA
ENDBRANCH   6   9
TORSDOF 2
ENDMDL
MODEL 6
REMARK VINA RESULT:    -3.744      1.741      4.002
REMARK INTER + INTRA:          -4.106
REMARK INTER:                  -4.076
REMARK INTRA:                  -0.031
REMARK UNBOUND:                -0.034
REMARK SMILES O=C([O-])c1ccc(O)cc1
REMARK SMILES IDX 7 1 6 2 9 3 5 4 10 5 4 6 8 7 2 9 1 10 3 11
REMARK H PARENT 8 8
REMARK Flexibility Score: inf
ROOT
ATOM      1  C   UNL     1     127.933 121.819 140.457  1.00  0.00     0.115 A 
ATOM      2  C   UNL     1     128.926 122.216 141.361  1.00  0.00     0.047 A 
ATOM      3  C   UNL     1     128.268 121.577 139.121  1.00  0.00     0.047 A 
ATOM      4  C   UNL     1     130.248 122.369 140.931  1.00  0.00     0.014 A 
ATOM      5  C   UNL     1     129.588 121.729 138.687  1.00  0.00     0.014 A 
ATOM      6  C   UNL     1     130.592 122.127 139.588  1.00  0.00    -0.003 A 
ENDROOT
BRANCH   1   7
ATOM      7  O   UNL     1     126.613 121.662 140.874  1.00  0.00    -0.508 OA
ATOM      8  H   UNL     1     126.144 122.371 141.426  1.00  0.00     0.293 HD
ENDBRANCH   1   7
BRANCH   6   9
ATOM      9  C   UNL     1     131.989 122.287 139.127  1.00  0.00     0.071 C 
ATOM     10  O   UNL     1     132.543 121.390 138.436  1.00  0.00    -0.545 OA
ATOM     11  O   UNL     1     132.711 123.430 139.451  1.00  0.00    -0.545 OA
ENDBRANCH   6   9
TORSDOF 2
ENDMDL
MODEL 7
REMARK VINA RESULT:    -3.740      1.372      4.176
REMARK INTER + INTRA:          -4.102
REMARK INTER:                  -4.066
REMARK INTRA:                  -0.036
REMARK UNBOUND:                -0.034
REMARK SMILES O=C([O-])c1ccc(O)cc1
REMARK SMILES IDX 7 1 6 2 9 3 5 4 10 5 4 6 8 7 2 9 1 10 3 11
REMARK H PARENT 8 8
REMARK Flexibility Score: inf
ROOT
ATOM      1  C   UNL     1     127.835 120.380 139.074  1.00  0.00     0.115 A 
ATOM      2  C   UNL     1     128.116 121.599 139.705  1.00  0.00     0.047 A 
ATOM      3  C   UNL     1     128.855 119.693 138.409  1.00  0.00     0.047 A 
ATOM      4  C   UNL     1     129.411 122.126 139.672  1.00  0.00     0.014 A 
ATOM      5  C   UNL     1     130.151 120.218 138.373  1.00  0.00     0.014 A 
ATOM      6  C   UNL     1     130.442 121.440 139.005  1.00  0.00    -0.003 A 
ENDROOT
BRANCH   1   7
ATOM      7  O   UNL     1     126.550 119.845 139.102  1.00  0.00    -0.508 OA
ATOM      8  H   UNL     1     125.730 120.438 139.167  1.00  0.00     0.293 HD
ENDBRANCH   1   7
BRANCH   6   9
ATOM      9  C   UNL     1     131.814 121.993 138.966  1.00  0.00     0.071 C 
ATOM     10  O   UNL     1     132.739 121.372 138.375  1.00  0.00    -0.545 OA
ATOM     11  O   UNL     1     132.103 123.205 139.582  1.00  0.00    -0.545 OA
ENDBRANCH   6   9
TORSDOF 2
ENDMDL
MODEL 8
REMARK VINA RESULT:    -3.700      1.700      4.479
REMARK INTER + INTRA:          -4.058
REMARK INTER:                  -4.031
REMARK INTRA:                  -0.027
REMARK UNBOUND:                -0.034
REMARK SMILES O=C([O-])c1ccc(O)cc1
REMARK SMILES IDX 7 1 6 2 9 3 5 4 10 5 4 6 8 7 2 9 1 10 3 11
REMARK H PARENT 8 8
REMARK Flexibility Score: inf
ROOT
ATOM      1  C   UNL     1     128.589 118.543 138.938  1.00  0.00     0.115 A 
ATOM      2  C   UNL     1     128.196 119.763 138.375  1.00  0.00     0.047 A 
ATOM      3  C   UNL     1     129.874 118.409 139.474  1.00  0.00     0.047 A 
ATOM      4  C   UNL     1     129.084 120.844 138.348  1.00  0.00     0.014 A 
ATOM      5  C   UNL     1     130.764 119.487 139.449  1.00  0.00     0.014 A 
ATOM      6  C   UNL     1     130.377 120.716 138.885  1.00  0.00    -0.003 A 
ENDROOT
BRANCH   1   7
ATOM      7  O   UNL     1     127.714 117.460 138.972  1.00  0.00    -0.508 OA
ATOM      8  H   UNL     1     126.730 117.567 138.751  1.00  0.00     0.293 HD
ENDBRANCH   1   7
BRANCH   6   9
ATOM      9  C   UNL     1     131.321 121.856 138.860  1.00  0.00     0.071 C 
ATOM     10  O   UNL     1     131.907 122.180 137.792  1.00  0.00    -0.545 OA
ATOM     11  O   UNL     1     131.577 122.585 140.016  1.00  0.00    -0.545 OA
ENDBRANCH   6   9
TORSDOF 2
ENDMDL
MODEL 9
REMARK VINA RESULT:    -3.646      1.975      2.549
REMARK INTER + INTRA:          -3.999
REMARK INTER:                  -3.963
REMARK INTRA:                  -0.036
REMARK UNBOUND:                -0.034
REMARK SMILES O=C([O-])c1ccc(O)cc1
REMARK SMILES IDX 7 1 6 2 9 3 5 4 10 5 4 6 8 7 2 9 1 10 3 11
REMARK H PARENT 8 8
REMARK Flexibility Score: inf
ROOT
ATOM      1  C   UNL     1     130.964 121.156 138.472  1.00  0.00     0.115 A 
ATOM      2  C   UNL     1     131.076 119.776 138.681  1.00  0.00     0.047 A 
ATOM      3  C   UNL     1     129.918 121.865 139.071  1.00  0.00     0.047 A 
ATOM      4  C   UNL     1     130.147 119.108 139.485  1.00  0.00     0.014 A 
ATOM      5  C   UNL     1     128.986 121.201 139.875  1.00  0.00     0.014 A 
ATOM      6  C   UNL     1     129.091 119.815 140.090  1.00  0.00    -0.003 A 
ENDROOT
BRANCH   1   7
ATOM      7  O   UNL     1     131.884 121.832 137.675  1.00  0.00    -0.508 OA
ATOM      8  H   UNL     1     132.123 122.802 137.847  1.00  0.00     0.293 HD
ENDBRANCH   1   7
BRANCH   6   9
ATOM      9  C   UNL     1     128.104 119.114 140.941  1.00  0.00     0.071 C 
ATOM     10  O   UNL     1     128.246 117.892 141.214  1.00  0.00    -0.545 OA
ATOM     11  O   UNL     1     127.004 119.794 141.451  1.00  0.00    -0.545 OA
ENDBRANCH   6   9
TORSDOF 2
ENDMDL
