MODEL 1
REMARK VINA RESULT:    -2.203      0.000      0.000
REMARK INTER + INTRA:          -3.935
REMARK INTER:                  -3.363
REMARK INTRA:                  -0.572
REMARK UNBOUND:                -0.572
REMARK SMILES CC1=CCC[C@@H](C)C(=O)C[C@@H](C(C)C)C(=O)C1
REMARK SMILES IDX 8 1 9 2 6 3 7 4 5 5 4 6 3 7 2 8 1 9 10 11 11 12 15 13 16 14
REMARK SMILES IDX 17 15 12 17 13 18 14 19
REMARK H PARENT
REMARK Flexibility Score: 70.00
ROOT
ATOM      1  C   UNL     1      71.376  -0.856  33.422  1.00  0.00     0.136 C 
ATOM      2  O   UNL     1      71.897  -1.380  32.448  1.00  0.00    -0.299 OA
ENDROOT
BRANCH   1   3
ATOM      3  C   UNL     1      71.323   0.663  33.470  1.00  0.00     0.053 C 
ATOM      4  C   UNL     1      70.412   1.285  32.399  1.00  0.00     0.016 C 
BRANCH   3   5
ATOM      5  C   UNL     1      72.733   1.294  33.520  1.00  0.00     0.015 C 
BRANCH   5   6
ATOM      6  C   UNL     1      73.550   0.923  34.772  1.00  0.00     0.028 C 
BRANCH   6   7
ATOM      7  C   UNL     1      73.007   1.548  36.035  1.00  0.00    -0.028 C 
ATOM      8  C   UNL     1      72.401   0.876  37.044  1.00  0.00    -0.070 CG0
ATOM      9  C   UNL     1      72.001   1.663  38.267  1.00  0.00     0.039 C 
ATOM     10  G   UNL     1      72.074  -0.612  36.992  1.00  0.00     0.000 G0
ENDBRANCH   6   7
ENDBRANCH   5   6
ENDBRANCH   3   5
ENDBRANCH   1   3
BRANCH   1  11
ATOM     11  C   UNL     1      70.842  -1.758  34.519  1.00  0.00     0.087 C 
BRANCH  11  12
ATOM     12  C   UNL     1      69.949  -0.993  35.530  1.00  0.00     0.066 C 
BRANCH  12  13
ATOM     13  C   UNL     1      70.601  -0.937  36.904  1.00  0.00     0.140 C 
ATOM     14  O   UNL     1      69.940  -1.127  37.915  1.00  0.00    -0.299 OA
BRANCH  13  15
ATOM     15  C   UNL     1      72.072  -0.626  37.025  1.00  0.00     0.106 CG0
ATOM     16  G   UNL     1      72.383   0.866  37.047  1.00  0.00     0.000 G0
ENDBRANCH  13  15
ENDBRANCH  12  13
BRANCH  12  17
ATOM     17  C   UNL     1      68.480  -1.521  35.544  1.00  0.00    -0.006 C 
ATOM     18  C   UNL     1      67.483  -0.667  34.740  1.00  0.00     0.008 C 
ATOM     19  C   UNL     1      68.401  -2.992  35.103  1.00  0.00     0.008 C 
ENDBRANCH  12  17
ENDBRANCH  11  12
ENDBRANCH   1  11
TORSDOF 1
ENDMDL
MODEL 2
REMARK VINA RESULT:    -2.182      1.892      4.108
REMARK INTER + INTRA:          -3.902
REMARK INTER:                  -3.524
REMARK INTRA:                  -0.378
REMARK UNBOUND:                -0.572
REMARK SMILES CC1=CCC[C@@H](C)C(=O)C[C@@H](C(C)C)C(=O)C1
REMARK SMILES IDX 8 1 9 2 6 3 7 4 5 5 4 6 3 7 2 8 1 9 10 11 11 12 15 13 16 14
REMARK SMILES IDX 17 15 12 17 13 18 14 19
REMARK H PARENT
REMARK Flexibility Score: 70.00
ROOT
ATOM      1  C   UNL     1      69.909  -0.293  34.143  1.00  0.00     0.136 C 
ATOM      2  O   UNL     1      68.967   0.234  33.571  1.00  0.00    -0.299 OA
ENDROOT
BRANCH   1   3
ATOM      3  C   UNL     1      69.872  -1.801  34.334  1.00  0.00     0.053 C 
ATOM      4  C   UNL     1      70.251  -2.595  33.072  1.00  0.00     0.016 C 
BRANCH   3   5
ATOM      5  C   UNL     1      68.553  -2.274  34.985  1.00  0.00     0.015 C 
BRANCH   5   6
ATOM      6  C   UNL     1      68.613  -2.398  36.520  1.00  0.00     0.028 C 
BRANCH   6   7
ATOM      7  C   UNL     1      68.383  -1.084  37.225  1.00  0.00    -0.028 C 
ATOM      8  C   UNL     1      69.351  -0.303  37.764  1.00  0.00    -0.070 CG0
ATOM      9  C   UNL     1      68.935   1.021  38.354  1.00  0.00     0.039 C 
ATOM     10  G   UNL     1      70.820  -0.708  37.836  1.00  0.00     0.000 G0
ENDBRANCH   6   7
ENDBRANCH   5   6
ENDBRANCH   3   5
ENDBRANCH   1   3
BRANCH   1  11
ATOM     11  C   UNL     1      71.034   0.597  34.639  1.00  0.00     0.087 C 
BRANCH  11  12
ATOM     12  C   UNL     1      72.019  -0.159  35.569  1.00  0.00     0.066 C 
BRANCH  12  13
ATOM     13  C   UNL     1      71.757   0.176  37.030  1.00  0.00     0.140 C 
ATOM     14  O   UNL     1      72.294   1.143  37.552  1.00  0.00    -0.299 OA
BRANCH  13  15
ATOM     15  C   UNL     1      70.845  -0.700  37.850  1.00  0.00     0.106 CG0
ATOM     16  G   UNL     1      69.374  -0.306  37.763  1.00  0.00     0.000 G0
ENDBRANCH  13  15
ENDBRANCH  12  13
BRANCH  12  17
ATOM     17  C   UNL     1      73.507   0.020  35.132  1.00  0.00    -0.006 C 
ATOM     18  C   UNL     1      73.994  -0.997  34.083  1.00  0.00     0.008 C 
ATOM     19  C   UNL     1      73.790   1.454  34.658  1.00  0.00     0.008 C 
ENDBRANCH  12  17
ENDBRANCH  11  12
ENDBRANCH   1  11
TORSDOF 1
ENDMDL
MODEL 3
REMARK VINA RESULT:    -2.145      1.708      3.858
REMARK INTER + INTRA:          -3.846
REMARK INTER:                  -3.289
REMARK INTRA:                  -0.557
REMARK UNBOUND:                -0.572
REMARK SMILES CC1=CCC[C@@H](C)C(=O)C[C@@H](C(C)C)C(=O)C1
REMARK SMILES IDX 8 1 9 2 6 3 7 4 5 5 4 6 3 7 2 8 1 9 10 11 11 12 15 13 16 14
REMARK SMILES IDX 17 15 12 17 13 18 14 19
REMARK H PARENT
REMARK Flexibility Score: 70.00
ROOT
ATOM      1  C   UNL     1      69.405   0.954  37.259  1.00  0.00     0.136 C 
ATOM      2  O   UNL     1      69.100   2.027  37.758  1.00  0.00    -0.299 OA
ENDROOT
BRANCH   1   3
ATOM      3  C   UNL     1      69.980  -0.117  38.173  1.00  0.00     0.053 C 
ATOM      4  C   UNL     1      69.111  -0.410  39.408  1.00  0.00     0.016 C 
BRANCH   3   5
ATOM      5  C   UNL     1      71.464   0.143  38.513  1.00  0.00     0.015 C 
BRANCH   5   6
ATOM      6  C   UNL     1      72.463  -0.595  37.601  1.00  0.00     0.028 C 
BRANCH   6   7
ATOM      7  C   UNL     1      73.109   0.312  36.583  1.00  0.00    -0.028 C 
ATOM      8  C   UNL     1      72.940   0.230  35.240  1.00  0.00    -0.070 CG0
ATOM      9  C   UNL     1      73.602   1.282  34.386  1.00  0.00     0.039 C 
ATOM     10  G   UNL     1      72.151  -0.880  34.555  1.00  0.00     0.000 G0
ENDBRANCH   6   7
ENDBRANCH   5   6
ENDBRANCH   3   5
ENDBRANCH   1   3
BRANCH   1  11
ATOM     11  C   UNL     1      69.208   0.777  35.765  1.00  0.00     0.087 C 
BRANCH  11  12
ATOM     12  C   UNL     1      69.644  -0.628  35.274  1.00  0.00     0.066 C 
BRANCH  12  13
ATOM     13  C   UNL     1      70.724  -0.522  34.206  1.00  0.00     0.140 C 
ATOM     14  O   UNL     1      70.443  -0.161  33.072  1.00  0.00    -0.299 OA
BRANCH  13  15
ATOM     15  C   UNL     1      72.148  -0.886  34.539  1.00  0.00     0.106 CG0
ATOM     16  G   UNL     1      72.918   0.228  35.239  1.00  0.00     0.000 G0
ENDBRANCH  13  15
ENDBRANCH  12  13
BRANCH  12  17
ATOM     17  C   UNL     1      68.429  -1.519  34.866  1.00  0.00    -0.006 C 
ATOM     18  C   UNL     1      68.000  -2.546  35.930  1.00  0.00     0.008 C 
ATOM     19  C   UNL     1      67.226  -0.671  34.426  1.00  0.00     0.008 C 
ENDBRANCH  12  17
ENDBRANCH  11  12
ENDBRANCH   1  11
TORSDOF 1
ENDMDL
MODEL 4
REMARK VINA RESULT:    -2.139     13.177     15.611
REMARK INTER + INTRA:          -3.837
REMARK INTER:                  -3.360
REMARK INTRA:                  -0.477
REMARK UNBOUND:                -0.572
REMARK SMILES CC1=CCC[C@@H](C)C(=O)C[C@@H](C(C)C)C(=O)C1
REMARK SMILES IDX 8 1 9 2 6 3 7 4 5 5 4 6 3 7 2 8 1 9 10 11 11 12 15 13 16 14
REMARK SMILES IDX 17 15 12 17 13 18 14 19
REMARK H PARENT
REMARK Flexibility Score: 70.00
ROOT
ATOM      1  C   UNL     1      75.700  11.463  45.863  1.00  0.00     0.136 C 
ATOM      2  O   UNL     1      75.921  12.636  45.601  1.00  0.00    -0.299 OA
ENDROOT
BRANCH   1   3
ATOM      3  C   UNL     1      74.843  11.155  47.081  1.00  0.00     0.053 C 
ATOM      4  C   UNL     1      73.523  11.945  47.125  1.00  0.00     0.016 C 
BRANCH   3   5
ATOM      5  C   UNL     1      75.650  11.232  48.396  1.00  0.00     0.015 C 
BRANCH   5   6
ATOM      6  C   UNL     1      76.876  10.301  48.443  1.00  0.00     0.028 C 
BRANCH   6   7
ATOM      7  C   UNL     1      76.509   8.857  48.688  1.00  0.00    -0.028 C 
ATOM      8  C   UNL     1      76.802   7.822  47.863  1.00  0.00    -0.070 CG0
ATOM      9  C   UNL     1      76.428   6.435  48.321  1.00  0.00     0.039 C 
ATOM     10  G   UNL     1      77.452   7.991  46.494  1.00  0.00     0.000 G0
ENDBRANCH   6   7
ENDBRANCH   5   6
ENDBRANCH   3   5
ENDBRANCH   1   3
BRANCH   1  11
ATOM     11  C   UNL     1      76.313  10.402  44.968  1.00  0.00     0.087 C 
BRANCH  11  12
ATOM     12  C   UNL     1      75.546   9.055  45.038  1.00  0.00     0.066 C 
BRANCH  12  13
ATOM     13  C   UNL     1      76.495   7.902  45.333  1.00  0.00     0.140 C 
ATOM     14  O   UNL     1      76.465   6.884  44.655  1.00  0.00    -0.299 OA
BRANCH  13  15
ATOM     15  C   UNL     1      77.465   8.003  46.482  1.00  0.00     0.106 CG0
ATOM     16  G   UNL     1      76.817   7.824  47.850  1.00  0.00     0.000 G0
ENDBRANCH  13  15
ENDBRANCH  12  13
BRANCH  12  17
ATOM     17  C   UNL     1      74.632   8.826  43.793  1.00  0.00    -0.006 C 
ATOM     18  C   UNL     1      73.160   9.229  43.995  1.00  0.00     0.008 C 
ATOM     19  C   UNL     1      75.204   9.502  42.537  1.00  0.00     0.008 C 
ENDBRANCH  12  17
ENDBRANCH  11  12
ENDBRANCH   1  11
TORSDOF 1
ENDMDL
MODEL 5
REMARK VINA RESULT:    -2.092      1.816      3.923
REMARK INTER + INTRA:          -3.765
REMARK INTER:                  -3.487
REMARK INTRA:                  -0.278
REMARK UNBOUND:                -0.572
REMARK SMILES CC1=CCC[C@@H](C)C(=O)C[C@@H](C(C)C)C(=O)C1
REMARK SMILES IDX 8 1 9 2 6 3 7 4 5 5 4 6 3 7 2 8 1 9 10 11 11 12 15 13 16 14
REMARK SMILES IDX 17 15 12 17 13 18 14 19
REMARK H PARENT
REMARK Flexibility Score: 70.00
ROOT
ATOM      1  C   UNL     1      69.221  -0.191  35.888  1.00  0.00     0.136 C 
ATOM      2  O   UNL     1      68.551   0.745  36.298  1.00  0.00    -0.299 OA
ENDROOT
BRANCH   1   3
ATOM      3  C   UNL     1      69.202  -1.484  36.689  1.00  0.00     0.053 C 
ATOM      4  C   UNL     1      68.022  -2.408  36.346  1.00  0.00     0.016 C 
BRANCH   3   5
ATOM      5  C   UNL     1      69.366  -1.232  38.205  1.00  0.00     0.015 C 
BRANCH   5   6
ATOM      6  C   UNL     1      70.829  -1.173  38.684  1.00  0.00     0.028 C 
BRANCH   6   7
ATOM      7  C   UNL     1      71.322   0.238  38.894  1.00  0.00    -0.028 C 
ATOM      8  C   UNL     1      72.194   0.893  38.087  1.00  0.00    -0.070 CG0
ATOM      9  C   UNL     1      72.502   2.332  38.413  1.00  0.00     0.039 C 
ATOM     10  G   UNL     1      72.896   0.243  36.900  1.00  0.00     0.000 G0
ENDBRANCH   6   7
ENDBRANCH   5   6
ENDBRANCH   3   5
ENDBRANCH   1   3
BRANCH   1  11
ATOM     11  C   UNL     1      70.037   0.011  34.625  1.00  0.00     0.087 C 
BRANCH  11  12
ATOM     12  C   UNL     1      71.508  -0.452  34.792  1.00  0.00     0.066 C 
BRANCH  12  13
ATOM     13  C   UNL     1      72.325   0.587  35.547  1.00  0.00     0.140 C 
ATOM     14  O   UNL     1      72.527   1.692  35.064  1.00  0.00    -0.299 OA
BRANCH  13  15
ATOM     15  C   UNL     1      72.911   0.246  36.894  1.00  0.00     0.106 CG0
ATOM     16  G   UNL     1      72.180   0.896  38.063  1.00  0.00     0.000 G0
ENDBRANCH  13  15
ENDBRANCH  12  13
BRANCH  12  17
ATOM     17  C   UNL     1      72.146  -0.904  33.441  1.00  0.00    -0.006 C 
ATOM     18  C   UNL     1      73.681  -0.797  33.389  1.00  0.00     0.008 C 
ATOM     19  C   UNL     1      71.695  -2.319  33.045  1.00  0.00     0.008 C 
ENDBRANCH  12  17
ENDBRANCH  11  12
ENDBRANCH   1  11
TORSDOF 1
ENDMDL
MODEL 6
REMARK VINA RESULT:    -2.081      3.022      4.205
REMARK INTER + INTRA:          -3.748
REMARK INTER:                  -3.217
REMARK INTRA:                  -0.531
REMARK UNBOUND:                -0.572
REMARK SMILES CC1=CCC[C@@H](C)C(=O)C[C@@H](C(C)C)C(=O)C1
REMARK SMILES IDX 8 1 9 2 6 3 7 4 5 5 4 6 3 7 2 8 1 9 10 11 11 12 15 13 16 14
REMARK SMILES IDX 17 15 12 17 13 18 14 19
REMARK H PARENT
REMARK Flexibility Score: 70.00
ROOT
ATOM      1  C   UNL     1      70.650   0.670  34.814  1.00  0.00     0.136 C 
ATOM      2  O   UNL     1      71.767   1.167  34.803  1.00  0.00    -0.299 OA
ENDROOT
BRANCH   1   3
ATOM      3  C   UNL     1      70.064   0.208  33.489  1.00  0.00     0.053 C 
ATOM      4  C   UNL     1      70.834  -0.957  32.843  1.00  0.00     0.016 C 
BRANCH   3   5
ATOM      5  C   UNL     1      69.808   1.386  32.522  1.00  0.00     0.015 C 
BRANCH   5   6
ATOM      6  C   UNL     1      68.349   1.881  32.498  1.00  0.00     0.028 C 
BRANCH   6   7
ATOM      7  C   UNL     1      68.096   3.012  33.465  1.00  0.00    -0.028 C 
ATOM      8  C   UNL     1      67.424   2.905  34.638  1.00  0.00    -0.070 CG0
ATOM      9  C   UNL     1      67.347   4.131  35.513  1.00  0.00     0.039 C 
ATOM     10  G   UNL     1      66.721   1.632  35.096  1.00  0.00     0.000 G0
ENDBRANCH   6   7
ENDBRANCH   5   6
ENDBRANCH   3   5
ENDBRANCH   1   3
BRANCH   1  11
ATOM     11  C   UNL     1      69.924   0.570  36.143  1.00  0.00     0.087 C 
BRANCH  11  12
ATOM     12  C   UNL     1      68.516  -0.065  36.000  1.00  0.00     0.066 C 
BRANCH  12  13
ATOM     13  C   UNL     1      67.425   0.959  36.275  1.00  0.00     0.140 C 
ATOM     14  O   UNL     1      67.098   1.226  37.423  1.00  0.00    -0.299 OA
BRANCH  13  15
ATOM     15  C   UNL     1      66.723   1.636  35.125  1.00  0.00     0.106 CG0
ATOM     16  G   UNL     1      67.424   2.899  34.637  1.00  0.00     0.000 G0
ENDBRANCH  13  15
ENDBRANCH  12  13
BRANCH  12  17
ATOM     17  C   UNL     1      68.373  -1.385  36.822  1.00  0.00    -0.006 C 
ATOM     18  C   UNL     1      68.001  -2.623  35.987  1.00  0.00     0.008 C 
ATOM     19  C   UNL     1      69.626  -1.666  37.667  1.00  0.00     0.008 C 
ENDBRANCH  12  17
ENDBRANCH  11  12
ENDBRANCH   1  11
TORSDOF 1
ENDMDL
MODEL 7
REMARK VINA RESULT:    -2.074     16.066     17.693
REMARK INTER + INTRA:          -3.738
REMARK INTER:                  -3.227
REMARK INTRA:                  -0.511
REMARK UNBOUND:                -0.572
REMARK SMILES CC1=CCC[C@@H](C)C(=O)C[C@@H](C(C)C)C(=O)C1
REMARK SMILES IDX 8 1 9 2 6 3 7 4 5 5 4 6 3 7 2 8 1 9 10 11 11 12 15 13 16 14
REMARK SMILES IDX 17 15 12 17 13 18 14 19
REMARK H PARENT
REMARK Flexibility Score: 70.00
ROOT
ATOM      1  C   UNL     1      62.922  12.559  43.410  1.00  0.00     0.136 C 
ATOM      2  O   UNL     1      62.484  11.990  42.420  1.00  0.00    -0.299 OA
ENDROOT
BRANCH   1   3
ATOM      3  C   UNL     1      62.654  14.049  43.551  1.00  0.00     0.053 C 
ATOM      4  C   UNL     1      61.168  14.396  43.743  1.00  0.00     0.016 C 
BRANCH   3   5
ATOM      5  C   UNL     1      63.340  14.873  42.438  1.00  0.00     0.015 C 
BRANCH   5   6
ATOM      6  C   UNL     1      64.661  15.539  42.865  1.00  0.00     0.028 C 
BRANCH   6   7
ATOM      7  C   UNL     1      65.879  14.754  42.443  1.00  0.00    -0.028 C 
ATOM      8  C   UNL     1      66.668  14.026  43.271  1.00  0.00    -0.070 CG0
ATOM      9  C   UNL     1      67.794  13.237  42.649  1.00  0.00     0.039 C 
ATOM     10  G   UNL     1      66.500  13.994  44.786  1.00  0.00     0.000 G0
ENDBRANCH   6   7
ENDBRANCH   5   6
ENDBRANCH   3   5
ENDBRANCH   1   3
BRANCH   1  11
ATOM     11  C   UNL     1      63.717  11.741  44.411  1.00  0.00     0.087 C 
BRANCH  11  12
ATOM     12  C   UNL     1      64.377  12.624  45.502  1.00  0.00     0.066 C 
BRANCH  12  13
ATOM     13  C   UNL     1      65.884  12.703  45.303  1.00  0.00     0.140 C 
ATOM     14  O   UNL     1      66.597  11.745  45.566  1.00  0.00    -0.299 OA
BRANCH  13  15
ATOM     15  C   UNL     1      66.508  13.978  44.797  1.00  0.00     0.106 CG0
ATOM     16  G   UNL     1      66.676  14.021  43.283  1.00  0.00     0.000 G0
ENDBRANCH  13  15
ENDBRANCH  12  13
BRANCH  12  17
ATOM     17  C   UNL     1      63.946  12.207  46.944  1.00  0.00    -0.006 C 
ATOM     18  C   UNL     1      63.154  13.281  47.712  1.00  0.00     0.008 C 
ATOM     19  C   UNL     1      63.181  10.874  46.946  1.00  0.00     0.008 C 
ENDBRANCH  12  17
ENDBRANCH  11  12
ENDBRANCH   1  11
TORSDOF 1
ENDMDL
MODEL 8
REMARK VINA RESULT:    -2.062     17.019     18.959
REMARK INTER + INTRA:          -3.719
REMARK INTER:                  -3.184
REMARK INTRA:                  -0.535
REMARK UNBOUND:                -0.572
REMARK SMILES CC1=CCC[C@@H](C)C(=O)C[C@@H](C(C)C)C(=O)C1
REMARK SMILES IDX 8 1 9 2 6 3 7 4 5 5 4 6 3 7 2 8 1 9 10 11 11 12 15 13 16 14
REMARK SMILES IDX 17 15 12 17 13 18 14 19
REMARK H PARENT
REMARK Flexibility Score: 70.00
ROOT
ATOM      1  C   UNL     1      67.727  12.502  45.528  1.00  0.00     0.136 C 
ATOM      2  O   UNL     1      68.091  11.451  45.022  1.00  0.00    -0.299 OA
ENDROOT
BRANCH   1   3
ATOM      3  C   UNL     1      67.916  12.674  47.027  1.00  0.00     0.053 C 
ATOM      4  C   UNL     1      69.343  12.366  47.511  1.00  0.00     0.016 C 
BRANCH   3   5
ATOM      5  C   UNL     1      66.820  11.949  47.840  1.00  0.00     0.015 C 
BRANCH   5   6
ATOM      6  C   UNL     1      65.697  12.870  48.352  1.00  0.00     0.028 C 
BRANCH   6   7
ATOM      7  C   UNL     1      64.397  12.682  47.608  1.00  0.00    -0.028 C 
ATOM      8  C   UNL     1      63.835  13.587  46.769  1.00  0.00    -0.070 CG0
ATOM      9  C   UNL     1      62.573  13.183  46.048  1.00  0.00     0.039 C 
ATOM     10  G   UNL     1      64.390  14.989  46.547  1.00  0.00     0.000 G0
ENDBRANCH   6   7
ENDBRANCH   5   6
ENDBRANCH   3   5
ENDBRANCH   1   3
BRANCH   1  11
ATOM     11  C   UNL     1      67.094  13.548  44.627  1.00  0.00     0.087 C 
BRANCH  11  12
ATOM     12  C   UNL     1      66.734  14.847  45.394  1.00  0.00     0.066 C 
BRANCH  12  13
ATOM     13  C   UNL     1      65.242  15.135  45.309  1.00  0.00     0.140 C 
ATOM     14  O   UNL     1      64.738  15.497  44.255  1.00  0.00    -0.299 OA
BRANCH  13  15
ATOM     15  C   UNL     1      64.378  14.996  46.536  1.00  0.00     0.106 CG0
ATOM     16  G   UNL     1      63.842  13.585  46.752  1.00  0.00     0.000 G0
ENDBRANCH  13  15
ENDBRANCH  12  13
BRANCH  12  17
ATOM     17  C   UNL     1      67.639  16.050  44.983  1.00  0.00    -0.006 C 
ATOM     18  C   UNL     1      68.626  16.512  46.072  1.00  0.00     0.008 C 
ATOM     19  C   UNL     1      68.384  15.777  43.667  1.00  0.00     0.008 C 
ENDBRANCH  12  17
ENDBRANCH  11  12
ENDBRANCH   1  11
TORSDOF 1
ENDMDL
MODEL 9
REMARK VINA RESULT:    -1.916     17.192     19.162
REMARK INTER + INTRA:          -3.496
REMARK INTER:                  -3.454
REMARK INTRA:                  -0.042
REMARK UNBOUND:                -0.572
REMARK SMILES CC1=CCC[C@@H](C)C(=O)C[C@@H](C(C)C)C(=O)C1
REMARK SMILES IDX 8 1 9 2 6 3 7 4 5 5 4 6 3 7 2 8 1 9 10 11 11 12 15 13 16 14
REMARK SMILES IDX 17 15 12 17 13 18 14 19
REMARK H PARENT
REMARK Flexibility Score: 70.00
ROOT
ATOM      1  C   UNL     1      62.674  13.316  45.453  1.00  0.00     0.136 C 
ATOM      2  O   UNL     1      61.874  12.572  46.003  1.00  0.00    -0.299 OA
ENDROOT
BRANCH   1   3
ATOM      3  C   UNL     1      62.158  14.224  44.348  1.00  0.00     0.053 C 
ATOM      4  C   UNL     1      60.626  14.231  44.217  1.00  0.00     0.016 C 
BRANCH   3   5
ATOM      5  C   UNL     1      62.889  13.984  43.008  1.00  0.00     0.015 C 
BRANCH   5   6
ATOM      6  C   UNL     1      63.827  15.130  42.584  1.00  0.00     0.028 C 
BRANCH   6   7
ATOM      7  C   UNL     1      65.243  14.670  42.337  1.00  0.00    -0.028 C 
ATOM      8  C   UNL     1      66.290  14.871  43.175  1.00  0.00    -0.070 CG0
ATOM      9  C   UNL     1      67.616  14.260  42.797  1.00  0.00     0.039 C 
ATOM     10  G   UNL     1      66.204  15.705  44.448  1.00  0.00     0.000 G0
ENDBRANCH   6   7
ENDBRANCH   5   6
ENDBRANCH   3   5
ENDBRANCH   1   3
BRANCH   1  11
ATOM     11  C   UNL     1      64.124  13.262  45.899  1.00  0.00     0.087 C 
BRANCH  11  12
ATOM     12  C   UNL     1      64.671  14.658  46.298  1.00  0.00     0.066 C 
BRANCH  12  13
ATOM     13  C   UNL     1      66.056  14.890  45.710  1.00  0.00     0.140 C 
ATOM     14  O   UNL     1      67.048  14.432  46.258  1.00  0.00    -0.299 OA
BRANCH  13  15
ATOM     15  C   UNL     1      66.211  15.708  44.453  1.00  0.00     0.106 CG0
ATOM     16  G   UNL     1      66.295  14.870  43.182  1.00  0.00     0.000 G0
ENDBRANCH  13  15
ENDBRANCH  12  13
BRANCH  12  17
ATOM     17  C   UNL     1      64.580  14.915  47.835  1.00  0.00    -0.006 C 
ATOM     18  C   UNL     1      65.154  13.785  48.709  1.00  0.00     0.008 C 
ATOM     19  C   UNL     1      65.209  16.263  48.223  1.00  0.00     0.008 C 
ENDBRANCH  12  17
ENDBRANCH  11  12
ENDBRANCH   1  11
TORSDOF 1
ENDMDL
