MODEL 1
REMARK VINA RESULT:    -3.799      0.000      0.000
REMARK INTER + INTRA:          -4.881
REMARK INTER:                  -5.354
REMARK INTRA:                   0.472
REMARK UNBOUND:                 0.472
REMARK SMILES CC1=CCC(=C(C)C)C(=O)CC(C)=CCC1
REMARK SMILES IDX 12 1 14 2 13 3 15 4 16 5 2 6 1 7 3 8 11 10 9 11 10 12 5 13
REMARK SMILES IDX 6 14 7 15 8 16 4 17
REMARK H PARENT
REMARK Flexibility Score: 60.00
ROOT
ATOM      1  C   UNL     1      18.266  26.367  27.949  1.00  0.00    -0.070 C 
ATOM      2  C   UNL     1      19.209  25.394  27.947  1.00  0.00    -0.027 C 
ATOM      3  C   UNL     1      16.821  25.935  27.902  1.00  0.00     0.039 C 
ENDROOT
BRANCH   2   4
ATOM      4  C   UNL     1      20.702  25.598  27.883  1.00  0.00     0.032 C 
BRANCH   4   5
ATOM      5  C   UNL     1      21.293  26.078  29.222  1.00  0.00     0.034 C 
BRANCH   5   6
ATOM      6  C   UNL     1      22.027  27.397  29.084  1.00  0.00    -0.077 C 
ATOM      7  C   UNL     1      23.222  27.458  28.165  1.00  0.00     0.039 C 
ATOM      8  C   UNL     1      21.658  28.531  29.719  1.00  0.00    -0.023 CG0
ATOM      9  G   UNL     1      20.477  28.679  30.647  1.00  0.00     0.000 G0
ENDBRANCH   5   6
ENDBRANCH   4   5
ENDBRANCH   2   4
BRANCH   1  10
ATOM     10  C   UNL     1      18.585  27.853  27.929  1.00  0.00     0.111 C 
BRANCH  10  11
ATOM     11  C   UNL     1      18.320  28.495  29.267  1.00  0.00     0.163 C 
ATOM     12  O   UNL     1      17.225  28.243  29.840  1.00  0.00    -0.294 OA
BRANCH  11  13
ATOM     13  C   UNL     1      19.332  29.369  29.940  1.00  0.00    -0.002 C 
ATOM     14  C   UNL     1      19.264  30.733  29.870  1.00  0.00    -0.069 C 
ATOM     15  C   UNL     1      18.207  31.433  29.047  1.00  0.00     0.039 C 
ATOM     16  C   UNL     1      20.269  31.609  30.586  1.00  0.00     0.039 C 
BRANCH  13  17
ATOM     17  C   UNL     1      20.483  28.674  30.646  1.00  0.00     0.066 CG0
ATOM     18  G   UNL     1      21.656  28.543  29.704  1.00  0.00     0.000 G0
ENDBRANCH  13  17
ENDBRANCH  11  13
ENDBRANCH  10  11
ENDBRANCH   1  10
TORSDOF 0
ENDMDL
MODEL 2
REMARK VINA RESULT:    -3.639      1.994      3.702
REMARK INTER + INTRA:          -4.656
REMARK INTER:                  -5.184
REMARK INTRA:                   0.528
REMARK UNBOUND:                 0.472
REMARK SMILES CC1=CCC(=C(C)C)C(=O)CC(C)=CCC1
REMARK SMILES IDX 12 1 14 2 13 3 15 4 16 5 2 6 1 7 3 8 11 10 9 11 10 12 5 13
REMARK SMILES IDX 6 14 7 15 8 16 4 17
REMARK H PARENT
REMARK Flexibility Score: 60.00
ROOT
ATOM      1  C   UNL     1      21.026  26.209  28.612  1.00  0.00    -0.070 C 
ATOM      2  C   UNL     1      19.954  25.550  28.109  1.00  0.00    -0.027 C 
ATOM      3  C   UNL     1      22.394  25.747  28.172  1.00  0.00     0.039 C 
ENDROOT
BRANCH   2   4
ATOM      4  C   UNL     1      18.511  25.771  28.490  1.00  0.00     0.032 C 
BRANCH   4   5
ATOM      5  C   UNL     1      17.908  27.024  27.827  1.00  0.00     0.034 C 
BRANCH   5   6
ATOM      6  C   UNL     1      17.423  28.035  28.847  1.00  0.00    -0.077 C 
ATOM      7  C   UNL     1      16.270  27.654  29.741  1.00  0.00     0.039 C 
ATOM      8  C   UNL     1      17.983  29.253  29.020  1.00  0.00    -0.023 CG0
ATOM      9  G   UNL     1      19.161  29.801  28.252  1.00  0.00     0.000 G0
ENDBRANCH   5   6
ENDBRANCH   4   5
ENDBRANCH   2   4
BRANCH   1  10
ATOM     10  C   UNL     1      20.926  27.329  29.634  1.00  0.00     0.111 C 
BRANCH  10  11
ATOM     11  C   UNL     1      21.305  28.661  29.035  1.00  0.00     0.163 C 
ATOM     12  O   UNL     1      22.404  28.745  28.423  1.00  0.00    -0.294 OA
BRANCH  11  13
ATOM     13  C   UNL     1      20.396  29.848  29.106  1.00  0.00    -0.002 C 
ATOM     14  C   UNL     1      20.639  30.889  29.960  1.00  0.00    -0.069 C 
ATOM     15  C   UNL     1      21.797  30.864  30.930  1.00  0.00     0.039 C 
ATOM     16  C   UNL     1      19.737  32.103  29.997  1.00  0.00     0.039 C 
BRANCH  13  17
ATOM     17  C   UNL     1      19.148  29.814  28.242  1.00  0.00     0.066 CG0
ATOM     18  G   UNL     1      17.989  29.266  29.038  1.00  0.00     0.000 G0
ENDBRANCH  13  17
ENDBRANCH  11  13
ENDBRANCH  10  11
ENDBRANCH   1  10
TORSDOF 0
ENDMDL
MODEL 3
REMARK VINA RESULT:    -3.628      2.231      4.210
REMARK INTER + INTRA:          -4.640
REMARK INTER:                  -5.128
REMARK INTRA:                   0.488
REMARK UNBOUND:                 0.472
REMARK SMILES CC1=CCC(=C(C)C)C(=O)CC(C)=CCC1
REMARK SMILES IDX 12 1 14 2 13 3 15 4 16 5 2 6 1 7 3 8 11 10 9 11 10 12 5 13
REMARK SMILES IDX 6 14 7 15 8 16 4 17
REMARK H PARENT
REMARK Flexibility Score: 60.00
ROOT
ATOM      1  C   UNL     1      21.970  29.985  29.762  1.00  0.00    -0.070 C 
ATOM      2  C   UNL     1      21.919  28.639  29.616  1.00  0.00    -0.027 C 
ATOM      3  C   UNL     1      23.099  30.553  30.587  1.00  0.00     0.039 C 
ENDROOT
BRANCH   2   4
ATOM      4  C   UNL     1      20.828  27.856  28.929  1.00  0.00     0.032 C 
BRANCH   4   5
ATOM      5  C   UNL     1      19.501  27.877  29.710  1.00  0.00     0.034 C 
BRANCH   5   6
ATOM      6  C   UNL     1      18.335  28.314  28.845  1.00  0.00    -0.077 C 
ATOM      7  C   UNL     1      18.034  27.525  27.596  1.00  0.00     0.039 C 
ATOM      8  C   UNL     1      17.531  29.360  29.143  1.00  0.00    -0.023 CG0
ATOM      9  G   UNL     1      17.649  30.246  30.359  1.00  0.00     0.000 G0
ENDBRANCH   5   6
ENDBRANCH   4   5
ENDBRANCH   2   4
BRANCH   1  10
ATOM     10  C   UNL     1      20.924  30.935  29.203  1.00  0.00     0.111 C 
BRANCH  10  11
ATOM     11  C   UNL     1      19.958  31.387  30.270  1.00  0.00     0.163 C 
ATOM     12  O   UNL     1      20.428  31.740  31.385  1.00  0.00    -0.294 OA
BRANCH  11  13
ATOM     13  C   UNL     1      18.485  31.475  30.018  1.00  0.00    -0.002 C 
ATOM     14  C   UNL     1      17.900  32.629  29.574  1.00  0.00    -0.069 C 
ATOM     15  C   UNL     1      18.696  33.899  29.384  1.00  0.00     0.039 C 
ATOM     16  C   UNL     1      16.416  32.698  29.285  1.00  0.00     0.039 C 
BRANCH  13  17
ATOM     17  C   UNL     1      17.654  30.248  30.349  1.00  0.00     0.066 CG0
ATOM     18  G   UNL     1      17.527  29.371  29.126  1.00  0.00     0.000 G0
ENDBRANCH  13  17
ENDBRANCH  11  13
ENDBRANCH  10  11
ENDBRANCH   1  10
TORSDOF 0
ENDMDL
MODEL 4
REMARK VINA RESULT:    -3.588      2.847      5.811
REMARK INTER + INTRA:          -4.583
REMARK INTER:                  -4.972
REMARK INTRA:                   0.389
REMARK UNBOUND:                 0.472
REMARK SMILES CC1=CCC(=C(C)C)C(=O)CC(C)=CCC1
REMARK SMILES IDX 12 1 14 2 13 3 15 4 16 5 2 6 1 7 3 8 11 10 9 11 10 12 5 13
REMARK SMILES IDX 6 14 7 15 8 16 4 17
REMARK H PARENT
REMARK Flexibility Score: 60.00
ROOT
ATOM      1  C   UNL     1      25.753  29.007  28.951  1.00  0.00    -0.070 C 
ATOM      2  C   UNL     1      25.817  30.050  29.813  1.00  0.00    -0.027 C 
ATOM      3  C   UNL     1      26.645  29.054  27.735  1.00  0.00     0.039 C 
ENDROOT
BRANCH   2   4
ATOM      4  C   UNL     1      24.946  30.261  31.027  1.00  0.00     0.032 C 
BRANCH   4   5
ATOM      5  C   UNL     1      23.553  30.813  30.669  1.00  0.00     0.034 C 
BRANCH   5   6
ATOM      6  C   UNL     1      22.437  29.994  31.287  1.00  0.00    -0.077 C 
ATOM      7  C   UNL     1      22.280  30.013  32.787  1.00  0.00     0.039 C 
ATOM      8  C   UNL     1      21.554  29.265  30.568  1.00  0.00    -0.023 CG0
ATOM      9  G   UNL     1      21.525  29.147  29.063  1.00  0.00     0.000 G0
ENDBRANCH   5   6
ENDBRANCH   4   5
ENDBRANCH   2   4
BRANCH   1  10
ATOM     10  C   UNL     1      24.792  27.840  29.109  1.00  0.00     0.111 C 
BRANCH  10  11
ATOM     11  C   UNL     1      23.627  27.948  28.156  1.00  0.00     0.163 C 
ATOM     12  O   UNL     1      23.876  28.083  26.927  1.00  0.00    -0.294 OA
BRANCH  11  13
ATOM     13  C   UNL     1      22.210  27.846  28.625  1.00  0.00    -0.002 C 
ATOM     14  C   UNL     1      21.531  26.658  28.610  1.00  0.00    -0.069 C 
ATOM     15  C   UNL     1      22.151  25.398  28.050  1.00  0.00     0.039 C 
ATOM     16  C   UNL     1      20.111  26.556  29.122  1.00  0.00     0.039 C 
BRANCH  13  17
ATOM     17  C   UNL     1      21.528  29.135  29.050  1.00  0.00     0.066 CG0
ATOM     18  G   UNL     1      21.544  29.250  30.554  1.00  0.00     0.000 G0
ENDBRANCH  13  17
ENDBRANCH  11  13
ENDBRANCH  10  11
ENDBRANCH   1  10
TORSDOF 0
ENDMDL
MODEL 5
REMARK VINA RESULT:    -3.461      2.538      4.596
REMARK INTER + INTRA:          -4.404
REMARK INTER:                  -4.783
REMARK INTRA:                   0.379
REMARK UNBOUND:                 0.472
REMARK SMILES CC1=CCC(=C(C)C)C(=O)CC(C)=CCC1
REMARK SMILES IDX 12 1 14 2 13 3 15 4 16 5 2 6 1 7 3 8 11 10 9 11 10 12 5 13
REMARK SMILES IDX 6 14 7 15 8 16 4 17
REMARK H PARENT
REMARK Flexibility Score: 60.00
ROOT
ATOM      1  C   UNL     1      20.400  28.654  30.074  1.00  0.00    -0.070 C 
ATOM      2  C   UNL     1      21.530  29.177  30.608  1.00  0.00    -0.027 C 
ATOM      3  C   UNL     1      20.554  27.503  29.112  1.00  0.00     0.039 C 
ENDROOT
BRANCH   2   4
ATOM      4  C   UNL     1      21.618  30.390  31.502  1.00  0.00     0.032 C 
BRANCH   4   5
ATOM      5  C   UNL     1      21.422  31.709  30.732  1.00  0.00     0.034 C 
BRANCH   5   6
ATOM      6  C   UNL     1      20.396  32.610  31.392  1.00  0.00    -0.077 C 
ATOM      7  C   UNL     1      20.676  33.114  32.785  1.00  0.00     0.039 C 
ATOM      8  C   UNL     1      19.252  33.008  30.792  1.00  0.00    -0.023 CG0
ATOM      9  G   UNL     1      18.813  32.640  29.396  1.00  0.00     0.000 G0
ENDBRANCH   5   6
ENDBRANCH   4   5
ENDBRANCH   2   4
BRANCH   1  10
ATOM     10  C   UNL     1      19.008  29.205  30.339  1.00  0.00     0.111 C 
BRANCH  10  11
ATOM     11  C   UNL     1      18.535  30.084  29.209  1.00  0.00     0.163 C 
ATOM     12  O   UNL     1      18.652  29.651  28.031  1.00  0.00    -0.294 OA
BRANCH  11  13
ATOM     13  C   UNL     1      17.894  31.413  29.456  1.00  0.00    -0.002 C 
ATOM     14  C   UNL     1      16.547  31.534  29.664  1.00  0.00    -0.069 C 
ATOM     15  C   UNL     1      15.623  30.340  29.583  1.00  0.00     0.039 C 
ATOM     16  C   UNL     1      15.911  32.877  29.952  1.00  0.00     0.039 C 
BRANCH  13  17
ATOM     17  C   UNL     1      18.791  32.636  29.392  1.00  0.00     0.066 CG0
ATOM     18  G   UNL     1      19.247  33.010  30.781  1.00  0.00     0.000 G0
ENDBRANCH  13  17
ENDBRANCH  11  13
ENDBRANCH  10  11
ENDBRANCH   1  10
TORSDOF 0
ENDMDL
MODEL 6
REMARK VINA RESULT:    -3.453      1.707      3.408
REMARK INTER + INTRA:          -4.393
REMARK INTER:                  -5.045
REMARK INTRA:                   0.652
REMARK UNBOUND:                 0.472
REMARK SMILES CC1=CCC(=C(C)C)C(=O)CC(C)=CCC1
REMARK SMILES IDX 12 1 14 2 13 3 15 4 16 5 2 6 1 7 3 8 11 10 9 11 10 12 5 13
REMARK SMILES IDX 6 14 7 15 8 16 4 17
REMARK H PARENT
REMARK Flexibility Score: 60.00
ROOT
ATOM      1  C   UNL     1      20.869  25.338  28.131  1.00  0.00    -0.070 C 
ATOM      2  C   UNL     1      21.951  26.137  28.291  1.00  0.00    -0.027 C 
ATOM      3  C   UNL     1      20.894  24.355  26.986  1.00  0.00     0.039 C 
ENDROOT
BRANCH   2   4
ATOM      4  C   UNL     1      22.096  27.255  29.295  1.00  0.00     0.032 C 
BRANCH   4   5
ATOM      5  C   UNL     1      21.839  28.642  28.677  1.00  0.00     0.034 C 
BRANCH   5   6
ATOM      6  C   UNL     1      20.777  29.417  29.432  1.00  0.00    -0.077 C 
ATOM      7  C   UNL     1      21.210  30.295  30.579  1.00  0.00     0.039 C 
ATOM      8  C   UNL     1      19.462  29.386  29.120  1.00  0.00    -0.023 CG0
ATOM      9  G   UNL     1      18.840  28.600  27.992  1.00  0.00     0.000 G0
ENDBRANCH   5   6
ENDBRANCH   4   5
ENDBRANCH   2   4
BRANCH   1  10
ATOM     10  C   UNL     1      19.619  25.426  28.991  1.00  0.00     0.111 C 
BRANCH  10  11
ATOM     11  C   UNL     1      18.475  26.064  28.243  1.00  0.00     0.163 C 
ATOM     12  O   UNL     1      17.880  25.376  27.370  1.00  0.00    -0.294 OA
BRANCH  11  13
ATOM     13  C   UNL     1      18.006  27.452  28.548  1.00  0.00    -0.002 C 
ATOM     14  C   UNL     1      16.846  27.684  29.234  1.00  0.00    -0.069 C 
ATOM     15  C   UNL     1      15.936  26.554  29.659  1.00  0.00     0.039 C 
ATOM     16  C   UNL     1      16.399  29.090  29.572  1.00  0.00     0.039 C 
BRANCH  13  17
ATOM     17  C   UNL     1      18.836  28.598  27.996  1.00  0.00     0.066 CG0
ATOM     18  G   UNL     1      19.468  29.365  29.132  1.00  0.00     0.000 G0
ENDBRANCH  13  17
ENDBRANCH  11  13
ENDBRANCH  10  11
ENDBRANCH   1  10
TORSDOF 0
ENDMDL
MODEL 7
REMARK VINA RESULT:    -3.441      1.884      3.154
REMARK INTER + INTRA:          -4.377
REMARK INTER:                  -4.814
REMARK INTRA:                   0.437
REMARK UNBOUND:                 0.472
REMARK SMILES CC1=CCC(=C(C)C)C(=O)CC(C)=CCC1
REMARK SMILES IDX 12 1 14 2 13 3 15 4 16 5 2 6 1 7 3 8 11 10 9 11 10 12 5 13
REMARK SMILES IDX 6 14 7 15 8 16 4 17
REMARK H PARENT
REMARK Flexibility Score: 60.00
ROOT
ATOM      1  C   UNL     1      19.884  28.274  28.865  1.00  0.00    -0.070 C 
ATOM      2  C   UNL     1      21.088  27.943  29.390  1.00  0.00    -0.027 C 
ATOM      3  C   UNL     1      19.011  27.150  28.364  1.00  0.00     0.039 C 
ENDROOT
BRANCH   2   4
ATOM      4  C   UNL     1      22.157  28.904  29.850  1.00  0.00     0.032 C 
BRANCH   4   5
ATOM      5  C   UNL     1      21.875  29.476  31.252  1.00  0.00     0.034 C 
BRANCH   5   6
ATOM      6  C   UNL     1      21.806  30.991  31.248  1.00  0.00    -0.077 C 
ATOM      7  C   UNL     1      23.057  31.764  30.916  1.00  0.00     0.039 C 
ATOM      8  C   UNL     1      20.677  31.690  31.501  1.00  0.00    -0.023 CG0
ATOM      9  G   UNL     1      19.325  31.100  31.818  1.00  0.00     0.000 G0
ENDBRANCH   5   6
ENDBRANCH   4   5
ENDBRANCH   2   4
BRANCH   1  10
ATOM     10  C   UNL     1      19.402  29.706  28.694  1.00  0.00     0.111 C 
BRANCH  10  11
ATOM     11  C   UNL     1      18.318  30.048  29.686  1.00  0.00     0.163 C 
ATOM     12  O   UNL     1      17.327  29.273  29.774  1.00  0.00    -0.294 OA
BRANCH  11  13
ATOM     13  C   UNL     1      18.419  31.237  30.589  1.00  0.00    -0.002 C 
ATOM     14  C   UNL     1      17.784  32.414  30.301  1.00  0.00    -0.069 C 
ATOM     15  C   UNL     1      17.007  32.602  29.018  1.00  0.00     0.039 C 
ATOM     16  C   UNL     1      17.859  33.600  31.238  1.00  0.00     0.039 C 
BRANCH  13  17
ATOM     17  C   UNL     1      19.319  31.107  31.805  1.00  0.00     0.066 CG0
ATOM     18  G   UNL     1      20.677  31.690  31.502  1.00  0.00     0.000 G0
ENDBRANCH  13  17
ENDBRANCH  11  13
ENDBRANCH  10  11
ENDBRANCH   1  10
TORSDOF 0
ENDMDL
MODEL 8
REMARK VINA RESULT:    -3.423      2.832      5.609
REMARK INTER + INTRA:          -4.352
REMARK INTER:                  -5.081
REMARK INTRA:                   0.729
REMARK UNBOUND:                 0.472
REMARK SMILES CC1=CCC(=C(C)C)C(=O)CC(C)=CCC1
REMARK SMILES IDX 12 1 14 2 13 3 15 4 16 5 2 6 1 7 3 8 11 10 9 11 10 12 5 13
REMARK SMILES IDX 6 14 7 15 8 16 4 17
REMARK H PARENT
REMARK Flexibility Score: 60.00
ROOT
ATOM      1  C   UNL     1      17.479  33.020  29.905  1.00  0.00    -0.070 C 
ATOM      2  C   UNL     1      18.265  33.999  29.395  1.00  0.00    -0.027 C 
ATOM      3  C   UNL     1      16.382  32.479  29.021  1.00  0.00     0.039 C 
ENDROOT
BRANCH   2   4
ATOM      4  C   UNL     1      19.344  34.753  30.133  1.00  0.00     0.032 C 
BRANCH   4   5
ATOM      5  C   UNL     1      20.758  34.417  29.620  1.00  0.00     0.034 C 
BRANCH   5   6
ATOM      6  C   UNL     1      21.497  33.480  30.555  1.00  0.00    -0.077 C 
ATOM      7  C   UNL     1      22.403  34.079  31.601  1.00  0.00     0.039 C 
ATOM      8  C   UNL     1      21.372  32.134  30.522  1.00  0.00    -0.023 CG0
ATOM      9  G   UNL     1      20.492  31.352  29.577  1.00  0.00     0.000 G0
ENDBRANCH   5   6
ENDBRANCH   4   5
ENDBRANCH   2   4
BRANCH   1  10
ATOM     10  C   UNL     1      17.600  32.494  31.325  1.00  0.00     0.111 C 
BRANCH  10  11
ATOM     11  C   UNL     1      18.767  31.549  31.469  1.00  0.00     0.163 C 
ATOM     12  O   UNL     1      19.267  31.392  32.616  1.00  0.00    -0.294 OA
BRANCH  11  13
ATOM     13  C   UNL     1      19.299  30.767  30.309  1.00  0.00    -0.002 C 
ATOM     14  C   UNL     1      18.783  29.548  29.966  1.00  0.00    -0.069 C 
ATOM     15  C   UNL     1      17.695  28.890  30.784  1.00  0.00     0.039 C 
ATOM     16  C   UNL     1      19.301  28.782  28.768  1.00  0.00     0.039 C 
BRANCH  13  17
ATOM     17  C   UNL     1      20.491  31.352  29.571  1.00  0.00     0.066 CG0
ATOM     18  G   UNL     1      21.359  32.126  30.533  1.00  0.00     0.000 G0
ENDBRANCH  13  17
ENDBRANCH  11  13
ENDBRANCH  10  11
ENDBRANCH   1  10
TORSDOF 0
ENDMDL
MODEL 9
REMARK VINA RESULT:    -3.405      2.295      5.763
REMARK INTER + INTRA:          -4.325
REMARK INTER:                  -4.929
REMARK INTRA:                   0.603
REMARK UNBOUND:                 0.472
REMARK SMILES CC1=CCC(=C(C)C)C(=O)CC(C)=CCC1
REMARK SMILES IDX 12 1 14 2 13 3 15 4 16 5 2 6 1 7 3 8 11 10 9 11 10 12 5 13
REMARK SMILES IDX 6 14 7 15 8 16 4 17
REMARK H PARENT
REMARK Flexibility Score: 60.00
ROOT
ATOM      1  C   UNL     1      20.028  31.875  29.687  1.00  0.00    -0.070 C 
ATOM      2  C   UNL     1      18.992  32.746  29.746  1.00  0.00    -0.027 C 
ATOM      3  C   UNL     1      21.295  32.251  30.415  1.00  0.00     0.039 C 
ENDROOT
BRANCH   2   4
ATOM      4  C   UNL     1      17.679  32.624  29.012  1.00  0.00     0.032 C 
BRANCH   4   5
ATOM      5  C   UNL     1      16.476  32.494  29.966  1.00  0.00     0.034 C 
BRANCH   5   6
ATOM      6  C   UNL     1      16.735  31.499  31.080  1.00  0.00    -0.077 C 
ATOM      7  C   UNL     1      16.749  32.004  32.502  1.00  0.00     0.039 C 
ATOM      8  C   UNL     1      16.928  30.177  30.875  1.00  0.00    -0.023 CG0
ATOM      9  G   UNL     1      16.915  29.480  29.537  1.00  0.00     0.000 G0
ENDBRANCH   5   6
ENDBRANCH   4   5
ENDBRANCH   2   4
BRANCH   1  10
ATOM     10  C   UNL     1      20.003  30.587  28.881  1.00  0.00     0.111 C 
BRANCH  10  11
ATOM     11  C   UNL     1      19.485  29.430  29.699  1.00  0.00     0.163 C 
ATOM     12  O   UNL     1      20.126  29.101  30.734  1.00  0.00    -0.294 OA
BRANCH  11  13
ATOM     13  C   UNL     1      18.220  28.713  29.344  1.00  0.00    -0.002 C 
ATOM     14  C   UNL     1      18.234  27.457  28.802  1.00  0.00    -0.069 C 
ATOM     15  C   UNL     1      19.529  26.755  28.462  1.00  0.00     0.039 C 
ATOM     16  C   UNL     1      16.950  26.723  28.482  1.00  0.00     0.039 C 
BRANCH  13  17
ATOM     17  C   UNL     1      16.919  29.469  29.543  1.00  0.00     0.066 CG0
ATOM     18  G   UNL     1      16.935  30.174  30.878  1.00  0.00     0.000 G0
ENDBRANCH  13  17
ENDBRANCH  11  13
ENDBRANCH  10  11
ENDBRANCH   1  10
TORSDOF 0
ENDMDL
