MODEL 1
REMARK VINA RESULT:    -4.151      0.000      0.000
REMARK INTER + INTRA:          -7.560
REMARK INTER:                  -6.334
REMARK INTRA:                  -1.226
REMARK UNBOUND:                -1.226
REMARK SMILES OC[C@@H]1O[C@@H](O[C@]2(CO)O[C@H](CO)[C@@H](O)[C@@H]2O)[C@H](O)[C@@H](O)[C@@H]1O
REMARK SMILES IDX 6 1 5 2 3 3 22 4 4 5 20 6 18 7 2 8 1 9 23 11 21 13 19 15
REMARK SMILES IDX 7 17 16 18 10 19 14 20 11 21 8 22 9 23 17 25 15 27 12 29
REMARK SMILES IDX 13 30
REMARK H PARENT 1 10 23 12 21 14 19 16 9 24 17 26 15 28 13 31
REMARK Flexibility Score: inf
ROOT
ATOM      1  O   UNL     1       6.837  -7.547  -2.092  1.00  0.00    -0.313 OA
ENDROOT
BRANCH   1   2
ATOM      2  C   UNL     1       6.523  -8.021  -3.395  1.00  0.00     0.285 C 
ATOM      3  C   UNL     1       7.227  -8.082  -5.655  1.00  0.00     0.178 C 
ATOM      4  C   UNL     1       5.828  -8.712  -5.958  1.00  0.00     0.177 C 
ATOM      5  O   UNL     1       7.328  -7.420  -4.396  1.00  0.00    -0.341 OA
ATOM      6  C   UNL     1       4.720  -7.934  -5.215  1.00  0.00     0.179 C 
ATOM      7  C   UNL     1       5.009  -7.852  -3.693  1.00  0.00     0.202 C 
BRANCH   3   8
ATOM      8  C   UNL     1       8.386  -9.073  -5.833  1.00  0.00     0.191 C 
BRANCH   8   9
ATOM      9  O   UNL     1       8.299  -9.687  -7.092  1.00  0.00    -0.394 OA
ATOM     10  H   UNL     1       7.405 -10.115  -7.153  1.00  0.00     0.210 HD
ENDBRANCH   8   9
ENDBRANCH   3   8
BRANCH   4  11
ATOM     11  O   UNL     1       5.799 -10.062  -5.567  1.00  0.00    -0.387 OA
ATOM     12  H   UNL     1       6.649 -10.474  -5.872  1.00  0.00     0.211 HD
ENDBRANCH   4  11
BRANCH   6  13
ATOM     13  O   UNL     1       4.553  -6.652  -5.778  1.00  0.00    -0.387 OA
ATOM     14  H   UNL     1       3.591  -6.420  -5.742  1.00  0.00     0.211 HD
ENDBRANCH   6  13
BRANCH   7  15
ATOM     15  O   UNL     1       4.289  -8.861  -3.031  1.00  0.00    -0.385 OA
ATOM     16  H   UNL     1       3.609  -8.406  -2.467  1.00  0.00     0.211 HD
ENDBRANCH   7  15
ENDBRANCH   1   2
BRANCH   1  17
ATOM     17  C   UNL     1       7.165  -8.535  -1.112  1.00  0.00     0.224 C 
ATOM     18  C   UNL     1       8.250  -8.006  -0.139  1.00  0.00     0.208 C 
ATOM     19  O   UNL     1       6.042  -8.950  -0.352  1.00  0.00    -0.337 OA
ATOM     20  C   UNL     1       7.644  -8.207   1.234  1.00  0.00     0.180 C 
ATOM     21  C   UNL     1       6.484  -9.161   0.969  1.00  0.00     0.179 C 
BRANCH  17  22
ATOM     22  C   UNL     1       7.694  -9.761  -1.880  1.00  0.00     0.225 C 
BRANCH  22  23
ATOM     23  O   UNL     1       9.074  -9.890  -1.679  1.00  0.00    -0.391 OA
ATOM     24  H   UNL     1       9.294  -9.327  -0.893  1.00  0.00     0.210 HD
ENDBRANCH  22  23
ENDBRANCH  17  22
BRANCH  18  25
ATOM     25  O   UNL     1       8.533  -6.647  -0.366  1.00  0.00    -0.385 OA
ATOM     26  H   UNL     1       7.687  -6.151  -0.207  1.00  0.00     0.211 HD
ENDBRANCH  18  25
BRANCH  20  27
ATOM     27  O   UNL     1       8.584  -8.779   2.107  1.00  0.00    -0.387 OA
ATOM     28  H   UNL     1       8.580  -8.226   2.931  1.00  0.00     0.211 HD
ENDBRANCH  20  27
BRANCH  21  29
ATOM     29  C   UNL     1       5.315  -8.947   1.938  1.00  0.00     0.191 C 
BRANCH  29  30
ATOM     30  O   UNL     1       4.305  -8.190   1.324  1.00  0.00    -0.394 OA
ATOM     31  H   UNL     1       3.532  -8.167   1.946  1.00  0.00     0.210 HD
ENDBRANCH  29  30
ENDBRANCH  21  29
ENDBRANCH   1  17
TORSDOF 13
ENDMDL
MODEL 2
REMARK VINA RESULT:    -3.635      1.434      3.287
REMARK INTER + INTRA:          -6.773
REMARK INTER:                  -5.499
REMARK INTRA:                  -1.274
REMARK UNBOUND:                -1.226
REMARK SMILES OC[C@@H]1O[C@@H](O[C@]2(CO)O[C@H](CO)[C@@H](O)[C@@H]2O)[C@H](O)[C@@H](O)[C@@H]1O
REMARK SMILES IDX 6 1 5 2 3 3 22 4 4 5 20 6 18 7 2 8 1 9 23 11 21 13 19 15
REMARK SMILES IDX 7 17 16 18 10 19 14 20 11 21 8 22 9 23 17 25 15 27 12 29
REMARK SMILES IDX 13 30
REMARK H PARENT 1 10 23 12 21 14 19 16 9 24 17 26 15 28 13 31
REMARK Flexibility Score: inf
ROOT
ATOM      1  O   UNL     1       7.581  -9.171  -1.964  1.00  0.00    -0.313 OA
ENDROOT
BRANCH   1   2
ATOM      2  C   UNL     1       7.475  -8.610  -3.267  1.00  0.00     0.285 C 
ATOM      3  C   UNL     1       6.103  -8.421  -5.188  1.00  0.00     0.178 C 
ATOM      4  C   UNL     1       7.340  -7.747  -5.867  1.00  0.00     0.177 C 
ATOM      5  O   UNL     1       6.398  -9.163  -4.005  1.00  0.00    -0.341 OA
ATOM      6  C   UNL     1       8.623  -8.549  -5.557  1.00  0.00     0.179 C 
ATOM      7  C   UNL     1       8.822  -8.732  -4.030  1.00  0.00     0.202 C 
BRANCH   3   8
ATOM      8  C   UNL     1       4.948  -7.444  -4.932  1.00  0.00     0.191 C 
BRANCH   8   9
ATOM      9  O   UNL     1       4.699  -6.687  -6.088  1.00  0.00    -0.394 OA
ATOM     10  H   UNL     1       3.863  -6.174  -5.933  1.00  0.00     0.210 HD
ENDBRANCH   8   9
ENDBRANCH   3   8
BRANCH   4  11
ATOM     11  O   UNL     1       7.491  -6.424  -5.417  1.00  0.00    -0.387 OA
ATOM     12  H   UNL     1       6.734  -6.235  -4.804  1.00  0.00     0.211 HD
ENDBRANCH   4  11
BRANCH   6  13
ATOM     13  O   UNL     1       8.605  -9.789  -6.227  1.00  0.00    -0.387 OA
ATOM     14  H   UNL     1       8.851 -10.496  -5.579  1.00  0.00     0.211 HD
ENDBRANCH   6  13
BRANCH   7  15
ATOM     15  O   UNL     1       9.713  -7.752  -3.560  1.00  0.00    -0.385 OA
ATOM     16  H   UNL     1       9.420  -7.515  -2.640  1.00  0.00     0.211 HD
ENDBRANCH   7  15
ENDBRANCH   1   2
BRANCH   1  17
ATOM     17  C   UNL     1       7.137  -8.356  -0.877  1.00  0.00     0.224 C 
ATOM     18  C   UNL     1       5.617  -8.543  -0.634  1.00  0.00     0.208 C 
ATOM     19  O   UNL     1       7.824  -8.628   0.332  1.00  0.00    -0.337 OA
ATOM     20  C   UNL     1       5.520  -8.902   0.834  1.00  0.00     0.180 C 
ATOM     21  C   UNL     1       6.891  -8.514   1.381  1.00  0.00     0.179 C 
BRANCH  17  22
ATOM     22  C   UNL     1       7.434  -6.896  -1.270  1.00  0.00     0.225 C 
BRANCH  22  23
ATOM     23  O   UNL     1       8.693  -6.518  -0.785  1.00  0.00    -0.391 OA
ATOM     24  H   UNL     1       8.530  -6.044   0.071  1.00  0.00     0.210 HD
ENDBRANCH  22  23
ENDBRANCH  17  22
BRANCH  18  25
ATOM     25  O   UNL     1       5.086  -9.570  -1.435  1.00  0.00    -0.385 OA
ATOM     26  H   UNL     1       5.848  -9.960  -1.939  1.00  0.00     0.211 HD
ENDBRANCH  18  25
BRANCH  20  27
ATOM     27  O   UNL     1       4.497  -8.166   1.453  1.00  0.00    -0.387 OA
ATOM     28  H   UNL     1       4.243  -7.445   0.821  1.00  0.00     0.211 HD
ENDBRANCH  20  27
BRANCH  21  29
ATOM     29  C   UNL     1       7.327  -9.401   2.552  1.00  0.00     0.191 C 
BRANCH  29  30
ATOM     30  O   UNL     1       6.258  -9.597   3.440  1.00  0.00    -0.394 OA
ATOM     31  H   UNL     1       6.388  -8.976   4.203  1.00  0.00     0.210 HD
ENDBRANCH  29  30
ENDBRANCH  21  29
ENDBRANCH   1  17
TORSDOF 13
ENDMDL
MODEL 3
REMARK VINA RESULT:    -3.531      2.314      6.601
REMARK INTER + INTRA:          -6.614
REMARK INTER:                  -5.135
REMARK INTRA:                  -1.479
REMARK UNBOUND:                -1.226
REMARK SMILES OC[C@@H]1O[C@@H](O[C@]2(CO)O[C@H](CO)[C@@H](O)[C@@H]2O)[C@H](O)[C@@H](O)[C@@H]1O
REMARK SMILES IDX 6 1 5 2 3 3 22 4 4 5 20 6 18 7 2 8 1 9 23 11 21 13 19 15
REMARK SMILES IDX 7 17 16 18 10 19 14 20 11 21 8 22 9 23 17 25 15 27 12 29
REMARK SMILES IDX 13 30
REMARK H PARENT 1 10 23 12 21 14 19 16 9 24 17 26 15 28 13 31
REMARK Flexibility Score: inf
ROOT
ATOM      1  O   UNL     1       4.930  -7.202  -5.324  1.00  0.00    -0.313 OA
ENDROOT
BRANCH   1   2
ATOM      2  C   UNL     1       5.877  -7.542  -4.319  1.00  0.00     0.285 C 
ATOM      3  C   UNL     1       6.165  -8.049  -2.024  1.00  0.00     0.178 C 
ATOM      4  C   UNL     1       7.700  -7.960  -2.312  1.00  0.00     0.177 C 
ATOM      5  O   UNL     1       5.333  -7.446  -3.013  1.00  0.00    -0.341 OA
ATOM      6  C   UNL     1       8.011  -6.713  -3.168  1.00  0.00     0.179 C 
ATOM      7  C   UNL     1       7.169  -6.695  -4.470  1.00  0.00     0.202 C 
BRANCH   3   8
ATOM      8  C   UNL     1       5.690  -9.477  -1.723  1.00  0.00     0.191 C 
BRANCH   8   9
ATOM      9  O   UNL     1       4.340  -9.616  -2.083  1.00  0.00    -0.394 OA
ATOM     10  H   UNL     1       4.309 -10.135  -2.928  1.00  0.00     0.210 HD
ENDBRANCH   8   9
ENDBRANCH   3   8
BRANCH   4  11
ATOM     11  O   UNL     1       8.144  -9.114  -2.981  1.00  0.00    -0.387 OA
ATOM     12  H   UNL     1       8.649  -9.658  -2.323  1.00  0.00     0.211 HD
ENDBRANCH   4  11
BRANCH   6  13
ATOM     13  O   UNL     1       7.822  -5.537  -2.414  1.00  0.00    -0.387 OA
ATOM     14  H   UNL     1       7.728  -5.790  -1.461  1.00  0.00     0.211 HD
ENDBRANCH   6  13
BRANCH   7  15
ATOM     15  O   UNL     1       7.941  -7.208  -5.526  1.00  0.00    -0.385 OA
ATOM     16  H   UNL     1       8.869  -7.302  -5.184  1.00  0.00     0.211 HD
ENDBRANCH   7  15
ENDBRANCH   1   2
BRANCH   1  17
ATOM     17  C   UNL     1       4.846  -8.081  -6.449  1.00  0.00     0.224 C 
ATOM     18  C   UNL     1       5.159  -7.322  -7.764  1.00  0.00     0.208 C 
ATOM     19  O   UNL     1       5.724  -9.190  -6.348  1.00  0.00    -0.337 OA
ATOM     20  C   UNL     1       6.262  -8.137  -8.407  1.00  0.00     0.180 C 
ATOM     21  C   UNL     1       6.214  -9.457  -7.641  1.00  0.00     0.179 C 
BRANCH  17  22
ATOM     22  C   UNL     1       3.404  -8.623  -6.480  1.00  0.00     0.225 C 
BRANCH  22  23
ATOM     23  O   UNL     1       2.506  -7.573  -6.710  1.00  0.00    -0.391 OA
ATOM     24  H   UNL     1       2.309  -7.176  -5.823  1.00  0.00     0.210 HD
ENDBRANCH  22  23
ENDBRANCH  17  22
BRANCH  18  25
ATOM     25  O   UNL     1       5.591  -6.007  -7.514  1.00  0.00    -0.385 OA
ATOM     26  H   UNL     1       6.566  -5.989  -7.701  1.00  0.00     0.211 HD
ENDBRANCH  18  25
BRANCH  20  27
ATOM     27  O   UNL     1       5.999  -8.330  -9.772  1.00  0.00    -0.387 OA
ATOM     28  H   UNL     1       5.594  -7.488 -10.105  1.00  0.00     0.211 HD
ENDBRANCH  20  27
BRANCH  21  29
ATOM     29  C   UNL     1       7.590 -10.124  -7.538  1.00  0.00     0.191 C 
BRANCH  29  30
ATOM     30  O   UNL     1       8.149  -9.895  -6.271  1.00  0.00    -0.394 OA
ATOM     31  H   UNL     1       9.130 -10.025  -6.352  1.00  0.00     0.210 HD
ENDBRANCH  29  30
ENDBRANCH  21  29
ENDBRANCH   1  17
TORSDOF 13
ENDMDL
MODEL 4
REMARK VINA RESULT:    -3.502      1.789      5.868
REMARK INTER + INTRA:          -6.570
REMARK INTER:                  -4.807
REMARK INTRA:                  -1.763
REMARK UNBOUND:                -1.226
REMARK SMILES OC[C@@H]1O[C@@H](O[C@]2(CO)O[C@H](CO)[C@@H](O)[C@@H]2O)[C@H](O)[C@@H](O)[C@@H]1O
REMARK SMILES IDX 6 1 5 2 3 3 22 4 4 5 20 6 18 7 2 8 1 9 23 11 21 13 19 15
REMARK SMILES IDX 7 17 16 18 10 19 14 20 11 21 8 22 9 23 17 25 15 27 12 29
REMARK SMILES IDX 13 30
REMARK H PARENT 1 10 23 12 21 14 19 16 9 24 17 26 15 28 13 31
REMARK Flexibility Score: inf
ROOT
ATOM      1  O   UNL     1       6.473  -8.963  -4.427  1.00  0.00    -0.313 OA
ENDROOT
BRANCH   1   2
ATOM      2  C   UNL     1       7.022  -8.514  -3.195  1.00  0.00     0.285 C 
ATOM      3  C   UNL     1       8.794  -8.795  -1.649  1.00  0.00     0.178 C 
ATOM      4  C   UNL     1       7.978  -7.846  -0.712  1.00  0.00     0.177 C 
ATOM      5  O   UNL     1       8.046  -9.372  -2.718  1.00  0.00    -0.341 OA
ATOM      6  C   UNL     1       6.490  -8.255  -0.701  1.00  0.00     0.179 C 
ATOM      7  C   UNL     1       5.905  -8.304  -2.138  1.00  0.00     0.202 C 
BRANCH   3   8
ATOM      8  C   UNL     1      10.083  -8.155  -2.183  1.00  0.00     0.191 C 
BRANCH   8   9
ATOM      9  O   UNL     1       9.780  -7.289  -3.246  1.00  0.00    -0.394 OA
ATOM     10  H   UNL     1       8.823  -7.421  -3.473  1.00  0.00     0.210 HD
ENDBRANCH   8   9
ENDBRANCH   3   8
BRANCH   4  11
ATOM     11  O   UNL     1       8.098  -6.511  -1.137  1.00  0.00    -0.387 OA
ATOM     12  H   UNL     1       7.637  -5.947  -0.464  1.00  0.00     0.211 HD
ENDBRANCH   4  11
BRANCH   6  13
ATOM     13  O   UNL     1       6.320  -9.485  -0.033  1.00  0.00    -0.387 OA
ATOM     14  H   UNL     1       5.435  -9.855  -0.283  1.00  0.00     0.211 HD
ENDBRANCH   6  13
BRANCH   7  15
ATOM     15  O   UNL     1       5.234  -7.099  -2.404  1.00  0.00    -0.385 OA
ATOM     16  H   UNL     1       5.721  -6.657  -3.148  1.00  0.00     0.211 HD
ENDBRANCH   7  15
ENDBRANCH   1   2
BRANCH   1  17
ATOM     17  C   UNL     1       6.826  -8.218  -5.595  1.00  0.00     0.224 C 
ATOM     18  C   UNL     1       5.606  -7.427  -6.133  1.00  0.00     0.208 C 
ATOM     19  O   UNL     1       7.888  -7.307  -5.368  1.00  0.00    -0.337 OA
ATOM     20  C   UNL     1       6.103  -5.999  -6.224  1.00  0.00     0.180 C 
ATOM     21  C   UNL     1       7.618  -6.148  -6.121  1.00  0.00     0.179 C 
BRANCH  17  22
ATOM     22  C   UNL     1       7.298  -9.241  -6.646  1.00  0.00     0.225 C 
BRANCH  22  23
ATOM     23  O   UNL     1       6.470  -9.183  -7.774  1.00  0.00    -0.391 OA
ATOM     24  H   UNL     1       5.560  -8.971  -7.440  1.00  0.00     0.210 HD
ENDBRANCH  22  23
ENDBRANCH  17  22
BRANCH  18  25
ATOM     25  O   UNL     1       4.505  -7.517  -5.262  1.00  0.00    -0.385 OA
ATOM     26  H   UNL     1       4.269  -8.480  -5.201  1.00  0.00     0.211 HD
ENDBRANCH  18  25
BRANCH  20  27
ATOM     27  O   UNL     1       5.730  -5.427  -7.451  1.00  0.00    -0.387 OA
ATOM     28  H   UNL     1       6.561  -5.080  -7.867  1.00  0.00     0.211 HD
ENDBRANCH  20  27
BRANCH  21  29
ATOM     29  C   UNL     1       8.282  -4.939  -5.453  1.00  0.00     0.191 C 
BRANCH  29  30
ATOM     30  O   UNL     1       8.335  -5.119  -4.062  1.00  0.00    -0.394 OA
ATOM     31  H   UNL     1       7.669  -5.817  -3.828  1.00  0.00     0.210 HD
ENDBRANCH  29  30
ENDBRANCH  21  29
ENDBRANCH   1  17
TORSDOF 13
ENDMDL
MODEL 5
REMARK VINA RESULT:    -3.466      2.881      5.938
REMARK INTER + INTRA:          -6.515
REMARK INTER:                  -4.861
REMARK INTRA:                  -1.654
REMARK UNBOUND:                -1.226
REMARK SMILES OC[C@@H]1O[C@@H](O[C@]2(CO)O[C@H](CO)[C@@H](O)[C@@H]2O)[C@H](O)[C@@H](O)[C@@H]1O
REMARK SMILES IDX 6 1 5 2 3 3 22 4 4 5 20 6 18 7 2 8 1 9 23 11 21 13 19 15
REMARK SMILES IDX 7 17 16 18 10 19 14 20 11 21 8 22 9 23 17 25 15 27 12 29
REMARK SMILES IDX 13 30
REMARK H PARENT 1 10 23 12 21 14 19 16 9 24 17 26 15 28 13 31
REMARK Flexibility Score: inf
ROOT
ATOM      1  O   UNL     1       7.360  -7.323  -6.663  1.00  0.00    -0.313 OA
ENDROOT
BRANCH   1   2
ATOM      2  C   UNL     1       6.666  -7.643  -5.464  1.00  0.00     0.285 C 
ATOM      3  C   UNL     1       6.755  -8.885  -3.449  1.00  0.00     0.178 C 
ATOM      4  C   UNL     1       5.259  -8.469  -3.259  1.00  0.00     0.177 C 
ATOM      5  O   UNL     1       7.254  -8.735  -4.777  1.00  0.00    -0.341 OA
ATOM      6  C   UNL     1       4.481  -8.649  -4.580  1.00  0.00     0.179 C 
ATOM      7  C   UNL     1       5.159  -7.881  -5.746  1.00  0.00     0.202 C 
BRANCH   3   8
ATOM      8  C   UNL     1       7.701  -8.215  -2.443  1.00  0.00     0.191 C 
BRANCH   8   9
ATOM      9  O   UNL     1       8.932  -7.939  -3.058  1.00  0.00    -0.394 OA
ATOM     10  H   UNL     1       8.935  -8.399  -3.938  1.00  0.00     0.210 HD
ENDBRANCH   8   9
ENDBRANCH   3   8
BRANCH   4  11
ATOM     11  O   UNL     1       5.169  -7.130  -2.837  1.00  0.00    -0.387 OA
ATOM     12  H   UNL     1       6.096  -6.793  -2.732  1.00  0.00     0.211 HD
ENDBRANCH   4  11
BRANCH   6  13
ATOM     13  O   UNL     1       4.331 -10.018  -4.883  1.00  0.00    -0.387 OA
ATOM     14  H   UNL     1       5.150 -10.325  -5.348  1.00  0.00     0.211 HD
ENDBRANCH   6  13
BRANCH   7  15
ATOM     15  O   UNL     1       4.516  -6.643  -5.917  1.00  0.00    -0.385 OA
ATOM     16  H   UNL     1       4.378  -6.525  -6.894  1.00  0.00     0.211 HD
ENDBRANCH   7  15
ENDBRANCH   1   2
BRANCH   1  17
ATOM     17  C   UNL     1       8.490  -6.456  -6.539  1.00  0.00     0.224 C 
ATOM     18  C   UNL     1       8.399  -5.286  -7.552  1.00  0.00     0.208 C 
ATOM     19  O   UNL     1       8.628  -5.915  -5.236  1.00  0.00    -0.337 OA
ATOM     20  C   UNL     1       8.544  -4.045  -6.696  1.00  0.00     0.180 C 
ATOM     21  C   UNL     1       9.086  -4.590  -5.377  1.00  0.00     0.179 C 
BRANCH  17  22
ATOM     22  C   UNL     1       9.738  -7.312  -6.829  1.00  0.00     0.225 C 
BRANCH  22  23
ATOM     23  O   UNL     1      10.068  -8.072  -5.700  1.00  0.00    -0.391 OA
ATOM     24  H   UNL     1      10.373  -7.427  -5.011  1.00  0.00     0.210 HD
ENDBRANCH  22  23
ENDBRANCH  17  22
BRANCH  18  25
ATOM     25  O   UNL     1       7.168  -5.282  -8.231  1.00  0.00    -0.385 OA
ATOM     26  H   UNL     1       7.290  -5.840  -9.043  1.00  0.00     0.211 HD
ENDBRANCH  18  25
BRANCH  20  27
ATOM     27  O   UNL     1       9.448  -3.145  -7.284  1.00  0.00    -0.387 OA
ATOM     28  H   UNL     1       9.911  -3.640  -8.008  1.00  0.00     0.211 HD
ENDBRANCH  20  27
BRANCH  21  29
ATOM     29  C   UNL     1       8.632  -3.762  -4.170  1.00  0.00     0.191 C 
BRANCH  29  30
ATOM     30  O   UNL     1       9.164  -2.465  -4.241  1.00  0.00    -0.394 OA
ATOM     31  H   UNL     1       8.428  -1.858  -4.518  1.00  0.00     0.210 HD
ENDBRANCH  29  30
ENDBRANCH  21  29
ENDBRANCH   1  17
TORSDOF 13
ENDMDL
MODEL 6
REMARK VINA RESULT:    -3.426      1.549      1.904
REMARK INTER + INTRA:          -6.454
REMARK INTER:                  -5.251
REMARK INTRA:                  -1.203
REMARK UNBOUND:                -1.226
REMARK SMILES OC[C@@H]1O[C@@H](O[C@]2(CO)O[C@H](CO)[C@@H](O)[C@@H]2O)[C@H](O)[C@@H](O)[C@@H]1O
REMARK SMILES IDX 6 1 5 2 3 3 22 4 4 5 20 6 18 7 2 8 1 9 23 11 21 13 19 15
REMARK SMILES IDX 7 17 16 18 10 19 14 20 11 21 8 22 9 23 17 25 15 27 12 29
REMARK SMILES IDX 13 30
REMARK H PARENT 1 10 23 12 21 14 19 16 9 24 17 26 15 28 13 31
REMARK Flexibility Score: inf
ROOT
ATOM      1  O   UNL     1       6.445  -7.146  -3.622  1.00  0.00    -0.313 OA
ENDROOT
BRANCH   1   2
ATOM      2  C   UNL     1       5.991  -7.805  -4.798  1.00  0.00     0.285 C 
ATOM      3  C   UNL     1       5.968  -7.745  -7.165  1.00  0.00     0.178 C 
ATOM      4  C   UNL     1       4.932  -8.913  -7.073  1.00  0.00     0.177 C 
ATOM      5  O   UNL     1       6.148  -7.006  -5.958  1.00  0.00    -0.341 OA
ATOM      6  C   UNL     1       3.871  -8.603  -5.996  1.00  0.00     0.179 C 
ATOM      7  C   UNL     1       4.528  -8.294  -4.625  1.00  0.00     0.202 C 
BRANCH   3   8
ATOM      8  C   UNL     1       7.326  -8.185  -7.729  1.00  0.00     0.191 C 
BRANCH   8   9
ATOM      9  O   UNL     1       7.153  -8.746  -9.005  1.00  0.00    -0.394 OA
ATOM     10  H   UNL     1       7.683  -8.201  -9.643  1.00  0.00     0.210 HD
ENDBRANCH   8   9
ENDBRANCH   3   8
BRANCH   4  11
ATOM     11  O   UNL     1       5.579 -10.123  -6.763  1.00  0.00    -0.387 OA
ATOM     12  H   UNL     1       6.027 -10.000  -5.887  1.00  0.00     0.211 HD
ENDBRANCH   4  11
BRANCH   6  13
ATOM     13  O   UNL     1       3.034  -7.549  -6.416  1.00  0.00    -0.387 OA
ATOM     14  H   UNL     1       3.585  -6.893  -6.913  1.00  0.00     0.211 HD
ENDBRANCH   6  13
BRANCH   7  15
ATOM     15  O   UNL     1       4.515  -9.456  -3.835  1.00  0.00    -0.385 OA
ATOM     16  H   UNL     1       4.167  -9.192  -2.942  1.00  0.00     0.211 HD
ENDBRANCH   7  15
ENDBRANCH   1   2
BRANCH   1  17
ATOM     17  C   UNL     1       7.321  -7.887  -2.769  1.00  0.00     0.224 C 
ATOM     18  C   UNL     1       8.365  -6.952  -2.106  1.00  0.00     0.208 C 
ATOM     19  O   UNL     1       6.632  -8.589  -1.749  1.00  0.00    -0.337 OA
ATOM     20  C   UNL     1       8.222  -7.231  -0.624  1.00  0.00     0.180 C 
ATOM     21  C   UNL     1       7.429  -8.535  -0.589  1.00  0.00     0.179 C 
BRANCH  17  22
ATOM     22  C   UNL     1       8.031  -8.925  -3.659  1.00  0.00     0.225 C 
BRANCH  22  23
ATOM     23  O   UNL     1       9.338  -8.504  -3.933  1.00  0.00    -0.391 OA
ATOM     24  H   UNL     1       9.700  -8.150  -3.080  1.00  0.00     0.210 HD
ENDBRANCH  22  23
ENDBRANCH  17  22
BRANCH  18  25
ATOM     25  O   UNL     1       8.101  -5.599  -2.386  1.00  0.00    -0.385 OA
ATOM     26  H   UNL     1       8.974  -5.178  -2.604  1.00  0.00     0.211 HD
ENDBRANCH  18  25
BRANCH  20  27
ATOM     27  O   UNL     1       9.484  -7.386  -0.030  1.00  0.00    -0.387 OA
ATOM     28  H   UNL     1      10.148  -7.037  -0.679  1.00  0.00     0.211 HD
ENDBRANCH  20  27
BRANCH  21  29
ATOM     29  C   UNL     1       6.535  -8.644   0.652  1.00  0.00     0.191 C 
BRANCH  29  30
ATOM     30  O   UNL     1       5.226  -8.242   0.345  1.00  0.00    -0.394 OA
ATOM     31  H   UNL     1       4.750  -9.034  -0.019  1.00  0.00     0.210 HD
ENDBRANCH  29  30
ENDBRANCH  21  29
ENDBRANCH   1  17
TORSDOF 13
ENDMDL
MODEL 7
REMARK VINA RESULT:    -3.368      1.656      6.144
REMARK INTER + INTRA:          -6.367
REMARK INTER:                  -5.002
REMARK INTRA:                  -1.365
REMARK UNBOUND:                -1.226
REMARK SMILES OC[C@@H]1O[C@@H](O[C@]2(CO)O[C@H](CO)[C@@H](O)[C@@H]2O)[C@H](O)[C@@H](O)[C@@H]1O
REMARK SMILES IDX 6 1 5 2 3 3 22 4 4 5 20 6 18 7 2 8 1 9 23 11 21 13 19 15
REMARK SMILES IDX 7 17 16 18 10 19 14 20 11 21 8 22 9 23 17 25 15 27 12 29
REMARK SMILES IDX 13 30
REMARK H PARENT 1 10 23 12 21 14 19 16 9 24 17 26 15 28 13 31
REMARK Flexibility Score: inf
ROOT
ATOM      1  O   UNL     1       7.037  -7.397  -3.853  1.00  0.00    -0.313 OA
ENDROOT
BRANCH   1   2
ATOM      2  C   UNL     1       7.585  -7.789  -2.601  1.00  0.00     0.285 C 
ATOM      3  C   UNL     1       7.149  -8.025  -0.285  1.00  0.00     0.178 C 
ATOM      4  C   UNL     1       8.680  -8.307  -0.140  1.00  0.00     0.177 C 
ATOM      5  O   UNL     1       6.768  -7.400  -1.510  1.00  0.00    -0.341 OA
ATOM      6  C   UNL     1       9.493  -7.286  -0.965  1.00  0.00     0.179 C 
ATOM      7  C   UNL     1       9.039  -7.268  -2.449  1.00  0.00     0.202 C 
BRANCH   3   8
ATOM      8  C   UNL     1       6.279  -9.262  -0.023  1.00  0.00     0.191 C 
BRANCH   8   9
ATOM      9  O   UNL     1       5.083  -9.167  -0.752  1.00  0.00    -0.394 OA
ATOM     10  H   UNL     1       5.325  -9.024  -1.704  1.00  0.00     0.210 HD
ENDBRANCH   8   9
ENDBRANCH   3   8
BRANCH   4  11
ATOM     11  O   UNL     1       8.985  -9.611  -0.569  1.00  0.00    -0.387 OA
ATOM     12  H   UNL     1       8.726  -9.672  -1.525  1.00  0.00     0.211 HD
ENDBRANCH   4  11
BRANCH   6  13
ATOM     13  O   UNL     1       9.411  -6.004  -0.385  1.00  0.00    -0.387 OA
ATOM     14  H   UNL     1      10.007  -5.982   0.406  1.00  0.00     0.211 HD
ENDBRANCH   6  13
BRANCH   7  15
ATOM     15  O   UNL     1       9.905  -8.076  -3.206  1.00  0.00    -0.385 OA
ATOM     16  H   UNL     1      10.210  -7.527  -3.976  1.00  0.00     0.211 HD
ENDBRANCH   7  15
ENDBRANCH   1   2
BRANCH   1  17
ATOM     17  C   UNL     1       6.365  -8.411  -4.604  1.00  0.00     0.224 C 
ATOM     18  C   UNL     1       4.863  -8.472  -4.224  1.00  0.00     0.208 C 
ATOM     19  O   UNL     1       6.467  -8.218  -6.005  1.00  0.00    -0.337 OA
ATOM     20  C   UNL     1       4.141  -8.339  -5.549  1.00  0.00     0.180 C 
ATOM     21  C   UNL     1       5.239  -8.607  -6.574  1.00  0.00     0.179 C 
BRANCH  17  22
ATOM     22  C   UNL     1       7.053  -9.745  -4.260  1.00  0.00     0.225 C 
BRANCH  22  23
ATOM     23  O   UNL     1       8.192  -9.914  -5.057  1.00  0.00    -0.391 OA
ATOM     24  H   UNL     1       7.953 -10.593  -5.740  1.00  0.00     0.210 HD
ENDBRANCH  22  23
ENDBRANCH  17  22
BRANCH  18  25
ATOM     25  O   UNL     1       4.505  -7.426  -3.354  1.00  0.00    -0.385 OA
ATOM     26  H   UNL     1       4.228  -6.663  -3.927  1.00  0.00     0.211 HD
ENDBRANCH  18  25
BRANCH  20  27
ATOM     27  O   UNL     1       3.112  -9.290  -5.645  1.00  0.00    -0.387 OA
ATOM     28  H   UNL     1       3.234  -9.917  -4.886  1.00  0.00     0.211 HD
ENDBRANCH  20  27
BRANCH  21  29
ATOM     29  C   UNL     1       5.018  -7.841  -7.883  1.00  0.00     0.191 C 
BRANCH  29  30
ATOM     30  O   UNL     1       3.653  -7.818  -8.210  1.00  0.00    -0.394 OA
ATOM     31  H   UNL     1       3.161  -8.239  -7.457  1.00  0.00     0.210 HD
ENDBRANCH  29  30
ENDBRANCH  21  29
ENDBRANCH   1  17
TORSDOF 13
ENDMDL
MODEL 8
REMARK VINA RESULT:    -3.353      1.723      6.471
REMARK INTER + INTRA:          -6.343
REMARK INTER:                  -4.920
REMARK INTRA:                  -1.423
REMARK UNBOUND:                -1.226
REMARK SMILES OC[C@@H]1O[C@@H](O[C@]2(CO)O[C@H](CO)[C@@H](O)[C@@H]2O)[C@H](O)[C@@H](O)[C@@H]1O
REMARK SMILES IDX 6 1 5 2 3 3 22 4 4 5 20 6 18 7 2 8 1 9 23 11 21 13 19 15
REMARK SMILES IDX 7 17 16 18 10 19 14 20 11 21 8 22 9 23 17 25 15 27 12 29
REMARK SMILES IDX 13 30
REMARK H PARENT 1 10 23 12 21 14 19 16 9 24 17 26 15 28 13 31
REMARK Flexibility Score: inf
ROOT
ATOM      1  O   UNL     1       6.385  -7.252  -4.406  1.00  0.00    -0.313 OA
ENDROOT
BRANCH   1   2
ATOM      2  C   UNL     1       7.321  -7.474  -3.359  1.00  0.00     0.285 C 
ATOM      3  C   UNL     1       7.682  -7.330  -1.023  1.00  0.00     0.178 C 
ATOM      4  C   UNL     1       9.176  -7.661  -1.347  1.00  0.00     0.177 C 
ATOM      5  O   UNL     1       6.912  -6.883  -2.136  1.00  0.00    -0.341 OA
ATOM      6  C   UNL     1       9.662  -6.819  -2.547  1.00  0.00     0.179 C 
ATOM      7  C   UNL     1       8.740  -7.007  -3.780  1.00  0.00     0.202 C 
BRANCH   3   8
ATOM      8  C   UNL     1       6.956  -8.469  -0.293  1.00  0.00     0.191 C 
BRANCH   8   9
ATOM      9  O   UNL     1       5.568  -8.268  -0.358  1.00  0.00    -0.394 OA
ATOM     10  H   UNL     1       5.308  -8.293  -1.315  1.00  0.00     0.210 HD
ENDBRANCH   8   9
ENDBRANCH   3   8
BRANCH   4  11
ATOM     11  O   UNL     1       9.327  -9.028  -1.637  1.00  0.00    -0.387 OA
ATOM     12  H   UNL     1      10.154  -9.124  -2.177  1.00  0.00     0.211 HD
ENDBRANCH   4  11
BRANCH   6  13
ATOM     13  O   UNL     1       9.771  -5.461  -2.186  1.00  0.00    -0.387 OA
ATOM     14  H   UNL     1      10.728  -5.206  -2.219  1.00  0.00     0.211 HD
ENDBRANCH   6  13
BRANCH   7  15
ATOM     15  O   UNL     1       9.308  -7.962  -4.640  1.00  0.00    -0.385 OA
ATOM     16  H   UNL     1      10.266  -7.719  -4.747  1.00  0.00     0.211 HD
ENDBRANCH   7  15
ENDBRANCH   1   2
BRANCH   1  17
ATOM     17  C   UNL     1       5.797  -8.414  -4.997  1.00  0.00     0.224 C 
ATOM     18  C   UNL     1       4.646  -8.019  -5.958  1.00  0.00     0.208 C 
ATOM     19  O   UNL     1       6.733  -9.201  -5.713  1.00  0.00    -0.337 OA
ATOM     20  C   UNL     1       5.007  -8.697  -7.264  1.00  0.00     0.180 C 
ATOM     21  C   UNL     1       6.073  -9.707  -6.850  1.00  0.00     0.179 C 
BRANCH  17  22
ATOM     22  C   UNL     1       5.249  -9.269  -3.839  1.00  0.00     0.225 C 
BRANCH  22  23
ATOM     23  O   UNL     1       4.340  -8.519  -3.080  1.00  0.00    -0.391 OA
ATOM     24  H   UNL     1       3.535  -8.403  -3.648  1.00  0.00     0.210 HD
ENDBRANCH  22  23
ENDBRANCH  17  22
BRANCH  18  25
ATOM     25  O   UNL     1       4.565  -6.625  -6.126  1.00  0.00    -0.385 OA
ATOM     26  H   UNL     1       3.946  -6.466  -6.886  1.00  0.00     0.211 HD
ENDBRANCH  18  25
BRANCH  20  27
ATOM     27  O   UNL     1       3.884  -9.336  -7.812  1.00  0.00    -0.387 OA
ATOM     28  H   UNL     1       4.171  -9.719  -8.681  1.00  0.00     0.211 HD
ENDBRANCH  20  27
BRANCH  21  29
ATOM     29  C   UNL     1       7.097  -9.967  -7.961  1.00  0.00     0.191 C 
BRANCH  29  30
ATOM     30  O   UNL     1       6.528  -9.708  -9.218  1.00  0.00    -0.394 OA
ATOM     31  H   UNL     1       7.068 -10.195  -9.894  1.00  0.00     0.210 HD
ENDBRANCH  29  30
ENDBRANCH  21  29
ENDBRANCH   1  17
TORSDOF 13
ENDMDL
MODEL 9
REMARK VINA RESULT:    -3.289      2.004      3.523
REMARK INTER + INTRA:          -6.246
REMARK INTER:                  -4.480
REMARK INTRA:                  -1.766
REMARK UNBOUND:                -1.226
REMARK SMILES OC[C@@H]1O[C@@H](O[C@]2(CO)O[C@H](CO)[C@@H](O)[C@@H]2O)[C@H](O)[C@@H](O)[C@@H]1O
REMARK SMILES IDX 6 1 5 2 3 3 22 4 4 5 20 6 18 7 2 8 1 9 23 11 21 13 19 15
REMARK SMILES IDX 7 17 16 18 10 19 14 20 11 21 8 22 9 23 17 25 15 27 12 29
REMARK SMILES IDX 13 30
REMARK H PARENT 1 10 23 12 21 14 19 16 9 24 17 26 15 28 13 31
REMARK Flexibility Score: inf
ROOT
ATOM      1  O   UNL     1       5.893  -7.208  -3.447  1.00  0.00    -0.313 OA
ENDROOT
BRANCH   1   2
ATOM      2  C   UNL     1       5.613  -7.669  -4.763  1.00  0.00     0.285 C 
ATOM      3  C   UNL     1       5.594  -7.080  -7.057  1.00  0.00     0.178 C 
ATOM      4  C   UNL     1       4.858  -8.441  -7.285  1.00  0.00     0.177 C 
ATOM      5  O   UNL     1       5.588  -6.612  -5.710  1.00  0.00    -0.341 OA
ATOM      6  C   UNL     1       3.745  -8.629  -6.231  1.00  0.00     0.179 C 
ATOM      7  C   UNL     1       4.303  -8.499  -4.789  1.00  0.00     0.202 C 
BRANCH   3   8
ATOM      8  C   UNL     1       7.021  -7.063  -7.622  1.00  0.00     0.191 C 
BRANCH   8   9
ATOM      9  O   UNL     1       7.901  -7.669  -6.712  1.00  0.00    -0.394 OA
ATOM     10  H   UNL     1       8.065  -8.596  -7.029  1.00  0.00     0.210 HD
ENDBRANCH   8   9
ENDBRANCH   3   8
BRANCH   4  11
ATOM     11  O   UNL     1       5.766  -9.512  -7.210  1.00  0.00    -0.387 OA
ATOM     12  H   UNL     1       6.532  -9.208  -6.658  1.00  0.00     0.211 HD
ENDBRANCH   4  11
BRANCH   6  13
ATOM     13  O   UNL     1       2.689  -7.724  -6.459  1.00  0.00    -0.387 OA
ATOM     14  H   UNL     1       2.989  -6.821  -6.183  1.00  0.00     0.211 HD
ENDBRANCH   6  13
BRANCH   7  15
ATOM     15  O   UNL     1       4.555  -9.783  -4.275  1.00  0.00    -0.385 OA
ATOM     16  H   UNL     1       4.999  -9.657  -3.395  1.00  0.00     0.211 HD
ENDBRANCH   7  15
ENDBRANCH   1   2
BRANCH   1  17
ATOM     17  C   UNL     1       7.173  -7.547  -2.908  1.00  0.00     0.224 C 
ATOM     18  C   UNL     1       7.029  -8.571  -1.753  1.00  0.00     0.208 C 
ATOM     19  O   UNL     1       8.055  -8.084  -3.879  1.00  0.00    -0.337 OA
ATOM     20  C   UNL     1       7.948  -9.708  -2.152  1.00  0.00     0.180 C 
ATOM     21  C   UNL     1       8.810  -9.093  -3.250  1.00  0.00     0.179 C 
BRANCH  17  22
ATOM     22  C   UNL     1       7.792  -6.238  -2.381  1.00  0.00     0.225 C 
BRANCH  22  23
ATOM     23  O   UNL     1       8.201  -6.405  -1.052  1.00  0.00    -0.391 OA
ATOM     24  H   UNL     1       7.664  -5.768  -0.514  1.00  0.00     0.210 HD
ENDBRANCH  22  23
ENDBRANCH  17  22
BRANCH  18  25
ATOM     25  O   UNL     1       5.704  -9.024  -1.623  1.00  0.00    -0.385 OA
ATOM     26  H   UNL     1       5.755  -9.959  -1.292  1.00  0.00     0.211 HD
ENDBRANCH  18  25
BRANCH  20  27
ATOM     27  O   UNL     1       8.729 -10.114  -1.058  1.00  0.00    -0.387 OA
ATOM     28  H   UNL     1       8.456 -11.043  -0.843  1.00  0.00     0.211 HD
ENDBRANCH  20  27
BRANCH  21  29
ATOM     29  C   UNL     1       9.254 -10.124  -4.293  1.00  0.00     0.191 C 
BRANCH  29  30
ATOM     30  O   UNL     1       8.407 -10.082  -5.412  1.00  0.00    -0.394 OA
ATOM     31  H   UNL     1       7.554  -9.665  -5.121  1.00  0.00     0.210 HD
ENDBRANCH  29  30
ENDBRANCH  21  29
ENDBRANCH   1  17
TORSDOF 13
ENDMDL
