MODEL 1
REMARK VINA RESULT:    -4.333      0.000      0.000
REMARK INTER + INTRA:          -6.079
REMARK INTER:                  -5.854
REMARK INTRA:                  -0.225
REMARK UNBOUND:                -0.225
REMARK SMILES CCCCCCCC(=O)[O-]
REMARK SMILES IDX 5 1 6 2 7 3 8 4 9 5 10 6 4 7 3 8 2 9 1 10
REMARK H PARENT
REMARK Flexibility Score: inf
ROOT
ATOM      1  C   UNL     1      -8.963  34.629   6.413  1.00  0.00     0.000 C 
ENDROOT
BRANCH   1   2
ATOM      2  C   UNL     1      -9.246  36.116   6.699  1.00  0.00     0.006 C 
BRANCH   2   3
ATOM      3  C   UNL     1      -8.605  37.088   5.695  1.00  0.00     0.053 C 
BRANCH   3   4
ATOM      4  C   UNL     1      -8.902  38.519   6.028  1.00  0.00     0.041 C 
ATOM      5  O   UNL     1     -10.032  39.008   5.766  1.00  0.00    -0.550 OA
ATOM      6  O   UNL     1      -7.942  39.300   6.657  1.00  0.00    -0.550 OA
ENDBRANCH   3   4
ENDBRANCH   2   3
ENDBRANCH   1   2
BRANCH   1   7
ATOM      7  C   UNL     1      -7.982  34.425   5.246  1.00  0.00     0.000 C 
BRANCH   7   8
ATOM      8  C   UNL     1      -6.645  33.816   5.700  1.00  0.00    -0.000 C 
BRANCH   8   9
ATOM      9  C   UNL     1      -6.814  32.443   6.364  1.00  0.00    -0.003 C 
ATOM     10  C   UNL     1      -5.468  31.740   6.523  1.00  0.00     0.004 C 
ENDBRANCH   8   9
ENDBRANCH   7   8
ENDBRANCH   1   7
TORSDOF 6
ENDMDL
MODEL 2
REMARK VINA RESULT:    -4.293      2.986      5.784
REMARK INTER + INTRA:          -6.024
REMARK INTER:                  -5.673
REMARK INTRA:                  -0.351
REMARK UNBOUND:                -0.225
REMARK SMILES CCCCCCCC(=O)[O-]
REMARK SMILES IDX 5 1 6 2 7 3 8 4 9 5 10 6 4 7 3 8 2 9 1 10
REMARK H PARENT
REMARK Flexibility Score: inf
ROOT
ATOM      1  C   UNL     1      -8.151  37.676   6.122  1.00  0.00     0.000 C 
ENDROOT
BRANCH   1   2
ATOM      2  C   UNL     1      -8.846  36.501   5.408  1.00  0.00     0.006 C 
BRANCH   2   3
ATOM      3  C   UNL     1      -8.835  35.182   6.198  1.00  0.00     0.053 C 
BRANCH   3   4
ATOM      4  C   UNL     1      -8.022  34.124   5.517  1.00  0.00     0.041 C 
ATOM      5  O   UNL     1      -6.776  34.075   5.688  1.00  0.00    -0.550 OA
ATOM      6  O   UNL     1      -8.646  33.171   4.723  1.00  0.00    -0.550 OA
ENDBRANCH   3   4
ENDBRANCH   2   3
ENDBRANCH   1   2
BRANCH   1   7
ATOM      7  C   UNL     1      -9.031  38.936   6.187  1.00  0.00     0.000 C 
BRANCH   7   8
ATOM      8  C   UNL     1     -10.431  38.709   5.592  1.00  0.00    -0.000 C 
BRANCH   8   9
ATOM      9  C   UNL     1     -11.540  39.384   6.411  1.00  0.00    -0.003 C 
ATOM     10  C   UNL     1     -11.433  39.014   7.889  1.00  0.00     0.004 C 
ENDBRANCH   8   9
ENDBRANCH   7   8
ENDBRANCH   1   7
TORSDOF 6
ENDMDL
MODEL 3
REMARK VINA RESULT:    -4.283      3.137      5.223
REMARK INTER + INTRA:          -6.010
REMARK INTER:                  -5.529
REMARK INTRA:                  -0.481
REMARK UNBOUND:                -0.225
REMARK SMILES CCCCCCCC(=O)[O-]
REMARK SMILES IDX 5 1 6 2 7 3 8 4 9 5 10 6 4 7 3 8 2 9 1 10
REMARK H PARENT
REMARK Flexibility Score: inf
ROOT
ATOM      1  C   UNL     1     -10.477  36.102   6.556  1.00  0.00     0.000 C 
ENDROOT
BRANCH   1   2
ATOM      2  C   UNL     1      -9.368  35.044   6.707  1.00  0.00     0.006 C 
BRANCH   2   3
ATOM      3  C   UNL     1      -8.235  35.161   5.674  1.00  0.00     0.053 C 
BRANCH   3   4
ATOM      4  C   UNL     1      -7.601  33.836   5.380  1.00  0.00     0.041 C 
ATOM      5  O   UNL     1      -6.432  33.592   5.779  1.00  0.00    -0.550 OA
ATOM      6  O   UNL     1      -8.312  32.859   4.697  1.00  0.00    -0.550 OA
ENDBRANCH   3   4
ENDBRANCH   2   3
ENDBRANCH   1   2
BRANCH   1   7
ATOM      7  C   UNL     1     -10.289  36.986   5.312  1.00  0.00     0.000 C 
BRANCH   7   8
ATOM      8  C   UNL     1     -10.310  38.487   5.646  1.00  0.00    -0.000 C 
BRANCH   8   9
ATOM      9  C   UNL     1      -9.385  38.846   6.818  1.00  0.00    -0.003 C 
ATOM     10  C   UNL     1      -7.922  38.849   6.382  1.00  0.00     0.004 C 
ENDBRANCH   8   9
ENDBRANCH   7   8
ENDBRANCH   1   7
TORSDOF 6
ENDMDL
MODEL 4
REMARK VINA RESULT:    -4.274      3.121      5.617
REMARK INTER + INTRA:          -5.999
REMARK INTER:                  -5.528
REMARK INTRA:                  -0.471
REMARK UNBOUND:                -0.225
REMARK SMILES CCCCCCCC(=O)[O-]
REMARK SMILES IDX 5 1 6 2 7 3 8 4 9 5 10 6 4 7 3 8 2 9 1 10
REMARK H PARENT
REMARK Flexibility Score: inf
ROOT
ATOM      1  C   UNL     1      -8.333  37.480   5.766  1.00  0.00     0.000 C 
ENDROOT
BRANCH   1   2
ATOM      2  C   UNL     1      -9.298  36.286   5.650  1.00  0.00     0.006 C 
BRANCH   2   3
ATOM      3  C   UNL     1      -9.384  35.414   6.914  1.00  0.00     0.053 C 
BRANCH   3   4
ATOM      4  C   UNL     1     -10.489  35.850   7.826  1.00  0.00     0.041 C 
ATOM      5  O   UNL     1     -11.679  35.519   7.582  1.00  0.00    -0.550 OA
ATOM      6  O   UNL     1     -10.202  36.593   8.963  1.00  0.00    -0.550 OA
ENDBRANCH   3   4
ENDBRANCH   2   3
ENDBRANCH   1   2
BRANCH   1   7
ATOM      7  C   UNL     1      -9.050  38.787   6.148  1.00  0.00     0.000 C 
BRANCH   7   8
ATOM      8  C   UNL     1     -10.477  38.865   5.582  1.00  0.00    -0.000 C 
BRANCH   8   9
ATOM      9  C   UNL     1     -11.520  39.226   6.649  1.00  0.00    -0.003 C 
ATOM     10  C   UNL     1     -12.515  40.255   6.118  1.00  0.00     0.004 C 
ENDBRANCH   8   9
ENDBRANCH   7   8
ENDBRANCH   1   7
TORSDOF 6
ENDMDL
MODEL 5
REMARK VINA RESULT:    -4.268      2.129      3.011
REMARK INTER + INTRA:          -5.991
REMARK INTER:                  -5.792
REMARK INTRA:                  -0.199
REMARK UNBOUND:                -0.225
REMARK SMILES CCCCCCCC(=O)[O-]
REMARK SMILES IDX 5 1 6 2 7 3 8 4 9 5 10 6 4 7 3 8 2 9 1 10
REMARK H PARENT
REMARK Flexibility Score: inf
ROOT
ATOM      1  C   UNL     1      -8.147  37.760   6.099  1.00  0.00     0.000 C 
ENDROOT
BRANCH   1   2
ATOM      2  C   UNL     1      -9.126  38.888   6.475  1.00  0.00     0.006 C 
BRANCH   2   3
ATOM      3  C   UNL     1     -10.422  38.904   5.650  1.00  0.00     0.053 C 
BRANCH   3   4
ATOM      4  C   UNL     1     -11.607  39.317   6.468  1.00  0.00     0.041 C 
ATOM      5  O   UNL     1     -11.903  38.685   7.516  1.00  0.00    -0.550 OA
ATOM      6  O   UNL     1     -12.363  40.418   6.093  1.00  0.00    -0.550 OA
ENDBRANCH   3   4
ENDBRANCH   2   3
ENDBRANCH   1   2
BRANCH   1   7
ATOM      7  C   UNL     1      -8.835  36.597   5.364  1.00  0.00     0.000 C 
BRANCH   7   8
ATOM      8  C   UNL     1      -8.698  35.261   6.113  1.00  0.00    -0.000 C 
BRANCH   8   9
ATOM      9  C   UNL     1      -7.690  34.311   5.451  1.00  0.00    -0.003 C 
ATOM     10  C   UNL     1      -8.383  33.057   4.923  1.00  0.00     0.004 C 
ENDBRANCH   8   9
ENDBRANCH   7   8
ENDBRANCH   1   7
TORSDOF 6
ENDMDL
MODEL 6
REMARK VINA RESULT:    -4.265      3.382      5.631
REMARK INTER + INTRA:          -5.986
REMARK INTER:                  -5.756
REMARK INTRA:                  -0.230
REMARK UNBOUND:                -0.225
REMARK SMILES CCCCCCCC(=O)[O-]
REMARK SMILES IDX 5 1 6 2 7 3 8 4 9 5 10 6 4 7 3 8 2 9 1 10
REMARK H PARENT
REMARK Flexibility Score: inf
ROOT
ATOM      1  C   UNL     1      -8.999  35.695   6.443  1.00  0.00     0.000 C 
ENDROOT
BRANCH   1   2
ATOM      2  C   UNL     1      -8.859  34.276   5.860  1.00  0.00     0.006 C 
BRANCH   2   3
ATOM      3  C   UNL     1      -7.422  33.887   5.478  1.00  0.00     0.053 C 
BRANCH   3   4
ATOM      4  C   UNL     1      -6.918  32.729   6.283  1.00  0.00     0.041 C 
ATOM      5  O   UNL     1      -7.717  32.040   6.969  1.00  0.00    -0.550 OA
ATOM      6  O   UNL     1      -5.572  32.390   6.248  1.00  0.00    -0.550 OA
ENDBRANCH   3   4
ENDBRANCH   2   3
ENDBRANCH   1   2
BRANCH   1   7
ATOM      7  C   UNL     1      -8.578  36.790   5.448  1.00  0.00     0.000 C 
BRANCH   7   8
ATOM      8  C   UNL     1      -8.193  38.105   6.147  1.00  0.00    -0.000 C 
BRANCH   8   9
ATOM      9  C   UNL     1      -9.410  38.865   6.692  1.00  0.00    -0.003 C 
ATOM     10  C   UNL     1     -10.507  38.974   5.636  1.00  0.00     0.004 C 
ENDBRANCH   8   9
ENDBRANCH   7   8
ENDBRANCH   1   7
TORSDOF 6
ENDMDL
MODEL 7
REMARK VINA RESULT:    -4.202      3.624      5.560
REMARK INTER + INTRA:          -5.901
REMARK INTER:                  -5.593
REMARK INTRA:                  -0.308
REMARK UNBOUND:                -0.225
REMARK SMILES CCCCCCCC(=O)[O-]
REMARK SMILES IDX 5 1 6 2 7 3 8 4 9 5 10 6 4 7 3 8 2 9 1 10
REMARK H PARENT
REMARK Flexibility Score: inf
ROOT
ATOM      1  C   UNL     1      -9.055  34.941   6.442  1.00  0.00     0.000 C 
ENDROOT
BRANCH   1   2
ATOM      2  C   UNL     1      -8.474  33.765   5.635  1.00  0.00     0.006 C 
BRANCH   2   3
ATOM      3  C   UNL     1      -6.953  33.590   5.775  1.00  0.00     0.053 C 
BRANCH   3   4
ATOM      4  C   UNL     1      -6.590  32.261   6.363  1.00  0.00     0.041 C 
ATOM      5  O   UNL     1      -7.487  31.411   6.608  1.00  0.00    -0.550 OA
ATOM      6  O   UNL     1      -5.260  31.947   6.608  1.00  0.00    -0.550 OA
ENDBRANCH   3   4
ENDBRANCH   2   3
ENDBRANCH   1   2
BRANCH   1   7
ATOM      7  C   UNL     1     -10.161  35.694   5.682  1.00  0.00     0.000 C 
BRANCH   7   8
ATOM      8  C   UNL     1      -9.825  37.180   5.472  1.00  0.00    -0.000 C 
BRANCH   8   9
ATOM      9  C   UNL     1      -8.381  37.522   5.866  1.00  0.00    -0.003 C 
ATOM     10  C   UNL     1      -8.298  38.912   6.493  1.00  0.00     0.004 C 
ENDBRANCH   8   9
ENDBRANCH   7   8
ENDBRANCH   1   7
TORSDOF 6
ENDMDL
MODEL 8
REMARK VINA RESULT:    -4.108      3.308      6.715
REMARK INTER + INTRA:          -5.774
REMARK INTER:                  -5.486
REMARK INTRA:                  -0.288
REMARK UNBOUND:                -0.225
REMARK SMILES CCCCCCCC(=O)[O-]
REMARK SMILES IDX 5 1 6 2 7 3 8 4 9 5 10 6 4 7 3 8 2 9 1 10
REMARK H PARENT
REMARK Flexibility Score: inf
ROOT
ATOM      1  C   UNL     1     -10.636  38.895   5.594  1.00  0.00     0.000 C 
ENDROOT
BRANCH   1   2
ATOM      2  C   UNL     1      -9.195  38.792   6.127  1.00  0.00     0.006 C 
BRANCH   2   3
ATOM      3  C   UNL     1      -8.516  37.438   5.863  1.00  0.00     0.053 C 
BRANCH   3   4
ATOM      4  C   UNL     1      -9.316  36.291   6.401  1.00  0.00     0.041 C 
ATOM      5  O   UNL     1      -9.509  36.181   7.640  1.00  0.00    -0.550 OA
ATOM      6  O   UNL     1      -9.876  35.365   5.532  1.00  0.00    -0.550 OA
ENDBRANCH   3   4
ENDBRANCH   2   3
ENDBRANCH   1   2
BRANCH   1   7
ATOM      7  C   UNL     1     -11.634  39.366   6.666  1.00  0.00     0.000 C 
BRANCH   7   8
ATOM      8  C   UNL     1     -12.734  40.272   6.090  1.00  0.00    -0.000 C 
BRANCH   8   9
ATOM      9  C   UNL     1     -13.067  41.458   7.008  1.00  0.00    -0.003 C 
ATOM     10  C   UNL     1     -12.694  41.152   8.456  1.00  0.00     0.004 C 
ENDBRANCH   8   9
ENDBRANCH   7   8
ENDBRANCH   1   7
TORSDOF 6
ENDMDL
MODEL 9
REMARK VINA RESULT:    -4.044      2.701      4.330
REMARK INTER + INTRA:          -5.688
REMARK INTER:                  -5.278
REMARK INTRA:                  -0.410
REMARK UNBOUND:                -0.225
REMARK SMILES CCCCCCCC(=O)[O-]
REMARK SMILES IDX 5 1 6 2 7 3 8 4 9 5 10 6 4 7 3 8 2 9 1 10
REMARK H PARENT
REMARK Flexibility Score: inf
ROOT
ATOM      1  C   UNL     1     -10.502  38.877   5.532  1.00  0.00     0.000 C 
ENDROOT
BRANCH   1   2
ATOM      2  C   UNL     1     -11.624  39.251   6.519  1.00  0.00     0.006 C 
BRANCH   2   3
ATOM      3  C   UNL     1     -11.200  39.237   7.997  1.00  0.00     0.053 C 
BRANCH   3   4
ATOM      4  C   UNL     1     -11.744  38.049   8.729  1.00  0.00     0.041 C 
ATOM      5  O   UNL     1     -12.036  36.998   8.101  1.00  0.00    -0.550 OA
ATOM      6  O   UNL     1     -11.895  38.091  10.108  1.00  0.00    -0.550 OA
ENDBRANCH   3   4
ENDBRANCH   2   3
ENDBRANCH   1   2
BRANCH   1   7
ATOM      7  C   UNL     1      -9.127  38.765   6.212  1.00  0.00     0.000 C 
BRANCH   7   8
ATOM      8  C   UNL     1      -8.353  37.510   5.773  1.00  0.00    -0.000 C 
BRANCH   8   9
ATOM      9  C   UNL     1      -9.090  36.208   6.120  1.00  0.00    -0.003 C 
ATOM     10  C   UNL     1      -8.258  34.988   5.733  1.00  0.00     0.004 C 
ENDBRANCH   8   9
ENDBRANCH   7   8
ENDBRANCH   1   7
TORSDOF 6
ENDMDL
