MODEL 1
REMARK VINA RESULT:    -3.643      0.000      0.000
REMARK INTER + INTRA:          -4.410
REMARK INTER:                  -4.282
REMARK INTRA:                  -0.128
REMARK UNBOUND:                -0.128
REMARK SMILES O=C([O-])CCC(=O)[O-]
REMARK SMILES IDX 4 1 2 2 1 3 3 4 5 5 6 6 7 7 8 8
REMARK H PARENT
REMARK Flexibility Score: inf
ROOT
ATOM      1  C   UNL     1      59.480  29.007  10.315  1.00  0.00     0.059 C 
ENDROOT
BRANCH   1   2
ATOM      2  C   UNL     1      60.670  28.232   9.844  1.00  0.00     0.042 C 
ATOM      3  O   UNL     1      60.553  27.396   8.909  1.00  0.00    -0.550 OA
ATOM      4  O   UNL     1      61.900  28.397  10.469  1.00  0.00    -0.550 OA
ENDBRANCH   1   2
BRANCH   1   5
ATOM      5  C   UNL     1      59.614  29.339  11.802  1.00  0.00     0.059 C 
BRANCH   5   6
ATOM      6  C   UNL     1      59.252  28.151  12.637  1.00  0.00     0.042 C 
ATOM      7  O   UNL     1      60.133  27.561  13.314  1.00  0.00    -0.550 OA
ATOM      8  O   UNL     1      57.949  27.667  12.630  1.00  0.00    -0.550 OA
ENDBRANCH   5   6
ENDBRANCH   1   5
TORSDOF 3
ENDMDL
MODEL 2
REMARK VINA RESULT:    -3.611      0.115      3.483
REMARK INTER + INTRA:          -4.372
REMARK INTER:                  -4.246
REMARK INTRA:                  -0.127
REMARK UNBOUND:                -0.128
REMARK SMILES O=C([O-])CCC(=O)[O-]
REMARK SMILES IDX 4 1 2 2 1 3 3 4 5 5 6 6 7 7 8 8
REMARK H PARENT
REMARK Flexibility Score: inf
ROOT
ATOM      1  C   UNL     1      59.561  29.390  11.767  1.00  0.00     0.059 C 
ENDROOT
BRANCH   1   2
ATOM      2  C   UNL     1      59.261  28.215  12.643  1.00  0.00     0.042 C 
ATOM      3  O   UNL     1      58.091  27.751  12.703  1.00  0.00    -0.550 OA
ATOM      4  O   UNL     1      60.262  27.661  13.431  1.00  0.00    -0.550 OA
ENDBRANCH   1   2
BRANCH   1   5
ATOM      5  C   UNL     1      59.459  28.997  10.292  1.00  0.00     0.059 C 
BRANCH   5   6
ATOM      6  C   UNL     1      60.690  28.266   9.860  1.00  0.00     0.042 C 
ATOM      7  O   UNL     1      60.625  27.399   8.950  1.00  0.00    -0.550 OA
ATOM      8  O   UNL     1      61.902  28.507  10.496  1.00  0.00    -0.550 OA
ENDBRANCH   5   6
ENDBRANCH   1   5
TORSDOF 3
ENDMDL
MODEL 3
REMARK VINA RESULT:    -3.583     14.329     16.121
REMARK INTER + INTRA:          -4.340
REMARK INTER:                  -4.247
REMARK INTRA:                  -0.093
REMARK UNBOUND:                -0.128
REMARK SMILES O=C([O-])CCC(=O)[O-]
REMARK SMILES IDX 4 1 2 2 1 3 3 4 5 5 6 6 7 7 8 8
REMARK H PARENT
REMARK Flexibility Score: inf
ROOT
ATOM      1  C   UNL     1      62.011  28.066  27.292  1.00  0.00     0.059 C 
ENDROOT
BRANCH   1   2
ATOM      2  C   UNL     1      61.460  29.119  28.200  1.00  0.00     0.042 C 
ATOM      3  O   UNL     1      60.371  28.930  28.804  1.00  0.00    -0.550 OA
ATOM      4  O   UNL     1      62.125  30.331  28.345  1.00  0.00    -0.550 OA
ENDBRANCH   1   2
BRANCH   1   5
ATOM      5  C   UNL     1      61.003  26.928  27.120  1.00  0.00     0.059 C 
BRANCH   5   6
ATOM      6  C   UNL     1      60.309  27.039  25.800  1.00  0.00     0.042 C 
ATOM      7  O   UNL     1      60.685  27.895  24.957  1.00  0.00    -0.550 OA
ATOM      8  O   UNL     1      59.216  26.229  25.519  1.00  0.00    -0.550 OA
ENDBRANCH   5   6
ENDBRANCH   1   5
TORSDOF 3
ENDMDL
MODEL 4
REMARK VINA RESULT:    -3.550     14.272     15.895
REMARK INTER + INTRA:          -4.301
REMARK INTER:                  -4.224
REMARK INTRA:                  -0.078
REMARK UNBOUND:                -0.128
REMARK SMILES O=C([O-])CCC(=O)[O-]
REMARK SMILES IDX 4 1 2 2 1 3 3 4 5 5 6 6 7 7 8 8
REMARK H PARENT
REMARK Flexibility Score: inf
ROOT
ATOM      1  C   UNL     1      61.033  26.861  27.011  1.00  0.00     0.059 C 
ENDROOT
BRANCH   1   2
ATOM      2  C   UNL     1      60.286  27.064  25.731  1.00  0.00     0.042 C 
ATOM      3  O   UNL     1      60.656  27.950  24.915  1.00  0.00    -0.550 OA
ATOM      4  O   UNL     1      59.153  26.308  25.459  1.00  0.00    -0.550 OA
ENDBRANCH   1   2
BRANCH   1   5
ATOM      5  C   UNL     1      62.055  27.980  27.217  1.00  0.00     0.059 C 
BRANCH   5   6
ATOM      6  C   UNL     1      61.474  29.071  28.061  1.00  0.00     0.042 C 
ATOM      7  O   UNL     1      62.003  30.212  28.072  1.00  0.00    -0.550 OA
ATOM      8  O   UNL     1      60.376  28.812  28.872  1.00  0.00    -0.550 OA
ENDBRANCH   5   6
ENDBRANCH   1   5
TORSDOF 3
ENDMDL
MODEL 5
REMARK VINA RESULT:    -3.462      1.787      3.576
REMARK INTER + INTRA:          -4.198
REMARK INTER:                  -4.091
REMARK INTRA:                  -0.107
REMARK UNBOUND:                -0.128
REMARK SMILES O=C([O-])CCC(=O)[O-]
REMARK SMILES IDX 4 1 2 2 1 3 3 4 5 5 6 6 7 7 8 8
REMARK H PARENT
REMARK Flexibility Score: inf
ROOT
ATOM      1  C   UNL     1      60.002  27.931  12.813  1.00  0.00     0.059 C 
ENDROOT
BRANCH   1   2
ATOM      2  C   UNL     1      61.148  28.538  13.559  1.00  0.00     0.042 C 
ATOM      3  O   UNL     1      62.333  28.257  13.240  1.00  0.00    -0.550 OA
ATOM      4  O   UNL     1      60.907  29.378  14.640  1.00  0.00    -0.550 OA
ENDBRANCH   1   2
BRANCH   1   5
ATOM      5  C   UNL     1      59.371  28.961  11.874  1.00  0.00     0.059 C 
BRANCH   5   6
ATOM      6  C   UNL     1      59.986  28.874  10.513  1.00  0.00     0.042 C 
ATOM      7  O   UNL     1      59.698  29.727   9.633  1.00  0.00    -0.550 OA
ATOM      8  O   UNL     1      60.840  27.824  10.202  1.00  0.00    -0.550 OA
ENDBRANCH   5   6
ENDBRANCH   1   5
TORSDOF 3
ENDMDL
MODEL 6
REMARK VINA RESULT:    -3.405      2.186      3.224
REMARK INTER + INTRA:          -4.130
REMARK INTER:                  -4.003
REMARK INTRA:                  -0.127
REMARK UNBOUND:                -0.128
REMARK SMILES O=C([O-])CCC(=O)[O-]
REMARK SMILES IDX 4 1 2 2 1 3 3 4 5 5 6 6 7 7 8 8
REMARK H PARENT
REMARK Flexibility Score: inf
ROOT
ATOM      1  C   UNL     1      62.215  28.598  11.079  1.00  0.00     0.059 C 
ENDROOT
BRANCH   1   2
ATOM      2  C   UNL     1      63.173  29.255  10.137  1.00  0.00     0.042 C 
ATOM      3  O   UNL     1      63.464  30.472  10.276  1.00  0.00    -0.550 OA
ATOM      4  O   UNL     1      63.709  28.535   9.076  1.00  0.00    -0.550 OA
ENDBRANCH   1   2
BRANCH   1   5
ATOM      5  C   UNL     1      60.964  28.133  10.331  1.00  0.00     0.059 C 
BRANCH   5   6
ATOM      6  C   UNL     1      59.956  29.237  10.262  1.00  0.00     0.042 C 
ATOM      7  O   UNL     1      59.731  29.820   9.169  1.00  0.00    -0.550 OA
ATOM      8  O   UNL     1      59.302  29.654  11.413  1.00  0.00    -0.550 OA
ENDBRANCH   5   6
ENDBRANCH   1   5
TORSDOF 3
ENDMDL
MODEL 7
REMARK VINA RESULT:    -3.401      1.809      2.478
REMARK INTER + INTRA:          -4.126
REMARK INTER:                  -4.031
REMARK INTRA:                  -0.095
REMARK UNBOUND:                -0.128
REMARK SMILES O=C([O-])CCC(=O)[O-]
REMARK SMILES IDX 4 1 2 2 1 3 3 4 5 5 6 6 7 7 8 8
REMARK H PARENT
REMARK Flexibility Score: inf
ROOT
ATOM      1  C   UNL     1      59.280  28.768  11.953  1.00  0.00     0.059 C 
ENDROOT
BRANCH   1   2
ATOM      2  C   UNL     1      59.932  28.724  10.607  1.00  0.00     0.042 C 
ATOM      3  O   UNL     1      60.796  27.845  10.348  1.00  0.00    -0.550 OA
ATOM      4  O   UNL     1      59.620  29.685   9.652  1.00  0.00    -0.550 OA
ENDBRANCH   1   2
BRANCH   1   5
ATOM      5  C   UNL     1      60.028  27.868  12.937  1.00  0.00     0.059 C 
BRANCH   5   6
ATOM      6  C   UNL     1      61.107  28.638  13.632  1.00  0.00     0.042 C 
ATOM      7  O   UNL     1      60.810  29.517  14.483  1.00  0.00    -0.550 OA
ATOM      8  O   UNL     1      62.439  28.419  13.304  1.00  0.00    -0.550 OA
ENDBRANCH   5   6
ENDBRANCH   1   5
TORSDOF 3
ENDMDL
MODEL 8
REMARK VINA RESULT:    -3.391     13.613     15.592
REMARK INTER + INTRA:          -4.115
REMARK INTER:                  -4.004
REMARK INTRA:                  -0.111
REMARK UNBOUND:                -0.128
REMARK SMILES O=C([O-])CCC(=O)[O-]
REMARK SMILES IDX 4 1 2 2 1 3 3 4 5 5 6 6 7 7 8 8
REMARK H PARENT
REMARK Flexibility Score: inf
ROOT
ATOM      1  C   UNL     1      61.113  26.843  26.596  1.00  0.00     0.059 C 
ENDROOT
BRANCH   1   2
ATOM      2  C   UNL     1      61.173  27.468  27.954  1.00  0.00     0.042 C 
ATOM      3  O   UNL     1      61.681  26.838  28.920  1.00  0.00    -0.550 OA
ATOM      4  O   UNL     1      60.625  28.727  28.165  1.00  0.00    -0.550 OA
ENDBRANCH   1   2
BRANCH   1   5
ATOM      5  C   UNL     1      60.387  27.765  25.615  1.00  0.00     0.059 C 
BRANCH   5   6
ATOM      6  C   UNL     1      61.372  28.492  24.756  1.00  0.00     0.042 C 
ATOM      7  O   UNL     1      61.598  29.716  24.947  1.00  0.00    -0.550 OA
ATOM      8  O   UNL     1      62.005  27.831  23.710  1.00  0.00    -0.550 OA
ENDBRANCH   5   6
ENDBRANCH   1   5
TORSDOF 3
ENDMDL
MODEL 9
REMARK VINA RESULT:    -3.353      1.749      4.002
REMARK INTER + INTRA:          -4.070
REMARK INTER:                  -3.971
REMARK INTRA:                  -0.099
REMARK UNBOUND:                -0.128
REMARK SMILES O=C([O-])CCC(=O)[O-]
REMARK SMILES IDX 4 1 2 2 1 3 3 4 5 5 6 6 7 7 8 8
REMARK H PARENT
REMARK Flexibility Score: inf
ROOT
ATOM      1  C   UNL     1      60.158  29.272  10.282  1.00  0.00     0.059 C 
ENDROOT
BRANCH   1   2
ATOM      2  C   UNL     1      59.532  29.391  11.635  1.00  0.00     0.042 C 
ATOM      3  O   UNL     1      59.679  30.444  12.312  1.00  0.00    -0.550 OA
ATOM      4  O   UNL     1      58.826  28.322  12.172  1.00  0.00    -0.550 OA
ENDBRANCH   1   2
BRANCH   1   5
ATOM      5  C   UNL     1      61.308  28.264  10.312  1.00  0.00     0.059 C 
BRANCH   5   6
ATOM      6  C   UNL     1      62.620  28.964  10.151  1.00  0.00     0.042 C 
ATOM      7  O   UNL     1      62.868  30.006  10.813  1.00  0.00    -0.550 OA
ATOM      8  O   UNL     1      63.550  28.494   9.232  1.00  0.00    -0.550 OA
ENDBRANCH   5   6
ENDBRANCH   1   5
TORSDOF 3
ENDMDL
