MODEL 1
REMARK VINA RESULT:    -4.469      0.000      0.000
REMARK INTER + INTRA:          -5.927
REMARK INTER:                  -5.514
REMARK INTRA:                  -0.413
REMARK UNBOUND:                -0.413
REMARK SMILES CCCCC=CC(C)=O
REMARK SMILES IDX 4 1 3 2 2 3 1 4 5 5 6 6 7 7 9 8 8 9
REMARK H PARENT
REMARK Flexibility Score: inf
ROOT
ATOM      1  C   UNL     1      -8.200  31.757  41.144  1.00  0.00     0.027 C 
ENDROOT
BRANCH   1   2
ATOM      2  C   UNL     1      -7.827  33.239  40.952  1.00  0.00     0.004 C 
BRANCH   2   3
ATOM      3  C   UNL     1      -7.367  33.941  42.242  1.00  0.00    -0.003 C 
ATOM      4  C   UNL     1      -8.255  35.125  42.625  1.00  0.00     0.004 C 
ENDBRANCH   2   3
ENDBRANCH   1   2
BRANCH   1   5
ATOM      5  C   UNL     1      -9.394  31.570  42.041  1.00  0.00    -0.023 C 
ATOM      6  C   UNL     1      -9.425  30.857  43.179  1.00  0.00     0.042 C 
BRANCH   6   7
ATOM      7  C   UNL     1      -8.312  30.062  43.748  1.00  0.00     0.152 C 
ATOM      8  O   UNL     1      -8.059  28.895  43.345  1.00  0.00    -0.295 OA
ATOM      9  C   UNL     1      -7.520  30.623  44.884  1.00  0.00     0.093 C 
ENDBRANCH   6   7
ENDBRANCH   1   5
TORSDOF 4
ENDMDL
MODEL 2
REMARK VINA RESULT:    -4.371      1.481      2.377
REMARK INTER + INTRA:          -5.806
REMARK INTER:                  -5.293
REMARK INTRA:                  -0.513
REMARK UNBOUND:                -0.413
REMARK SMILES CCCCC=CC(C)=O
REMARK SMILES IDX 4 1 3 2 2 3 1 4 5 5 6 6 7 7 9 8 8 9
REMARK H PARENT
REMARK Flexibility Score: inf
ROOT
ATOM      1  C   UNL     1      -7.615  33.017  43.058  1.00  0.00     0.027 C 
ENDROOT
BRANCH   1   2
ATOM      2  C   UNL     1      -7.315  32.730  41.576  1.00  0.00     0.004 C 
BRANCH   2   3
ATOM      3  C   UNL     1      -8.570  32.485  40.719  1.00  0.00    -0.003 C 
ATOM      4  C   UNL     1      -8.571  31.114  40.043  1.00  0.00     0.004 C 
ENDBRANCH   2   3
ENDBRANCH   1   2
BRANCH   1   5
ATOM      5  C   UNL     1      -8.935  32.447  43.505  1.00  0.00    -0.023 C 
ATOM      6  C   UNL     1      -9.130  31.236  44.053  1.00  0.00     0.042 C 
BRANCH   6   7
ATOM      7  C   UNL     1      -8.099  30.195  44.271  1.00  0.00     0.152 C 
ATOM      8  O   UNL     1      -7.276  30.268  45.221  1.00  0.00    -0.295 OA
ATOM      9  C   UNL     1      -7.979  29.070  43.293  1.00  0.00     0.093 C 
ENDBRANCH   6   7
ENDBRANCH   1   5
TORSDOF 4
ENDMDL
MODEL 3
REMARK VINA RESULT:    -4.352      2.156      3.086
REMARK INTER + INTRA:          -5.782
REMARK INTER:                  -5.551
REMARK INTRA:                  -0.231
REMARK UNBOUND:                -0.413
REMARK SMILES CCCCC=CC(C)=O
REMARK SMILES IDX 4 1 3 2 2 3 1 4 5 5 6 6 7 7 9 8 8 9
REMARK H PARENT
REMARK Flexibility Score: inf
ROOT
ATOM      1  C   UNL     1      -8.871  30.751  43.674  1.00  0.00     0.027 C 
ENDROOT
BRANCH   1   2
ATOM      2  C   UNL     1      -7.921  31.961  43.729  1.00  0.00     0.004 C 
BRANCH   2   3
ATOM      3  C   UNL     1      -8.210  33.034  42.664  1.00  0.00    -0.003 C 
ATOM      4  C   UNL     1      -6.971  33.423  41.858  1.00  0.00     0.004 C 
ENDBRANCH   2   3
ENDBRANCH   1   2
BRANCH   1   5
ATOM      5  C   UNL     1      -8.138  29.436  43.681  1.00  0.00    -0.023 C 
ATOM      6  C   UNL     1      -7.861  28.678  42.607  1.00  0.00     0.042 C 
BRANCH   6   7
ATOM      7  C   UNL     1      -8.272  28.951  41.210  1.00  0.00     0.152 C 
ATOM      8  O   UNL     1      -7.980  30.030  40.632  1.00  0.00    -0.295 OA
ATOM      9  C   UNL     1      -9.128  27.955  40.494  1.00  0.00     0.093 C 
ENDBRANCH   6   7
ENDBRANCH   1   5
TORSDOF 4
ENDMDL
MODEL 4
REMARK VINA RESULT:    -4.343      2.316      4.383
REMARK INTER + INTRA:          -5.772
REMARK INTER:                  -5.258
REMARK INTRA:                  -0.514
REMARK UNBOUND:                -0.413
REMARK SMILES CCCCC=CC(C)=O
REMARK SMILES IDX 4 1 3 2 2 3 1 4 5 5 6 6 7 7 9 8 8 9
REMARK H PARENT
REMARK Flexibility Score: inf
ROOT
ATOM      1  C   UNL     1      -8.996  32.457  43.650  1.00  0.00     0.027 C 
ENDROOT
BRANCH   1   2
ATOM      2  C   UNL     1      -9.273  30.947  43.768  1.00  0.00     0.004 C 
BRANCH   2   3
ATOM      3  C   UNL     1      -8.052  30.118  44.205  1.00  0.00    -0.003 C 
ATOM      4  C   UNL     1      -7.862  28.852  43.371  1.00  0.00     0.004 C 
ENDBRANCH   2   3
ENDBRANCH   1   2
BRANCH   1   5
ATOM      5  C   UNL     1      -7.618  32.755  43.121  1.00  0.00    -0.023 C 
ATOM      6  C   UNL     1      -7.282  32.904  41.828  1.00  0.00     0.042 C 
BRANCH   6   7
ATOM      7  C   UNL     1      -8.182  32.745  40.663  1.00  0.00     0.152 C 
ATOM      8  O   UNL     1      -8.787  33.726  40.155  1.00  0.00    -0.295 OA
ATOM      9  C   UNL     1      -8.445  31.375  40.125  1.00  0.00     0.093 C 
ENDBRANCH   6   7
ENDBRANCH   1   5
TORSDOF 4
ENDMDL
MODEL 5
REMARK VINA RESULT:    -4.333     16.777     17.837
REMARK INTER + INTRA:          -5.760
REMARK INTER:                  -5.618
REMARK INTRA:                  -0.141
REMARK UNBOUND:                -0.413
REMARK SMILES CCCCC=CC(C)=O
REMARK SMILES IDX 4 1 3 2 2 3 1 4 5 5 6 6 7 7 9 8 8 9
REMARK H PARENT
REMARK Flexibility Score: inf
ROOT
ATOM      1  C   UNL     1       9.134  31.953  38.106  1.00  0.00     0.027 C 
ENDROOT
BRANCH   1   2
ATOM      2  C   UNL     1       9.705  30.582  37.702  1.00  0.00     0.004 C 
BRANCH   2   3
ATOM      3  C   UNL     1       9.508  30.232  36.216  1.00  0.00    -0.003 C 
ATOM      4  C   UNL     1       8.062  29.875  35.875  1.00  0.00     0.004 C 
ENDBRANCH   2   3
ENDBRANCH   1   2
BRANCH   1   5
ATOM      5  C   UNL     1       9.241  32.974  37.004  1.00  0.00    -0.023 C 
ATOM      6  C   UNL     1       8.262  33.794  36.587  1.00  0.00     0.042 C 
BRANCH   6   7
ATOM      7  C   UNL     1       6.866  33.818  37.081  1.00  0.00     0.152 C 
ATOM      8  O   UNL     1       6.359  34.856  37.582  1.00  0.00    -0.295 OA
ATOM      9  C   UNL     1       6.062  32.557  37.062  1.00  0.00     0.093 C 
ENDBRANCH   6   7
ENDBRANCH   1   5
TORSDOF 4
ENDMDL
MODEL 6
REMARK VINA RESULT:    -4.332      2.070      4.097
REMARK INTER + INTRA:          -5.758
REMARK INTER:                  -5.274
REMARK INTRA:                  -0.484
REMARK UNBOUND:                -0.413
REMARK SMILES CCCCC=CC(C)=O
REMARK SMILES IDX 4 1 3 2 2 3 1 4 5 5 6 6 7 7 9 8 8 9
REMARK H PARENT
REMARK Flexibility Score: inf
ROOT
ATOM      1  C   UNL     1      -7.846  30.402  44.141  1.00  0.00     0.027 C 
ENDROOT
BRANCH   1   2
ATOM      2  C   UNL     1      -8.159  29.102  43.379  1.00  0.00     0.004 C 
BRANCH   2   3
ATOM      3  C   UNL     1      -7.576  29.053  41.956  1.00  0.00    -0.003 C 
ATOM      4  C   UNL     1      -8.624  28.718  40.894  1.00  0.00     0.004 C 
ENDBRANCH   2   3
ENDBRANCH   1   2
BRANCH   1   5
ATOM      5  C   UNL     1      -8.994  31.377  44.121  1.00  0.00    -0.023 C 
ATOM      6  C   UNL     1      -9.191  32.349  43.215  1.00  0.00     0.042 C 
BRANCH   6   7
ATOM      7  C   UNL     1      -8.290  32.699  42.093  1.00  0.00     0.152 C 
ATOM      8  O   UNL     1      -8.479  32.256  40.929  1.00  0.00    -0.295 OA
ATOM      9  C   UNL     1      -7.079  33.534  42.362  1.00  0.00     0.093 C 
ENDBRANCH   6   7
ENDBRANCH   1   5
TORSDOF 4
ENDMDL
MODEL 7
REMARK VINA RESULT:    -4.313      2.457      4.158
REMARK INTER + INTRA:          -5.735
REMARK INTER:                  -5.428
REMARK INTRA:                  -0.307
REMARK UNBOUND:                -0.413
REMARK SMILES CCCCC=CC(C)=O
REMARK SMILES IDX 4 1 3 2 2 3 1 4 5 5 6 6 7 7 9 8 8 9
REMARK H PARENT
REMARK Flexibility Score: inf
ROOT
ATOM      1  C   UNL     1      -8.511  29.040  42.588  1.00  0.00     0.027 C 
ENDROOT
BRANCH   1   2
ATOM      2  C   UNL     1      -7.564  29.102  41.376  1.00  0.00     0.004 C 
BRANCH   2   3
ATOM      3  C   UNL     1      -8.283  29.263  40.025  1.00  0.00    -0.003 C 
ATOM      4  C   UNL     1      -8.941  27.970  39.543  1.00  0.00     0.004 C 
ENDBRANCH   2   3
ENDBRANCH   1   2
BRANCH   1   5
ATOM      5  C   UNL     1      -7.820  29.379  43.883  1.00  0.00    -0.023 C 
ATOM      6  C   UNL     1      -7.851  30.568  44.508  1.00  0.00     0.042 C 
BRANCH   6   7
ATOM      7  C   UNL     1      -8.516  31.799  44.022  1.00  0.00     0.152 C 
ATOM      8  O   UNL     1      -9.685  32.105  44.378  1.00  0.00    -0.295 OA
ATOM      9  C   UNL     1      -7.816  32.660  43.020  1.00  0.00     0.093 C 
ENDBRANCH   6   7
ENDBRANCH   1   5
TORSDOF 4
ENDMDL
MODEL 8
REMARK VINA RESULT:    -4.261     16.795     17.688
REMARK INTER + INTRA:          -5.671
REMARK INTER:                  -5.183
REMARK INTRA:                  -0.488
REMARK UNBOUND:                -0.413
REMARK SMILES CCCCC=CC(C)=O
REMARK SMILES IDX 4 1 3 2 2 3 1 4 5 5 6 6 7 7 9 8 8 9
REMARK H PARENT
REMARK Flexibility Score: inf
ROOT
ATOM      1  C   UNL     1       8.900  33.385  37.333  1.00  0.00     0.027 C 
ENDROOT
BRANCH   1   2
ATOM      2  C   UNL     1       7.827  33.658  36.264  1.00  0.00     0.004 C 
BRANCH   2   3
ATOM      3  C   UNL     1       6.394  33.738  36.819  1.00  0.00    -0.003 C 
ATOM      4  C   UNL     1       5.999  32.504  37.629  1.00  0.00     0.004 C 
ENDBRANCH   2   3
ENDBRANCH   1   2
BRANCH   1   5
ATOM      5  C   UNL     1      10.010  32.501  36.829  1.00  0.00    -0.023 C 
ATOM      6  C   UNL     1       9.944  31.171  36.652  1.00  0.00     0.042 C 
BRANCH   6   7
ATOM      7  C   UNL     1       8.792  30.298  36.974  1.00  0.00     0.152 C 
ATOM      8  O   UNL     1       8.600  29.857  38.138  1.00  0.00    -0.295 OA
ATOM      9  C   UNL     1       7.877  29.862  35.875  1.00  0.00     0.093 C 
ENDBRANCH   6   7
ENDBRANCH   1   5
TORSDOF 4
ENDMDL
