MODEL 1
REMARK VINA RESULT:    -5.237      0.000      0.000
REMARK INTER + INTRA:         -10.286
REMARK INTER:                  -8.912
REMARK INTRA:                  -1.374
REMARK UNBOUND:                -1.374
REMARK SMILES CCCCCCCCCCCCCC(=O)[O-]
REMARK SMILES IDX 8 1 9 2 10 3 11 4 12 5 13 6 14 7 15 8 16 9 7 10 6 11 5 12
REMARK SMILES IDX 4 13 3 14 2 15 1 16
REMARK H PARENT
REMARK Flexibility Score: inf
ROOT
ATOM      1  C   UNL     1      12.285 -24.343  20.736  1.00  0.00     0.000 C 
ENDROOT
BRANCH   1   2
ATOM      2  C   UNL     1      11.373 -24.147  21.956  1.00  0.00     0.000 C 
BRANCH   2   3
ATOM      3  C   UNL     1      10.107 -25.020  21.895  1.00  0.00     0.000 C 
BRANCH   3   4
ATOM      4  C   UNL     1       8.990 -24.504  22.816  1.00  0.00     0.000 C 
BRANCH   4   5
ATOM      5  C   UNL     1       9.394 -24.514  24.299  1.00  0.00     0.006 C 
BRANCH   5   6
ATOM      6  C   UNL     1       9.466 -23.101  24.891  1.00  0.00     0.053 C 
BRANCH   6   7
ATOM      7  C   UNL     1      10.175 -23.087  26.211  1.00  0.00     0.041 C 
ATOM      8  O   UNL     1      10.411 -24.166  26.814  1.00  0.00    -0.550 OA
ATOM      9  O   UNL     1      10.544 -21.879  26.790  1.00  0.00    -0.550 OA
ENDBRANCH   6   7
ENDBRANCH   5   6
ENDBRANCH   4   5
ENDBRANCH   3   4
ENDBRANCH   2   3
ENDBRANCH   1   2
BRANCH   1  10
ATOM     10  C   UNL     1      12.855 -23.020  20.204  1.00  0.00     0.000 C 
BRANCH  10  11
ATOM     11  C   UNL     1      14.378 -23.103  20.041  1.00  0.00    -0.000 C 
BRANCH  11  12
ATOM     12  C   UNL     1      14.984 -24.096  21.039  1.00  0.00    -0.000 C 
BRANCH  12  13
ATOM     13  C   UNL     1      15.713 -23.361  22.173  1.00  0.00    -0.000 C 
BRANCH  13  14
ATOM     14  C   UNL     1      14.820 -23.125  23.404  1.00  0.00    -0.000 C 
BRANCH  14  15
ATOM     15  C   UNL     1      14.247 -21.695  23.487  1.00  0.00    -0.003 C 
ATOM     16  C   UNL     1      12.876 -21.655  24.160  1.00  0.00     0.004 C 
ENDBRANCH  14  15
ENDBRANCH  13  14
ENDBRANCH  12  13
ENDBRANCH  11  12
ENDBRANCH  10  11
ENDBRANCH   1  10
TORSDOF 12
ENDMDL
MODEL 2
REMARK VINA RESULT:    -5.116      0.828      3.645
REMARK INTER + INTRA:         -10.079
REMARK INTER:                  -8.572
REMARK INTRA:                  -1.506
REMARK UNBOUND:                -1.374
REMARK SMILES CCCCCCCCCCCCCC(=O)[O-]
REMARK SMILES IDX 8 1 9 2 10 3 11 4 12 5 13 6 14 7 15 8 16 9 7 10 6 11 5 12
REMARK SMILES IDX 4 13 3 14 2 15 1 16
REMARK H PARENT
REMARK Flexibility Score: inf
ROOT
ATOM      1  C   UNL     1      15.660 -23.056  22.115  1.00  0.00     0.000 C 
ENDROOT
BRANCH   1   2
ATOM      2  C   UNL     1      14.903 -23.070  23.452  1.00  0.00     0.000 C 
BRANCH   2   3
ATOM      3  C   UNL     1      14.192 -21.736  23.744  1.00  0.00     0.000 C 
BRANCH   3   4
ATOM      4  C   UNL     1      12.809 -21.933  24.382  1.00  0.00     0.000 C 
BRANCH   4   5
ATOM      5  C   UNL     1      12.691 -23.266  25.140  1.00  0.00     0.006 C 
BRANCH   5   6
ATOM      6  C   UNL     1      11.880 -23.127  26.434  1.00  0.00     0.053 C 
BRANCH   6   7
ATOM      7  C   UNL     1      10.439 -23.483  26.227  1.00  0.00     0.041 C 
ATOM      8  O   UNL     1       9.998 -24.594  26.622  1.00  0.00    -0.550 OA
ATOM      9  O   UNL     1       9.592 -22.601  25.568  1.00  0.00    -0.550 OA
ENDBRANCH   6   7
ENDBRANCH   5   6
ENDBRANCH   4   5
ENDBRANCH   3   4
ENDBRANCH   2   3
ENDBRANCH   1   2
BRANCH   1  10
ATOM     10  C   UNL     1      14.972 -23.906  21.037  1.00  0.00     0.000 C 
BRANCH  10  11
ATOM     11  C   UNL     1      14.232 -23.019  20.027  1.00  0.00    -0.000 C 
BRANCH  11  12
ATOM     12  C   UNL     1      12.714 -23.113  20.222  1.00  0.00    -0.000 C 
BRANCH  12  13
ATOM     13  C   UNL     1      12.328 -24.431  20.907  1.00  0.00    -0.000 C 
BRANCH  13  14
ATOM     14  C   UNL     1      11.270 -24.246  22.009  1.00  0.00    -0.000 C 
BRANCH  14  15
ATOM     15  C   UNL     1      10.075 -25.215  21.888  1.00  0.00    -0.003 C 
ATOM     16  C   UNL     1       9.080 -25.060  23.038  1.00  0.00     0.004 C 
ENDBRANCH  14  15
ENDBRANCH  13  14
ENDBRANCH  12  13
ENDBRANCH  11  12
ENDBRANCH  10  11
ENDBRANCH   1  10
TORSDOF 12
ENDMDL
MODEL 3
REMARK VINA RESULT:    -5.115      3.136      6.346
REMARK INTER + INTRA:         -10.076
REMARK INTER:                  -8.956
REMARK INTRA:                  -1.121
REMARK UNBOUND:                -1.374
REMARK SMILES CCCCCCCCCCCCCC(=O)[O-]
REMARK SMILES IDX 8 1 9 2 10 3 11 4 12 5 13 6 14 7 15 8 16 9 7 10 6 11 5 12
REMARK SMILES IDX 4 13 3 14 2 15 1 16
REMARK H PARENT
REMARK Flexibility Score: inf
ROOT
ATOM      1  C   UNL     1      12.346 -22.311  24.416  1.00  0.00     0.000 C 
ENDROOT
BRANCH   1   2
ATOM      2  C   UNL     1      13.617 -21.652  23.858  1.00  0.00     0.000 C 
BRANCH   2   3
ATOM      3  C   UNL     1      14.020 -22.214  22.483  1.00  0.00     0.000 C 
BRANCH   3   4
ATOM      4  C   UNL     1      12.812 -22.706  21.670  1.00  0.00     0.000 C 
BRANCH   4   5
ATOM      5  C   UNL     1      13.188 -23.100  20.232  1.00  0.00     0.006 C 
BRANCH   5   6
ATOM      6  C   UNL     1      14.685 -23.403  20.086  1.00  0.00     0.053 C 
BRANCH   6   7
ATOM      7  C   UNL     1      14.958 -24.876  20.102  1.00  0.00     0.041 C 
ATOM      8  O   UNL     1      14.878 -25.523  21.179  1.00  0.00    -0.550 OA
ATOM      9  O   UNL     1      15.335 -25.527  18.934  1.00  0.00    -0.550 OA
ENDBRANCH   6   7
ENDBRANCH   5   6
ENDBRANCH   4   5
ENDBRANCH   3   4
ENDBRANCH   2   3
ENDBRANCH   1   2
BRANCH   1  10
ATOM     10  C   UNL     1      12.653 -23.395  25.460  1.00  0.00     0.000 C 
BRANCH  10  11
ATOM     11  C   UNL     1      11.376 -23.834  26.188  1.00  0.00    -0.000 C 
BRANCH  11  12
ATOM     12  C   UNL     1      10.125 -23.345  25.448  1.00  0.00    -0.000 C 
BRANCH  12  13
ATOM     13  C   UNL     1       9.467 -24.489  24.664  1.00  0.00    -0.000 C 
BRANCH  13  14
ATOM     14  C   UNL     1       8.702 -24.001  23.421  1.00  0.00    -0.000 C 
BRANCH  14  15
ATOM     15  C   UNL     1       8.803 -24.961  22.217  1.00  0.00    -0.003 C 
ATOM     16  C   UNL     1      10.249 -25.312  21.871  1.00  0.00     0.004 C 
ENDBRANCH  14  15
ENDBRANCH  13  14
ENDBRANCH  12  13
ENDBRANCH  11  12
ENDBRANCH  10  11
ENDBRANCH   1  10
TORSDOF 12
ENDMDL
MODEL 4
REMARK VINA RESULT:    -5.105      1.516      3.048
REMARK INTER + INTRA:         -10.060
REMARK INTER:                  -8.812
REMARK INTRA:                  -1.248
REMARK UNBOUND:                -1.374
REMARK SMILES CCCCCCCCCCCCCC(=O)[O-]
REMARK SMILES IDX 8 1 9 2 10 3 11 4 12 5 13 6 14 7 15 8 16 9 7 10 6 11 5 12
REMARK SMILES IDX 4 13 3 14 2 15 1 16
REMARK H PARENT
REMARK Flexibility Score: inf
ROOT
ATOM      1  C   UNL     1      10.543 -25.242  21.887  1.00  0.00     0.000 C 
ENDROOT
BRANCH   1   2
ATOM      2  C   UNL     1       9.042 -24.913  21.868  1.00  0.00     0.000 C 
BRANCH   2   3
ATOM      3  C   UNL     1       8.584 -24.164  23.133  1.00  0.00     0.000 C 
BRANCH   3   4
ATOM      4  C   UNL     1       9.601 -24.269  24.280  1.00  0.00     0.000 C 
BRANCH   4   5
ATOM      5  C   UNL     1       9.865 -22.916  24.961  1.00  0.00     0.006 C 
BRANCH   5   6
ATOM      6  C   UNL     1      11.245 -22.348  24.607  1.00  0.00     0.053 C 
BRANCH   6   7
ATOM      7  C   UNL     1      12.337 -23.016  25.386  1.00  0.00     0.041 C 
ATOM      8  O   UNL     1      13.459 -23.223  24.854  1.00  0.00    -0.550 OA
ATOM      9  O   UNL     1      12.103 -23.442  26.687  1.00  0.00    -0.550 OA
ENDBRANCH   6   7
ENDBRANCH   5   6
ENDBRANCH   4   5
ENDBRANCH   3   4
ENDBRANCH   2   3
ENDBRANCH   1   2
BRANCH   1  10
ATOM     10  C   UNL     1      11.312 -24.557  20.747  1.00  0.00     0.000 C 
BRANCH  10  11
ATOM     11  C   UNL     1      12.286 -23.507  21.296  1.00  0.00    -0.000 C 
BRANCH  11  12
ATOM     12  C   UNL     1      12.983 -22.754  20.156  1.00  0.00    -0.000 C 
BRANCH  12  13
ATOM     13  C   UNL     1      14.441 -23.210  20.007  1.00  0.00    -0.000 C 
BRANCH  13  14
ATOM     14  C   UNL     1      14.915 -24.092  21.175  1.00  0.00    -0.000 C 
BRANCH  14  15
ATOM     15  C   UNL     1      15.073 -25.581  20.802  1.00  0.00    -0.003 C 
ATOM     16  C   UNL     1      15.136 -25.800  19.291  1.00  0.00     0.004 C 
ENDBRANCH  14  15
ENDBRANCH  13  14
ENDBRANCH  12  13
ENDBRANCH  11  12
ENDBRANCH  10  11
ENDBRANCH   1  10
TORSDOF 12
ENDMDL
MODEL 5
REMARK VINA RESULT:    -5.096      1.881      3.734
REMARK INTER + INTRA:         -10.046
REMARK INTER:                  -8.486
REMARK INTRA:                  -1.560
REMARK UNBOUND:                -1.374
REMARK SMILES CCCCCCCCCCCCCC(=O)[O-]
REMARK SMILES IDX 8 1 9 2 10 3 11 4 12 5 13 6 14 7 15 8 16 9 7 10 6 11 5 12
REMARK SMILES IDX 4 13 3 14 2 15 1 16
REMARK H PARENT
REMARK Flexibility Score: inf
ROOT
ATOM      1  C   UNL     1      14.741 -24.311  20.866  1.00  0.00     0.000 C 
ENDROOT
BRANCH   1   2
ATOM      2  C   UNL     1      14.123 -22.993  20.376  1.00  0.00     0.000 C 
BRANCH   2   3
ATOM      3  C   UNL     1      12.594 -23.078  20.220  1.00  0.00     0.000 C 
BRANCH   3   4
ATOM      4  C   UNL     1      12.031 -24.436  20.667  1.00  0.00     0.000 C 
BRANCH   4   5
ATOM      5  C   UNL     1      11.225 -24.341  21.974  1.00  0.00     0.006 C 
BRANCH   5   6
ATOM      6  C   UNL     1      10.025 -25.297  21.985  1.00  0.00     0.053 C 
BRANCH   6   7
ATOM      7  C   UNL     1       8.761 -24.597  22.382  1.00  0.00     0.041 C 
ATOM      8  O   UNL     1       7.789 -24.545  21.583  1.00  0.00    -0.550 OA
ATOM      9  O   UNL     1       8.669 -23.972  23.619  1.00  0.00    -0.550 OA
ENDBRANCH   6   7
ENDBRANCH   5   6
ENDBRANCH   4   5
ENDBRANCH   3   4
ENDBRANCH   2   3
ENDBRANCH   1   2
BRANCH   1  10
ATOM     10  C   UNL     1      15.417 -24.172  22.238  1.00  0.00     0.000 C 
BRANCH  10  11
ATOM     11  C   UNL     1      15.055 -22.835  22.896  1.00  0.00    -0.000 C 
BRANCH  11  12
ATOM     12  C   UNL     1      14.003 -23.028  23.994  1.00  0.00    -0.000 C 
BRANCH  12  13
ATOM     13  C   UNL     1      13.042 -21.832  24.052  1.00  0.00    -0.000 C 
BRANCH  13  14
ATOM     14  C   UNL     1      11.779 -22.120  24.883  1.00  0.00    -0.000 C 
BRANCH  14  15
ATOM     15  C   UNL     1      11.892 -23.383  25.762  1.00  0.00    -0.003 C 
ATOM     16  C   UNL     1      10.636 -23.623  26.600  1.00  0.00     0.004 C 
ENDBRANCH  14  15
ENDBRANCH  13  14
ENDBRANCH  12  13
ENDBRANCH  11  12
ENDBRANCH  10  11
ENDBRANCH   1  10
TORSDOF 12
ENDMDL
MODEL 6
REMARK VINA RESULT:    -5.071      2.766      5.380
REMARK INTER + INTRA:         -10.003
REMARK INTER:                  -8.667
REMARK INTRA:                  -1.335
REMARK UNBOUND:                -1.374
REMARK SMILES CCCCCCCCCCCCCC(=O)[O-]
REMARK SMILES IDX 8 1 9 2 10 3 11 4 12 5 13 6 14 7 15 8 16 9 7 10 6 11 5 12
REMARK SMILES IDX 4 13 3 14 2 15 1 16
REMARK H PARENT
REMARK Flexibility Score: inf
ROOT
ATOM      1  C   UNL     1      10.212 -25.292  22.073  1.00  0.00     0.000 C 
ENDROOT
BRANCH   1   2
ATOM      2  C   UNL     1      11.303 -24.963  21.043  1.00  0.00     0.000 C 
BRANCH   2   3
ATOM      3  C   UNL     1      12.075 -23.676  21.389  1.00  0.00     0.000 C 
BRANCH   3   4
ATOM      4  C   UNL     1      12.727 -23.031  20.157  1.00  0.00     0.000 C 
BRANCH   4   5
ATOM      5  C   UNL     1      14.263 -23.035  20.231  1.00  0.00     0.006 C 
BRANCH   5   6
ATOM      6  C   UNL     1      14.854 -24.416  19.921  1.00  0.00     0.053 C 
BRANCH   6   7
ATOM      7  C   UNL     1      15.277 -25.132  21.168  1.00  0.00     0.041 C 
ATOM      8  O   UNL     1      15.325 -26.389  21.191  1.00  0.00    -0.550 OA
ATOM      9  O   UNL     1      15.584 -24.409  22.314  1.00  0.00    -0.550 OA
ENDBRANCH   6   7
ENDBRANCH   5   6
ENDBRANCH   4   5
ENDBRANCH   3   4
ENDBRANCH   2   3
ENDBRANCH   1   2
BRANCH   1  10
ATOM     10  C   UNL     1       9.793 -24.069  22.902  1.00  0.00     0.000 C 
BRANCH  10  11
ATOM     11  C   UNL     1       9.426 -24.476  24.334  1.00  0.00    -0.000 C 
BRANCH  11  12
ATOM     12  C   UNL     1       9.943 -23.449  25.348  1.00  0.00    -0.000 C 
BRANCH  12  13
ATOM     13  C   UNL     1      11.187 -23.974  26.078  1.00  0.00    -0.000 C 
BRANCH  13  14
ATOM     14  C   UNL     1      12.492 -23.332  25.573  1.00  0.00    -0.000 C 
BRANCH  14  15
ATOM     15  C   UNL     1      12.270 -22.047  24.748  1.00  0.00    -0.003 C 
ATOM     16  C   UNL     1      13.517 -21.635  23.966  1.00  0.00     0.004 C 
ENDBRANCH  14  15
ENDBRANCH  13  14
ENDBRANCH  12  13
ENDBRANCH  11  12
ENDBRANCH  10  11
ENDBRANCH   1  10
TORSDOF 12
ENDMDL
MODEL 7
REMARK VINA RESULT:    -5.066      2.877      5.945
REMARK INTER + INTRA:          -9.994
REMARK INTER:                  -8.622
REMARK INTRA:                  -1.372
REMARK UNBOUND:                -1.374
REMARK SMILES CCCCCCCCCCCCCC(=O)[O-]
REMARK SMILES IDX 8 1 9 2 10 3 11 4 12 5 13 6 14 7 15 8 16 9 7 10 6 11 5 12
REMARK SMILES IDX 4 13 3 14 2 15 1 16
REMARK H PARENT
REMARK Flexibility Score: inf
ROOT
ATOM      1  C   UNL     1      12.255 -22.603  22.659  1.00  0.00     0.000 C 
ENDROOT
BRANCH   1   2
ATOM      2  C   UNL     1      11.970 -23.913  21.908  1.00  0.00     0.000 C 
BRANCH   2   3
ATOM      3  C   UNL     1      12.357 -23.838  20.420  1.00  0.00     0.000 C 
BRANCH   3   4
ATOM      4  C   UNL     1      13.418 -22.762  20.140  1.00  0.00     0.000 C 
BRANCH   4   5
ATOM      5  C   UNL     1      14.815 -23.357  19.902  1.00  0.00     0.006 C 
BRANCH   5   6
ATOM      6  C   UNL     1      14.813 -24.890  19.976  1.00  0.00     0.053 C 
BRANCH   6   7
ATOM      7  C   UNL     1      15.376 -25.383  21.275  1.00  0.00     0.041 C 
ATOM      8  O   UNL     1      15.483 -26.619  21.489  1.00  0.00    -0.550 OA
ATOM      9  O   UNL     1      15.748 -24.478  22.260  1.00  0.00    -0.550 OA
ENDBRANCH   6   7
ENDBRANCH   5   6
ENDBRANCH   4   5
ENDBRANCH   3   4
ENDBRANCH   2   3
ENDBRANCH   1   2
BRANCH   1  10
ATOM     10  C   UNL     1      12.237 -22.781  24.184  1.00  0.00     0.000 C 
BRANCH  10  11
ATOM     11  C   UNL     1      11.281 -21.778  24.843  1.00  0.00    -0.000 C 
BRANCH  11  12
ATOM     12  C   UNL     1       9.992 -22.468  25.302  1.00  0.00    -0.000 C 
BRANCH  12  13
ATOM     13  C   UNL     1      10.207 -23.979  25.471  1.00  0.00    -0.000 C 
BRANCH  13  14
ATOM     14  C   UNL     1       9.333 -24.818  24.521  1.00  0.00    -0.000 C 
BRANCH  14  15
ATOM     15  C   UNL     1       8.642 -23.986  23.421  1.00  0.00    -0.003 C 
ATOM     16  C   UNL     1       8.409 -24.789  22.142  1.00  0.00     0.004 C 
ENDBRANCH  14  15
ENDBRANCH  13  14
ENDBRANCH  12  13
ENDBRANCH  11  12
ENDBRANCH  10  11
ENDBRANCH   1  10
TORSDOF 12
ENDMDL
MODEL 8
REMARK VINA RESULT:    -5.053      1.292      3.211
REMARK INTER + INTRA:          -9.972
REMARK INTER:                  -8.446
REMARK INTRA:                  -1.526
REMARK UNBOUND:                -1.374
REMARK SMILES CCCCCCCCCCCCCC(=O)[O-]
REMARK SMILES IDX 8 1 9 2 10 3 11 4 12 5 13 6 14 7 15 8 16 9 7 10 6 11 5 12
REMARK SMILES IDX 4 13 3 14 2 15 1 16
REMARK H PARENT
REMARK Flexibility Score: inf
ROOT
ATOM      1  C   UNL     1      14.291 -22.290  24.325  1.00  0.00     0.000 C 
ENDROOT
BRANCH   1   2
ATOM      2  C   UNL     1      13.166 -23.332  24.408  1.00  0.00     0.000 C 
BRANCH   2   3
ATOM      3  C   UNL     1      11.803 -22.768  23.968  1.00  0.00     0.000 C 
BRANCH   3   4
ATOM      4  C   UNL     1      11.205 -21.801  25.002  1.00  0.00     0.000 C 
BRANCH   4   5
ATOM      5  C   UNL     1       9.948 -22.367  25.683  1.00  0.00     0.006 C 
BRANCH   5   6
ATOM      6  C   UNL     1       9.731 -23.851  25.359  1.00  0.00     0.053 C 
BRANCH   6   7
ATOM      7  C   UNL     1      10.118 -24.732  26.508  1.00  0.00     0.041 C 
ATOM      8  O   UNL     1       9.321 -25.612  26.927  1.00  0.00    -0.550 OA
ATOM      9  O   UNL     1      11.344 -24.556  27.138  1.00  0.00    -0.550 OA
ENDBRANCH   6   7
ENDBRANCH   5   6
ENDBRANCH   4   5
ENDBRANCH   3   4
ENDBRANCH   2   3
ENDBRANCH   1   2
BRANCH   1  10
ATOM     10  C   UNL     1      14.895 -22.183  22.917  1.00  0.00     0.000 C 
BRANCH  10  11
ATOM     11  C   UNL     1      15.502 -23.522  22.476  1.00  0.00    -0.000 C 
BRANCH  11  12
ATOM     12  C   UNL     1      14.970 -23.941  21.101  1.00  0.00    -0.000 C 
BRANCH  12  13
ATOM     13  C   UNL     1      14.072 -22.849  20.503  1.00  0.00    -0.000 C 
BRANCH  13  14
ATOM     14  C   UNL     1      12.602 -23.286  20.376  1.00  0.00    -0.000 C 
BRANCH  14  15
ATOM     15  C   UNL     1      12.354 -24.750  20.794  1.00  0.00    -0.003 C 
ATOM     16  C   UNL     1      10.918 -24.988  21.262  1.00  0.00     0.004 C 
ENDBRANCH  14  15
ENDBRANCH  13  14
ENDBRANCH  12  13
ENDBRANCH  11  12
ENDBRANCH  10  11
ENDBRANCH   1  10
TORSDOF 12
ENDMDL
MODEL 9
REMARK VINA RESULT:    -4.905      1.934      3.817
REMARK INTER + INTRA:          -9.721
REMARK INTER:                  -8.183
REMARK INTRA:                  -1.538
REMARK UNBOUND:                -1.374
REMARK SMILES CCCCCCCCCCCCCC(=O)[O-]
REMARK SMILES IDX 8 1 9 2 10 3 11 4 12 5 13 6 14 7 15 8 16 9 7 10 6 11 5 12
REMARK SMILES IDX 4 13 3 14 2 15 1 16
REMARK H PARENT
REMARK Flexibility Score: inf
ROOT
ATOM      1  C   UNL     1      14.688 -21.870  23.714  1.00  0.00     0.000 C 
ENDROOT
BRANCH   1   2
ATOM      2  C   UNL     1      13.269 -21.512  24.179  1.00  0.00     0.000 C 
BRANCH   2   3
ATOM      3  C   UNL     1      12.458 -22.748  24.610  1.00  0.00     0.000 C 
BRANCH   3   4
ATOM      4  C   UNL     1      11.080 -22.813  23.934  1.00  0.00     0.000 C 
BRANCH   4   5
ATOM      5  C   UNL     1       9.954 -23.170  24.919  1.00  0.00     0.006 C 
BRANCH   5   6
ATOM      6  C   UNL     1       9.289 -24.511  24.580  1.00  0.00     0.053 C 
BRANCH   6   7
ATOM      7  C   UNL     1       8.646 -24.485  23.227  1.00  0.00     0.041 C 
ATOM      8  O   UNL     1       7.653 -23.742  23.012  1.00  0.00    -0.550 OA
ATOM      9  O   UNL     1       9.123 -25.307  22.214  1.00  0.00    -0.550 OA
ENDBRANCH   6   7
ENDBRANCH   5   6
ENDBRANCH   4   5
ENDBRANCH   3   4
ENDBRANCH   2   3
ENDBRANCH   1   2
BRANCH   1  10
ATOM     10  C   UNL     1      14.861 -23.373  23.447  1.00  0.00     0.000 C 
BRANCH  10  11
ATOM     11  C   UNL     1      15.572 -23.615  22.110  1.00  0.00    -0.000 C 
BRANCH  11  12
ATOM     12  C   UNL     1      15.118 -22.601  21.054  1.00  0.00    -0.000 C 
BRANCH  12  13
ATOM     13  C   UNL     1      14.249 -23.275  19.982  1.00  0.00    -0.000 C 
BRANCH  13  14
ATOM     14  C   UNL     1      12.753 -23.285  20.345  1.00  0.00    -0.000 C 
BRANCH  14  15
ATOM     15  C   UNL     1      12.235 -24.669  20.791  1.00  0.00    -0.003 C 
ATOM     16  C   UNL     1      13.145 -25.808  20.332  1.00  0.00     0.004 C 
ENDBRANCH  14  15
ENDBRANCH  13  14
ENDBRANCH  12  13
ENDBRANCH  11  12
ENDBRANCH  10  11
ENDBRANCH   1  10
TORSDOF 12
ENDMDL
