MODEL 1
REMARK VINA RESULT:    -3.329      0.000      0.000
REMARK INTER + INTRA:          -4.068
REMARK INTER:                  -3.913
REMARK INTRA:                  -0.155
REMARK UNBOUND:                -0.155
REMARK SMILES O=C([O-])CCC(=O)[O-]
REMARK SMILES IDX 4 1 2 2 1 3 3 4 5 5 6 6 7 7 8 8
REMARK H PARENT
REMARK Flexibility Score: inf
ROOT
ATOM      1  C   UNL     1     113.911 -83.929  20.471  1.00  0.00     0.059 C 
ENDROOT
BRANCH   1   2
ATOM      2  C   UNL     1     112.837 -83.245  21.261  1.00  0.00     0.042 C 
ATOM      3  O   UNL     1     112.454 -83.729  22.359  1.00  0.00    -0.550 OA
ATOM      4  O   UNL     1     112.290 -82.052  20.806  1.00  0.00    -0.550 OA
ENDBRANCH   1   2
BRANCH   1   5
ATOM      5  C   UNL     1     115.059 -82.971  20.132  1.00  0.00     0.059 C 
BRANCH   5   6
ATOM      6  C   UNL     1     115.876 -82.641  21.345  1.00  0.00     0.042 C 
ATOM      7  O   UNL     1     116.708 -83.473  21.794  1.00  0.00    -0.550 OA
ATOM      8  O   UNL     1     115.691 -81.431  22.000  1.00  0.00    -0.550 OA
ENDBRANCH   5   6
ENDBRANCH   1   5
TORSDOF 3
ENDMDL
MODEL 2
REMARK VINA RESULT:    -3.294      1.606      2.276
REMARK INTER + INTRA:          -4.027
REMARK INTER:                  -3.992
REMARK INTRA:                  -0.035
REMARK UNBOUND:                -0.155
REMARK SMILES O=C([O-])CCC(=O)[O-]
REMARK SMILES IDX 4 1 2 2 1 3 3 4 5 5 6 6 7 7 8 8
REMARK H PARENT
REMARK Flexibility Score: inf
ROOT
ATOM      1  C   UNL     1     115.061 -82.691  21.499  1.00  0.00     0.059 C 
ENDROOT
BRANCH   1   2
ATOM      2  C   UNL     1     113.903 -83.525  21.044  1.00  0.00     0.042 C 
ATOM      3  O   UNL     1     113.949 -84.125  19.937  1.00  0.00    -0.550 OA
ATOM      4  O   UNL     1     112.789 -83.675  21.861  1.00  0.00    -0.550 OA
ENDBRANCH   1   2
BRANCH   1   5
ATOM      5  C   UNL     1     116.395 -83.419  21.297  1.00  0.00     0.059 C 
BRANCH   5   6
ATOM      6  C   UNL     1     117.550 -82.596  21.782  1.00  0.00     0.042 C 
ATOM      7  O   UNL     1     117.387 -81.381  22.065  1.00  0.00    -0.550 OA
ATOM      8  O   UNL     1     118.813 -83.164  21.884  1.00  0.00    -0.550 OA
ENDBRANCH   5   6
ENDBRANCH   1   5
TORSDOF 3
ENDMDL
MODEL 3
REMARK VINA RESULT:    -3.282      0.124      3.576
REMARK INTER + INTRA:          -4.013
REMARK INTER:                  -3.871
REMARK INTRA:                  -0.141
REMARK UNBOUND:                -0.155
REMARK SMILES O=C([O-])CCC(=O)[O-]
REMARK SMILES IDX 4 1 2 2 1 3 3 4 5 5 6 6 7 7 8 8
REMARK H PARENT
REMARK Flexibility Score: inf
ROOT
ATOM      1  C   UNL     1     115.071 -82.950  20.141  1.00  0.00     0.059 C 
ENDROOT
BRANCH   1   2
ATOM      2  C   UNL     1     115.871 -82.535  21.338  1.00  0.00     0.042 C 
ATOM      3  O   UNL     1     115.690 -81.403  21.860  1.00  0.00    -0.550 OA
ATOM      4  O   UNL     1     116.785 -83.416  21.904  1.00  0.00    -0.550 OA
ENDBRANCH   1   2
BRANCH   1   5
ATOM      5  C   UNL     1     113.963 -83.939  20.517  1.00  0.00     0.059 C 
BRANCH   5   6
ATOM      6  C   UNL     1     112.819 -83.252  21.199  1.00  0.00     0.042 C 
ATOM      7  O   UNL     1     112.296 -82.230  20.684  1.00  0.00    -0.550 OA
ATOM      8  O   UNL     1     112.358 -83.718  22.423  1.00  0.00    -0.550 OA
ENDBRANCH   5   6
ENDBRANCH   1   5
TORSDOF 3
ENDMDL
MODEL 4
REMARK VINA RESULT:    -3.278      1.594      1.963
REMARK INTER + INTRA:          -4.008
REMARK INTER:                  -3.974
REMARK INTRA:                  -0.035
REMARK UNBOUND:                -0.155
REMARK SMILES O=C([O-])CCC(=O)[O-]
REMARK SMILES IDX 4 1 2 2 1 3 3 4 5 5 6 6 7 7 8 8
REMARK H PARENT
REMARK Flexibility Score: inf
ROOT
ATOM      1  C   UNL     1     115.061 -82.694  21.488  1.00  0.00     0.059 C 
ENDROOT
BRANCH   1   2
ATOM      2  C   UNL     1     113.886 -83.515  21.054  1.00  0.00     0.042 C 
ATOM      3  O   UNL     1     113.910 -84.123  19.951  1.00  0.00    -0.550 OA
ATOM      4  O   UNL     1     112.781 -83.644  21.886  1.00  0.00    -0.550 OA
ENDBRANCH   1   2
BRANCH   1   5
ATOM      5  C   UNL     1     116.373 -83.478  21.367  1.00  0.00     0.059 C 
BRANCH   5   6
ATOM      6  C   UNL     1     117.565 -82.593  21.578  1.00  0.00     0.042 C 
ATOM      7  O   UNL     1     118.728 -83.058  21.458  1.00  0.00    -0.550 OA
ATOM      8  O   UNL     1     117.388 -81.265  21.945  1.00  0.00    -0.550 OA
ENDBRANCH   5   6
ENDBRANCH   1   5
TORSDOF 3
ENDMDL
MODEL 5
REMARK VINA RESULT:    -3.270      7.747      9.136
REMARK INTER + INTRA:          -3.999
REMARK INTER:                  -3.951
REMARK INTRA:                  -0.048
REMARK UNBOUND:                -0.155
REMARK SMILES O=C([O-])CCC(=O)[O-]
REMARK SMILES IDX 4 1 2 2 1 3 3 4 5 5 6 6 7 7 8 8
REMARK H PARENT
REMARK Flexibility Score: inf
ROOT
ATOM      1  C   UNL     1     107.472 -82.729  24.461  1.00  0.00     0.059 C 
ENDROOT
BRANCH   1   2
ATOM      2  C   UNL     1     107.642 -81.970  25.742  1.00  0.00     0.042 C 
ATOM      3  O   UNL     1     108.786 -81.831  26.249  1.00  0.00    -0.550 OA
ATOM      4  O   UNL     1     106.542 -81.380  26.353  1.00  0.00    -0.550 OA
ENDBRANCH   1   2
BRANCH   1   5
ATOM      5  C   UNL     1     106.328 -83.745  24.554  1.00  0.00     0.059 C 
BRANCH   5   6
ATOM      6  C   UNL     1     105.483 -83.737  23.316  1.00  0.00     0.042 C 
ATOM      7  O   UNL     1     104.282 -84.111  23.366  1.00  0.00    -0.550 OA
ATOM      8  O   UNL     1     106.034 -83.355  22.100  1.00  0.00    -0.550 OA
ENDBRANCH   5   6
ENDBRANCH   1   5
TORSDOF 3
ENDMDL
MODEL 6
REMARK VINA RESULT:    -3.267      1.618      4.043
REMARK INTER + INTRA:          -3.995
REMARK INTER:                  -3.963
REMARK INTRA:                  -0.032
REMARK UNBOUND:                -0.155
REMARK SMILES O=C([O-])CCC(=O)[O-]
REMARK SMILES IDX 4 1 2 2 1 3 3 4 5 5 6 6 7 7 8 8
REMARK H PARENT
REMARK Flexibility Score: inf
ROOT
ATOM      1  C   UNL     1     116.454 -83.448  21.338  1.00  0.00     0.059 C 
ENDROOT
BRANCH   1   2
ATOM      2  C   UNL     1     117.628 -82.595  21.711  1.00  0.00     0.042 C 
ATOM      3  O   UNL     1     118.778 -83.100  21.793  1.00  0.00    -0.550 OA
ATOM      4  O   UNL     1     117.458 -81.233  21.927  1.00  0.00    -0.550 OA
ENDBRANCH   1   2
BRANCH   1   5
ATOM      5  C   UNL     1     115.144 -82.654  21.373  1.00  0.00     0.059 C 
BRANCH   5   6
ATOM      6  C   UNL     1     113.967 -83.518  21.033  1.00  0.00     0.042 C 
ATOM      7  O   UNL     1     113.924 -84.125  19.931  1.00  0.00    -0.550 OA
ATOM      8  O   UNL     1     112.901 -83.619  21.918  1.00  0.00    -0.550 OA
ENDBRANCH   5   6
ENDBRANCH   1   5
TORSDOF 3
ENDMDL
MODEL 7
REMARK VINA RESULT:    -3.222      7.666      8.668
REMARK INTER + INTRA:          -3.942
REMARK INTER:                  -3.819
REMARK INTRA:                  -0.124
REMARK UNBOUND:                -0.155
REMARK SMILES O=C([O-])CCC(=O)[O-]
REMARK SMILES IDX 4 1 2 2 1 3 3 4 5 5 6 6 7 7 8 8
REMARK H PARENT
REMARK Flexibility Score: inf
ROOT
ATOM      1  C   UNL     1     106.432 -83.715  24.300  1.00  0.00     0.059 C 
ENDROOT
BRANCH   1   2
ATOM      2  C   UNL     1     105.378 -83.290  23.324  1.00  0.00     0.042 C 
ATOM      3  O   UNL     1     104.887 -84.125  22.519  1.00  0.00    -0.550 OA
ATOM      4  O   UNL     1     104.907 -81.983  23.333  1.00  0.00    -0.550 OA
ENDBRANCH   1   2
BRANCH   1   5
ATOM      5  C   UNL     1     107.579 -82.701  24.369  1.00  0.00     0.059 C 
BRANCH   5   6
ATOM      6  C   UNL     1     107.641 -82.029  25.707  1.00  0.00     0.042 C 
ATOM      7  O   UNL     1     106.582 -81.668  26.284  1.00  0.00    -0.550 OA
ATOM      8  O   UNL     1     108.870 -81.766  26.297  1.00  0.00    -0.550 OA
ENDBRANCH   5   6
ENDBRANCH   1   5
TORSDOF 3
ENDMDL
MODEL 8
REMARK VINA RESULT:    -3.186      2.509      4.856
REMARK INTER + INTRA:          -3.900
REMARK INTER:                  -3.783
REMARK INTRA:                  -0.117
REMARK UNBOUND:                -0.155
REMARK SMILES O=C([O-])CCC(=O)[O-]
REMARK SMILES IDX 4 1 2 2 1 3 3 4 5 5 6 6 7 7 8 8
REMARK H PARENT
REMARK Flexibility Score: inf
ROOT
ATOM      1  C   UNL     1     118.545 -82.827  21.464  1.00  0.00     0.059 C 
ENDROOT
BRANCH   1   2
ATOM      2  C   UNL     1     119.189 -82.717  22.812  1.00  0.00     0.042 C 
ATOM      3  O   UNL     1     119.682 -83.736  23.364  1.00  0.00    -0.550 OA
ATOM      4  O   UNL     1     119.283 -81.481  23.441  1.00  0.00    -0.550 OA
ENDBRANCH   1   2
BRANCH   1   5
ATOM      5  C   UNL     1     117.100 -83.326  21.568  1.00  0.00     0.059 C 
BRANCH   5   6
ATOM      6  C   UNL     1     116.127 -82.188  21.631  1.00  0.00     0.042 C 
ATOM      7  O   UNL     1     114.908 -82.407  21.858  1.00  0.00    -0.550 OA
ATOM      8  O   UNL     1     116.561 -80.889  21.399  1.00  0.00    -0.550 OA
ENDBRANCH   5   6
ENDBRANCH   1   5
TORSDOF 3
ENDMDL
MODEL 9
REMARK VINA RESULT:    -3.149      2.522      3.603
REMARK INTER + INTRA:          -3.856
REMARK INTER:                  -3.737
REMARK INTRA:                  -0.120
REMARK UNBOUND:                -0.155
REMARK SMILES O=C([O-])CCC(=O)[O-]
REMARK SMILES IDX 4 1 2 2 1 3 3 4 5 5 6 6 7 7 8 8
REMARK H PARENT
REMARK Flexibility Score: inf
ROOT
ATOM      1  C   UNL     1     117.185 -83.351  21.516  1.00  0.00     0.059 C 
ENDROOT
BRANCH   1   2
ATOM      2  C   UNL     1     116.118 -82.303  21.605  1.00  0.00     0.042 C 
ATOM      3  O   UNL     1     114.930 -82.628  21.867  1.00  0.00    -0.550 OA
ATOM      4  O   UNL     1     116.444 -80.962  21.439  1.00  0.00    -0.550 OA
ENDBRANCH   1   2
BRANCH   1   5
ATOM      5  C   UNL     1     118.585 -82.729  21.479  1.00  0.00     0.059 C 
BRANCH   5   6
ATOM      6  C   UNL     1     119.185 -82.640  22.850  1.00  0.00     0.042 C 
ATOM      7  O   UNL     1     119.622 -83.675  23.419  1.00  0.00    -0.550 OA
ATOM      8  O   UNL     1     119.225 -81.421  23.514  1.00  0.00    -0.550 OA
ENDBRANCH   5   6
ENDBRANCH   1   5
TORSDOF 3
ENDMDL
