MODEL 1
REMARK VINA RESULT:    -6.067      0.000      0.000
REMARK INTER + INTRA:          -8.180
REMARK INTER:                  -7.663
REMARK INTRA:                  -0.517
REMARK UNBOUND:                -0.517
REMARK SMILES Oc1cc(O)cc(CCc2ccccc2O)c1
REMARK SMILES IDX 9 1 10 2 12 3 13 4 11 5 14 6 15 7 16 8 8 10 7 11 6 12 17 13
REMARK SMILES IDX 4 14 2 15 3 16 5 17 1 19
REMARK H PARENT 16 9 5 18 1 20
REMARK Flexibility Score: inf
ROOT
ATOM      1  C   UNL     1     -13.440   1.673  27.616  1.00  0.00     0.044 C 
ENDROOT
BRANCH   1   2
ATOM      2  C   UNL     1     -14.596   2.529  27.166  1.00  0.00    -0.006 A 
ATOM      3  C   UNL     1     -16.862   3.341  27.523  1.00  0.00     0.001 A 
ATOM      4  C   UNL     1     -16.798   4.057  26.326  1.00  0.00     0.004 A 
ATOM      5  C   UNL     1     -15.769   2.576  27.940  1.00  0.00     0.007 A 
ATOM      6  C   UNL     1     -15.645   4.007  25.541  1.00  0.00     0.046 A 
ATOM      7  C   UNL     1     -14.543   3.241  25.950  1.00  0.00     0.118 A 
BRANCH   7   8
ATOM      8  O   UNL     1     -13.399   3.183  25.153  1.00  0.00    -0.508 OA
ATOM      9  H   UNL     1     -12.474   3.098  25.558  1.00  0.00     0.293 HD
ENDBRANCH   7   8
ENDBRANCH   1   2
BRANCH   1  10
ATOM     10  C   UNL     1     -13.819   0.865  28.860  1.00  0.00     0.040 C 
BRANCH  10  11
ATOM     11  C   UNL     1     -13.028   1.328  30.054  1.00  0.00    -0.040 A 
ATOM     12  C   UNL     1     -12.544   2.644  30.115  1.00  0.00     0.050 A 
ATOM     13  C   UNL     1     -12.719   0.430  31.088  1.00  0.00     0.050 A 
ATOM     14  C   UNL     1     -11.778   3.067  31.210  1.00  0.00     0.119 A 
ATOM     15  C   UNL     1     -11.956   0.849  32.183  1.00  0.00     0.119 A 
ATOM     16  C   UNL     1     -11.488   2.170  32.244  1.00  0.00     0.092 A 
BRANCH  14  17
ATOM     17  O   UNL     1     -11.300   4.373  31.281  1.00  0.00    -0.508 OA
ATOM     18  H   UNL     1     -11.376   4.919  32.131  1.00  0.00     0.293 HD
ENDBRANCH  14  17
BRANCH  15  19
ATOM     19  O   UNL     1     -11.665  -0.053  33.204  1.00  0.00    -0.508 OA
ATOM     20  H   UNL     1     -12.226  -0.884  33.351  1.00  0.00     0.293 HD
ENDBRANCH  15  19
ENDBRANCH  10  11
ENDBRANCH   1  10
TORSDOF 6
ENDMDL
MODEL 2
REMARK VINA RESULT:    -6.044      1.433      6.544
REMARK INTER + INTRA:          -8.151
REMARK INTER:                  -7.714
REMARK INTRA:                  -0.437
REMARK UNBOUND:                -0.517
REMARK SMILES Oc1cc(O)cc(CCc2ccccc2O)c1
REMARK SMILES IDX 9 1 10 2 12 3 13 4 11 5 14 6 15 7 16 8 8 10 7 11 6 12 17 13
REMARK SMILES IDX 4 14 2 15 3 16 5 17 1 19
REMARK H PARENT 16 9 5 18 1 20
REMARK Flexibility Score: inf
ROOT
ATOM      1  C   UNL     1     -13.212   2.793  29.082  1.00  0.00     0.044 C 
ENDROOT
BRANCH   1   2
ATOM      2  C   UNL     1     -12.766   1.939  30.240  1.00  0.00    -0.006 A 
ATOM      3  C   UNL     1     -12.771  -0.211  31.379  1.00  0.00     0.001 A 
ATOM      4  C   UNL     1     -12.013   0.332  32.418  1.00  0.00     0.004 A 
ATOM      5  C   UNL     1     -13.151   0.588  30.297  1.00  0.00     0.007 A 
ATOM      6  C   UNL     1     -11.636   1.676  32.381  1.00  0.00     0.046 A 
ATOM      7  C   UNL     1     -12.013   2.487  31.299  1.00  0.00     0.118 A 
BRANCH   7   8
ATOM      8  O   UNL     1     -11.647   3.833  31.276  1.00  0.00    -0.508 OA
ATOM      9  H   UNL     1     -11.063   4.211  30.539  1.00  0.00     0.293 HD
ENDBRANCH   7   8
ENDBRANCH   1   2
BRANCH   1  10
ATOM     10  C   UNL     1     -13.345   1.952  27.810  1.00  0.00     0.040 C 
BRANCH  10  11
ATOM     11  C   UNL     1     -14.228   2.643  26.806  1.00  0.00    -0.040 A 
ATOM     12  C   UNL     1     -13.846   2.714  25.457  1.00  0.00     0.050 A 
ATOM     13  C   UNL     1     -15.411   3.274  27.222  1.00  0.00     0.050 A 
ATOM     14  C   UNL     1     -14.650   3.387  24.528  1.00  0.00     0.119 A 
ATOM     15  C   UNL     1     -16.217   3.947  26.297  1.00  0.00     0.119 A 
ATOM     16  C   UNL     1     -15.835   4.000  24.948  1.00  0.00     0.092 A 
BRANCH  14  17
ATOM     17  O   UNL     1     -14.281   3.456  23.187  1.00  0.00    -0.508 OA
ATOM     18  H   UNL     1     -14.940   3.738  22.470  1.00  0.00     0.293 HD
ENDBRANCH  14  17
BRANCH  15  19
ATOM     19  O   UNL     1     -17.391   4.561  26.726  1.00  0.00    -0.508 OA
ATOM     20  H   UNL     1     -17.796   4.353  27.632  1.00  0.00     0.293 HD
ENDBRANCH  15  19
ENDBRANCH  10  11
ENDBRANCH   1  10
TORSDOF 6
ENDMDL
MODEL 3
REMARK VINA RESULT:    -6.038      0.061      2.036
REMARK INTER + INTRA:          -8.144
REMARK INTER:                  -7.623
REMARK INTRA:                  -0.520
REMARK UNBOUND:                -0.517
REMARK SMILES Oc1cc(O)cc(CCc2ccccc2O)c1
REMARK SMILES IDX 9 1 10 2 12 3 13 4 11 5 14 6 15 7 16 8 8 10 7 11 6 12 17 13
REMARK SMILES IDX 4 14 2 15 3 16 5 17 1 19
REMARK H PARENT 16 9 5 18 1 20
REMARK Flexibility Score: inf
ROOT
ATOM      1  C   UNL     1     -13.453   1.710  27.589  1.00  0.00     0.044 C 
ENDROOT
BRANCH   1   2
ATOM      2  C   UNL     1     -14.608   2.577  27.158  1.00  0.00    -0.006 A 
ATOM      3  C   UNL     1     -16.875   3.377  27.530  1.00  0.00     0.001 A 
ATOM      4  C   UNL     1     -16.809   4.124  26.351  1.00  0.00     0.004 A 
ATOM      5  C   UNL     1     -15.783   2.603  27.930  1.00  0.00     0.007 A 
ATOM      6  C   UNL     1     -15.654   4.094  25.568  1.00  0.00     0.046 A 
ATOM      7  C   UNL     1     -14.552   3.319  25.961  1.00  0.00     0.118 A 
BRANCH   7   8
ATOM      8  O   UNL     1     -13.406   3.282  25.166  1.00  0.00    -0.508 OA
ATOM      9  H   UNL     1     -12.947   4.131  24.857  1.00  0.00     0.293 HD
ENDBRANCH   7   8
ENDBRANCH   1   2
BRANCH   1  10
ATOM     10  C   UNL     1     -13.818   0.907  28.841  1.00  0.00     0.040 C 
BRANCH  10  11
ATOM     11  C   UNL     1     -12.991   1.354  30.017  1.00  0.00    -0.040 A 
ATOM     12  C   UNL     1     -12.711   0.462  31.064  1.00  0.00     0.050 A 
ATOM     13  C   UNL     1     -12.544   2.682  30.102  1.00  0.00     0.050 A 
ATOM     14  C   UNL     1     -11.970   0.887  32.176  1.00  0.00     0.119 A 
ATOM     15  C   UNL     1     -11.804   3.109  31.211  1.00  0.00     0.119 A 
ATOM     16  C   UNL     1     -11.515   2.208  32.246  1.00  0.00     0.092 A 
BRANCH  14  17
ATOM     17  O   UNL     1     -11.682   0.007  33.216  1.00  0.00    -0.508 OA
ATOM     18  H   UNL     1     -11.048  -0.774  33.089  1.00  0.00     0.293 HD
ENDBRANCH  14  17
BRANCH  15  19
ATOM     19  O   UNL     1     -11.363   4.428  31.275  1.00  0.00    -0.508 OA
ATOM     20  H   UNL     1     -11.724   5.074  31.968  1.00  0.00     0.293 HD
ENDBRANCH  15  19
ENDBRANCH  10  11
ENDBRANCH   1  10
TORSDOF 6
ENDMDL
MODEL 4
REMARK VINA RESULT:    -6.013      1.430      6.576
REMARK INTER + INTRA:          -8.113
REMARK INTER:                  -7.713
REMARK INTRA:                  -0.400
REMARK UNBOUND:                -0.517
REMARK SMILES Oc1cc(O)cc(CCc2ccccc2O)c1
REMARK SMILES IDX 9 1 10 2 12 3 13 4 11 5 14 6 15 7 16 8 8 10 7 11 6 12 17 13
REMARK SMILES IDX 4 14 2 15 3 16 5 17 1 19
REMARK H PARENT 16 9 5 18 1 20
REMARK Flexibility Score: inf
ROOT
ATOM      1  C   UNL     1     -13.161   2.656  29.062  1.00  0.00     0.044 C 
ENDROOT
BRANCH   1   2
ATOM      2  C   UNL     1     -12.714   1.851  30.256  1.00  0.00    -0.006 A 
ATOM      3  C   UNL     1     -12.684  -0.261  31.463  1.00  0.00     0.001 A 
ATOM      4  C   UNL     1     -11.961   0.337  32.498  1.00  0.00     0.004 A 
ATOM      5  C   UNL     1     -13.064   0.493  30.349  1.00  0.00     0.007 A 
ATOM      6  C   UNL     1     -11.621   1.689  32.424  1.00  0.00     0.046 A 
ATOM      7  C   UNL     1     -11.998   2.454  31.311  1.00  0.00     0.118 A 
BRANCH   7   8
ATOM      8  O   UNL     1     -11.668   3.808  31.251  1.00  0.00    -0.508 OA
ATOM      9  H   UNL     1     -11.581   4.370  32.089  1.00  0.00     0.293 HD
ENDBRANCH   7   8
ENDBRANCH   1   2
BRANCH   1  10
ATOM     10  C   UNL     1     -14.023   1.803  28.129  1.00  0.00     0.040 C 
BRANCH  10  11
ATOM     11  C   UNL     1     -14.646   2.655  27.055  1.00  0.00    -0.040 A 
ATOM     12  C   UNL     1     -15.798   3.410  27.330  1.00  0.00     0.050 A 
ATOM     13  C   UNL     1     -14.114   2.656  25.756  1.00  0.00     0.050 A 
ATOM     14  C   UNL     1     -16.398   4.177  26.323  1.00  0.00     0.119 A 
ATOM     15  C   UNL     1     -14.711   3.421  24.748  1.00  0.00     0.119 A 
ATOM     16  C   UNL     1     -15.852   4.184  25.034  1.00  0.00     0.092 A 
BRANCH  14  17
ATOM     17  O   UNL     1     -17.537   4.933  26.589  1.00  0.00    -0.508 OA
ATOM     18  H   UNL     1     -17.999   4.895  27.490  1.00  0.00     0.293 HD
ENDBRANCH  14  17
BRANCH  15  19
ATOM     19  O   UNL     1     -14.165   3.416  23.467  1.00  0.00    -0.508 OA
ATOM     20  H   UNL     1     -13.840   2.559  23.033  1.00  0.00     0.293 HD
ENDBRANCH  15  19
ENDBRANCH  10  11
ENDBRANCH   1  10
TORSDOF 6
ENDMDL
MODEL 5
REMARK VINA RESULT:    -5.843      1.706      6.528
REMARK INTER + INTRA:          -7.897
REMARK INTER:                  -7.379
REMARK INTRA:                  -0.518
REMARK UNBOUND:                -0.517
REMARK SMILES Oc1cc(O)cc(CCc2ccccc2O)c1
REMARK SMILES IDX 9 1 10 2 12 3 13 4 11 5 14 6 15 7 16 8 8 10 7 11 6 12 17 13
REMARK SMILES IDX 4 14 2 15 3 16 5 17 1 19
REMARK H PARENT 16 9 5 18 1 20
REMARK Flexibility Score: inf
ROOT
ATOM      1  C   UNL     1     -13.880   1.460  28.832  1.00  0.00     0.044 C 
ENDROOT
BRANCH   1   2
ATOM      2  C   UNL     1     -13.055   1.779  30.052  1.00  0.00    -0.006 A 
ATOM      3  C   UNL     1     -11.536   3.281  31.217  1.00  0.00     0.001 A 
ATOM      4  C   UNL     1     -11.449   2.376  32.278  1.00  0.00     0.004 A 
ATOM      5  C   UNL     1     -12.330   2.982  30.106  1.00  0.00     0.007 A 
ATOM      6  C   UNL     1     -12.151   1.171  32.229  1.00  0.00     0.046 A 
ATOM      7  C   UNL     1     -12.951   0.862  31.118  1.00  0.00     0.118 A 
BRANCH   7   8
ATOM      8  O   UNL     1     -13.638  -0.352  31.069  1.00  0.00    -0.508 OA
ATOM      9  H   UNL     1     -13.151  -1.239  31.113  1.00  0.00     0.293 HD
ENDBRANCH   7   8
ENDBRANCH   1   2
BRANCH   1  10
ATOM     10  C   UNL     1     -13.159   1.913  27.559  1.00  0.00     0.040 C 
BRANCH  10  11
ATOM     11  C   UNL     1     -14.118   2.599  26.622  1.00  0.00    -0.040 A 
ATOM     12  C   UNL     1     -13.813   2.713  25.257  1.00  0.00     0.050 A 
ATOM     13  C   UNL     1     -15.295   3.181  27.118  1.00  0.00     0.050 A 
ATOM     14  C   UNL     1     -14.689   3.381  24.390  1.00  0.00     0.119 A 
ATOM     15  C   UNL     1     -16.172   3.848  26.255  1.00  0.00     0.119 A 
ATOM     16  C   UNL     1     -15.868   3.945  24.890  1.00  0.00     0.092 A 
BRANCH  14  17
ATOM     17  O   UNL     1     -14.397   3.492  23.033  1.00  0.00    -0.508 OA
ATOM     18  H   UNL     1     -14.875   4.163  22.442  1.00  0.00     0.293 HD
ENDBRANCH  14  17
BRANCH  15  19
ATOM     19  O   UNL     1     -17.339   4.413  26.763  1.00  0.00    -0.508 OA
ATOM     20  H   UNL     1     -17.373   4.809  27.696  1.00  0.00     0.293 HD
ENDBRANCH  15  19
ENDBRANCH  10  11
ENDBRANCH   1  10
TORSDOF 6
ENDMDL
MODEL 6
REMARK VINA RESULT:    -5.810      1.704      6.522
REMARK INTER + INTRA:          -7.856
REMARK INTER:                  -7.319
REMARK INTRA:                  -0.537
REMARK UNBOUND:                -0.517
REMARK SMILES Oc1cc(O)cc(CCc2ccccc2O)c1
REMARK SMILES IDX 9 1 10 2 12 3 13 4 11 5 14 6 15 7 16 8 8 10 7 11 6 12 17 13
REMARK SMILES IDX 4 14 2 15 3 16 5 17 1 19
REMARK H PARENT 16 9 5 18 1 20
REMARK Flexibility Score: inf
ROOT
ATOM      1  C   UNL     1     -13.736   1.222  28.865  1.00  0.00     0.044 C 
ENDROOT
BRANCH   1   2
ATOM      2  C   UNL     1     -12.976   1.567  30.120  1.00  0.00    -0.006 A 
ATOM      3  C   UNL     1     -11.485   3.072  31.317  1.00  0.00     0.001 A 
ATOM      4  C   UNL     1     -11.489   2.208  32.415  1.00  0.00     0.004 A 
ATOM      5  C   UNL     1     -12.220   2.751  30.172  1.00  0.00     0.007 A 
ATOM      6  C   UNL     1     -12.223   1.022  32.369  1.00  0.00     0.046 A 
ATOM      7  C   UNL     1     -12.964   0.691  31.225  1.00  0.00     0.118 A 
BRANCH   7   8
ATOM      8  O   UNL     1     -13.683  -0.504  31.181  1.00  0.00    -0.508 OA
ATOM      9  H   UNL     1     -13.378  -1.325  31.690  1.00  0.00     0.293 HD
ENDBRANCH   7   8
ENDBRANCH   1   2
BRANCH   1  10
ATOM     10  C   UNL     1     -13.035   1.802  27.633  1.00  0.00     0.040 C 
BRANCH  10  11
ATOM     11  C   UNL     1     -14.010   2.569  26.780  1.00  0.00    -0.040 A 
ATOM     12  C   UNL     1     -15.131   3.181  27.363  1.00  0.00     0.050 A 
ATOM     13  C   UNL     1     -13.837   2.629  25.388  1.00  0.00     0.050 A 
ATOM     14  C   UNL     1     -16.058   3.866  26.566  1.00  0.00     0.119 A 
ATOM     15  C   UNL     1     -14.760   3.313  24.590  1.00  0.00     0.119 A 
ATOM     16  C   UNL     1     -15.869   3.934  25.181  1.00  0.00     0.092 A 
BRANCH  14  17
ATOM     17  O   UNL     1     -17.169   4.482  27.137  1.00  0.00    -0.508 OA
ATOM     18  H   UNL     1     -17.701   4.035  27.875  1.00  0.00     0.293 HD
ENDBRANCH  14  17
BRANCH  15  19
ATOM     19  O   UNL     1     -14.568   3.367  23.211  1.00  0.00    -0.508 OA
ATOM     20  H   UNL     1     -15.324   3.610  22.581  1.00  0.00     0.293 HD
ENDBRANCH  15  19
ENDBRANCH  10  11
ENDBRANCH   1  10
TORSDOF 6
ENDMDL
MODEL 7
REMARK VINA RESULT:    -5.806      3.543      6.142
REMARK INTER + INTRA:          -7.851
REMARK INTER:                  -7.424
REMARK INTRA:                  -0.427
REMARK UNBOUND:                -0.517
REMARK SMILES Oc1cc(O)cc(CCc2ccccc2O)c1
REMARK SMILES IDX 9 1 10 2 12 3 13 4 11 5 14 6 15 7 16 8 8 10 7 11 6 12 17 13
REMARK SMILES IDX 4 14 2 15 3 16 5 17 1 19
REMARK H PARENT 16 9 5 18 1 20
REMARK Flexibility Score: inf
ROOT
ATOM      1  C   UNL     1     -11.123   3.204  32.376  1.00  0.00     0.044 C 
ENDROOT
BRANCH   1   2
ATOM      2  C   UNL     1     -11.893   2.217  31.537  1.00  0.00    -0.006 A 
ATOM      3  C   UNL     1     -13.192   1.738  29.537  1.00  0.00     0.001 A 
ATOM      4  C   UNL     1     -13.395   0.428  29.978  1.00  0.00     0.004 A 
ATOM      5  C   UNL     1     -12.450   2.630  30.314  1.00  0.00     0.007 A 
ATOM      6  C   UNL     1     -12.860   0.010  31.198  1.00  0.00     0.046 A 
ATOM      7  C   UNL     1     -12.113   0.899  31.985  1.00  0.00     0.118 A 
BRANCH   7   8
ATOM      8  O   UNL     1     -11.595   0.478  33.210  1.00  0.00    -0.508 OA
ATOM      9  H   UNL     1     -11.933   0.857  34.087  1.00  0.00     0.293 HD
ENDBRANCH   7   8
ENDBRANCH   1   2
BRANCH   1  10
ATOM     10  C   UNL     1     -10.942   4.526  31.626  1.00  0.00     0.040 C 
BRANCH  10  11
ATOM     11  C   UNL     1     -10.614   5.639  32.584  1.00  0.00    -0.040 A 
ATOM     12  C   UNL     1      -9.346   6.243  32.562  1.00  0.00     0.050 A 
ATOM     13  C   UNL     1     -11.553   6.042  33.548  1.00  0.00     0.050 A 
ATOM     14  C   UNL     1      -9.028   7.256  33.476  1.00  0.00     0.119 A 
ATOM     15  C   UNL     1     -11.238   7.053  34.462  1.00  0.00     0.119 A 
ATOM     16  C   UNL     1      -9.975   7.662  34.423  1.00  0.00     0.092 A 
BRANCH  14  17
ATOM     17  O   UNL     1      -7.775   7.864  33.455  1.00  0.00    -0.508 OA
ATOM     18  H   UNL     1      -6.987   7.436  32.983  1.00  0.00     0.293 HD
ENDBRANCH  14  17
BRANCH  15  19
ATOM     19  O   UNL     1     -12.185   7.445  35.406  1.00  0.00    -0.508 OA
ATOM     20  H   UNL     1     -12.806   8.228  35.239  1.00  0.00     0.293 HD
ENDBRANCH  15  19
ENDBRANCH  10  11
ENDBRANCH   1  10
TORSDOF 6
ENDMDL
MODEL 8
REMARK VINA RESULT:    -5.789      3.512      6.212
REMARK INTER + INTRA:          -7.829
REMARK INTER:                  -7.415
REMARK INTRA:                  -0.414
REMARK UNBOUND:                -0.517
REMARK SMILES Oc1cc(O)cc(CCc2ccccc2O)c1
REMARK SMILES IDX 9 1 10 2 12 3 13 4 11 5 14 6 15 7 16 8 8 10 7 11 6 12 17 13
REMARK SMILES IDX 4 14 2 15 3 16 5 17 1 19
REMARK H PARENT 16 9 5 18 1 20
REMARK Flexibility Score: inf
ROOT
ATOM      1  C   UNL     1     -11.102   3.185  32.301  1.00  0.00     0.044 C 
ENDROOT
BRANCH   1   2
ATOM      2  C   UNL     1     -11.896   2.207  31.475  1.00  0.00    -0.006 A 
ATOM      3  C   UNL     1     -13.227   1.737  29.493  1.00  0.00     0.001 A 
ATOM      4  C   UNL     1     -13.444   0.432  29.943  1.00  0.00     0.004 A 
ATOM      5  C   UNL     1     -12.462   2.622  30.257  1.00  0.00     0.007 A 
ATOM      6  C   UNL     1     -12.900   0.012  31.158  1.00  0.00     0.046 A 
ATOM      7  C   UNL     1     -12.131   0.893  31.932  1.00  0.00     0.118 A 
BRANCH   7   8
ATOM      8  O   UNL     1     -11.603   0.471  33.153  1.00  0.00    -0.508 OA
ATOM      9  H   UNL     1     -11.240   1.131  33.831  1.00  0.00     0.293 HD
ENDBRANCH   7   8
ENDBRANCH   1   2
BRANCH   1  10
ATOM     10  C   UNL     1     -11.098   4.568  31.643  1.00  0.00     0.040 C 
BRANCH  10  11
ATOM     11  C   UNL     1     -10.716   5.629  32.641  1.00  0.00    -0.040 A 
ATOM     12  C   UNL     1     -11.647   6.073  33.593  1.00  0.00     0.050 A 
ATOM     13  C   UNL     1      -9.445   6.224  32.589  1.00  0.00     0.050 A 
ATOM     14  C   UNL     1     -11.305   7.084  34.500  1.00  0.00     0.119 A 
ATOM     15  C   UNL     1      -9.100   7.234  33.493  1.00  0.00     0.119 A 
ATOM     16  C   UNL     1     -10.031   7.661  34.451  1.00  0.00     0.092 A 
BRANCH  14  17
ATOM     17  O   UNL     1     -12.220   7.525  35.452  1.00  0.00    -0.508 OA
ATOM     18  H   UNL     1     -12.723   8.398  35.339  1.00  0.00     0.293 HD
ENDBRANCH  14  17
BRANCH  15  19
ATOM     19  O   UNL     1      -7.832   7.807  33.431  1.00  0.00    -0.508 OA
ATOM     20  H   UNL     1      -7.487   8.238  32.581  1.00  0.00     0.293 HD
ENDBRANCH  15  19
ENDBRANCH  10  11
ENDBRANCH   1  10
TORSDOF 6
ENDMDL
MODEL 9
REMARK VINA RESULT:    -5.681      3.492      6.638
REMARK INTER + INTRA:          -7.693
REMARK INTER:                  -7.290
REMARK INTRA:                  -0.403
REMARK UNBOUND:                -0.517
REMARK SMILES Oc1cc(O)cc(CCc2ccccc2O)c1
REMARK SMILES IDX 9 1 10 2 12 3 13 4 11 5 14 6 15 7 16 8 8 10 7 11 6 12 17 13
REMARK SMILES IDX 4 14 2 15 3 16 5 17 1 19
REMARK H PARENT 16 9 5 18 1 20
REMARK Flexibility Score: inf
ROOT
ATOM      1  C   UNL     1     -10.755   4.764  32.430  1.00  0.00     0.044 C 
ENDROOT
BRANCH   1   2
ATOM      2  C   UNL     1     -10.655   6.249  32.661  1.00  0.00    -0.006 A 
ATOM      3  C   UNL     1      -9.944   8.444  31.888  1.00  0.00     0.001 A 
ATOM      4  C   UNL     1     -10.385   9.013  33.085  1.00  0.00     0.004 A 
ATOM      5  C   UNL     1     -10.073   7.068  31.678  1.00  0.00     0.007 A 
ATOM      6  C   UNL     1     -10.950   8.208  34.076  1.00  0.00     0.046 A 
ATOM      7  C   UNL     1     -11.084   6.826  33.875  1.00  0.00     0.118 A 
BRANCH   7   8
ATOM      8  O   UNL     1     -11.636   6.026  34.875  1.00  0.00    -0.508 OA
ATOM      9  H   UNL     1     -12.619   6.079  35.114  1.00  0.00     0.293 HD
ENDBRANCH   7   8
ENDBRANCH   1   2
BRANCH   1  10
ATOM     10  C   UNL     1     -11.519   4.469  31.136  1.00  0.00     0.040 C 
BRANCH  10  11
ATOM     11  C   UNL     1     -11.937   3.024  31.084  1.00  0.00    -0.040 A 
ATOM     12  C   UNL     1     -12.729   2.553  30.025  1.00  0.00     0.050 A 
ATOM     13  C   UNL     1     -11.585   2.149  32.125  1.00  0.00     0.050 A 
ATOM     14  C   UNL     1     -13.147   1.216  29.994  1.00  0.00     0.119 A 
ATOM     15  C   UNL     1     -12.001   0.813  32.096  1.00  0.00     0.119 A 
ATOM     16  C   UNL     1     -12.780   0.347  31.027  1.00  0.00     0.092 A 
BRANCH  14  17
ATOM     17  O   UNL     1     -13.928   0.741  28.943  1.00  0.00    -0.508 OA
ATOM     18  H   UNL     1     -14.888   1.043  28.818  1.00  0.00     0.293 HD
ENDBRANCH  14  17
BRANCH  15  19
ATOM     19  O   UNL     1     -11.637  -0.042  33.133  1.00  0.00    -0.508 OA
ATOM     20  H   UNL     1     -10.980  -0.801  32.989  1.00  0.00     0.293 HD
ENDBRANCH  15  19
ENDBRANCH  10  11
ENDBRANCH   1  10
TORSDOF 6
ENDMDL
