MODEL 1
REMARK VINA RESULT:    -3.820      0.000      0.000
REMARK INTER + INTRA:          -4.279
REMARK INTER:                  -4.267
REMARK INTRA:                  -0.012
REMARK UNBOUND:                -0.012
REMARK SMILES CCCC(=O)[O-]
REMARK SMILES IDX 3 1 4 2 5 3 6 4 2 5 1 6
REMARK H PARENT
REMARK Flexibility Score: inf
ROOT
ATOM      1  C   UNL     1      53.706  49.826   4.356  1.00  0.00     0.052 C 
ENDROOT
BRANCH   1   2
ATOM      2  C   UNL     1      54.493  51.101   4.350  1.00  0.00     0.041 C 
ATOM      3  O   UNL     1      55.688  51.105   3.949  1.00  0.00    -0.550 OA
ATOM      4  O   UNL     1      53.921  52.276   4.817  1.00  0.00    -0.550 OA
ENDBRANCH   1   2
BRANCH   1   5
ATOM      5  C   UNL     1      52.214  50.080   4.605  1.00  0.00     0.003 C 
ATOM      6  C   UNL     1      51.322  49.111   3.829  1.00  0.00     0.004 C 
ENDBRANCH   1   5
TORSDOF 2
ENDMDL
MODEL 2
REMARK VINA RESULT:    -3.806      0.436      1.391
REMARK INTER + INTRA:          -4.263
REMARK INTER:                  -4.247
REMARK INTRA:                  -0.016
REMARK UNBOUND:                -0.012
REMARK SMILES CCCC(=O)[O-]
REMARK SMILES IDX 3 1 4 2 5 3 6 4 2 5 1 6
REMARK H PARENT
REMARK Flexibility Score: inf
ROOT
ATOM      1  C   UNL     1      54.077  49.991   4.266  1.00  0.00     0.052 C 
ENDROOT
BRANCH   1   2
ATOM      2  C   UNL     1      54.867  51.263   4.316  1.00  0.00     0.041 C 
ATOM      3  O   UNL     1      54.333  52.324   4.734  1.00  0.00    -0.550 OA
ATOM      4  O   UNL     1      56.182  51.285   3.869  1.00  0.00    -0.550 OA
ENDBRANCH   1   2
BRANCH   1   5
ATOM      5  C   UNL     1      52.617  50.212   4.681  1.00  0.00     0.003 C 
ATOM      6  C   UNL     1      51.654  49.294   3.929  1.00  0.00     0.004 C 
ENDBRANCH   1   5
TORSDOF 2
ENDMDL
MODEL 3
REMARK VINA RESULT:    -3.791      2.095      3.478
REMARK INTER + INTRA:          -4.246
REMARK INTER:                  -4.239
REMARK INTRA:                  -0.008
REMARK UNBOUND:                -0.012
REMARK SMILES CCCC(=O)[O-]
REMARK SMILES IDX 3 1 4 2 5 3 6 4 2 5 1 6
REMARK H PARENT
REMARK Flexibility Score: inf
ROOT
ATOM      1  C   UNL     1      53.883  49.883   4.345  1.00  0.00     0.052 C 
ENDROOT
BRANCH   1   2
ATOM      2  C   UNL     1      52.394  49.919   4.498  1.00  0.00     0.041 C 
ATOM      3  O   UNL     1      51.860  50.716   5.316  1.00  0.00    -0.550 OA
ATOM      4  O   UNL     1      51.596  49.051   3.765  1.00  0.00    -0.550 OA
ENDBRANCH   1   2
BRANCH   1   5
ATOM      5  C   UNL     1      54.494  51.289   4.384  1.00  0.00     0.003 C 
ATOM      6  C   UNL     1      55.976  51.290   4.009  1.00  0.00     0.004 C 
ENDBRANCH   1   5
TORSDOF 2
ENDMDL
MODEL 4
REMARK VINA RESULT:    -3.741      2.190      3.344
REMARK INTER + INTRA:          -4.190
REMARK INTER:                  -4.182
REMARK INTRA:                  -0.008
REMARK UNBOUND:                -0.012
REMARK SMILES CCCC(=O)[O-]
REMARK SMILES IDX 3 1 4 2 5 3 6 4 2 5 1 6
REMARK H PARENT
REMARK Flexibility Score: inf
ROOT
ATOM      1  C   UNL     1      53.639  49.814   4.333  1.00  0.00     0.052 C 
ENDROOT
BRANCH   1   2
ATOM      2  C   UNL     1      52.141  49.815   4.325  1.00  0.00     0.041 C 
ATOM      3  O   UNL     1      51.511  48.873   3.775  1.00  0.00    -0.550 OA
ATOM      4  O   UNL     1      51.442  50.872   4.893  1.00  0.00    -0.550 OA
ENDBRANCH   1   2
BRANCH   1   5
ATOM      5  C   UNL     1      54.209  51.234   4.440  1.00  0.00     0.003 C 
ATOM      6  C   UNL     1      55.697  51.292   4.096  1.00  0.00     0.004 C 
ENDBRANCH   1   5
TORSDOF 2
ENDMDL
MODEL 5
REMARK VINA RESULT:    -3.720      1.819      2.641
REMARK INTER + INTRA:          -4.166
REMARK INTER:                  -4.100
REMARK INTRA:                  -0.066
REMARK UNBOUND:                -0.012
REMARK SMILES CCCC(=O)[O-]
REMARK SMILES IDX 3 1 4 2 5 3 6 4 2 5 1 6
REMARK H PARENT
REMARK Flexibility Score: inf
ROOT
ATOM      1  C   UNL     1      54.862  51.995   4.489  1.00  0.00     0.052 C 
ENDROOT
BRANCH   1   2
ATOM      2  C   UNL     1      54.350  52.261   5.871  1.00  0.00     0.041 C 
ATOM      3  O   UNL     1      53.330  52.981   6.041  1.00  0.00    -0.550 OA
ATOM      4  O   UNL     1      55.017  51.744   6.973  1.00  0.00    -0.550 OA
ENDBRANCH   1   2
BRANCH   1   5
ATOM      5  C   UNL     1      54.822  50.501   4.145  1.00  0.00     0.003 C 
ATOM      6  C   UNL     1      53.434  49.894   4.343  1.00  0.00     0.004 C 
ENDBRANCH   1   5
TORSDOF 2
ENDMDL
MODEL 6
REMARK VINA RESULT:    -3.630      1.838      2.372
REMARK INTER + INTRA:          -4.066
REMARK INTER:                  -4.010
REMARK INTRA:                  -0.056
REMARK UNBOUND:                -0.012
REMARK SMILES CCCC(=O)[O-]
REMARK SMILES IDX 3 1 4 2 5 3 6 4 2 5 1 6
REMARK H PARENT
REMARK Flexibility Score: inf
ROOT
ATOM      1  C   UNL     1      54.387  51.993   4.627  1.00  0.00     0.052 C 
ENDROOT
BRANCH   1   2
ATOM      2  C   UNL     1      54.170  52.165   6.099  1.00  0.00     0.041 C 
ATOM      3  O   UNL     1      55.135  52.042   6.900  1.00  0.00    -0.550 OA
ATOM      4  O   UNL     1      52.898  52.427   6.590  1.00  0.00    -0.550 OA
ENDBRANCH   1   2
BRANCH   1   5
ATOM      5  C   UNL     1      54.563  50.517   4.247  1.00  0.00     0.003 C 
ATOM      6  C   UNL     1      53.244  49.746   4.281  1.00  0.00     0.004 C 
ENDBRANCH   1   5
TORSDOF 2
ENDMDL
MODEL 7
REMARK VINA RESULT:    -3.620      2.152      3.155
REMARK INTER + INTRA:          -4.055
REMARK INTER:                  -3.995
REMARK INTRA:                  -0.060
REMARK UNBOUND:                -0.012
REMARK SMILES CCCC(=O)[O-]
REMARK SMILES IDX 3 1 4 2 5 3 6 4 2 5 1 6
REMARK H PARENT
REMARK Flexibility Score: inf
ROOT
ATOM      1  C   UNL     1      52.931  50.409   4.853  1.00  0.00     0.052 C 
ENDROOT
BRANCH   1   2
ATOM      2  C   UNL     1      53.058  50.889   6.266  1.00  0.00     0.041 C 
ATOM      3  O   UNL     1      52.654  52.040   6.582  1.00  0.00    -0.550 OA
ATOM      4  O   UNL     1      53.654  50.082   7.226  1.00  0.00    -0.550 OA
ENDBRANCH   1   2
BRANCH   1   5
ATOM      5  C   UNL     1      54.302  50.146   4.216  1.00  0.00     0.003 C 
ATOM      6  C   UNL     1      55.229  51.358   4.309  1.00  0.00     0.004 C 
ENDBRANCH   1   5
TORSDOF 2
ENDMDL
MODEL 8
REMARK VINA RESULT:    -3.495      1.639      2.327
REMARK INTER + INTRA:          -3.915
REMARK INTER:                  -3.904
REMARK INTRA:                  -0.011
REMARK UNBOUND:                -0.012
REMARK SMILES CCCC(=O)[O-]
REMARK SMILES IDX 3 1 4 2 5 3 6 4 2 5 1 6
REMARK H PARENT
REMARK Flexibility Score: inf
ROOT
ATOM      1  C   UNL     1      51.517  50.102   4.650  1.00  0.00     0.052 C 
ENDROOT
BRANCH   1   2
ATOM      2  C   UNL     1      52.966  50.101   5.027  1.00  0.00     0.041 C 
ATOM      3  O   UNL     1      53.311  50.316   6.220  1.00  0.00    -0.550 OA
ATOM      4  O   UNL     1      53.939  49.897   4.056  1.00  0.00    -0.550 OA
ENDBRANCH   1   2
BRANCH   1   5
ATOM      5  C   UNL     1      51.175  48.948   3.700  1.00  0.00     0.003 C 
ATOM      6  C   UNL     1      49.930  49.235   2.860  1.00  0.00     0.004 C 
ENDBRANCH   1   5
TORSDOF 2
ENDMDL
MODEL 9
REMARK VINA RESULT:    -3.468      3.517      4.367
REMARK INTER + INTRA:          -3.885
REMARK INTER:                  -3.880
REMARK INTRA:                  -0.005
REMARK UNBOUND:                -0.012
REMARK SMILES CCCC(=O)[O-]
REMARK SMILES IDX 3 1 4 2 5 3 6 4 2 5 1 6
REMARK H PARENT
REMARK Flexibility Score: inf
ROOT
ATOM      1  C   UNL     1      51.176  49.747   4.354  1.00  0.00     0.052 C 
ENDROOT
BRANCH   1   2
ATOM      2  C   UNL     1      50.423  48.849   3.421  1.00  0.00     0.041 C 
ATOM      3  O   UNL     1      49.864  49.325   2.397  1.00  0.00    -0.550 OA
ATOM      4  O   UNL     1      50.309  47.493   3.698  1.00  0.00    -0.550 OA
ENDBRANCH   1   2
BRANCH   1   5
ATOM      5  C   UNL     1      52.693  49.576   4.208  1.00  0.00     0.003 C 
ATOM      6  C   UNL     1      53.464  50.814   4.665  1.00  0.00     0.004 C 
ENDBRANCH   1   5
TORSDOF 2
ENDMDL
