MODEL 1
REMARK VINA RESULT:    -2.549      0.000      0.000
REMARK INTER + INTRA:          -4.361
REMARK INTER:                  -3.890
REMARK INTRA:                  -0.472
REMARK UNBOUND:                -0.472
REMARK SMILES CCCCCCCCCCC(=O)[O-]
REMARK SMILES IDX 7 1 8 2 9 3 10 4 11 5 12 6 13 7 6 8 5 9 4 10 3 11 2 12 1 13
REMARK H PARENT
REMARK Flexibility Score: inf
ROOT
ATOM      1  C   UNL     1      -2.770   6.515   8.051  1.00  0.00     0.000 C 
ENDROOT
BRANCH   1   2
ATOM      2  C   UNL     1      -2.645   6.445   9.577  1.00  0.00     0.000 C 
BRANCH   2   3
ATOM      3  C   UNL     1      -1.750   7.571  10.109  1.00  0.00     0.006 C 
BRANCH   3   4
ATOM      4  C   UNL     1      -0.280   7.143  10.125  1.00  0.00     0.053 C 
BRANCH   4   5
ATOM      5  C   UNL     1       0.614   8.331   9.961  1.00  0.00     0.041 C 
ATOM      6  O   UNL     1       1.865   8.189   9.972  1.00  0.00    -0.550 OA
ATOM      7  O   UNL     1       0.066   9.590   9.749  1.00  0.00    -0.550 OA
ENDBRANCH   4   5
ENDBRANCH   3   4
ENDBRANCH   2   3
ENDBRANCH   1   2
BRANCH   1   8
ATOM      8  C   UNL     1      -3.636   5.367   7.516  1.00  0.00     0.000 C 
BRANCH   8   9
ATOM      9  C   UNL     1      -3.655   4.188   8.502  1.00  0.00    -0.000 C 
BRANCH   9  10
ATOM     10  C   UNL     1      -4.452   2.986   7.971  1.00  0.00    -0.000 C 
BRANCH  10  11
ATOM     11  C   UNL     1      -5.755   2.749   8.749  1.00  0.00    -0.000 C 
BRANCH  11  12
ATOM     12  C   UNL     1      -6.072   3.940   9.661  1.00  0.00    -0.003 C 
ATOM     13  C   UNL     1      -7.533   3.925  10.101  1.00  0.00     0.004 C 
ENDBRANCH  11  12
ENDBRANCH  10  11
ENDBRANCH   9  10
ENDBRANCH   8   9
ENDBRANCH   1   8
TORSDOF 9
ENDMDL
MODEL 2
REMARK VINA RESULT:    -2.293      1.081      2.335
REMARK INTER + INTRA:          -3.971
REMARK INTER:                  -3.746
REMARK INTRA:                  -0.225
REMARK UNBOUND:                -0.472
REMARK SMILES CCCCCCCCCCC(=O)[O-]
REMARK SMILES IDX 7 1 8 2 9 3 10 4 11 5 12 6 13 7 6 8 5 9 4 10 3 11 2 12 1 13
REMARK H PARENT
REMARK Flexibility Score: inf
ROOT
ATOM      1  C   UNL     1      -3.982   5.922   8.700  1.00  0.00     0.000 C 
ENDROOT
BRANCH   1   2
ATOM      2  C   UNL     1      -2.500   6.314   8.717  1.00  0.00     0.000 C 
BRANCH   2   3
ATOM      3  C   UNL     1      -2.079   6.813  10.104  1.00  0.00     0.006 C 
BRANCH   3   4
ATOM      4  C   UNL     1      -1.760   8.310  10.077  1.00  0.00     0.053 C 
BRANCH   4   5
ATOM      5  C   UNL     1      -0.288   8.530   9.926  1.00  0.00     0.041 C 
ATOM      6  O   UNL     1       0.159   9.679   9.672  1.00  0.00    -0.550 OA
ATOM      7  O   UNL     1       0.595   7.474  10.115  1.00  0.00    -0.550 OA
ENDBRANCH   4   5
ENDBRANCH   3   4
ENDBRANCH   2   3
ENDBRANCH   1   2
BRANCH   1   8
ATOM      8  C   UNL     1      -4.534   5.794  10.125  1.00  0.00     0.000 C 
BRANCH   8   9
ATOM      9  C   UNL     1      -5.929   5.149  10.118  1.00  0.00    -0.000 C 
BRANCH   9  10
ATOM     10  C   UNL     1      -5.871   3.613  10.125  1.00  0.00    -0.000 C 
BRANCH  10  11
ATOM     11  C   UNL     1      -5.839   3.015   8.711  1.00  0.00    -0.000 C 
BRANCH  11  12
ATOM     12  C   UNL     1      -4.433   2.516   8.358  1.00  0.00    -0.003 C 
ATOM     13  C   UNL     1      -3.887   3.229   7.125  1.00  0.00     0.004 C 
ENDBRANCH  11  12
ENDBRANCH  10  11
ENDBRANCH   9  10
ENDBRANCH   8   9
ENDBRANCH   1   8
TORSDOF 9
ENDMDL
MODEL 3
REMARK VINA RESULT:    -1.814     10.903     13.010
REMARK INTER + INTRA:          -3.239
REMARK INTER:                  -2.903
REMARK INTRA:                  -0.337
REMARK UNBOUND:                -0.472
REMARK SMILES CCCCCCCCCCC(=O)[O-]
REMARK SMILES IDX 7 1 8 2 9 3 10 4 11 5 12 6 13 7 6 8 5 9 4 10 3 11 2 12 1 13
REMARK H PARENT
REMARK Flexibility Score: inf
ROOT
ATOM      1  C   UNL     1      -1.421   7.812  -1.581  1.00  0.00     0.000 C 
ENDROOT
BRANCH   1   2
ATOM      2  C   UNL     1      -1.893   8.603  -0.356  1.00  0.00     0.000 C 
BRANCH   2   3
ATOM      3  C   UNL     1      -3.364   8.303  -0.041  1.00  0.00     0.006 C 
BRANCH   3   4
ATOM      4  C   UNL     1      -4.250   9.514  -0.347  1.00  0.00     0.053 C 
BRANCH   4   5
ATOM      5  C   UNL     1      -4.970   9.323  -1.644  1.00  0.00     0.041 C 
ATOM      6  O   UNL     1      -6.220   9.458  -1.701  1.00  0.00    -0.550 OA
ATOM      7  O   UNL     1      -4.254   9.042  -2.802  1.00  0.00    -0.550 OA
ENDBRANCH   4   5
ENDBRANCH   3   4
ENDBRANCH   2   3
ENDBRANCH   1   2
BRANCH   1   8
ATOM      8  C   UNL     1       0.018   8.187  -1.957  1.00  0.00     0.000 C 
BRANCH   8   9
ATOM      9  C   UNL     1       1.005   7.099  -1.507  1.00  0.00    -0.000 C 
BRANCH   9  10
ATOM     10  C   UNL     1       2.466   7.578  -1.529  1.00  0.00    -0.000 C 
BRANCH  10  11
ATOM     11  C   UNL     1       2.594   9.071  -1.867  1.00  0.00    -0.000 C 
BRANCH  11  12
ATOM     12  C   UNL     1       3.951   9.621  -1.413  1.00  0.00    -0.003 C 
ATOM     13  C   UNL     1       5.089   9.044  -2.250  1.00  0.00     0.004 C 
ENDBRANCH  11  12
ENDBRANCH  10  11
ENDBRANCH   9  10
ENDBRANCH   8   9
ENDBRANCH   1   8
TORSDOF 9
ENDMDL
MODEL 4
REMARK VINA RESULT:    -1.414      1.405      2.290
REMARK INTER + INTRA:          -2.630
REMARK INTER:                  -2.109
REMARK INTRA:                  -0.521
REMARK UNBOUND:                -0.472
REMARK SMILES CCCCCCCCCCC(=O)[O-]
REMARK SMILES IDX 7 1 8 2 9 3 10 4 11 5 12 6 13 7 6 8 5 9 4 10 3 11 2 12 1 13
REMARK H PARENT
REMARK Flexibility Score: inf
ROOT
ATOM      1  C   UNL     1      -3.225   4.532   6.928  1.00  0.00     0.000 C 
ENDROOT
BRANCH   1   2
ATOM      2  C   UNL     1      -2.637   5.762   7.628  1.00  0.00     0.000 C 
BRANCH   2   3
ATOM      3  C   UNL     1      -3.567   6.258   8.743  1.00  0.00     0.006 C 
BRANCH   3   4
ATOM      4  C   UNL     1      -2.827   6.336  10.081  1.00  0.00     0.053 C 
BRANCH   4   5
ATOM      5  C   UNL     1      -1.737   7.359  10.018  1.00  0.00     0.041 C 
ATOM      6  O   UNL     1      -2.011   8.583  10.121  1.00  0.00    -0.550 OA
ATOM      7  O   UNL     1      -0.413   6.957   9.895  1.00  0.00    -0.550 OA
ENDBRANCH   4   5
ENDBRANCH   3   4
ENDBRANCH   2   3
ENDBRANCH   1   2
BRANCH   1   8
ATOM      8  C   UNL     1      -3.399   3.369   7.912  1.00  0.00     0.000 C 
BRANCH   8   9
ATOM      9  C   UNL     1      -4.844   2.848   7.898  1.00  0.00    -0.000 C 
BRANCH   9  10
ATOM     10  C   UNL     1      -5.439   2.711   9.309  1.00  0.00    -0.000 C 
BRANCH  10  11
ATOM     11  C   UNL     1      -5.359   4.016  10.114  1.00  0.00    -0.000 C 
BRANCH  11  12
ATOM     12  C   UNL     1      -6.712   4.737  10.125  1.00  0.00    -0.003 C 
ATOM     13  C   UNL     1      -7.868   3.741  10.123  1.00  0.00     0.004 C 
ENDBRANCH  11  12
ENDBRANCH  10  11
ENDBRANCH   9  10
ENDBRANCH   8   9
ENDBRANCH   1   8
TORSDOF 9
ENDMDL
MODEL 5
REMARK VINA RESULT:    -1.344      3.454      6.467
REMARK INTER + INTRA:          -2.523
REMARK INTER:                  -2.132
REMARK INTRA:                  -0.391
REMARK UNBOUND:                -0.472
REMARK SMILES CCCCCCCCCCC(=O)[O-]
REMARK SMILES IDX 7 1 8 2 9 3 10 4 11 5 12 6 13 7 6 8 5 9 4 10 3 11 2 12 1 13
REMARK H PARENT
REMARK Flexibility Score: inf
ROOT
ATOM      1  C   UNL     1      -6.016   5.516  10.056  1.00  0.00     0.000 C 
ENDROOT
BRANCH   1   2
ATOM      2  C   UNL     1      -6.659   4.125  10.087  1.00  0.00     0.000 C 
BRANCH   2   3
ATOM      3  C   UNL     1      -5.620   3.032   9.805  1.00  0.00     0.006 C 
BRANCH   3   4
ATOM      4  C   UNL     1      -5.684   2.578   8.344  1.00  0.00     0.053 C 
BRANCH   4   5
ATOM      5  C   UNL     1      -4.312   2.542   7.746  1.00  0.00     0.041 C 
ATOM      6  O   UNL     1      -3.318   2.918   8.421  1.00  0.00    -0.550 OA
ATOM      7  O   UNL     1      -4.127   2.049   6.461  1.00  0.00    -0.550 OA
ENDBRANCH   4   5
ENDBRANCH   3   4
ENDBRANCH   2   3
ENDBRANCH   1   2
BRANCH   1   8
ATOM      8  C   UNL     1      -4.487   5.418  10.125  1.00  0.00     0.000 C 
BRANCH   8   9
ATOM      9  C   UNL     1      -3.828   6.506   9.264  1.00  0.00    -0.000 C 
BRANCH   9  10
ATOM     10  C   UNL     1      -2.292   6.471   9.337  1.00  0.00    -0.000 C 
BRANCH  10  11
ATOM     11  C   UNL     1      -1.710   7.658  10.119  1.00  0.00    -0.000 C 
BRANCH  11  12
ATOM     12  C   UNL     1      -0.212   7.820   9.832  1.00  0.00    -0.003 C 
ATOM     13  C   UNL     1       0.196   9.291   9.845  1.00  0.00     0.004 C 
ENDBRANCH  11  12
ENDBRANCH  10  11
ENDBRANCH   9  10
ENDBRANCH   8   9
ENDBRANCH   1   8
TORSDOF 9
ENDMDL
MODEL 6
REMARK VINA RESULT:    -1.259     10.468     11.637
REMARK INTER + INTRA:          -2.392
REMARK INTER:                  -2.057
REMARK INTRA:                  -0.336
REMARK UNBOUND:                -0.472
REMARK SMILES CCCCCCCCCCC(=O)[O-]
REMARK SMILES IDX 7 1 8 2 9 3 10 4 11 5 12 6 13 7 6 8 5 9 4 10 3 11 2 12 1 13
REMARK H PARENT
REMARK Flexibility Score: inf
ROOT
ATOM      1  C   UNL     1      -0.044   8.256  -1.800  1.00  0.00     0.000 C 
ENDROOT
BRANCH   1   2
ATOM      2  C   UNL     1       0.862   7.046  -1.547  1.00  0.00     0.000 C 
BRANCH   2   3
ATOM      3  C   UNL     1       2.333   7.469  -1.456  1.00  0.00     0.006 C 
BRANCH   3   4
ATOM      4  C   UNL     1       2.543   8.861  -2.060  1.00  0.00     0.053 C 
BRANCH   4   5
ATOM      5  C   UNL     1       3.849   9.435  -1.611  1.00  0.00     0.041 C 
ATOM      6  O   UNL     1       3.911  10.121  -0.557  1.00  0.00    -0.550 OA
ATOM      7  O   UNL     1       5.008   9.173  -2.332  1.00  0.00    -0.550 OA
ENDBRANCH   4   5
ENDBRANCH   3   4
ENDBRANCH   2   3
ENDBRANCH   1   2
BRANCH   1   8
ATOM      8  C   UNL     1      -1.514   7.909  -1.534  1.00  0.00     0.000 C 
BRANCH   8   9
ATOM      9  C   UNL     1      -2.019   8.597  -0.257  1.00  0.00    -0.000 C 
BRANCH   9  10
ATOM     10  C   UNL     1      -3.522   8.379  -0.020  1.00  0.00    -0.000 C 
BRANCH  10  11
ATOM     11  C   UNL     1      -4.353   9.643  -0.283  1.00  0.00    -0.000 C 
BRANCH  11  12
ATOM     12  C   UNL     1      -5.305   9.437  -1.468  1.00  0.00    -0.003 C 
ATOM     13  C   UNL     1      -4.535   9.098  -2.741  1.00  0.00     0.004 C 
ENDBRANCH  11  12
ENDBRANCH  10  11
ENDBRANCH   9  10
ENDBRANCH   8   9
ENDBRANCH   1   8
TORSDOF 9
ENDMDL
MODEL 7
REMARK VINA RESULT:    -0.817      3.725      7.153
REMARK INTER + INTRA:          -1.718
REMARK INTER:                  -1.455
REMARK INTRA:                  -0.263
REMARK UNBOUND:                -0.472
REMARK SMILES CCCCCCCCCCC(=O)[O-]
REMARK SMILES IDX 7 1 8 2 9 3 10 4 11 5 12 6 13 7 6 8 5 9 4 10 3 11 2 12 1 13
REMARK H PARENT
REMARK Flexibility Score: inf
ROOT
ATOM      1  C   UNL     1      -3.787   5.814  10.099  1.00  0.00     0.000 C 
ENDROOT
BRANCH   1   2
ATOM      2  C   UNL     1      -4.955   5.635   9.123  1.00  0.00     0.000 C 
BRANCH   2   3
ATOM      3  C   UNL     1      -6.069   4.786   9.749  1.00  0.00     0.006 C 
BRANCH   3   4
ATOM      4  C   UNL     1      -5.589   3.355  10.007  1.00  0.00     0.053 C 
BRANCH   4   5
ATOM      5  C   UNL     1      -5.251   2.674   8.719  1.00  0.00     0.041 C 
ATOM      6  O   UNL     1      -6.167   2.232   7.977  1.00  0.00    -0.550 OA
ATOM      7  O   UNL     1      -3.927   2.572   8.313  1.00  0.00    -0.550 OA
ENDBRANCH   4   5
ENDBRANCH   3   4
ENDBRANCH   2   3
ENDBRANCH   1   2
BRANCH   1   8
ATOM      8  C   UNL     1      -3.133   7.192   9.928  1.00  0.00     0.000 C 
BRANCH   8   9
ATOM      9  C   UNL     1      -1.781   7.073   9.207  1.00  0.00    -0.000 C 
BRANCH   9  10
ATOM     10  C   UNL     1      -0.592   7.420  10.118  1.00  0.00    -0.000 C 
BRANCH  10  11
ATOM     11  C   UNL     1       0.059   8.762   9.755  1.00  0.00    -0.000 C 
BRANCH  11  12
ATOM     12  C   UNL     1       1.589   8.658   9.795  1.00  0.00    -0.003 C 
ATOM     13  C   UNL     1       2.226  10.004  10.124  1.00  0.00     0.004 C 
ENDBRANCH  11  12
ENDBRANCH  10  11
ENDBRANCH   9  10
ENDBRANCH   8   9
ENDBRANCH   1   8
TORSDOF 9
ENDMDL
