MODEL 1
REMARK VINA RESULT:    -3.830      0.000      0.000
REMARK INTER + INTRA:          -5.029
REMARK INTER:                  -5.398
REMARK INTRA:                   0.369
REMARK UNBOUND:                 0.369
REMARK SMILES CC1=CCC(=C(C)C)C(=O)CC(C)=CCC1
REMARK SMILES IDX 12 1 14 2 13 3 15 4 16 5 2 6 1 7 3 8 11 10 9 11 10 12 5 13
REMARK SMILES IDX 6 14 7 15 8 16 4 17
REMARK H PARENT
REMARK Flexibility Score: 60.00
ROOT
ATOM      1  C   UNL     1      18.833  26.057  27.945  1.00  0.00    -0.070 C 
ATOM      2  C   UNL     1      19.842  25.165  27.813  1.00  0.00    -0.027 C 
ATOM      3  C   UNL     1      17.448  25.527  28.216  1.00  0.00     0.039 C 
ENDROOT
BRANCH   2   4
ATOM      4  C   UNL     1      21.275  25.514  27.481  1.00  0.00     0.032 C 
BRANCH   4   5
ATOM      5  C   UNL     1      22.054  25.958  28.728  1.00  0.00     0.034 C 
BRANCH   5   6
ATOM      6  C   UNL     1      22.760  27.296  28.558  1.00  0.00    -0.077 C 
ATOM      7  C   UNL     1      23.895  27.398  27.571  1.00  0.00     0.039 C 
ATOM      8  C   UNL     1      22.437  28.404  29.265  1.00  0.00    -0.023 CG0
ATOM      9  G   UNL     1      21.292  28.514  30.244  1.00  0.00     0.000 G0
ENDBRANCH   5   6
ENDBRANCH   4   5
ENDBRANCH   2   4
BRANCH   1  10
ATOM     10  C   UNL     1      19.036  27.556  27.836  1.00  0.00     0.111 C 
BRANCH  10  11
ATOM     11  C   UNL     1      18.963  28.212  29.186  1.00  0.00     0.163 C 
ATOM     12  O   UNL     1      17.958  28.006  29.919  1.00  0.00    -0.294 OA
BRANCH  11  13
ATOM     13  C   UNL     1      20.038  29.119  29.663  1.00  0.00    -0.002 C 
ATOM     14  C   UNL     1      19.888  30.469  29.574  1.00  0.00    -0.069 C 
ATOM     15  C   UNL     1      20.947  31.408  30.101  1.00  0.00     0.039 C 
ATOM     16  C   UNL     1      18.674  31.078  28.907  1.00  0.00     0.039 C 
BRANCH  13  17
ATOM     17  C   UNL     1      21.311  28.519  30.251  1.00  0.00     0.066 CG0
ATOM     18  G   UNL     1      22.443  28.403  29.256  1.00  0.00     0.000 G0
ENDBRANCH  13  17
ENDBRANCH  11  13
ENDBRANCH  10  11
ENDBRANCH   1  10
TORSDOF 0
ENDMDL
MODEL 2
REMARK VINA RESULT:    -3.714      2.908      5.703
REMARK INTER + INTRA:          -4.865
REMARK INTER:                  -5.282
REMARK INTRA:                   0.417
REMARK UNBOUND:                 0.369
REMARK SMILES CC1=CCC(=C(C)C)C(=O)CC(C)=CCC1
REMARK SMILES IDX 12 1 14 2 13 3 15 4 16 5 2 6 1 7 3 8 11 10 9 11 10 12 5 13
REMARK SMILES IDX 6 14 7 15 8 16 4 17
REMARK H PARENT
REMARK Flexibility Score: 60.00
ROOT
ATOM      1  C   UNL     1      15.845  32.058  30.542  1.00  0.00    -0.070 C 
ATOM      2  C   UNL     1      16.641  33.067  30.116  1.00  0.00    -0.027 C 
ATOM      3  C   UNL     1      15.128  32.228  31.858  1.00  0.00     0.039 C 
ENDROOT
BRANCH   2   4
ATOM      4  C   UNL     1      17.479  33.043  28.858  1.00  0.00     0.032 C 
BRANCH   4   5
ATOM      5  C   UNL     1      18.980  33.113  29.176  1.00  0.00     0.034 C 
BRANCH   5   6
ATOM      6  C   UNL     1      19.407  32.181  30.301  1.00  0.00    -0.077 C 
ATOM      7  C   UNL     1      19.884  32.780  31.600  1.00  0.00     0.039 C 
ATOM      8  C   UNL     1      19.402  30.832  30.193  1.00  0.00    -0.023 CG0
ATOM      9  G   UNL     1      18.897  30.051  29.001  1.00  0.00     0.000 G0
ENDBRANCH   5   6
ENDBRANCH   4   5
ENDBRANCH   2   4
BRANCH   1  10
ATOM     10  C   UNL     1      15.644  30.777  29.757  1.00  0.00     0.111 C 
BRANCH  10  11
ATOM     11  C   UNL     1      16.609  29.713  30.199  1.00  0.00     0.163 C 
ATOM     12  O   UNL     1      16.545  29.273  31.378  1.00  0.00    -0.294 OA
BRANCH  11  13
ATOM     13  C   UNL     1      17.652  29.189  29.282  1.00  0.00    -0.002 C 
ATOM     14  C   UNL     1      17.501  27.970  28.694  1.00  0.00    -0.069 C 
ATOM     15  C   UNL     1      18.526  27.442  27.718  1.00  0.00     0.039 C 
ATOM     16  C   UNL     1      16.322  27.082  29.028  1.00  0.00     0.039 C 
BRANCH  13  17
ATOM     17  C   UNL     1      18.895  30.031  29.009  1.00  0.00     0.066 CG0
ATOM     18  G   UNL     1      19.364  30.826  30.205  1.00  0.00     0.000 G0
ENDBRANCH  13  17
ENDBRANCH  11  13
ENDBRANCH  10  11
ENDBRANCH   1  10
TORSDOF 0
ENDMDL
MODEL 3
REMARK VINA RESULT:    -3.706      1.857      3.861
REMARK INTER + INTRA:          -4.853
REMARK INTER:                  -5.309
REMARK INTRA:                   0.455
REMARK UNBOUND:                 0.369
REMARK SMILES CC1=CCC(=C(C)C)C(=O)CC(C)=CCC1
REMARK SMILES IDX 12 1 14 2 13 3 15 4 16 5 2 6 1 7 3 8 11 10 9 11 10 12 5 13
REMARK SMILES IDX 6 14 7 15 8 16 4 17
REMARK H PARENT
REMARK Flexibility Score: 60.00
ROOT
ATOM      1  C   UNL     1      22.165  26.751  28.727  1.00  0.00    -0.070 C 
ATOM      2  C   UNL     1      21.579  25.700  28.109  1.00  0.00    -0.027 C 
ATOM      3  C   UNL     1      23.550  27.152  28.284  1.00  0.00     0.039 C 
ENDROOT
BRANCH   2   4
ATOM      4  C   UNL     1      20.227  25.124  28.464  1.00  0.00     0.032 C 
BRANCH   4   5
ATOM      5  C   UNL     1      19.140  25.582  27.479  1.00  0.00     0.034 C 
BRANCH   5   6
ATOM      6  C   UNL     1      17.964  26.277  28.152  1.00  0.00    -0.077 C 
ATOM      7  C   UNL     1      16.813  25.440  28.649  1.00  0.00     0.039 C 
ATOM      8  C   UNL     1      17.885  27.618  28.314  1.00  0.00    -0.023 CG0
ATOM      9  G   UNL     1      18.964  28.609  27.945  1.00  0.00     0.000 G0
ENDBRANCH   5   6
ENDBRANCH   4   5
ENDBRANCH   2   4
BRANCH   1  10
ATOM     10  C   UNL     1      21.493  27.538  29.835  1.00  0.00     0.111 C 
BRANCH  10  11
ATOM     11  C   UNL     1      21.098  28.909  29.363  1.00  0.00     0.163 C 
ATOM     12  O   UNL     1      21.989  29.784  29.191  1.00  0.00    -0.294 OA
BRANCH  11  13
ATOM     13  C   UNL     1      19.676  29.261  29.120  1.00  0.00    -0.002 C 
ATOM     14  C   UNL     1      19.032  30.130  29.946  1.00  0.00    -0.069 C 
ATOM     15  C   UNL     1      17.602  30.540  29.686  1.00  0.00     0.039 C 
ATOM     16  C   UNL     1      19.711  30.684  31.180  1.00  0.00     0.039 C 
BRANCH  13  17
ATOM     17  C   UNL     1      18.947  28.636  27.934  1.00  0.00     0.066 CG0
ATOM     18  G   UNL     1      17.894  27.628  28.332  1.00  0.00     0.000 G0
ENDBRANCH  13  17
ENDBRANCH  11  13
ENDBRANCH  10  11
ENDBRANCH   1  10
TORSDOF 0
ENDMDL
MODEL 4
REMARK VINA RESULT:    -3.617      2.217      3.397
REMARK INTER + INTRA:          -4.728
REMARK INTER:                  -4.980
REMARK INTRA:                   0.252
REMARK UNBOUND:                 0.369
REMARK SMILES CC1=CCC(=C(C)C)C(=O)CC(C)=CCC1
REMARK SMILES IDX 12 1 14 2 13 3 15 4 16 5 2 6 1 7 3 8 11 10 9 11 10 12 5 13
REMARK SMILES IDX 6 14 7 15 8 16 4 17
REMARK H PARENT
REMARK Flexibility Score: 60.00
ROOT
ATOM      1  C   UNL     1      19.373  28.618  28.382  1.00  0.00    -0.070 C 
ATOM      2  C   UNL     1      20.554  28.080  28.766  1.00  0.00    -0.027 C 
ATOM      3  C   UNL     1      18.308  27.689  27.854  1.00  0.00     0.039 C 
ENDROOT
BRANCH   2   4
ATOM      4  C   UNL     1      21.748  28.863  29.259  1.00  0.00     0.032 C 
BRANCH   4   5
ATOM      5  C   UNL     1      21.615  29.223  30.747  1.00  0.00     0.034 C 
BRANCH   5   6
ATOM      6  C   UNL     1      21.963  30.673  31.054  1.00  0.00    -0.077 C 
ATOM      7  C   UNL     1      23.373  31.149  30.815  1.00  0.00     0.039 C 
ATOM      8  C   UNL     1      21.073  31.563  31.554  1.00  0.00    -0.023 CG0
ATOM      9  G   UNL     1      19.605  31.293  31.793  1.00  0.00     0.000 G0
ENDBRANCH   5   6
ENDBRANCH   4   5
ENDBRANCH   2   4
BRANCH   1  10
ATOM     10  C   UNL     1      19.076  30.103  28.463  1.00  0.00     0.111 C 
BRANCH  10  11
ATOM     11  C   UNL     1      18.311  30.435  29.714  1.00  0.00     0.163 C 
ATOM     12  O   UNL     1      17.302  29.746  30.022  1.00  0.00    -0.294 OA
BRANCH  11  13
ATOM     13  C   UNL     1      18.707  31.575  30.580  1.00  0.00    -0.002 C 
ATOM     14  C   UNL     1      18.280  32.835  30.293  1.00  0.00    -0.069 C 
ATOM     15  C   UNL     1      18.628  34.000  31.191  1.00  0.00     0.039 C 
ATOM     16  C   UNL     1      17.475  33.124  29.045  1.00  0.00     0.039 C 
BRANCH  13  17
ATOM     17  C   UNL     1      19.598  31.316  31.790  1.00  0.00     0.066 CG0
ATOM     18  G   UNL     1      21.065  31.569  31.530  1.00  0.00     0.000 G0
ENDBRANCH  13  17
ENDBRANCH  11  13
ENDBRANCH  10  11
ENDBRANCH   1  10
TORSDOF 0
ENDMDL
MODEL 5
REMARK VINA RESULT:    -3.606      1.948      3.828
REMARK INTER + INTRA:          -4.713
REMARK INTER:                  -5.093
REMARK INTRA:                   0.380
REMARK UNBOUND:                 0.369
REMARK SMILES CC1=CCC(=C(C)C)C(=O)CC(C)=CCC1
REMARK SMILES IDX 12 1 14 2 13 3 15 4 16 5 2 6 1 7 3 8 11 10 9 11 10 12 5 13
REMARK SMILES IDX 6 14 7 15 8 16 4 17
REMARK H PARENT
REMARK Flexibility Score: 60.00
ROOT
ATOM      1  C   UNL     1      20.526  25.593  28.213  1.00  0.00    -0.070 C 
ATOM      2  C   UNL     1      19.233  25.463  27.834  1.00  0.00    -0.027 C 
ATOM      3  C   UNL     1      21.580  24.892  27.394  1.00  0.00     0.039 C 
ENDROOT
BRANCH   2   4
ATOM      4  C   UNL     1      18.047  26.042  28.569  1.00  0.00     0.032 C 
BRANCH   4   5
ATOM      5  C   UNL     1      17.622  27.397  27.981  1.00  0.00     0.034 C 
BRANCH   5   6
ATOM      6  C   UNL     1      17.554  28.513  29.014  1.00  0.00    -0.077 C 
ATOM      7  C   UNL     1      16.333  28.617  29.891  1.00  0.00     0.039 C 
ATOM      8  C   UNL     1      18.528  29.438  29.177  1.00  0.00    -0.023 CG0
ATOM      9  G   UNL     1      19.850  29.456  28.443  1.00  0.00     0.000 G0
ENDBRANCH   5   6
ENDBRANCH   4   5
ENDBRANCH   2   4
BRANCH   1  10
ATOM     10  C   UNL     1      20.955  26.410  29.416  1.00  0.00     0.111 C 
BRANCH  10  11
ATOM     11  C   UNL     1      21.641  27.679  28.992  1.00  0.00     0.163 C 
ATOM     12  O   UNL     1      22.756  27.612  28.407  1.00  0.00    -0.294 OA
BRANCH  11  13
ATOM     13  C   UNL     1      21.045  29.009  29.273  1.00  0.00    -0.002 C 
ATOM     14  C   UNL     1      21.553  29.795  30.261  1.00  0.00    -0.069 C 
ATOM     15  C   UNL     1      20.994  31.174  30.527  1.00  0.00     0.039 C 
ATOM     16  C   UNL     1      22.670  29.303  31.155  1.00  0.00     0.039 C 
BRANCH  13  17
ATOM     17  C   UNL     1      19.856  29.482  28.442  1.00  0.00     0.066 CG0
ATOM     18  G   UNL     1      18.539  29.431  29.183  1.00  0.00     0.000 G0
ENDBRANCH  13  17
ENDBRANCH  11  13
ENDBRANCH  10  11
ENDBRANCH   1  10
TORSDOF 0
ENDMDL
MODEL 6
REMARK VINA RESULT:    -3.530      2.450      4.415
REMARK INTER + INTRA:          -4.606
REMARK INTER:                  -4.944
REMARK INTRA:                   0.338
REMARK UNBOUND:                 0.369
REMARK SMILES CC1=CCC(=C(C)C)C(=O)CC(C)=CCC1
REMARK SMILES IDX 12 1 14 2 13 3 15 4 16 5 2 6 1 7 3 8 11 10 9 11 10 12 5 13
REMARK SMILES IDX 6 14 7 15 8 16 4 17
REMARK H PARENT
REMARK Flexibility Score: 60.00
ROOT
ATOM      1  C   UNL     1      22.318  29.720  30.358  1.00  0.00    -0.070 C 
ATOM      2  C   UNL     1      22.173  28.431  29.974  1.00  0.00    -0.027 C 
ATOM      3  C   UNL     1      23.380  30.040  31.381  1.00  0.00     0.039 C 
ENDROOT
BRANCH   2   4
ATOM      4  C   UNL     1      21.126  27.922  29.010  1.00  0.00     0.032 C 
BRANCH   4   5
ATOM      5  C   UNL     1      19.740  27.844  29.669  1.00  0.00     0.034 C 
BRANCH   5   6
ATOM      6  C   UNL     1      18.611  28.322  28.766  1.00  0.00    -0.077 C 
ATOM      7  C   UNL     1      18.325  27.562  27.496  1.00  0.00     0.039 C 
ATOM      8  C   UNL     1      17.855  29.413  29.032  1.00  0.00    -0.023 CG0
ATOM      9  G   UNL     1      17.946  30.257  30.282  1.00  0.00     0.000 G0
ENDBRANCH   5   6
ENDBRANCH   4   5
ENDBRANCH   2   4
BRANCH   1  10
ATOM     10  C   UNL     1      21.468  30.847  29.807  1.00  0.00     0.111 C 
BRANCH  10  11
ATOM     11  C   UNL     1      20.326  31.167  30.730  1.00  0.00     0.163 C 
ATOM     12  O   UNL     1      20.532  31.217  31.973  1.00  0.00    -0.294 OA
BRANCH  11  13
ATOM     13  C   UNL     1      18.955  31.400  30.210  1.00  0.00    -0.002 C 
ATOM     14  C   UNL     1      18.621  32.603  29.669  1.00  0.00    -0.069 C 
ATOM     15  C   UNL     1      17.247  32.843  29.087  1.00  0.00     0.039 C 
ATOM     16  C   UNL     1      19.598  33.758  29.667  1.00  0.00     0.039 C 
BRANCH  13  17
ATOM     17  C   UNL     1      17.927  30.275  30.291  1.00  0.00     0.066 CG0
ATOM     18  G   UNL     1      17.870  29.414  29.050  1.00  0.00     0.000 G0
ENDBRANCH  13  17
ENDBRANCH  11  13
ENDBRANCH  10  11
ENDBRANCH   1  10
TORSDOF 0
ENDMDL
MODEL 7
REMARK VINA RESULT:    -3.518      2.607      5.497
REMARK INTER + INTRA:          -4.589
REMARK INTER:                  -4.900
REMARK INTRA:                   0.311
REMARK UNBOUND:                 0.369
REMARK SMILES CC1=CCC(=C(C)C)C(=O)CC(C)=CCC1
REMARK SMILES IDX 12 1 14 2 13 3 15 4 16 5 2 6 1 7 3 8 11 10 9 11 10 12 5 13
REMARK SMILES IDX 6 14 7 15 8 16 4 17
REMARK H PARENT
REMARK Flexibility Score: 60.00
ROOT
ATOM      1  C   UNL     1      25.761  28.763  28.821  1.00  0.00    -0.070 C 
ATOM      2  C   UNL     1      25.925  29.844  29.619  1.00  0.00    -0.027 C 
ATOM      3  C   UNL     1      26.709  28.587  27.661  1.00  0.00     0.039 C 
ENDROOT
BRANCH   2   4
ATOM      4  C   UNL     1      25.034  30.209  30.784  1.00  0.00     0.032 C 
BRANCH   4   5
ATOM      5  C   UNL     1      23.715  30.841  30.312  1.00  0.00     0.034 C 
BRANCH   5   6
ATOM      6  C   UNL     1      22.487  30.283  31.019  1.00  0.00    -0.077 C 
ATOM      7  C   UNL     1      22.323  30.532  32.496  1.00  0.00     0.039 C 
ATOM      8  C   UNL     1      21.536  29.551  30.394  1.00  0.00    -0.023 CG0
ATOM      9  G   UNL     1      21.491  29.256  28.912  1.00  0.00     0.000 G0
ENDBRANCH   5   6
ENDBRANCH   4   5
ENDBRANCH   2   4
BRANCH   1  10
ATOM     10  C   UNL     1      24.675  27.729  29.043  1.00  0.00     0.111 C 
BRANCH  10  11
ATOM     11  C   UNL     1      23.547  27.909  28.067  1.00  0.00     0.163 C 
ATOM     12  O   UNL     1      23.808  28.077  26.845  1.00  0.00    -0.294 OA
BRANCH  11  13
ATOM     13  C   UNL     1      22.132  27.918  28.517  1.00  0.00    -0.002 C 
ATOM     14  C   UNL     1      21.425  26.756  28.584  1.00  0.00    -0.069 C 
ATOM     15  C   UNL     1      20.001  26.737  29.088  1.00  0.00     0.039 C 
ATOM     16  C   UNL     1      22.025  25.448  28.117  1.00  0.00     0.039 C 
BRANCH  13  17
ATOM     17  C   UNL     1      21.481  29.243  28.900  1.00  0.00     0.066 CG0
ATOM     18  G   UNL     1      21.545  29.546  30.380  1.00  0.00     0.000 G0
ENDBRANCH  13  17
ENDBRANCH  11  13
ENDBRANCH  10  11
ENDBRANCH   1  10
TORSDOF 0
ENDMDL
MODEL 8
REMARK VINA RESULT:    -3.469      3.167      5.083
REMARK INTER + INTRA:          -4.519
REMARK INTER:                  -5.078
REMARK INTRA:                   0.559
REMARK UNBOUND:                 0.369
REMARK SMILES CC1=CCC(=C(C)C)C(=O)CC(C)=CCC1
REMARK SMILES IDX 12 1 14 2 13 3 15 4 16 5 2 6 1 7 3 8 11 10 9 11 10 12 5 13
REMARK SMILES IDX 6 14 7 15 8 16 4 17
REMARK H PARENT
REMARK Flexibility Score: 60.00
ROOT
ATOM      1  C   UNL     1      18.446  25.992  28.116  1.00  0.00    -0.070 C 
ATOM      2  C   UNL     1      17.444  25.119  27.861  1.00  0.00    -0.027 C 
ATOM      3  C   UNL     1      19.766  25.438  28.591  1.00  0.00     0.039 C 
ENDROOT
BRANCH   2   4
ATOM      4  C   UNL     1      16.043  25.500  27.439  1.00  0.00     0.032 C 
BRANCH   4   5
ATOM      5  C   UNL     1      15.006  25.120  28.507  1.00  0.00     0.034 C 
BRANCH   5   6
ATOM      6  C   UNL     1      15.457  25.426  29.928  1.00  0.00    -0.077 C 
ATOM      7  C   UNL     1      15.739  24.279  30.865  1.00  0.00     0.039 C 
ATOM      8  C   UNL     1      15.603  26.683  30.409  1.00  0.00    -0.023 CG0
ATOM      9  G   UNL     1      15.435  27.952  29.606  1.00  0.00     0.000 G0
ENDBRANCH   5   6
ENDBRANCH   4   5
ENDBRANCH   2   4
BRANCH   1  10
ATOM     10  C   UNL     1      18.299  27.491  27.944  1.00  0.00     0.111 C 
BRANCH  10  11
ATOM     11  C   UNL     1      17.999  28.161  29.256  1.00  0.00     0.163 C 
ATOM     12  O   UNL     1      18.865  28.142  30.172  1.00  0.00    -0.294 OA
BRANCH  11  13
ATOM     13  C   UNL     1      16.692  28.822  29.503  1.00  0.00    -0.002 C 
ATOM     14  C   UNL     1      16.622  30.174  29.645  1.00  0.00    -0.069 C 
ATOM     15  C   UNL     1      15.296  30.870  29.846  1.00  0.00     0.039 C 
ATOM     16  C   UNL     1      17.873  31.025  29.650  1.00  0.00     0.039 C 
BRANCH  13  17
ATOM     17  C   UNL     1      15.432  27.967  29.597  1.00  0.00     0.066 CG0
ATOM     18  G   UNL     1      15.616  26.701  30.401  1.00  0.00     0.000 G0
ENDBRANCH  13  17
ENDBRANCH  11  13
ENDBRANCH  10  11
ENDBRANCH   1  10
TORSDOF 0
ENDMDL
MODEL 9
REMARK VINA RESULT:    -3.452      1.647      3.163
REMARK INTER + INTRA:          -4.496
REMARK INTER:                  -5.103
REMARK INTRA:                   0.607
REMARK UNBOUND:                 0.369
REMARK SMILES CC1=CCC(=C(C)C)C(=O)CC(C)=CCC1
REMARK SMILES IDX 12 1 14 2 13 3 15 4 16 5 2 6 1 7 3 8 11 10 9 11 10 12 5 13
REMARK SMILES IDX 6 14 7 15 8 16 4 17
REMARK H PARENT
REMARK Flexibility Score: 60.00
ROOT
ATOM      1  C   UNL     1      20.998  25.410  27.940  1.00  0.00    -0.070 C 
ATOM      2  C   UNL     1      22.221  25.987  27.967  1.00  0.00    -0.027 C 
ATOM      3  C   UNL     1      20.697  24.435  26.828  1.00  0.00     0.039 C 
ENDROOT
BRANCH   2   4
ATOM      4  C   UNL     1      22.672  27.027  28.967  1.00  0.00     0.032 C 
BRANCH   4   5
ATOM      5  C   UNL     1      22.292  28.446  28.519  1.00  0.00     0.034 C 
BRANCH   5   6
ATOM      6  C   UNL     1      21.453  29.202  29.540  1.00  0.00    -0.077 C 
ATOM      7  C   UNL     1      22.138  29.806  30.739  1.00  0.00     0.039 C 
ATOM      8  C   UNL     1      20.111  29.346  29.441  1.00  0.00    -0.023 CG0
ATOM      9  G   UNL     1      19.263  28.874  28.283  1.00  0.00     0.000 G0
ENDBRANCH   5   6
ENDBRANCH   4   5
ENDBRANCH   2   4
BRANCH   1  10
ATOM     10  C   UNL     1      19.926  25.696  28.973  1.00  0.00     0.111 C 
BRANCH  10  11
ATOM     11  C   UNL     1      18.718  26.328  28.340  1.00  0.00     0.163 C 
ATOM     12  O   UNL     1      18.047  25.672  27.499  1.00  0.00    -0.294 OA
BRANCH  11  13
ATOM     13  C   UNL     1      18.315  27.720  28.667  1.00  0.00    -0.002 C 
ATOM     14  C   UNL     1      17.130  27.962  29.291  1.00  0.00    -0.069 C 
ATOM     15  C   UNL     1      16.725  29.366  29.679  1.00  0.00     0.039 C 
ATOM     16  C   UNL     1      16.155  26.842  29.582  1.00  0.00     0.039 C 
BRANCH  13  17
ATOM     17  C   UNL     1      19.243  28.871  28.294  1.00  0.00     0.066 CG0
ATOM     18  G   UNL     1      20.118  29.340  29.434  1.00  0.00     0.000 G0
ENDBRANCH  13  17
ENDBRANCH  11  13
ENDBRANCH  10  11
ENDBRANCH   1  10
TORSDOF 0
ENDMDL
