MODEL 1
REMARK VINA RESULT:    -3.351      0.000      0.000
REMARK INTER + INTRA:          -5.120
REMARK INTER:                  -4.526
REMARK INTRA:                  -0.593
REMARK UNBOUND:                -0.593
REMARK SMILES CCCCCCC=CC(=O)[O-]
REMARK SMILES IDX 5 1 6 2 7 3 8 4 9 5 10 6 11 7 4 8 3 9 2 10 1 11
REMARK H PARENT
REMARK Flexibility Score: inf
ROOT
ATOM      1  C   UNL     1      58.544  28.624  50.083  1.00  0.00     0.004 C 
ENDROOT
BRANCH   1   2
ATOM      2  C   UNL     1      57.834  27.737  51.114  1.00  0.00     0.027 C 
BRANCH   2   3
ATOM      3  C   UNL     1      56.442  27.392  50.670  1.00  0.00    -0.025 C 
ATOM      4  C   UNL     1      56.107  26.142  50.332  1.00  0.00     0.020 C 
BRANCH   4   5
ATOM      5  C   UNL     1      54.745  25.778  49.907  1.00  0.00     0.064 C 
ATOM      6  O   UNL     1      53.870  26.660  49.701  1.00  0.00    -0.545 OA
ATOM      7  O   UNL     1      54.421  24.440  49.728  1.00  0.00    -0.545 OA
ENDBRANCH   4   5
ENDBRANCH   2   3
ENDBRANCH   1   2
BRANCH   1   8
ATOM      8  C   UNL     1      59.800  27.931  49.535  1.00  0.00     0.000 C 
BRANCH   8   9
ATOM      9  C   UNL     1      60.396  26.906  50.517  1.00  0.00    -0.000 C 
BRANCH   9  10
ATOM     10  C   UNL     1      60.476  25.466  49.980  1.00  0.00    -0.003 C 
ATOM     11  C   UNL     1      59.572  24.494  50.737  1.00  0.00     0.004 C 
ENDBRANCH   9  10
ENDBRANCH   8   9
ENDBRANCH   1   8
TORSDOF 6
ENDMDL
MODEL 2
REMARK VINA RESULT:    -3.341      3.225      5.077
REMARK INTER + INTRA:          -5.106
REMARK INTER:                  -4.765
REMARK INTRA:                  -0.341
REMARK UNBOUND:                -0.593
REMARK SMILES CCCCCCC=CC(=O)[O-]
REMARK SMILES IDX 5 1 6 2 7 3 8 4 9 5 10 6 11 7 4 8 3 9 2 10 1 11
REMARK H PARENT
REMARK Flexibility Score: inf
ROOT
ATOM      1  C   UNL     1      58.398  28.450  50.933  1.00  0.00     0.004 C 
ENDROOT
BRANCH   1   2
ATOM      2  C   UNL     1      59.162  28.574  49.608  1.00  0.00     0.027 C 
BRANCH   2   3
ATOM      3  C   UNL     1      60.170  27.471  49.455  1.00  0.00    -0.025 C 
ATOM      4  C   UNL     1      60.238  26.461  50.330  1.00  0.00     0.020 C 
BRANCH   4   5
ATOM      5  C   UNL     1      61.208  25.363  50.192  1.00  0.00     0.064 C 
ATOM      6  O   UNL     1      60.831  24.161  50.162  1.00  0.00    -0.545 OA
ATOM      7  O   UNL     1      62.561  25.657  50.091  1.00  0.00    -0.545 OA
ENDBRANCH   4   5
ENDBRANCH   2   3
ENDBRANCH   1   2
BRANCH   1   8
ATOM      8  C   UNL     1      56.899  28.227  50.683  1.00  0.00     0.000 C 
BRANCH   8   9
ATOM      9  C   UNL     1      56.526  26.738  50.564  1.00  0.00    -0.000 C 
BRANCH   9  10
ATOM     10  C   UNL     1      55.031  26.463  50.326  1.00  0.00    -0.003 C 
ATOM     11  C   UNL     1      54.778  25.204  49.497  1.00  0.00     0.004 C 
ENDBRANCH   9  10
ENDBRANCH   8   9
ENDBRANCH   1   8
TORSDOF 6
ENDMDL
MODEL 3
REMARK VINA RESULT:    -3.332      2.653      4.818
REMARK INTER + INTRA:          -5.094
REMARK INTER:                  -4.589
REMARK INTRA:                  -0.505
REMARK UNBOUND:                -0.593
REMARK SMILES CCCCCCC=CC(=O)[O-]
REMARK SMILES IDX 5 1 6 2 7 3 8 4 9 5 10 6 11 7 4 8 3 9 2 10 1 11
REMARK H PARENT
REMARK Flexibility Score: inf
ROOT
ATOM      1  C   UNL     1      55.485  27.569  51.277  1.00  0.00     0.004 C 
ENDROOT
BRANCH   1   2
ATOM      2  C   UNL     1      56.682  28.484  50.990  1.00  0.00     0.027 C 
BRANCH   2   3
ATOM      3  C   UNL     1      57.888  27.690  50.577  1.00  0.00    -0.025 C 
ATOM      4  C   UNL     1      57.937  26.363  50.732  1.00  0.00     0.020 C 
BRANCH   4   5
ATOM      5  C   UNL     1      59.103  25.563  50.321  1.00  0.00     0.064 C 
ATOM      6  O   UNL     1      59.220  24.358  50.665  1.00  0.00    -0.545 OA
ATOM      7  O   UNL     1      60.089  26.149  49.539  1.00  0.00    -0.545 OA
ENDBRANCH   4   5
ENDBRANCH   2   3
ENDBRANCH   1   2
BRANCH   1   8
ATOM      8  C   UNL     1      54.315  27.883  50.332  1.00  0.00     0.000 C 
BRANCH   8   9
ATOM      9  C   UNL     1      53.578  26.620  49.850  1.00  0.00    -0.000 C 
BRANCH   9  10
ATOM     10  C   UNL     1      54.482  25.401  49.596  1.00  0.00    -0.003 C 
ATOM     11  C   UNL     1      53.891  24.096  50.129  1.00  0.00     0.004 C 
ENDBRANCH   9  10
ENDBRANCH   8   9
ENDBRANCH   1   8
TORSDOF 6
ENDMDL
MODEL 4
REMARK VINA RESULT:    -3.301     13.051     14.077
REMARK INTER + INTRA:          -5.052
REMARK INTER:                  -4.407
REMARK INTRA:                  -0.645
REMARK UNBOUND:                -0.593
REMARK SMILES CCCCCCC=CC(=O)[O-]
REMARK SMILES IDX 5 1 6 2 7 3 8 4 9 5 10 6 11 7 4 8 3 9 2 10 1 11
REMARK H PARENT
REMARK Flexibility Score: inf
ROOT
ATOM      1  C   UNL     1      61.134  30.939  61.267  1.00  0.00     0.004 C 
ENDROOT
BRANCH   1   2
ATOM      2  C   UNL     1      61.808  31.642  60.081  1.00  0.00     0.027 C 
BRANCH   2   3
ATOM      3  C   UNL     1      62.310  33.003  60.468  1.00  0.00    -0.025 C 
ATOM      4  C   UNL     1      63.565  33.190  60.892  1.00  0.00     0.020 C 
BRANCH   4   5
ATOM      5  C   UNL     1      64.083  34.517  61.262  1.00  0.00     0.064 C 
ATOM      6  O   UNL     1      65.320  34.725  61.375  1.00  0.00    -0.545 OA
ATOM      7  O   UNL     1      63.192  35.557  61.490  1.00  0.00    -0.545 OA
ENDBRANCH   4   5
ENDBRANCH   2   3
ENDBRANCH   1   2
BRANCH   1   8
ATOM      8  C   UNL     1      62.044  29.846  61.846  1.00  0.00     0.000 C 
BRANCH   8   9
ATOM      9  C   UNL     1      62.949  29.194  60.783  1.00  0.00    -0.000 C 
BRANCH   9  10
ATOM     10  C   UNL     1      64.430  29.074  61.181  1.00  0.00    -0.003 C 
ATOM     11  C   UNL     1      65.339  30.022  60.399  1.00  0.00     0.004 C 
ENDBRANCH   9  10
ENDBRANCH   8   9
ENDBRANCH   1   8
TORSDOF 6
ENDMDL
MODEL 5
REMARK VINA RESULT:    -3.252     12.801     13.799
REMARK INTER + INTRA:          -4.986
REMARK INTER:                  -4.636
REMARK INTRA:                  -0.350
REMARK UNBOUND:                -0.593
REMARK SMILES CCCCCCC=CC(=O)[O-]
REMARK SMILES IDX 5 1 6 2 7 3 8 4 9 5 10 6 11 7 4 8 3 9 2 10 1 11
REMARK H PARENT
REMARK Flexibility Score: inf
ROOT
ATOM      1  C   UNL     1      61.411  31.409  60.328  1.00  0.00     0.004 C 
ENDROOT
BRANCH   1   2
ATOM      2  C   UNL     1      61.385  30.674  61.674  1.00  0.00     0.027 C 
BRANCH   2   3
ATOM      3  C   UNL     1      62.319  29.498  61.670  1.00  0.00    -0.025 C 
ATOM      4  C   UNL     1      63.494  29.541  61.032  1.00  0.00     0.020 C 
BRANCH   4   5
ATOM      5  C   UNL     1      64.431  28.406  61.028  1.00  0.00     0.064 C 
ATOM      6  O   UNL     1      64.014  27.218  60.988  1.00  0.00    -0.545 OA
ATOM      7  O   UNL     1      65.797  28.649  61.065  1.00  0.00    -0.545 OA
ENDBRANCH   4   5
ENDBRANCH   2   3
ENDBRANCH   1   2
BRANCH   1   8
ATOM      8  C   UNL     1      61.685  32.908  60.526  1.00  0.00     0.000 C 
BRANCH   8   9
ATOM      9  C   UNL     1      63.187  33.244  60.556  1.00  0.00    -0.000 C 
BRANCH   9  10
ATOM     10  C   UNL     1      63.528  34.635  61.118  1.00  0.00    -0.003 C 
ATOM     11  C   UNL     1      64.908  34.696  61.772  1.00  0.00     0.004 C 
ENDBRANCH   9  10
ENDBRANCH   8   9
ENDBRANCH   1   8
TORSDOF 6
ENDMDL
MODEL 6
REMARK VINA RESULT:    -3.245      3.118      5.128
REMARK INTER + INTRA:          -4.976
REMARK INTER:                  -4.601
REMARK INTRA:                  -0.375
REMARK UNBOUND:                -0.593
REMARK SMILES CCCCCCC=CC(=O)[O-]
REMARK SMILES IDX 5 1 6 2 7 3 8 4 9 5 10 6 11 7 4 8 3 9 2 10 1 11
REMARK H PARENT
REMARK Flexibility Score: inf
ROOT
ATOM      1  C   UNL     1      57.633  28.370  51.227  1.00  0.00     0.004 C 
ENDROOT
BRANCH   1   2
ATOM      2  C   UNL     1      58.539  28.607  50.011  1.00  0.00     0.027 C 
BRANCH   2   3
ATOM      3  C   UNL     1      59.758  27.731  50.061  1.00  0.00    -0.025 C 
ATOM      4  C   UNL     1      59.660  26.397  50.043  1.00  0.00     0.020 C 
BRANCH   4   5
ATOM      5  C   UNL     1      60.842  25.520  50.077  1.00  0.00     0.064 C 
ATOM      6  O   UNL     1      62.007  25.994  50.021  1.00  0.00    -0.545 OA
ATOM      7  O   UNL     1      60.668  24.146  50.173  1.00  0.00    -0.545 OA
ENDBRANCH   4   5
ENDBRANCH   2   3
ENDBRANCH   1   2
BRANCH   1   8
ATOM      8  C   UNL     1      56.186  28.102  50.790  1.00  0.00     0.000 C 
BRANCH   8   9
ATOM      9  C   UNL     1      55.928  26.624  50.443  1.00  0.00    -0.000 C 
BRANCH   9  10
ATOM     10  C   UNL     1      54.487  26.302  50.012  1.00  0.00    -0.003 C 
ATOM     11  C   UNL     1      53.557  27.513  50.078  1.00  0.00     0.004 C 
ENDBRANCH   9  10
ENDBRANCH   8   9
ENDBRANCH   1   8
TORSDOF 6
ENDMDL
MODEL 7
REMARK VINA RESULT:    -3.233      1.120      1.894
REMARK INTER + INTRA:          -4.961
REMARK INTER:                  -4.457
REMARK INTRA:                  -0.504
REMARK UNBOUND:                -0.593
REMARK SMILES CCCCCCC=CC(=O)[O-]
REMARK SMILES IDX 5 1 6 2 7 3 8 4 9 5 10 6 11 7 4 8 3 9 2 10 1 11
REMARK H PARENT
REMARK Flexibility Score: inf
ROOT
ATOM      1  C   UNL     1      57.202  27.966  51.756  1.00  0.00     0.004 C 
ENDROOT
BRANCH   1   2
ATOM      2  C   UNL     1      56.070  28.522  50.883  1.00  0.00     0.027 C 
BRANCH   2   3
ATOM      3  C   UNL     1      55.072  27.454  50.539  1.00  0.00    -0.025 C 
ATOM      4  C   UNL     1      55.450  26.191  50.315  1.00  0.00     0.020 C 
BRANCH   4   5
ATOM      5  C   UNL     1      54.488  25.126  49.991  1.00  0.00     0.064 C 
ATOM      6  O   UNL     1      54.250  24.193  50.804  1.00  0.00    -0.545 OA
ATOM      7  O   UNL     1      53.830  25.150  48.769  1.00  0.00    -0.545 OA
ENDBRANCH   4   5
ENDBRANCH   2   3
ENDBRANCH   1   2
BRANCH   1   8
ATOM      8  C   UNL     1      58.548  28.607  51.385  1.00  0.00     0.000 C 
BRANCH   8   9
ATOM      9  C   UNL     1      58.876  28.486  49.886  1.00  0.00    -0.000 C 
BRANCH   9  10
ATOM     10  C   UNL     1      60.035  27.530  49.552  1.00  0.00    -0.003 C 
ATOM     11  C   UNL     1      59.700  26.064  49.828  1.00  0.00     0.004 C 
ENDBRANCH   9  10
ENDBRANCH   8   9
ENDBRANCH   1   8
TORSDOF 6
ENDMDL
MODEL 8
REMARK VINA RESULT:    -3.187      3.133      5.238
REMARK INTER + INTRA:          -4.898
REMARK INTER:                  -4.393
REMARK INTRA:                  -0.506
REMARK UNBOUND:                -0.593
REMARK SMILES CCCCCCC=CC(=O)[O-]
REMARK SMILES IDX 5 1 6 2 7 3 8 4 9 5 10 6 11 7 4 8 3 9 2 10 1 11
REMARK H PARENT
REMARK Flexibility Score: inf
ROOT
ATOM      1  C   UNL     1      56.340  25.603  51.551  1.00  0.00     0.004 C 
ENDROOT
BRANCH   1   2
ATOM      2  C   UNL     1      57.685  24.910  51.298  1.00  0.00     0.027 C 
BRANCH   2   3
ATOM      3  C   UNL     1      58.541  25.709  50.357  1.00  0.00    -0.025 C 
ATOM      4  C   UNL     1      58.832  26.992  50.596  1.00  0.00     0.020 C 
BRANCH   4   5
ATOM      5  C   UNL     1      59.680  27.790  49.695  1.00  0.00     0.064 C 
ATOM      6  O   UNL     1      59.261  28.865  49.189  1.00  0.00    -0.545 OA
ATOM      7  O   UNL     1      60.963  27.351  49.400  1.00  0.00    -0.545 OA
ENDBRANCH   4   5
ENDBRANCH   2   3
ENDBRANCH   1   2
BRANCH   1   8
ATOM      8  C   UNL     1      55.390  25.408  50.361  1.00  0.00     0.000 C 
BRANCH   8   9
ATOM      9  C   UNL     1      54.594  26.680  50.014  1.00  0.00    -0.000 C 
BRANCH   9  10
ATOM     10  C   UNL     1      55.078  27.958  50.720  1.00  0.00    -0.003 C 
ATOM     11  C   UNL     1      54.014  29.054  50.771  1.00  0.00     0.004 C 
ENDBRANCH   9  10
ENDBRANCH   8   9
ENDBRANCH   1   8
TORSDOF 6
ENDMDL
MODEL 9
REMARK VINA RESULT:    -3.158     12.588     13.702
REMARK INTER + INTRA:          -4.859
REMARK INTER:                  -4.092
REMARK INTRA:                  -0.767
REMARK UNBOUND:                -0.593
REMARK SMILES CCCCCCC=CC(=O)[O-]
REMARK SMILES IDX 5 1 6 2 7 3 8 4 9 5 10 6 11 7 4 8 3 9 2 10 1 11
REMARK H PARENT
REMARK Flexibility Score: inf
ROOT
ATOM      1  C   UNL     1      61.430  30.496  61.815  1.00  0.00     0.004 C 
ENDROOT
BRANCH   1   2
ATOM      2  C   UNL     1      62.078  29.125  61.585  1.00  0.00     0.027 C 
BRANCH   2   3
ATOM      3  C   UNL     1      63.306  29.239  60.728  1.00  0.00    -0.025 C 
ATOM      4  C   UNL     1      64.511  29.469  61.262  1.00  0.00     0.020 C 
BRANCH   4   5
ATOM      5  C   UNL     1      65.730  29.571  60.442  1.00  0.00     0.064 C 
ATOM      6  O   UNL     1      66.750  28.879  60.704  1.00  0.00    -0.545 OA
ATOM      7  O   UNL     1      65.754  30.442  59.362  1.00  0.00    -0.545 OA
ENDBRANCH   4   5
ENDBRANCH   2   3
ENDBRANCH   1   2
BRANCH   1   8
ATOM      8  C   UNL     1      61.286  31.263  60.492  1.00  0.00     0.000 C 
BRANCH   8   9
ATOM      9  C   UNL     1      61.821  32.705  60.574  1.00  0.00    -0.000 C 
BRANCH   9  10
ATOM     10  C   UNL     1      63.230  32.907  59.991  1.00  0.00    -0.003 C 
ATOM     11  C   UNL     1      64.281  33.217  61.057  1.00  0.00     0.004 C 
ENDBRANCH   9  10
ENDBRANCH   8   9
ENDBRANCH   1   8
TORSDOF 6
ENDMDL
