MODEL 1
REMARK VINA RESULT:    -5.150      0.000      0.000
REMARK INTER + INTRA:         -11.133
REMARK INTER:                  -9.365
REMARK INTRA:                  -1.768
REMARK UNBOUND:                -1.768
REMARK SMILES CCCCCCCCCCCCCC[C@@H](C)C(=O)[O-]
REMARK SMILES IDX 9 1 10 2 11 3 12 4 13 5 14 6 15 7 16 8 17 9 18 10 19 11 8 12
REMARK SMILES IDX 7 13 6 14 5 15 4 16 3 17 2 18 1 19
REMARK H PARENT
REMARK Flexibility Score: inf
ROOT
ATOM      1  C   UNL     1      28.090  -3.047  30.891  1.00  0.00     0.000 C 
ENDROOT
BRANCH   1   2
ATOM      2  C   UNL     1      29.136  -3.146  29.765  1.00  0.00     0.000 C 
BRANCH   2   3
ATOM      3  C   UNL     1      30.277  -4.148  30.023  1.00  0.00     0.000 C 
BRANCH   3   4
ATOM      4  C   UNL     1      29.824  -5.550  30.468  1.00  0.00     0.000 C 
BRANCH   4   5
ATOM      5  C   UNL     1      29.068  -6.312  29.369  1.00  0.00     0.001 C 
BRANCH   5   6
ATOM      6  C   UNL     1      27.975  -7.208  29.974  1.00  0.00     0.009 C 
BRANCH   6   7
ATOM      7  C   UNL     1      28.304  -8.712  29.858  1.00  0.00     0.032 C 
ATOM      8  C   UNL     1      29.155  -9.027  28.621  1.00  0.00     0.014 C 
BRANCH   7   9
ATOM      9  C   UNL     1      29.026  -9.169  31.096  1.00  0.00     0.044 C 
ATOM     10  O   UNL     1      29.946 -10.024  31.013  1.00  0.00    -0.550 OA
ATOM     11  O   UNL     1      28.672  -8.661  32.342  1.00  0.00    -0.550 OA
ENDBRANCH   7   9
ENDBRANCH   6   7
ENDBRANCH   5   6
ENDBRANCH   4   5
ENDBRANCH   3   4
ENDBRANCH   2   3
ENDBRANCH   1   2
BRANCH   1  12
ATOM     12  C   UNL     1      27.027  -1.953  30.658  1.00  0.00     0.000 C 
BRANCH  12  13
ATOM     13  C   UNL     1      27.015  -1.444  29.207  1.00  0.00    -0.000 C 
BRANCH  13  14
ATOM     14  C   UNL     1      27.189   0.080  29.115  1.00  0.00    -0.000 C 
BRANCH  14  15
ATOM     15  C   UNL     1      27.194   0.755  30.497  1.00  0.00    -0.000 C 
BRANCH  15  16
ATOM     16  C   UNL     1      28.374   1.727  30.683  1.00  0.00    -0.000 C 
BRANCH  16  17
ATOM     17  C   UNL     1      29.324   1.375  31.842  1.00  0.00    -0.000 C 
BRANCH  17  18
ATOM     18  C   UNL     1      29.991   0.003  31.672  1.00  0.00    -0.003 C 
ATOM     19  C   UNL     1      30.774  -0.070  30.363  1.00  0.00     0.004 C 
ENDBRANCH  17  18
ENDBRANCH  16  17
ENDBRANCH  15  16
ENDBRANCH  14  15
ENDBRANCH  13  14
ENDBRANCH  12  13
ENDBRANCH   1  12
TORSDOF 14
ENDMDL
MODEL 2
REMARK VINA RESULT:    -5.139      1.432      2.397
REMARK INTER + INTRA:         -11.114
REMARK INTER:                  -9.778
REMARK INTRA:                  -1.335
REMARK UNBOUND:                -1.768
REMARK SMILES CCCCCCCCCCCCCC[C@@H](C)C(=O)[O-]
REMARK SMILES IDX 9 1 10 2 11 3 12 4 13 5 14 6 15 7 16 8 17 9 18 10 19 11 8 12
REMARK SMILES IDX 7 13 6 14 5 15 4 16 3 17 2 18 1 19
REMARK H PARENT
REMARK Flexibility Score: inf
ROOT
ATOM      1  C   UNL     1      27.516  -3.333  30.821  1.00  0.00     0.000 C 
ENDROOT
BRANCH   1   2
ATOM      2  C   UNL     1      26.571  -4.474  30.398  1.00  0.00     0.000 C 
BRANCH   2   3
ATOM      3  C   UNL     1      27.273  -5.778  29.977  1.00  0.00     0.000 C 
BRANCH   3   4
ATOM      4  C   UNL     1      28.773  -5.636  29.657  1.00  0.00     0.000 C 
BRANCH   4   5
ATOM      5  C   UNL     1      29.674  -6.321  30.695  1.00  0.00     0.001 C 
BRANCH   5   6
ATOM      6  C   UNL     1      28.994  -7.573  31.272  1.00  0.00     0.009 C 
BRANCH   6   7
ATOM      7  C   UNL     1      29.577  -8.884  30.702  1.00  0.00     0.032 C 
ATOM      8  C   UNL     1      29.598 -10.012  31.742  1.00  0.00     0.014 C 
BRANCH   7   9
ATOM      9  C   UNL     1      28.775  -9.316  29.505  1.00  0.00     0.044 C 
ATOM     10  O   UNL     1      27.658  -9.877  29.661  1.00  0.00    -0.550 OA
ATOM     11  O   UNL     1      29.266  -9.112  28.221  1.00  0.00    -0.550 OA
ENDBRANCH   7   9
ENDBRANCH   6   7
ENDBRANCH   5   6
ENDBRANCH   4   5
ENDBRANCH   3   4
ENDBRANCH   2   3
ENDBRANCH   1   2
BRANCH   1  12
ATOM     12  C   UNL     1      26.931  -1.923  30.591  1.00  0.00     0.000 C 
BRANCH  12  13
ATOM     13  C   UNL     1      27.334  -1.335  29.229  1.00  0.00    -0.000 C 
BRANCH  13  14
ATOM     14  C   UNL     1      28.816  -1.575  28.899  1.00  0.00    -0.000 C 
BRANCH  14  15
ATOM     15  C   UNL     1      29.746  -1.209  30.069  1.00  0.00    -0.000 C 
BRANCH  15  16
ATOM     16  C   UNL     1      29.992   0.307  30.185  1.00  0.00    -0.000 C 
BRANCH  16  17
ATOM     17  C   UNL     1      29.384   0.965  31.438  1.00  0.00    -0.000 C 
BRANCH  17  18
ATOM     18  C   UNL     1      28.149   1.819  31.125  1.00  0.00    -0.003 C 
ATOM     19  C   UNL     1      28.073   2.153  29.637  1.00  0.00     0.004 C 
ENDBRANCH  17  18
ENDBRANCH  16  17
ENDBRANCH  15  16
ENDBRANCH  14  15
ENDBRANCH  13  14
ENDBRANCH  12  13
ENDBRANCH   1  12
TORSDOF 14
ENDMDL
MODEL 3
REMARK VINA RESULT:    -5.133      3.738      8.356
REMARK INTER + INTRA:         -11.102
REMARK INTER:                  -9.576
REMARK INTRA:                  -1.526
REMARK UNBOUND:                -1.768
REMARK SMILES CCCCCCCCCCCCCC[C@@H](C)C(=O)[O-]
REMARK SMILES IDX 9 1 10 2 11 3 12 4 13 5 14 6 15 7 16 8 17 9 18 10 19 11 8 12
REMARK SMILES IDX 7 13 6 14 5 15 4 16 3 17 2 18 1 19
REMARK H PARENT
REMARK Flexibility Score: inf
ROOT
ATOM      1  C   UNL     1      30.198  -4.419  29.651  1.00  0.00     0.000 C 
ENDROOT
BRANCH   1   2
ATOM      2  C   UNL     1      29.718  -3.047  30.161  1.00  0.00     0.000 C 
BRANCH   2   3
ATOM      3  C   UNL     1      28.410  -2.539  29.526  1.00  0.00     0.000 C 
BRANCH   3   4
ATOM      4  C   UNL     1      27.308  -2.152  30.529  1.00  0.00     0.000 C 
BRANCH   4   5
ATOM      5  C   UNL     1      27.820  -1.249  31.662  1.00  0.00     0.001 C 
BRANCH   5   6
ATOM      6  C   UNL     1      27.164   0.140  31.596  1.00  0.00     0.009 C 
BRANCH   6   7
ATOM      7  C   UNL     1      28.114   1.223  31.044  1.00  0.00     0.032 C 
ATOM      8  C   UNL     1      29.560   0.723  30.926  1.00  0.00     0.014 C 
BRANCH   7   9
ATOM      9  C   UNL     1      27.628   1.684  29.697  1.00  0.00     0.044 C 
ATOM     10  O   UNL     1      27.929   2.831  29.274  1.00  0.00    -0.550 OA
ATOM     11  O   UNL     1      26.832   0.853  28.917  1.00  0.00    -0.550 OA
ENDBRANCH   7   9
ENDBRANCH   6   7
ENDBRANCH   5   6
ENDBRANCH   4   5
ENDBRANCH   3   4
ENDBRANCH   2   3
ENDBRANCH   1   2
BRANCH   1  12
ATOM     12  C   UNL     1      30.093  -5.545  30.703  1.00  0.00     0.000 C 
BRANCH  12  13
ATOM     13  C   UNL     1      28.643  -6.005  30.927  1.00  0.00    -0.000 C 
BRANCH  13  14
ATOM     14  C   UNL     1      28.023  -6.633  29.669  1.00  0.00    -0.000 C 
BRANCH  14  15
ATOM     15  C   UNL     1      29.037  -7.467  28.867  1.00  0.00    -0.000 C 
BRANCH  15  16
ATOM     16  C   UNL     1      28.899  -8.980  29.119  1.00  0.00    -0.000 C 
BRANCH  16  17
ATOM     17  C   UNL     1      29.572  -9.484  30.408  1.00  0.00    -0.000 C 
BRANCH  17  18
ATOM     18  C   UNL     1      28.574 -10.078  31.412  1.00  0.00    -0.003 C 
ATOM     19  C   UNL     1      28.489  -9.223  32.674  1.00  0.00     0.004 C 
ENDBRANCH  17  18
ENDBRANCH  16  17
ENDBRANCH  15  16
ENDBRANCH  14  15
ENDBRANCH  13  14
ENDBRANCH  12  13
ENDBRANCH   1  12
TORSDOF 14
ENDMDL
MODEL 4
REMARK VINA RESULT:    -5.078      4.261      8.601
REMARK INTER + INTRA:         -11.002
REMARK INTER:                  -9.502
REMARK INTRA:                  -1.500
REMARK UNBOUND:                -1.768
REMARK SMILES CCCCCCCCCCCCCC[C@@H](C)C(=O)[O-]
REMARK SMILES IDX 9 1 10 2 11 3 12 4 13 5 14 6 15 7 16 8 17 9 18 10 19 11 8 12
REMARK SMILES IDX 7 13 6 14 5 15 4 16 3 17 2 18 1 19
REMARK H PARENT
REMARK Flexibility Score: inf
ROOT
ATOM      1  C   UNL     1      30.422  -4.297  30.034  1.00  0.00     0.000 C 
ENDROOT
BRANCH   1   2
ATOM      2  C   UNL     1      29.332  -3.229  29.822  1.00  0.00     0.000 C 
BRANCH   2   3
ATOM      3  C   UNL     1      29.363  -2.060  30.824  1.00  0.00     0.000 C 
BRANCH   3   4
ATOM      4  C   UNL     1      28.029  -1.782  31.541  1.00  0.00     0.000 C 
BRANCH   4   5
ATOM      5  C   UNL     1      27.612  -0.305  31.480  1.00  0.00     0.001 C 
BRANCH   5   6
ATOM      6  C   UNL     1      28.718   0.551  30.842  1.00  0.00     0.009 C 
BRANCH   6   7
ATOM      7  C   UNL     1      28.219   1.357  29.624  1.00  0.00     0.032 C 
ATOM      8  C   UNL     1      26.916   0.792  29.045  1.00  0.00     0.014 C 
BRANCH   7   9
ATOM      9  C   UNL     1      28.014   2.795  30.018  1.00  0.00     0.044 C 
ATOM     10  O   UNL     1      27.713   3.653  29.147  1.00  0.00    -0.550 OA
ATOM     11  O   UNL     1      28.170   3.188  31.342  1.00  0.00    -0.550 OA
ENDBRANCH   7   9
ENDBRANCH   6   7
ENDBRANCH   5   6
ENDBRANCH   4   5
ENDBRANCH   3   4
ENDBRANCH   2   3
ENDBRANCH   1   2
BRANCH   1  12
ATOM     12  C   UNL     1      29.914  -5.573  30.738  1.00  0.00     0.000 C 
BRANCH  12  13
ATOM     13  C   UNL     1      28.380  -5.678  30.729  1.00  0.00    -0.000 C 
BRANCH  13  14
ATOM     14  C   UNL     1      27.859  -6.608  29.622  1.00  0.00    -0.000 C 
BRANCH  14  15
ATOM     15  C   UNL     1      28.995  -7.336  28.883  1.00  0.00    -0.000 C 
BRANCH  15  16
ATOM     16  C   UNL     1      28.815  -8.866  28.868  1.00  0.00    -0.000 C 
BRANCH  16  17
ATOM     17  C   UNL     1      28.201  -9.456  30.150  1.00  0.00    -0.000 C 
BRANCH  17  18
ATOM     18  C   UNL     1      29.225  -9.627  31.280  1.00  0.00    -0.003 C 
ATOM     19  C   UNL     1      28.644  -9.184  32.621  1.00  0.00     0.004 C 
ENDBRANCH  17  18
ENDBRANCH  16  17
ENDBRANCH  15  16
ENDBRANCH  14  15
ENDBRANCH  13  14
ENDBRANCH  12  13
ENDBRANCH   1  12
TORSDOF 14
ENDMDL
MODEL 5
REMARK VINA RESULT:    -5.046      4.284      8.762
REMARK INTER + INTRA:         -10.944
REMARK INTER:                  -9.646
REMARK INTRA:                  -1.298
REMARK UNBOUND:                -1.768
REMARK SMILES CCCCCCCCCCCCCC[C@@H](C)C(=O)[O-]
REMARK SMILES IDX 9 1 10 2 11 3 12 4 13 5 14 6 15 7 16 8 17 9 18 10 19 11 8 12
REMARK SMILES IDX 7 13 6 14 5 15 4 16 3 17 2 18 1 19
REMARK H PARENT
REMARK Flexibility Score: inf
ROOT
ATOM      1  C   UNL     1      26.828  -4.512  30.626  1.00  0.00     0.000 C 
ENDROOT
BRANCH   1   2
ATOM      2  C   UNL     1      27.697  -3.241  30.591  1.00  0.00     0.000 C 
BRANCH   2   3
ATOM      3  C   UNL     1      26.915  -1.921  30.451  1.00  0.00     0.000 C 
BRANCH   3   4
ATOM      4  C   UNL     1      27.096  -1.197  29.105  1.00  0.00     0.000 C 
BRANCH   4   5
ATOM      5  C   UNL     1      28.293  -0.234  29.099  1.00  0.00     0.001 C 
BRANCH   5   6
ATOM      6  C   UNL     1      27.865   1.177  29.532  1.00  0.00     0.009 C 
BRANCH   6   7
ATOM      7  C   UNL     1      28.216   1.481  31.004  1.00  0.00     0.032 C 
ATOM      8  C   UNL     1      29.474   0.734  31.469  1.00  0.00     0.014 C 
BRANCH   7   9
ATOM      9  C   UNL     1      28.414   2.961  31.182  1.00  0.00     0.044 C 
ATOM     10  O   UNL     1      29.075   3.399  32.160  1.00  0.00    -0.550 OA
ATOM     11  O   UNL     1      27.857   3.857  30.276  1.00  0.00    -0.550 OA
ENDBRANCH   7   9
ENDBRANCH   6   7
ENDBRANCH   5   6
ENDBRANCH   4   5
ENDBRANCH   3   4
ENDBRANCH   2   3
ENDBRANCH   1   2
BRANCH   1  12
ATOM     12  C   UNL     1      27.448  -5.710  29.877  1.00  0.00     0.000 C 
BRANCH  12  13
ATOM     13  C   UNL     1      28.982  -5.623  29.794  1.00  0.00    -0.000 C 
BRANCH  13  14
ATOM     14  C   UNL     1      29.679  -6.508  30.839  1.00  0.00    -0.000 C 
BRANCH  14  15
ATOM     15  C   UNL     1      28.736  -7.566  31.437  1.00  0.00    -0.000 C 
BRANCH  15  16
ATOM     16  C   UNL     1      29.353  -8.977  31.451  1.00  0.00    -0.000 C 
BRANCH  16  17
ATOM     17  C   UNL     1      28.596 -10.021  30.611  1.00  0.00    -0.000 C 
BRANCH  17  18
ATOM     18  C   UNL     1      28.118  -9.469  29.261  1.00  0.00    -0.003 C 
ATOM     19  C   UNL     1      29.293  -9.244  28.312  1.00  0.00     0.004 C 
ENDBRANCH  17  18
ENDBRANCH  16  17
ENDBRANCH  15  16
ENDBRANCH  14  15
ENDBRANCH  13  14
ENDBRANCH  12  13
ENDBRANCH   1  12
TORSDOF 14
ENDMDL
MODEL 6
REMARK VINA RESULT:    -5.026      6.948     11.368
REMARK INTER + INTRA:         -10.907
REMARK INTER:                  -9.587
REMARK INTRA:                  -1.320
REMARK UNBOUND:                -1.768
REMARK SMILES CCCCCCCCCCCCCC[C@@H](C)C(=O)[O-]
REMARK SMILES IDX 9 1 10 2 11 3 12 4 13 5 14 6 15 7 16 8 17 9 18 10 19 11 8 12
REMARK SMILES IDX 7 13 6 14 5 15 4 16 3 17 2 18 1 19
REMARK H PARENT
REMARK Flexibility Score: inf
ROOT
ATOM      1  C   UNL     1      28.107   2.080  31.206  1.00  0.00     0.000 C 
ENDROOT
BRANCH   1   2
ATOM      2  C   UNL     1      27.907   2.484  29.733  1.00  0.00     0.000 C 
BRANCH   2   3
ATOM      3  C   UNL     1      27.883   4.002  29.473  1.00  0.00     0.000 C 
BRANCH   3   4
ATOM      4  C   UNL     1      27.954   4.880  30.735  1.00  0.00     0.000 C 
BRANCH   4   5
ATOM      5  C   UNL     1      27.300   6.257  30.544  1.00  0.00     0.001 C 
BRANCH   5   6
ATOM      6  C   UNL     1      28.299   7.260  29.945  1.00  0.00     0.009 C 
BRANCH   6   7
ATOM      7  C   UNL     1      28.190   8.663  30.581  1.00  0.00     0.032 C 
ATOM      8  C   UNL     1      28.980   9.720  29.798  1.00  0.00     0.014 C 
BRANCH   7   9
ATOM      9  C   UNL     1      26.744   9.071  30.661  1.00  0.00     0.044 C 
ATOM     10  O   UNL     1      26.128   9.425  29.621  1.00  0.00    -0.550 OA
ATOM     11  O   UNL     1      26.082   9.073  31.883  1.00  0.00    -0.550 OA
ENDBRANCH   7   9
ENDBRANCH   6   7
ENDBRANCH   5   6
ENDBRANCH   4   5
ENDBRANCH   3   4
ENDBRANCH   2   3
ENDBRANCH   1   2
BRANCH   1  12
ATOM     12  C   UNL     1      29.261   1.078  31.425  1.00  0.00     0.000 C 
BRANCH  12  13
ATOM     13  C   UNL     1      29.750   0.449  30.109  1.00  0.00    -0.000 C 
BRANCH  13  14
ATOM     14  C   UNL     1      30.322  -0.964  30.308  1.00  0.00    -0.000 C 
BRANCH  14  15
ATOM     15  C   UNL     1      29.324  -2.064  29.906  1.00  0.00    -0.000 C 
BRANCH  15  16
ATOM     16  C   UNL     1      28.187  -2.243  30.930  1.00  0.00    -0.000 C 
BRANCH  16  17
ATOM     17  C   UNL     1      26.771  -2.245  30.327  1.00  0.00    -0.000 C 
BRANCH  17  18
ATOM     18  C   UNL     1      26.240  -0.834  30.043  1.00  0.00    -0.003 C 
ATOM     19  C   UNL     1      26.422  -0.464  28.572  1.00  0.00     0.004 C 
ENDBRANCH  17  18
ENDBRANCH  16  17
ENDBRANCH  15  16
ENDBRANCH  14  15
ENDBRANCH  13  14
ENDBRANCH  12  13
ENDBRANCH   1  12
TORSDOF 14
ENDMDL
MODEL 7
REMARK VINA RESULT:    -5.023      1.932      2.965
REMARK INTER + INTRA:         -10.902
REMARK INTER:                  -9.831
REMARK INTRA:                  -1.071
REMARK UNBOUND:                -1.768
REMARK SMILES CCCCCCCCCCCCCC[C@@H](C)C(=O)[O-]
REMARK SMILES IDX 9 1 10 2 11 3 12 4 13 5 14 6 15 7 16 8 17 9 18 10 19 11 8 12
REMARK SMILES IDX 7 13 6 14 5 15 4 16 3 17 2 18 1 19
REMARK H PARENT
REMARK Flexibility Score: inf
ROOT
ATOM      1  C   UNL     1      29.229  -1.366  30.983  1.00  0.00     0.000 C 
ENDROOT
BRANCH   1   2
ATOM      2  C   UNL     1      28.923  -2.370  29.856  1.00  0.00     0.000 C 
BRANCH   2   3
ATOM      3  C   UNL     1      28.811  -3.839  30.305  1.00  0.00     0.000 C 
BRANCH   3   4
ATOM      4  C   UNL     1      27.376  -4.393  30.364  1.00  0.00     0.000 C 
BRANCH   4   5
ATOM      5  C   UNL     1      27.302  -5.898  30.062  1.00  0.00     0.001 C 
BRANCH   5   6
ATOM      6  C   UNL     1      28.532  -6.357  29.262  1.00  0.00     0.009 C 
BRANCH   6   7
ATOM      7  C   UNL     1      29.169  -7.641  29.834  1.00  0.00     0.032 C 
ATOM      8  C   UNL     1      28.671  -7.957  31.251  1.00  0.00     0.014 C 
BRANCH   7   9
ATOM      9  C   UNL     1      28.873  -8.802  28.924  1.00  0.00     0.044 C 
ATOM     10  O   UNL     1      28.063  -9.697  29.283  1.00  0.00    -0.550 OA
ATOM     11  O   UNL     1      29.500  -8.902  27.688  1.00  0.00    -0.550 OA
ENDBRANCH   7   9
ENDBRANCH   6   7
ENDBRANCH   5   6
ENDBRANCH   4   5
ENDBRANCH   3   4
ENDBRANCH   2   3
ENDBRANCH   1   2
BRANCH   1  12
ATOM     12  C   UNL     1      28.020  -1.069  31.897  1.00  0.00     0.000 C 
BRANCH  12  13
ATOM     13  C   UNL     1      27.257   0.195  31.469  1.00  0.00    -0.000 C 
BRANCH  13  14
ATOM     14  C   UNL     1      26.464  -0.008  30.168  1.00  0.00    -0.000 C 
BRANCH  14  15
ATOM     15  C   UNL     1      26.988   0.868  29.017  1.00  0.00    -0.000 C 
BRANCH  15  16
ATOM     16  C   UNL     1      27.936   1.983  29.498  1.00  0.00    -0.000 C 
BRANCH  16  17
ATOM     17  C   UNL     1      27.421   3.414  29.262  1.00  0.00    -0.000 C 
BRANCH  17  18
ATOM     18  C   UNL     1      27.981   4.425  30.271  1.00  0.00    -0.003 C 
ATOM     19  C   UNL     1      27.095   5.665  30.357  1.00  0.00     0.004 C 
ENDBRANCH  17  18
ENDBRANCH  16  17
ENDBRANCH  15  16
ENDBRANCH  14  15
ENDBRANCH  13  14
ENDBRANCH  12  13
ENDBRANCH   1  12
TORSDOF 14
ENDMDL
MODEL 8
REMARK VINA RESULT:    -5.000      1.829      3.009
REMARK INTER + INTRA:         -10.861
REMARK INTER:                  -9.871
REMARK INTRA:                  -0.990
REMARK UNBOUND:                -1.768
REMARK SMILES CCCCCCCCCCCCCC[C@@H](C)C(=O)[O-]
REMARK SMILES IDX 9 1 10 2 11 3 12 4 13 5 14 6 15 7 16 8 17 9 18 10 19 11 8 12
REMARK SMILES IDX 7 13 6 14 5 15 4 16 3 17 2 18 1 19
REMARK H PARENT
REMARK Flexibility Score: inf
ROOT
ATOM      1  C   UNL     1      28.772  -2.279  29.968  1.00  0.00     0.000 C 
ENDROOT
BRANCH   1   2
ATOM      2  C   UNL     1      27.432  -2.446  30.710  1.00  0.00     0.000 C 
BRANCH   2   3
ATOM      3  C   UNL     1      26.747  -3.812  30.516  1.00  0.00     0.000 C 
BRANCH   3   4
ATOM      4  C   UNL     1      27.570  -5.025  30.986  1.00  0.00     0.000 C 
BRANCH   4   5
ATOM      5  C   UNL     1      27.634  -6.147  29.938  1.00  0.00     0.001 C 
BRANCH   5   6
ATOM      6  C   UNL     1      29.086  -6.592  29.699  1.00  0.00     0.009 C 
BRANCH   6   7
ATOM      7  C   UNL     1      29.336  -8.059  30.110  1.00  0.00     0.032 C 
ATOM      8  C   UNL     1      28.668  -8.411  31.446  1.00  0.00     0.014 C 
BRANCH   7   9
ATOM      9  C   UNL     1      28.827  -8.979  29.034  1.00  0.00     0.044 C 
ATOM     10  O   UNL     1      27.885  -9.778  29.277  1.00  0.00    -0.550 OA
ATOM     11  O   UNL     1      29.403  -8.964  27.768  1.00  0.00    -0.550 OA
ENDBRANCH   7   9
ENDBRANCH   6   7
ENDBRANCH   5   6
ENDBRANCH   4   5
ENDBRANCH   3   4
ENDBRANCH   2   3
ENDBRANCH   1   2
BRANCH   1  12
ATOM     12  C   UNL     1      28.728  -1.234  28.833  1.00  0.00     0.000 C 
BRANCH  12  13
ATOM     13  C   UNL     1      29.390   0.096  29.233  1.00  0.00    -0.000 C 
BRANCH  13  14
ATOM     14  C   UNL     1      30.086   0.019  30.600  1.00  0.00    -0.000 C 
BRANCH  14  15
ATOM     15  C   UNL     1      29.506   1.022  31.612  1.00  0.00    -0.000 C 
BRANCH  15  16
ATOM     16  C   UNL     1      28.301   1.804  31.056  1.00  0.00    -0.000 C 
BRANCH  16  17
ATOM     17  C   UNL     1      28.289   3.304  31.403  1.00  0.00    -0.000 C 
BRANCH  17  18
ATOM     18  C   UNL     1      27.905   4.190  30.211  1.00  0.00    -0.003 C 
ATOM     19  C   UNL     1      28.302   5.644  30.456  1.00  0.00     0.004 C 
ENDBRANCH  17  18
ENDBRANCH  16  17
ENDBRANCH  15  16
ENDBRANCH  14  15
ENDBRANCH  13  14
ENDBRANCH  12  13
ENDBRANCH   1  12
TORSDOF 14
ENDMDL
MODEL 9
REMARK VINA RESULT:    -4.991      1.830      2.882
REMARK INTER + INTRA:         -10.844
REMARK INTER:                 -10.060
REMARK INTRA:                  -0.783
REMARK UNBOUND:                -1.768
REMARK SMILES CCCCCCCCCCCCCC[C@@H](C)C(=O)[O-]
REMARK SMILES IDX 9 1 10 2 11 3 12 4 13 5 14 6 15 7 16 8 17 9 18 10 19 11 8 12
REMARK SMILES IDX 7 13 6 14 5 15 4 16 3 17 2 18 1 19
REMARK H PARENT
REMARK Flexibility Score: inf
ROOT
ATOM      1  C   UNL     1      28.544  -1.632  29.310  1.00  0.00     0.000 C 
ENDROOT
BRANCH   1   2
ATOM      2  C   UNL     1      29.589  -2.516  30.017  1.00  0.00     0.000 C 
BRANCH   2   3
ATOM      3  C   UNL     1      29.311  -4.029  29.955  1.00  0.00     0.000 C 
BRANCH   3   4
ATOM      4  C   UNL     1      27.887  -4.447  30.365  1.00  0.00     0.000 C 
BRANCH   4   5
ATOM      5  C   UNL     1      27.563  -5.905  30.006  1.00  0.00     0.001 C 
BRANCH   5   6
ATOM      6  C   UNL     1      28.849  -6.702  29.735  1.00  0.00     0.009 C 
BRANCH   6   7
ATOM      7  C   UNL     1      28.606  -8.225  29.681  1.00  0.00     0.032 C 
ATOM      8  C   UNL     1      29.138  -8.854  28.387  1.00  0.00     0.014 C 
BRANCH   7   9
ATOM      9  C   UNL     1      29.258  -8.884  30.867  1.00  0.00     0.044 C 
ATOM     10  O   UNL     1      30.225  -9.672  30.700  1.00  0.00    -0.550 OA
ATOM     11  O   UNL     1      28.789  -8.637  32.152  1.00  0.00    -0.550 OA
ENDBRANCH   7   9
ENDBRANCH   6   7
ENDBRANCH   5   6
ENDBRANCH   4   5
ENDBRANCH   3   4
ENDBRANCH   2   3
ENDBRANCH   1   2
BRANCH   1  12
ATOM     12  C   UNL     1      28.941  -0.143  29.231  1.00  0.00     0.000 C 
BRANCH  12  13
ATOM     13  C   UNL     1      29.962   0.252  30.311  1.00  0.00    -0.000 C 
BRANCH  13  14
ATOM     14  C   UNL     1      29.305   0.936  31.520  1.00  0.00    -0.000 C 
BRANCH  14  15
ATOM     15  C   UNL     1      28.092   1.794  31.124  1.00  0.00    -0.000 C 
BRANCH  15  16
ATOM     16  C   UNL     1      28.345   3.304  31.296  1.00  0.00    -0.000 C 
BRANCH  16  17
ATOM     17  C   UNL     1      27.854   4.177  30.127  1.00  0.00    -0.000 C 
BRANCH  17  18
ATOM     18  C   UNL     1      27.317   5.541  30.584  1.00  0.00    -0.003 C 
ATOM     19  C   UNL     1      28.263   6.668  30.176  1.00  0.00     0.004 C 
ENDBRANCH  17  18
ENDBRANCH  16  17
ENDBRANCH  15  16
ENDBRANCH  14  15
ENDBRANCH  13  14
ENDBRANCH  12  13
ENDBRANCH   1  12
TORSDOF 14
ENDMDL
