MODEL 1
REMARK VINA RESULT:    -2.602      0.000      0.000
REMARK INTER + INTRA:         -10.742
REMARK INTER:                  -5.949
REMARK INTRA:                  -4.794
REMARK UNBOUND:                -4.794
REMARK SMILES CCCCCCCCCCCCCCCCCCCCCCCC(=O)[O-]
REMARK SMILES IDX 13 1 14 2 15 3 16 4 17 5 18 6 19 7 20 8 21 9 22 10 23 11
REMARK SMILES IDX 24 12 25 13 26 14 12 15 11 16 10 17 9 18 8 19 7 20 6 21 5 22
REMARK SMILES IDX 4 23 3 24 2 25 1 26
REMARK H PARENT
REMARK Flexibility Score: inf
ROOT
ATOM      1  C   UNL     1    -107.334 -48.625 -56.866  1.00  0.00     0.000 C 
ENDROOT
BRANCH   1   2
ATOM      2  C   UNL     1    -107.646 -47.580 -57.950  1.00  0.00     0.000 C 
BRANCH   2   3
ATOM      3  C   UNL     1    -108.520 -48.148 -59.081  1.00  0.00     0.000 C 
BRANCH   3   4
ATOM      4  C   UNL     1    -108.861 -47.102 -60.154  1.00  0.00     0.000 C 
BRANCH   4   5
ATOM      5  C   UNL     1    -110.363 -47.052 -60.477  1.00  0.00     0.000 C 
BRANCH   5   6
ATOM      6  C   UNL     1    -111.085 -48.290 -59.927  1.00  0.00     0.000 C 
BRANCH   6   7
ATOM      7  C   UNL     1    -111.785 -49.110 -61.026  1.00  0.00     0.000 C 
BRANCH   7   8
ATOM      8  C   UNL     1    -111.100 -50.445 -61.381  1.00  0.00     0.000 C 
BRANCH   8   9
ATOM      9  C   UNL     1    -110.062 -50.365 -62.515  1.00  0.00     0.000 C 
BRANCH   9  10
ATOM     10  C   UNL     1    -108.618 -50.547 -62.016  1.00  0.00     0.006 C 
BRANCH  10  11
ATOM     11  C   UNL     1    -107.597 -49.852 -62.925  1.00  0.00     0.053 C 
BRANCH  11  12
ATOM     12  C   UNL     1    -107.099 -50.765 -64.003  1.00  0.00     0.041 C 
ATOM     13  O   UNL     1    -107.314 -52.004 -63.933  1.00  0.00    -0.550 OA
ATOM     14  O   UNL     1    -106.417 -50.244 -65.097  1.00  0.00    -0.550 OA
ENDBRANCH  11  12
ENDBRANCH  10  11
ENDBRANCH   9  10
ENDBRANCH   8   9
ENDBRANCH   7   8
ENDBRANCH   6   7
ENDBRANCH   5   6
ENDBRANCH   4   5
ENDBRANCH   3   4
ENDBRANCH   2   3
ENDBRANCH   1   2
BRANCH   1  15
ATOM     15  C   UNL     1    -107.497 -48.065 -55.442  1.00  0.00     0.000 C 
BRANCH  15  16
ATOM     16  C   UNL     1    -107.662 -46.538 -55.421  1.00  0.00     0.000 C 
BRANCH  16  17
ATOM     17  C   UNL     1    -109.039 -46.100 -54.896  1.00  0.00     0.000 C 
BRANCH  17  18
ATOM     18  C   UNL     1    -109.873 -45.358 -55.954  1.00  0.00    -0.000 C 
BRANCH  18  19
ATOM     19  C   UNL     1    -110.857 -46.271 -56.718  1.00  0.00    -0.000 C 
BRANCH  19  20
ATOM     20  C   UNL     1    -111.369 -47.431 -55.845  1.00  0.00    -0.000 C 
BRANCH  20  21
ATOM     21  C   UNL     1    -111.099 -48.810 -56.467  1.00  0.00    -0.000 C 
BRANCH  21  22
ATOM     22  C   UNL     1    -110.728 -49.874 -55.422  1.00  0.00    -0.000 C 
BRANCH  22  23
ATOM     23  C   UNL     1    -110.005 -51.060 -56.079  1.00  0.00    -0.000 C 
BRANCH  23  24
ATOM     24  C   UNL     1    -110.383 -51.243 -57.560  1.00  0.00    -0.000 C 
BRANCH  24  25
ATOM     25  C   UNL     1    -109.198 -51.541 -58.494  1.00  0.00    -0.003 C 
ATOM     26  C   UNL     1    -108.351 -52.722 -58.022  1.00  0.00     0.004 C 
ENDBRANCH  24  25
ENDBRANCH  23  24
ENDBRANCH  22  23
ENDBRANCH  21  22
ENDBRANCH  20  21
ENDBRANCH  19  20
ENDBRANCH  18  19
ENDBRANCH  17  18
ENDBRANCH  16  17
ENDBRANCH  15  16
ENDBRANCH   1  15
TORSDOF 22
ENDMDL
MODEL 2
REMARK VINA RESULT:    -2.591      1.293      1.914
REMARK INTER + INTRA:         -10.716
REMARK INTER:                  -6.286
REMARK INTRA:                  -4.430
REMARK UNBOUND:                -4.794
REMARK SMILES CCCCCCCCCCCCCCCCCCCCCCCC(=O)[O-]
REMARK SMILES IDX 13 1 14 2 15 3 16 4 17 5 18 6 19 7 20 8 21 9 22 10 23 11
REMARK SMILES IDX 24 12 25 13 26 14 12 15 11 16 10 17 9 18 8 19 7 20 6 21 5 22
REMARK SMILES IDX 4 23 3 24 2 25 1 26
REMARK H PARENT
REMARK Flexibility Score: inf
ROOT
ATOM      1  C   UNL     1    -107.619 -47.560 -57.978  1.00  0.00     0.000 C 
ENDROOT
BRANCH   1   2
ATOM      2  C   UNL     1    -108.728 -48.256 -58.784  1.00  0.00     0.000 C 
BRANCH   2   3
ATOM      3  C   UNL     1    -110.000 -47.399 -58.896  1.00  0.00     0.000 C 
BRANCH   3   4
ATOM      4  C   UNL     1    -109.706 -45.890 -58.872  1.00  0.00     0.000 C 
BRANCH   4   5
ATOM      5  C   UNL     1    -109.626 -45.280 -60.281  1.00  0.00     0.000 C 
BRANCH   5   6
ATOM      6  C   UNL     1    -110.601 -45.978 -61.240  1.00  0.00     0.000 C 
BRANCH   6   7
ATOM      7  C   UNL     1    -109.975 -46.275 -62.614  1.00  0.00     0.000 C 
BRANCH   7   8
ATOM      8  C   UNL     1    -110.363 -47.637 -63.227  1.00  0.00     0.000 C 
BRANCH   8   9
ATOM      9  C   UNL     1    -109.764 -48.866 -62.519  1.00  0.00     0.000 C 
BRANCH   9  10
ATOM     10  C   UNL     1    -108.261 -48.712 -62.224  1.00  0.00     0.006 C 
BRANCH  10  11
ATOM     11  C   UNL     1    -107.465 -49.969 -62.591  1.00  0.00     0.053 C 
BRANCH  11  12
ATOM     12  C   UNL     1    -107.582 -50.296 -64.049  1.00  0.00     0.041 C 
ATOM     13  O   UNL     1    -107.120 -49.507 -64.914  1.00  0.00    -0.550 OA
ATOM     14  O   UNL     1    -108.182 -51.484 -64.450  1.00  0.00    -0.550 OA
ENDBRANCH  11  12
ENDBRANCH  10  11
ENDBRANCH   9  10
ENDBRANCH   8   9
ENDBRANCH   7   8
ENDBRANCH   6   7
ENDBRANCH   5   6
ENDBRANCH   4   5
ENDBRANCH   3   4
ENDBRANCH   2   3
ENDBRANCH   1   2
BRANCH   1  15
ATOM     15  C   UNL     1    -107.121 -48.415 -56.798  1.00  0.00     0.000 C 
BRANCH  15  16
ATOM     16  C   UNL     1    -107.402 -47.766 -55.435  1.00  0.00     0.000 C 
BRANCH  16  17
ATOM     17  C   UNL     1    -108.173 -46.441 -55.560  1.00  0.00     0.000 C 
BRANCH  17  18
ATOM     18  C   UNL     1    -109.576 -46.504 -54.934  1.00  0.00    -0.000 C 
BRANCH  18  19
ATOM     19  C   UNL     1    -110.094 -47.942 -54.719  1.00  0.00    -0.000 C 
BRANCH  19  20
ATOM     20  C   UNL     1    -111.335 -48.246 -55.578  1.00  0.00    -0.000 C 
BRANCH  20  21
ATOM     21  C   UNL     1    -111.228 -49.583 -56.329  1.00  0.00    -0.000 C 
BRANCH  21  22
ATOM     22  C   UNL     1    -110.055 -50.448 -55.842  1.00  0.00    -0.000 C 
BRANCH  22  23
ATOM     23  C   UNL     1    -109.882 -51.689 -56.733  1.00  0.00    -0.000 C 
BRANCH  23  24
ATOM     24  C   UNL     1    -108.486 -51.773 -57.376  1.00  0.00    -0.000 C 
BRANCH  24  25
ATOM     25  C   UNL     1    -108.452 -52.462 -58.750  1.00  0.00    -0.003 C 
ATOM     26  C   UNL     1    -109.209 -51.684 -59.825  1.00  0.00     0.004 C 
ENDBRANCH  24  25
ENDBRANCH  23  24
ENDBRANCH  22  23
ENDBRANCH  21  22
ENDBRANCH  20  21
ENDBRANCH  19  20
ENDBRANCH  18  19
ENDBRANCH  17  18
ENDBRANCH  16  17
ENDBRANCH  15  16
ENDBRANCH   1  15
TORSDOF 22
ENDMDL
MODEL 3
REMARK VINA RESULT:    -2.571      1.506      2.532
REMARK INTER + INTRA:         -10.672
REMARK INTER:                  -6.200
REMARK INTRA:                  -4.471
REMARK UNBOUND:                -4.794
REMARK SMILES CCCCCCCCCCCCCCCCCCCCCCCC(=O)[O-]
REMARK SMILES IDX 13 1 14 2 15 3 16 4 17 5 18 6 19 7 20 8 21 9 22 10 23 11
REMARK SMILES IDX 24 12 25 13 26 14 12 15 11 16 10 17 9 18 8 19 7 20 6 21 5 22
REMARK SMILES IDX 4 23 3 24 2 25 1 26
REMARK H PARENT
REMARK Flexibility Score: inf
ROOT
ATOM      1  C   UNL     1    -107.159 -47.924 -57.257  1.00  0.00     0.000 C 
ENDROOT
BRANCH   1   2
ATOM      2  C   UNL     1    -108.324 -47.463 -58.149  1.00  0.00     0.000 C 
BRANCH   2   3
ATOM      3  C   UNL     1    -109.254 -46.468 -57.434  1.00  0.00     0.000 C 
BRANCH   3   4
ATOM      4  C   UNL     1    -110.082 -45.618 -58.411  1.00  0.00     0.000 C 
BRANCH   4   5
ATOM      5  C   UNL     1    -109.587 -45.731 -59.862  1.00  0.00     0.000 C 
BRANCH   5   6
ATOM      6  C   UNL     1    -110.732 -46.124 -60.806  1.00  0.00     0.000 C 
BRANCH   6   7
ATOM      7  C   UNL     1    -110.292 -47.120 -61.894  1.00  0.00     0.000 C 
BRANCH   7   8
ATOM      8  C   UNL     1    -108.850 -47.648 -61.750  1.00  0.00     0.000 C 
BRANCH   8   9
ATOM      9  C   UNL     1    -108.352 -48.512 -62.923  1.00  0.00     0.000 C 
BRANCH   9  10
ATOM     10  C   UNL     1    -107.587 -49.765 -62.458  1.00  0.00     0.006 C 
BRANCH  10  11
ATOM     11  C   UNL     1    -107.936 -51.002 -63.294  1.00  0.00     0.053 C 
BRANCH  11  12
ATOM     12  C   UNL     1    -107.680 -50.777 -64.754  1.00  0.00     0.041 C 
ATOM     13  O   UNL     1    -108.617 -50.891 -65.586  1.00  0.00    -0.550 OA
ATOM     14  O   UNL     1    -106.409 -50.420 -65.190  1.00  0.00    -0.550 OA
ENDBRANCH  11  12
ENDBRANCH  10  11
ENDBRANCH   9  10
ENDBRANCH   8   9
ENDBRANCH   7   8
ENDBRANCH   6   7
ENDBRANCH   5   6
ENDBRANCH   4   5
ENDBRANCH   3   4
ENDBRANCH   2   3
ENDBRANCH   1   2
BRANCH   1  15
ATOM     15  C   UNL     1    -107.468 -49.237 -56.515  1.00  0.00     0.000 C 
BRANCH  15  16
ATOM     16  C   UNL     1    -107.840 -49.012 -55.042  1.00  0.00     0.000 C 
BRANCH  16  17
ATOM     17  C   UNL     1    -109.316 -49.326 -54.751  1.00  0.00     0.000 C 
BRANCH  17  18
ATOM     18  C   UNL     1    -110.029 -50.002 -55.935  1.00  0.00    -0.000 C 
BRANCH  18  19
ATOM     19  C   UNL     1    -111.372 -49.339 -56.310  1.00  0.00    -0.000 C 
BRANCH  19  20
ATOM     20  C   UNL     1    -111.980 -49.945 -57.588  1.00  0.00    -0.000 C 
BRANCH  20  21
ATOM     21  C   UNL     1    -111.504 -49.238 -58.867  1.00  0.00    -0.000 C 
BRANCH  21  22
ATOM     22  C   UNL     1    -110.934 -50.213 -59.910  1.00  0.00    -0.000 C 
BRANCH  22  23
ATOM     23  C   UNL     1    -109.499 -50.627 -59.548  1.00  0.00    -0.000 C 
BRANCH  23  24
ATOM     24  C   UNL     1    -109.347 -52.146 -59.351  1.00  0.00    -0.000 C 
BRANCH  24  25
ATOM     25  C   UNL     1    -108.290 -52.557 -58.313  1.00  0.00    -0.003 C 
ATOM     26  C   UNL     1    -108.877 -53.355 -57.149  1.00  0.00     0.004 C 
ENDBRANCH  24  25
ENDBRANCH  23  24
ENDBRANCH  22  23
ENDBRANCH  21  22
ENDBRANCH  20  21
ENDBRANCH  19  20
ENDBRANCH  18  19
ENDBRANCH  17  18
ENDBRANCH  16  17
ENDBRANCH  15  16
ENDBRANCH   1  15
TORSDOF 22
ENDMDL
MODEL 4
REMARK VINA RESULT:    -2.529      1.394      3.355
REMARK INTER + INTRA:         -10.576
REMARK INTER:                  -6.664
REMARK INTRA:                  -3.912
REMARK UNBOUND:                -4.794
REMARK SMILES CCCCCCCCCCCCCCCCCCCCCCCC(=O)[O-]
REMARK SMILES IDX 13 1 14 2 15 3 16 4 17 5 18 6 19 7 20 8 21 9 22 10 23 11
REMARK SMILES IDX 24 12 25 13 26 14 12 15 11 16 10 17 9 18 8 19 7 20 6 21 5 22
REMARK SMILES IDX 4 23 3 24 2 25 1 26
REMARK H PARENT
REMARK Flexibility Score: inf
ROOT
ATOM      1  C   UNL     1    -108.085 -46.625 -55.412  1.00  0.00     0.000 C 
ENDROOT
BRANCH   1   2
ATOM      2  C   UNL     1    -109.337 -45.829 -55.819  1.00  0.00     0.000 C 
BRANCH   2   3
ATOM      3  C   UNL     1    -109.844 -46.206 -57.221  1.00  0.00     0.000 C 
BRANCH   3   4
ATOM      4  C   UNL     1    -110.134 -44.979 -58.101  1.00  0.00     0.000 C 
BRANCH   4   5
ATOM      5  C   UNL     1    -109.913 -45.256 -59.596  1.00  0.00     0.000 C 
BRANCH   5   6
ATOM      6  C   UNL     1    -109.023 -46.490 -59.801  1.00  0.00     0.000 C 
BRANCH   6   7
ATOM      7  C   UNL     1    -108.982 -46.958 -61.267  1.00  0.00     0.000 C 
BRANCH   7   8
ATOM      8  C   UNL     1    -110.194 -47.800 -61.718  1.00  0.00     0.000 C 
BRANCH   8   9
ATOM      9  C   UNL     1    -109.846 -49.069 -62.517  1.00  0.00     0.000 C 
BRANCH   9  10
ATOM     10  C   UNL     1    -108.506 -48.954 -63.266  1.00  0.00     0.006 C 
BRANCH  10  11
ATOM     11  C   UNL     1    -107.496 -50.016 -62.817  1.00  0.00     0.053 C 
BRANCH  11  12
ATOM     12  C   UNL     1    -107.062 -50.888 -63.955  1.00  0.00     0.041 C 
ATOM     13  O   UNL     1    -107.198 -52.138 -63.883  1.00  0.00    -0.550 OA
ATOM     14  O   UNL     1    -106.529 -50.317 -65.105  1.00  0.00    -0.550 OA
ENDBRANCH  11  12
ENDBRANCH  10  11
ENDBRANCH   9  10
ENDBRANCH   8   9
ENDBRANCH   7   8
ENDBRANCH   6   7
ENDBRANCH   5   6
ENDBRANCH   4   5
ENDBRANCH   3   4
ENDBRANCH   2   3
ENDBRANCH   1   2
BRANCH   1  15
ATOM     15  C   UNL     1    -107.433 -47.347 -56.604  1.00  0.00     0.000 C 
BRANCH  15  16
ATOM     16  C   UNL     1    -107.434 -48.875 -56.444  1.00  0.00     0.000 C 
BRANCH  16  17
ATOM     17  C   UNL     1    -107.993 -49.325 -55.085  1.00  0.00     0.000 C 
BRANCH  17  18
ATOM     18  C   UNL     1    -108.453 -50.793 -55.084  1.00  0.00    -0.000 C 
BRANCH  18  19
ATOM     19  C   UNL     1    -108.022 -51.578 -56.342  1.00  0.00    -0.000 C 
BRANCH  19  20
ATOM     20  C   UNL     1    -108.763 -52.921 -56.469  1.00  0.00    -0.000 C 
BRANCH  20  21
ATOM     21  C   UNL     1    -109.133 -53.262 -57.921  1.00  0.00    -0.000 C 
BRANCH  21  22
ATOM     22  C   UNL     1    -108.310 -52.470 -58.949  1.00  0.00    -0.000 C 
BRANCH  22  23
ATOM     23  C   UNL     1    -109.227 -51.670 -59.888  1.00  0.00    -0.000 C 
BRANCH  23  24
ATOM     24  C   UNL     1    -110.483 -51.132 -59.179  1.00  0.00    -0.000 C 
BRANCH  24  25
ATOM     25  C   UNL     1    -110.309 -49.752 -58.522  1.00  0.00    -0.003 C 
ATOM     26  C   UNL     1    -111.210 -49.555 -57.304  1.00  0.00     0.004 C 
ENDBRANCH  24  25
ENDBRANCH  23  24
ENDBRANCH  22  23
ENDBRANCH  21  22
ENDBRANCH  20  21
ENDBRANCH  19  20
ENDBRANCH  18  19
ENDBRANCH  17  18
ENDBRANCH  16  17
ENDBRANCH  15  16
ENDBRANCH   1  15
TORSDOF 22
ENDMDL
MODEL 5
REMARK VINA RESULT:    -2.497      1.887      4.364
REMARK INTER + INTRA:         -10.503
REMARK INTER:                  -6.119
REMARK INTRA:                  -4.384
REMARK UNBOUND:                -4.794
REMARK SMILES CCCCCCCCCCCCCCCCCCCCCCCC(=O)[O-]
REMARK SMILES IDX 13 1 14 2 15 3 16 4 17 5 18 6 19 7 20 8 21 9 22 10 23 11
REMARK SMILES IDX 24 12 25 13 26 14 12 15 11 16 10 17 9 18 8 19 7 20 6 21 5 22
REMARK SMILES IDX 4 23 3 24 2 25 1 26
REMARK H PARENT
REMARK Flexibility Score: inf
ROOT
ATOM      1  C   UNL     1    -108.250 -50.487 -62.019  1.00  0.00     0.000 C 
ENDROOT
BRANCH   1   2
ATOM      2  C   UNL     1    -107.878 -49.005 -62.198  1.00  0.00     0.000 C 
BRANCH   2   3
ATOM      3  C   UNL     1    -108.263 -48.151 -60.978  1.00  0.00     0.000 C 
BRANCH   3   4
ATOM      4  C   UNL     1    -109.055 -46.890 -61.359  1.00  0.00     0.000 C 
BRANCH   4   5
ATOM      5  C   UNL     1    -110.565 -47.151 -61.475  1.00  0.00     0.000 C 
BRANCH   5   6
ATOM      6  C   UNL     1    -111.096 -46.712 -62.848  1.00  0.00     0.000 C 
BRANCH   6   7
ATOM      7  C   UNL     1    -111.813 -47.848 -63.600  1.00  0.00     0.000 C 
BRANCH   7   8
ATOM      8  C   UNL     1    -110.989 -48.506 -64.726  1.00  0.00     0.000 C 
BRANCH   8   9
ATOM      9  C   UNL     1    -110.047 -47.556 -65.487  1.00  0.00     0.000 C 
BRANCH   9  10
ATOM     10  C   UNL     1    -108.584 -48.034 -65.481  1.00  0.00     0.006 C 
BRANCH  10  11
ATOM     11  C   UNL     1    -108.421 -49.413 -66.132  1.00  0.00     0.053 C 
BRANCH  11  12
ATOM     12  C   UNL     1    -106.983 -49.827 -66.204  1.00  0.00     0.041 C 
ATOM     13  O   UNL     1    -106.339 -49.698 -67.278  1.00  0.00    -0.550 OA
ATOM     14  O   UNL     1    -106.348 -50.336 -65.077  1.00  0.00    -0.550 OA
ENDBRANCH  11  12
ENDBRANCH  10  11
ENDBRANCH   9  10
ENDBRANCH   8   9
ENDBRANCH   7   8
ENDBRANCH   6   7
ENDBRANCH   5   6
ENDBRANCH   4   5
ENDBRANCH   3   4
ENDBRANCH   2   3
ENDBRANCH   1   2
BRANCH   1  15
ATOM     15  C   UNL     1    -109.745 -50.754 -62.271  1.00  0.00     0.000 C 
BRANCH  15  16
ATOM     16  C   UNL     1    -110.510 -51.103 -60.986  1.00  0.00     0.000 C 
BRANCH  16  17
ATOM     17  C   UNL     1    -109.577 -51.538 -59.844  1.00  0.00     0.000 C 
BRANCH  17  18
ATOM     18  C   UNL     1    -110.026 -51.011 -58.471  1.00  0.00    -0.000 C 
BRANCH  18  19
ATOM     19  C   UNL     1    -110.696 -49.621 -58.530  1.00  0.00    -0.000 C 
BRANCH  19  20
ATOM     20  C   UNL     1    -111.399 -49.260 -57.209  1.00  0.00    -0.000 C 
BRANCH  20  21
ATOM     21  C   UNL     1    -111.208 -47.787 -56.816  1.00  0.00    -0.000 C 
BRANCH  21  22
ATOM     22  C   UNL     1    -110.393 -46.993 -57.849  1.00  0.00    -0.000 C 
BRANCH  22  23
ATOM     23  C   UNL     1    -109.421 -46.026 -57.156  1.00  0.00    -0.000 C 
BRANCH  23  24
ATOM     24  C   UNL     1    -108.322 -46.753 -56.359  1.00  0.00    -0.000 C 
BRANCH  24  25
ATOM     25  C   UNL     1    -107.457 -47.717 -57.189  1.00  0.00    -0.003 C 
ATOM     26  C   UNL     1    -107.449 -49.139 -56.631  1.00  0.00     0.004 C 
ENDBRANCH  24  25
ENDBRANCH  23  24
ENDBRANCH  22  23
ENDBRANCH  21  22
ENDBRANCH  20  21
ENDBRANCH  19  20
ENDBRANCH  18  19
ENDBRANCH  17  18
ENDBRANCH  16  17
ENDBRANCH  15  16
ENDBRANCH   1  15
TORSDOF 22
ENDMDL
MODEL 6
REMARK VINA RESULT:    -2.451      1.415      3.819
REMARK INTER + INTRA:         -10.398
REMARK INTER:                  -5.845
REMARK INTRA:                  -4.553
REMARK UNBOUND:                -4.794
REMARK SMILES CCCCCCCCCCCCCCCCCCCCCCCC(=O)[O-]
REMARK SMILES IDX 13 1 14 2 15 3 16 4 17 5 18 6 19 7 20 8 21 9 22 10 23 11
REMARK SMILES IDX 24 12 25 13 26 14 12 15 11 16 10 17 9 18 8 19 7 20 6 21 5 22
REMARK SMILES IDX 4 23 3 24 2 25 1 26
REMARK H PARENT
REMARK Flexibility Score: inf
ROOT
ATOM      1  C   UNL     1    -109.709 -50.556 -59.144  1.00  0.00     0.000 C 
ENDROOT
BRANCH   1   2
ATOM      2  C   UNL     1    -110.167 -51.836 -59.863  1.00  0.00     0.000 C 
BRANCH   2   3
ATOM      3  C   UNL     1    -111.636 -51.765 -60.312  1.00  0.00     0.000 C 
BRANCH   3   4
ATOM      4  C   UNL     1    -111.980 -50.446 -61.023  1.00  0.00     0.000 C 
BRANCH   4   5
ATOM      5  C   UNL     1    -111.964 -50.576 -62.554  1.00  0.00     0.000 C 
BRANCH   5   6
ATOM      6  C   UNL     1    -111.253 -49.379 -63.201  1.00  0.00     0.000 C 
BRANCH   6   7
ATOM      7  C   UNL     1    -110.448 -48.545 -62.187  1.00  0.00     0.000 C 
BRANCH   7   8
ATOM      8  C   UNL     1    -109.042 -48.122 -62.659  1.00  0.00     0.000 C 
BRANCH   8   9
ATOM      9  C   UNL     1    -107.886 -48.983 -62.119  1.00  0.00     0.000 C 
BRANCH   9  10
ATOM     10  C   UNL     1    -108.032 -50.472 -62.478  1.00  0.00     0.006 C 
BRANCH  10  11
ATOM     11  C   UNL     1    -107.016 -50.916 -63.537  1.00  0.00     0.053 C 
BRANCH  11  12
ATOM     12  C   UNL     1    -107.391 -50.434 -64.905  1.00  0.00     0.041 C 
ATOM     13  O   UNL     1    -108.554 -50.622 -65.347  1.00  0.00    -0.550 OA
ATOM     14  O   UNL     1    -106.459 -49.755 -65.683  1.00  0.00    -0.550 OA
ENDBRANCH  11  12
ENDBRANCH  10  11
ENDBRANCH   9  10
ENDBRANCH   8   9
ENDBRANCH   7   8
ENDBRANCH   6   7
ENDBRANCH   5   6
ENDBRANCH   4   5
ENDBRANCH   3   4
ENDBRANCH   2   3
ENDBRANCH   1   2
BRANCH   1  15
ATOM     15  C   UNL     1    -109.301 -50.815 -57.683  1.00  0.00     0.000 C 
BRANCH  15  16
ATOM     16  C   UNL     1    -110.267 -50.176 -56.675  1.00  0.00     0.000 C 
BRANCH  16  17
ATOM     17  C   UNL     1    -111.451 -49.471 -57.358  1.00  0.00     0.000 C 
BRANCH  17  18
ATOM     18  C   UNL     1    -111.359 -47.938 -57.281  1.00  0.00    -0.000 C 
BRANCH  18  19
ATOM     19  C   UNL     1    -111.547 -47.237 -58.644  1.00  0.00    -0.000 C 
BRANCH  19  20
ATOM     20  C   UNL     1    -110.211 -46.751 -59.235  1.00  0.00    -0.000 C 
BRANCH  20  21
ATOM     21  C   UNL     1    -109.116 -46.579 -58.170  1.00  0.00    -0.000 C 
BRANCH  21  22
ATOM     22  C   UNL     1    -107.906 -47.497 -58.404  1.00  0.00    -0.000 C 
BRANCH  22  23
ATOM     23  C   UNL     1    -107.167 -47.775 -57.086  1.00  0.00    -0.000 C 
BRANCH  23  24
ATOM     24  C   UNL     1    -107.678 -46.911 -55.919  1.00  0.00    -0.000 C 
BRANCH  24  25
ATOM     25  C   UNL     1    -108.233 -47.705 -54.725  1.00  0.00    -0.003 C 
ATOM     26  C   UNL     1    -107.581 -49.078 -54.568  1.00  0.00     0.004 C 
ENDBRANCH  24  25
ENDBRANCH  23  24
ENDBRANCH  22  23
ENDBRANCH  21  22
ENDBRANCH  20  21
ENDBRANCH  19  20
ENDBRANCH  18  19
ENDBRANCH  17  18
ENDBRANCH  16  17
ENDBRANCH  15  16
ENDBRANCH   1  15
TORSDOF 22
ENDMDL
MODEL 7
REMARK VINA RESULT:    -2.428      1.767      3.629
REMARK INTER + INTRA:         -10.345
REMARK INTER:                  -6.211
REMARK INTRA:                  -4.134
REMARK UNBOUND:                -4.794
REMARK SMILES CCCCCCCCCCCCCCCCCCCCCCCC(=O)[O-]
REMARK SMILES IDX 13 1 14 2 15 3 16 4 17 5 18 6 19 7 20 8 21 9 22 10 23 11
REMARK SMILES IDX 24 12 25 13 26 14 12 15 11 16 10 17 9 18 8 19 7 20 6 21 5 22
REMARK SMILES IDX 4 23 3 24 2 25 1 26
REMARK H PARENT
REMARK Flexibility Score: inf
ROOT
ATOM      1  C   UNL     1    -107.434 -49.070 -56.810  1.00  0.00     0.000 C 
ENDROOT
BRANCH   1   2
ATOM      2  C   UNL     1    -107.465 -47.613 -57.300  1.00  0.00     0.000 C 
BRANCH   2   3
ATOM      3  C   UNL     1    -108.235 -47.453 -58.622  1.00  0.00     0.000 C 
BRANCH   3   4
ATOM      4  C   UNL     1    -109.496 -46.585 -58.478  1.00  0.00     0.000 C 
BRANCH   4   5
ATOM      5  C   UNL     1    -110.170 -46.290 -59.827  1.00  0.00     0.000 C 
BRANCH   5   6
ATOM      6  C   UNL     1    -109.201 -46.537 -60.992  1.00  0.00     0.000 C 
BRANCH   6   7
ATOM      7  C   UNL     1    -109.823 -47.387 -62.115  1.00  0.00     0.000 C 
BRANCH   7   8
ATOM      8  C   UNL     1    -108.823 -48.249 -62.913  1.00  0.00     0.000 C 
BRANCH   8   9
ATOM      9  C   UNL     1    -107.945 -49.185 -62.063  1.00  0.00     0.000 C 
BRANCH   9  10
ATOM     10  C   UNL     1    -108.015 -50.651 -62.526  1.00  0.00     0.006 C 
BRANCH  10  11
ATOM     11  C   UNL     1    -108.111 -50.775 -64.051  1.00  0.00     0.053 C 
BRANCH  11  12
ATOM     12  C   UNL     1    -106.763 -50.703 -64.702  1.00  0.00     0.041 C 
ATOM     13  O   UNL     1    -106.573 -49.938 -65.683  1.00  0.00    -0.550 OA
ATOM     14  O   UNL     1    -105.710 -51.465 -64.208  1.00  0.00    -0.550 OA
ENDBRANCH  11  12
ENDBRANCH  10  11
ENDBRANCH   9  10
ENDBRANCH   8   9
ENDBRANCH   7   8
ENDBRANCH   6   7
ENDBRANCH   5   6
ENDBRANCH   4   5
ENDBRANCH   3   4
ENDBRANCH   2   3
ENDBRANCH   1   2
BRANCH   1  15
ATOM     15  C   UNL     1    -108.323 -49.297 -55.575  1.00  0.00     0.000 C 
BRANCH  15  16
ATOM     16  C   UNL     1    -108.178 -50.709 -54.991  1.00  0.00     0.000 C 
BRANCH  16  17
ATOM     17  C   UNL     1    -107.400 -51.655 -55.920  1.00  0.00     0.000 C 
BRANCH  17  18
ATOM     18  C   UNL     1    -108.168 -52.950 -56.235  1.00  0.00    -0.000 C 
BRANCH  18  19
ATOM     19  C   UNL     1    -109.688 -52.843 -55.990  1.00  0.00    -0.000 C 
BRANCH  19  20
ATOM     20  C   UNL     1    -110.446 -52.374 -57.245  1.00  0.00    -0.000 C 
BRANCH  20  21
ATOM     21  C   UNL     1    -109.578 -52.405 -58.513  1.00  0.00    -0.000 C 
BRANCH  21  22
ATOM     22  C   UNL     1    -109.425 -51.023 -59.166  1.00  0.00    -0.000 C 
BRANCH  22  23
ATOM     23  C   UNL     1    -110.655 -50.145 -58.885  1.00  0.00    -0.000 C 
BRANCH  23  24
ATOM     24  C   UNL     1    -111.438 -49.788 -60.162  1.00  0.00    -0.000 C 
BRANCH  24  25
ATOM     25  C   UNL     1    -112.181 -50.967 -60.811  1.00  0.00    -0.003 C 
ATOM     26  C   UNL     1    -111.638 -51.325 -62.193  1.00  0.00     0.004 C 
ENDBRANCH  24  25
ENDBRANCH  23  24
ENDBRANCH  22  23
ENDBRANCH  21  22
ENDBRANCH  20  21
ENDBRANCH  19  20
ENDBRANCH  18  19
ENDBRANCH  17  18
ENDBRANCH  16  17
ENDBRANCH  15  16
ENDBRANCH   1  15
TORSDOF 22
ENDMDL
MODEL 8
REMARK VINA RESULT:    -2.413      1.422      3.520
REMARK INTER + INTRA:         -10.309
REMARK INTER:                  -5.870
REMARK INTRA:                  -4.439
REMARK UNBOUND:                -4.794
REMARK SMILES CCCCCCCCCCCCCCCCCCCCCCCC(=O)[O-]
REMARK SMILES IDX 13 1 14 2 15 3 16 4 17 5 18 6 19 7 20 8 21 9 22 10 23 11
REMARK SMILES IDX 24 12 25 13 26 14 12 15 11 16 10 17 9 18 8 19 7 20 6 21 5 22
REMARK SMILES IDX 4 23 3 24 2 25 1 26
REMARK H PARENT
REMARK Flexibility Score: inf
ROOT
ATOM      1  C   UNL     1    -107.612 -48.671 -56.908  1.00  0.00     0.000 C 
ENDROOT
BRANCH   1   2
ATOM      2  C   UNL     1    -107.796 -49.600 -55.697  1.00  0.00     0.000 C 
BRANCH   2   3
ATOM      3  C   UNL     1    -108.664 -50.828 -56.024  1.00  0.00     0.000 C 
BRANCH   3   4
ATOM      4  C   UNL     1    -109.328 -50.738 -57.407  1.00  0.00     0.000 C 
BRANCH   4   5
ATOM      5  C   UNL     1    -108.891 -51.871 -58.349  1.00  0.00     0.000 C 
BRANCH   5   6
ATOM      6  C   UNL     1    -109.253 -51.547 -59.805  1.00  0.00     0.000 C 
BRANCH   6   7
ATOM      7  C   UNL     1    -110.530 -50.695 -59.926  1.00  0.00     0.000 C 
BRANCH   7   8
ATOM      8  C   UNL     1    -110.344 -49.337 -60.635  1.00  0.00     0.000 C 
BRANCH   8   9
ATOM      9  C   UNL     1    -108.890 -48.838 -60.717  1.00  0.00     0.000 C 
BRANCH   9  10
ATOM     10  C   UNL     1    -108.396 -48.676 -62.165  1.00  0.00     0.006 C 
BRANCH  10  11
ATOM     11  C   UNL     1    -107.430 -49.794 -62.578  1.00  0.00     0.053 C 
BRANCH  11  12
ATOM     12  C   UNL     1    -108.110 -50.837 -63.412  1.00  0.00     0.041 C 
ATOM     13  O   UNL     1    -109.341 -50.745 -63.661  1.00  0.00    -0.550 OA
ATOM     14  O   UNL     1    -107.378 -51.899 -63.931  1.00  0.00    -0.550 OA
ENDBRANCH  11  12
ENDBRANCH  10  11
ENDBRANCH   9  10
ENDBRANCH   8   9
ENDBRANCH   7   8
ENDBRANCH   6   7
ENDBRANCH   5   6
ENDBRANCH   4   5
ENDBRANCH   3   4
ENDBRANCH   2   3
ENDBRANCH   1   2
BRANCH   1  15
ATOM     15  C   UNL     1    -107.546 -47.186 -56.508  1.00  0.00     0.000 C 
BRANCH  15  16
ATOM     16  C   UNL     1    -107.136 -46.985 -55.042  1.00  0.00     0.000 C 
BRANCH  16  17
ATOM     17  C   UNL     1    -108.097 -46.058 -54.281  1.00  0.00     0.000 C 
BRANCH  17  18
ATOM     18  C   UNL     1    -109.498 -45.999 -54.914  1.00  0.00    -0.000 C 
BRANCH  18  19
ATOM     19  C   UNL     1    -110.518 -46.949 -54.249  1.00  0.00    -0.000 C 
BRANCH  19  20
ATOM     20  C   UNL     1    -111.035 -48.020 -55.226  1.00  0.00    -0.000 C 
BRANCH  20  21
ATOM     21  C   UNL     1    -111.912 -47.434 -56.344  1.00  0.00    -0.000 C 
BRANCH  21  22
ATOM     22  C   UNL     1    -111.280 -47.582 -57.737  1.00  0.00    -0.000 C 
BRANCH  22  23
ATOM     23  C   UNL     1    -111.354 -46.259 -58.516  1.00  0.00    -0.000 C 
BRANCH  23  24
ATOM     24  C   UNL     1    -109.990 -45.553 -58.626  1.00  0.00    -0.000 C 
BRANCH  24  25
ATOM     25  C   UNL     1    -109.600 -45.127 -60.051  1.00  0.00    -0.003 C 
ATOM     26  C   UNL     1    -110.633 -45.537 -61.099  1.00  0.00     0.004 C 
ENDBRANCH  24  25
ENDBRANCH  23  24
ENDBRANCH  22  23
ENDBRANCH  21  22
ENDBRANCH  20  21
ENDBRANCH  19  20
ENDBRANCH  18  19
ENDBRANCH  17  18
ENDBRANCH  16  17
ENDBRANCH  15  16
ENDBRANCH   1  15
TORSDOF 22
ENDMDL
MODEL 9
REMARK VINA RESULT:    -2.377      1.316      2.576
REMARK INTER + INTRA:         -10.228
REMARK INTER:                  -5.583
REMARK INTRA:                  -4.645
REMARK UNBOUND:                -4.794
REMARK SMILES CCCCCCCCCCCCCCCCCCCCCCCC(=O)[O-]
REMARK SMILES IDX 13 1 14 2 15 3 16 4 17 5 18 6 19 7 20 8 21 9 22 10 23 11
REMARK SMILES IDX 24 12 25 13 26 14 12 15 11 16 10 17 9 18 8 19 7 20 6 21 5 22
REMARK SMILES IDX 4 23 3 24 2 25 1 26
REMARK H PARENT
REMARK Flexibility Score: inf
ROOT
ATOM      1  C   UNL     1    -108.728 -47.643 -58.740  1.00  0.00     0.000 C 
ENDROOT
BRANCH   1   2
ATOM      2  C   UNL     1    -109.329 -46.253 -59.010  1.00  0.00     0.000 C 
BRANCH   2   3
ATOM      3  C   UNL     1    -110.810 -46.322 -59.418  1.00  0.00     0.000 C 
BRANCH   3   4
ATOM      4  C   UNL     1    -111.168 -47.627 -60.147  1.00  0.00     0.000 C 
BRANCH   4   5
ATOM      5  C   UNL     1    -111.605 -47.392 -61.602  1.00  0.00     0.000 C 
BRANCH   5   6
ATOM      6  C   UNL     1    -110.731 -48.196 -62.575  1.00  0.00     0.000 C 
BRANCH   6   7
ATOM      7  C   UNL     1    -109.327 -47.591 -62.754  1.00  0.00     0.000 C 
BRANCH   7   8
ATOM      8  C   UNL     1    -108.179 -48.410 -62.128  1.00  0.00     0.000 C 
BRANCH   8   9
ATOM      9  C   UNL     1    -108.560 -49.834 -61.684  1.00  0.00     0.000 C 
BRANCH   9  10
ATOM     10  C   UNL     1    -107.808 -50.925 -62.467  1.00  0.00     0.006 C 
BRANCH  10  11
ATOM     11  C   UNL     1    -107.510 -50.503 -63.911  1.00  0.00     0.053 C 
BRANCH  11  12
ATOM     12  C   UNL     1    -108.653 -50.817 -64.829  1.00  0.00     0.041 C 
ATOM     13  O   UNL     1    -109.204 -49.899 -65.490  1.00  0.00    -0.550 OA
ATOM     14  O   UNL     1    -109.093 -52.128 -64.969  1.00  0.00    -0.550 OA
ENDBRANCH  11  12
ENDBRANCH  10  11
ENDBRANCH   9  10
ENDBRANCH   8   9
ENDBRANCH   7   8
ENDBRANCH   6   7
ENDBRANCH   5   6
ENDBRANCH   4   5
ENDBRANCH   3   4
ENDBRANCH   2   3
ENDBRANCH   1   2
BRANCH   1  15
ATOM     15  C   UNL     1    -107.484 -47.581 -57.834  1.00  0.00     0.000 C 
BRANCH  15  16
ATOM     16  C   UNL     1    -107.444 -48.720 -56.804  1.00  0.00     0.000 C 
BRANCH  16  17
ATOM     17  C   UNL     1    -107.507 -48.208 -55.356  1.00  0.00     0.000 C 
BRANCH  17  18
ATOM     18  C   UNL     1    -107.443 -46.674 -55.260  1.00  0.00    -0.000 C 
BRANCH  18  19
ATOM     19  C   UNL     1    -108.682 -46.043 -54.589  1.00  0.00    -0.000 C 
BRANCH  19  20
ATOM     20  C   UNL     1    -109.661 -45.451 -55.619  1.00  0.00    -0.000 C 
BRANCH  20  21
ATOM     21  C   UNL     1    -111.083 -46.020 -55.487  1.00  0.00    -0.000 C 
BRANCH  21  22
ATOM     22  C   UNL     1    -111.097 -47.529 -55.197  1.00  0.00    -0.000 C 
BRANCH  22  23
ATOM     23  C   UNL     1    -111.543 -48.321 -56.435  1.00  0.00    -0.000 C 
BRANCH  23  24
ATOM     24  C   UNL     1    -110.890 -49.712 -56.523  1.00  0.00    -0.000 C 
BRANCH  24  25
ATOM     25  C   UNL     1    -111.027 -50.402 -57.890  1.00  0.00    -0.003 C 
ATOM     26  C   UNL     1    -109.784 -51.199 -58.282  1.00  0.00     0.004 C 
ENDBRANCH  24  25
ENDBRANCH  23  24
ENDBRANCH  22  23
ENDBRANCH  21  22
ENDBRANCH  20  21
ENDBRANCH  19  20
ENDBRANCH  18  19
ENDBRANCH  17  18
ENDBRANCH  16  17
ENDBRANCH  15  16
ENDBRANCH   1  15
TORSDOF 22
ENDMDL
