MODEL 1
REMARK VINA RESULT:    -3.511      0.000      0.000
REMARK INTER + INTRA:          -5.510
REMARK INTER:                  -4.948
REMARK INTRA:                  -0.562
REMARK UNBOUND:                -0.562
REMARK SMILES CCCCCCCCC(=O)[O-]
REMARK SMILES IDX 6 1 7 2 8 3 9 4 10 5 11 6 5 7 4 8 3 9 2 10 1 11
REMARK H PARENT
REMARK Flexibility Score: inf
ROOT
ATOM      1  C   UNL     1       6.795   4.698  50.128  1.00  0.00     0.000 C 
ENDROOT
BRANCH   1   2
ATOM      2  C   UNL     1       7.259   6.108  49.729  1.00  0.00     0.006 C 
BRANCH   2   3
ATOM      3  C   UNL     1       7.565   6.215  48.230  1.00  0.00     0.053 C 
BRANCH   3   4
ATOM      4  C   UNL     1       7.687   7.641  47.788  1.00  0.00     0.041 C 
ATOM      5  O   UNL     1       8.776   8.073  47.330  1.00  0.00    -0.550 OA
ATOM      6  O   UNL     1       6.602   8.502  47.913  1.00  0.00    -0.550 OA
ENDBRANCH   3   4
ENDBRANCH   2   3
ENDBRANCH   1   2
BRANCH   1   7
ATOM      7  C   UNL     1       5.295   4.519  49.864  1.00  0.00     0.000 C 
BRANCH   7   8
ATOM      8  C   UNL     1       5.010   3.161  49.209  1.00  0.00    -0.000 C 
BRANCH   8   9
ATOM      9  C   UNL     1       5.516   3.133  47.760  1.00  0.00    -0.000 C 
BRANCH   9  10
ATOM     10  C   UNL     1       6.582   2.051  47.528  1.00  0.00    -0.003 C 
ATOM     11  C   UNL     1       6.762   1.131  48.735  1.00  0.00     0.004 C 
ENDBRANCH   9  10
ENDBRANCH   8   9
ENDBRANCH   7   8
ENDBRANCH   1   7
TORSDOF 7
ENDMDL
MODEL 2
REMARK VINA RESULT:    -3.510      2.479      4.178
REMARK INTER + INTRA:          -5.508
REMARK INTER:                  -4.722
REMARK INTRA:                  -0.785
REMARK UNBOUND:                -0.562
REMARK SMILES CCCCCCCCC(=O)[O-]
REMARK SMILES IDX 6 1 7 2 8 3 9 4 10 5 11 6 5 7 4 8 3 9 2 10 1 11
REMARK H PARENT
REMARK Flexibility Score: inf
ROOT
ATOM      1  C   UNL     1       6.978   1.305  48.856  1.00  0.00     0.000 C 
ENDROOT
BRANCH   1   2
ATOM      2  C   UNL     1       6.611   1.985  47.528  1.00  0.00     0.006 C 
BRANCH   2   3
ATOM      3  C   UNL     1       5.545   3.074  47.709  1.00  0.00     0.053 C 
BRANCH   3   4
ATOM      4  C   UNL     1       6.029   4.184  48.591  1.00  0.00     0.041 C 
ATOM      5  O   UNL     1       5.427   4.449  49.665  1.00  0.00    -0.550 OA
ATOM      6  O   UNL     1       7.125   4.948  48.209  1.00  0.00    -0.550 OA
ENDBRANCH   3   4
ENDBRANCH   2   3
ENDBRANCH   1   2
BRANCH   1   7
ATOM      7  C   UNL     1       5.781   0.534  49.427  1.00  0.00     0.000 C 
BRANCH   7   8
ATOM      8  C   UNL     1       5.474   0.980  50.862  1.00  0.00    -0.000 C 
BRANCH   8   9
ATOM      9  C   UNL     1       6.769   1.213  51.654  1.00  0.00    -0.000 C 
BRANCH   9  10
ATOM     10  C   UNL     1       6.811   2.595  52.325  1.00  0.00    -0.003 C 
ATOM     11  C   UNL     1       7.969   3.459  51.826  1.00  0.00     0.004 C 
ENDBRANCH   9  10
ENDBRANCH   8   9
ENDBRANCH   7   8
ENDBRANCH   1   7
TORSDOF 7
ENDMDL
MODEL 3
REMARK VINA RESULT:    -3.469      4.037      5.566
REMARK INTER + INTRA:          -5.451
REMARK INTER:                  -4.657
REMARK INTRA:                  -0.794
REMARK UNBOUND:                -0.562
REMARK SMILES CCCCCCCCC(=O)[O-]
REMARK SMILES IDX 6 1 7 2 8 3 9 4 10 5 11 6 5 7 4 8 3 9 2 10 1 11
REMARK H PARENT
REMARK Flexibility Score: inf
ROOT
ATOM      1  C   UNL     1       5.738   3.135  48.091  1.00  0.00     0.000 C 
ENDROOT
BRANCH   1   2
ATOM      2  C   UNL     1       6.528   1.871  47.719  1.00  0.00     0.006 C 
BRANCH   2   3
ATOM      3  C   UNL     1       6.851   1.008  48.945  1.00  0.00     0.053 C 
BRANCH   3   4
ATOM      4  C   UNL     1       5.681   0.173  49.362  1.00  0.00     0.041 C 
ATOM      5  O   UNL     1       5.500  -0.965  48.856  1.00  0.00    -0.550 OA
ATOM      6  O   UNL     1       4.769   0.667  50.289  1.00  0.00    -0.550 OA
ENDBRANCH   3   4
ENDBRANCH   2   3
ENDBRANCH   1   2
BRANCH   1   7
ATOM      7  C   UNL     1       6.667   4.351  48.197  1.00  0.00     0.000 C 
BRANCH   7   8
ATOM      8  C   UNL     1       6.898   4.740  49.663  1.00  0.00    -0.000 C 
BRANCH   8   9
ATOM      9  C   UNL     1       5.788   4.176  50.563  1.00  0.00    -0.000 C 
BRANCH   9  10
ATOM     10  C   UNL     1       6.342   3.433  51.788  1.00  0.00    -0.003 C 
ATOM     11  C   UNL     1       7.863   3.284  51.751  1.00  0.00     0.004 C 
ENDBRANCH   9  10
ENDBRANCH   8   9
ENDBRANCH   7   8
ENDBRANCH   1   7
TORSDOF 7
ENDMDL
MODEL 4
REMARK VINA RESULT:    -3.457      1.512      2.727
REMARK INTER + INTRA:          -5.433
REMARK INTER:                  -4.843
REMARK INTRA:                  -0.590
REMARK UNBOUND:                -0.562
REMARK SMILES CCCCCCCCC(=O)[O-]
REMARK SMILES IDX 6 1 7 2 8 3 9 4 10 5 11 6 5 7 4 8 3 9 2 10 1 11
REMARK H PARENT
REMARK Flexibility Score: inf
ROOT
ATOM      1  C   UNL     1       5.293   3.140  48.265  1.00  0.00     0.000 C 
ENDROOT
BRANCH   1   2
ATOM      2  C   UNL     1       5.909   4.319  49.035  1.00  0.00     0.006 C 
BRANCH   2   3
ATOM      3  C   UNL     1       7.078   4.960  48.278  1.00  0.00     0.053 C 
BRANCH   3   4
ATOM      4  C   UNL     1       7.247   6.404  48.634  1.00  0.00     0.041 C 
ATOM      5  O   UNL     1       6.727   6.864  49.684  1.00  0.00    -0.550 OA
ATOM      6  O   UNL     1       7.953   7.251  47.787  1.00  0.00    -0.550 OA
ENDBRANCH   3   4
ENDBRANCH   2   3
ENDBRANCH   1   2
BRANCH   1   7
ATOM      7  C   UNL     1       6.376   2.335  47.537  1.00  0.00     0.000 C 
BRANCH   7   8
ATOM      8  C   UNL     1       6.960   1.248  48.449  1.00  0.00    -0.000 C 
BRANCH   8   9
ATOM      9  C   UNL     1       5.862   0.607  49.312  1.00  0.00    -0.000 C 
BRANCH   9  10
ATOM     10  C   UNL     1       6.311   0.375  50.762  1.00  0.00    -0.003 C 
ATOM     11  C   UNL     1       6.774   1.659  51.450  1.00  0.00     0.004 C 
ENDBRANCH   9  10
ENDBRANCH   8   9
ENDBRANCH   7   8
ENDBRANCH   1   7
TORSDOF 7
ENDMDL
MODEL 5
REMARK VINA RESULT:    -3.441      2.514      4.103
REMARK INTER + INTRA:          -5.410
REMARK INTER:                  -4.622
REMARK INTRA:                  -0.789
REMARK UNBOUND:                -0.562
REMARK SMILES CCCCCCCCC(=O)[O-]
REMARK SMILES IDX 6 1 7 2 8 3 9 4 10 5 11 6 5 7 4 8 3 9 2 10 1 11
REMARK H PARENT
REMARK Flexibility Score: inf
ROOT
ATOM      1  C   UNL     1       7.125   1.233  48.683  1.00  0.00     0.000 C 
ENDROOT
BRANCH   1   2
ATOM      2  C   UNL     1       6.599   2.014  47.468  1.00  0.00     0.006 C 
BRANCH   2   3
ATOM      3  C   UNL     1       5.661   3.157  47.875  1.00  0.00     0.053 C 
BRANCH   3   4
ATOM      4  C   UNL     1       6.350   4.157  48.751  1.00  0.00     0.041 C 
ATOM      5  O   UNL     1       7.125   5.013  48.250  1.00  0.00    -0.550 OA
ATOM      6  O   UNL     1       6.162   4.121  50.128  1.00  0.00    -0.550 OA
ENDBRANCH   3   4
ENDBRANCH   2   3
ENDBRANCH   1   2
BRANCH   1   7
ATOM      7  C   UNL     1       6.026   0.348  49.283  1.00  0.00     0.000 C 
BRANCH   7   8
ATOM      8  C   UNL     1       6.043   0.413  50.816  1.00  0.00    -0.000 C 
BRANCH   8   9
ATOM      9  C   UNL     1       4.681   0.868  51.361  1.00  0.00    -0.000 C 
BRANCH   9  10
ATOM     10  C   UNL     1       3.618   0.999  50.259  1.00  0.00    -0.003 C 
ATOM     11  C   UNL     1       3.000   2.396  50.198  1.00  0.00     0.004 C 
ENDBRANCH   9  10
ENDBRANCH   8   9
ENDBRANCH   7   8
ENDBRANCH   1   7
TORSDOF 7
ENDMDL
MODEL 6
REMARK VINA RESULT:    -3.416      3.572      5.654
REMARK INTER + INTRA:          -5.376
REMARK INTER:                  -4.948
REMARK INTRA:                  -0.427
REMARK UNBOUND:                -0.562
REMARK SMILES CCCCCCCCC(=O)[O-]
REMARK SMILES IDX 6 1 7 2 8 3 9 4 10 5 11 6 5 7 4 8 3 9 2 10 1 11
REMARK H PARENT
REMARK Flexibility Score: inf
ROOT
ATOM      1  C   UNL     1       6.753   4.473  48.218  1.00  0.00     0.000 C 
ENDROOT
BRANCH   1   2
ATOM      2  C   UNL     1       5.733   3.325  48.193  1.00  0.00     0.006 C 
BRANCH   2   3
ATOM      3  C   UNL     1       6.386   1.976  47.865  1.00  0.00     0.053 C 
BRANCH   3   4
ATOM      4  C   UNL     1       6.459   1.087  49.068  1.00  0.00     0.041 C 
ATOM      5  O   UNL     1       7.028   1.485  50.118  1.00  0.00    -0.550 OA
ATOM      6  O   UNL     1       5.927  -0.196  49.017  1.00  0.00    -0.550 OA
ENDBRANCH   3   4
ENDBRANCH   2   3
ENDBRANCH   1   2
BRANCH   1   7
ATOM      7  C   UNL     1       6.849   5.091  49.618  1.00  0.00     0.000 C 
BRANCH   7   8
ATOM      8  C   UNL     1       7.417   6.515  49.553  1.00  0.00    -0.000 C 
BRANCH   8   9
ATOM      9  C   UNL     1       8.035   6.798  48.176  1.00  0.00    -0.000 C 
BRANCH   9  10
ATOM     10  C   UNL     1       7.763   8.229  47.689  1.00  0.00    -0.003 C 
ATOM     11  C   UNL     1       6.413   8.768  48.162  1.00  0.00     0.004 C 
ENDBRANCH   9  10
ENDBRANCH   8   9
ENDBRANCH   7   8
ENDBRANCH   1   7
TORSDOF 7
ENDMDL
MODEL 7
REMARK VINA RESULT:    -3.337      4.140      5.424
REMARK INTER + INTRA:          -5.265
REMARK INTER:                  -4.459
REMARK INTRA:                  -0.806
REMARK UNBOUND:                -0.562
REMARK SMILES CCCCCCCCC(=O)[O-]
REMARK SMILES IDX 6 1 7 2 8 3 9 4 10 5 11 6 5 7 4 8 3 9 2 10 1 11
REMARK H PARENT
REMARK Flexibility Score: inf
ROOT
ATOM      1  C   UNL     1       7.529   2.705  51.227  1.00  0.00     0.000 C 
ENDROOT
BRANCH   1   2
ATOM      2  C   UNL     1       6.265   1.889  51.540  1.00  0.00     0.006 C 
BRANCH   2   3
ATOM      3  C   UNL     1       6.348   0.458  50.995  1.00  0.00     0.053 C 
BRANCH   3   4
ATOM      4  C   UNL     1       5.260   0.175  50.006  1.00  0.00     0.041 C 
ATOM      5  O   UNL     1       4.177   0.813  50.054  1.00  0.00    -0.550 OA
ATOM      6  O   UNL     1       5.432  -0.819  49.049  1.00  0.00    -0.550 OA
ENDBRANCH   3   4
ENDBRANCH   2   3
ENDBRANCH   1   2
BRANCH   1   7
ATOM      7  C   UNL     1       7.187   4.183  51.006  1.00  0.00     0.000 C 
BRANCH   7   8
ATOM      8  C   UNL     1       5.985   4.335  50.065  1.00  0.00    -0.000 C 
BRANCH   8   9
ATOM      9  C   UNL     1       6.427   4.276  48.595  1.00  0.00    -0.000 C 
BRANCH   9  10
ATOM     10  C   UNL     1       5.683   3.195  47.797  1.00  0.00    -0.003 C 
ATOM     11  C   UNL     1       6.611   2.091  47.290  1.00  0.00     0.004 C 
ENDBRANCH   9  10
ENDBRANCH   8   9
ENDBRANCH   7   8
ENDBRANCH   1   7
TORSDOF 7
ENDMDL
MODEL 8
REMARK VINA RESULT:    -3.299      0.833      1.624
REMARK INTER + INTRA:          -5.211
REMARK INTER:                  -4.613
REMARK INTRA:                  -0.598
REMARK UNBOUND:                -0.562
REMARK SMILES CCCCCCCCC(=O)[O-]
REMARK SMILES IDX 6 1 7 2 8 3 9 4 10 5 11 6 5 7 4 8 3 9 2 10 1 11
REMARK H PARENT
REMARK Flexibility Score: inf
ROOT
ATOM      1  C   UNL     1       6.505   5.195  50.680  1.00  0.00     0.000 C 
ENDROOT
BRANCH   1   2
ATOM      2  C   UNL     1       7.515   6.150  50.025  1.00  0.00     0.006 C 
BRANCH   2   3
ATOM      3  C   UNL     1       7.366   6.194  48.499  1.00  0.00     0.053 C 
BRANCH   3   4
ATOM      4  C   UNL     1       7.920   7.460  47.922  1.00  0.00     0.041 C 
ATOM      5  O   UNL     1       7.155   8.424  47.657  1.00  0.00    -0.550 OA
ATOM      6  O   UNL     1       9.278   7.562  47.645  1.00  0.00    -0.550 OA
ENDBRANCH   3   4
ENDBRANCH   2   3
ENDBRANCH   1   2
BRANCH   1   7
ATOM      7  C   UNL     1       7.165   3.855  51.029  1.00  0.00     0.000 C 
BRANCH   7   8
ATOM      8  C   UNL     1       6.696   2.747  50.076  1.00  0.00    -0.000 C 
BRANCH   8   9
ATOM      9  C   UNL     1       5.385   3.140  49.379  1.00  0.00    -0.000 C 
BRANCH   9  10
ATOM     10  C   UNL     1       5.493   3.093  47.848  1.00  0.00    -0.003 C 
ATOM     11  C   UNL     1       6.597   2.154  47.362  1.00  0.00     0.004 C 
ENDBRANCH   9  10
ENDBRANCH   8   9
ENDBRANCH   7   8
ENDBRANCH   1   7
TORSDOF 7
ENDMDL
MODEL 9
REMARK VINA RESULT:    -3.281      2.642      3.760
REMARK INTER + INTRA:          -5.185
REMARK INTER:                  -4.423
REMARK INTRA:                  -0.762
REMARK UNBOUND:                -0.562
REMARK SMILES CCCCCCCCC(=O)[O-]
REMARK SMILES IDX 6 1 7 2 8 3 9 4 10 5 11 6 5 7 4 8 3 9 2 10 1 11
REMARK H PARENT
REMARK Flexibility Score: inf
ROOT
ATOM      1  C   UNL     1       6.449   4.299  48.495  1.00  0.00     0.000 C 
ENDROOT
BRANCH   1   2
ATOM      2  C   UNL     1       6.033   4.522  49.957  1.00  0.00     0.006 C 
BRANCH   2   3
ATOM      3  C   UNL     1       4.569   4.143  50.208  1.00  0.00     0.053 C 
BRANCH   3   4
ATOM      4  C   UNL     1       3.739   5.335  50.574  1.00  0.00     0.041 C 
ATOM      5  O   UNL     1       4.267   6.475  50.655  1.00  0.00    -0.550 OA
ATOM      6  O   UNL     1       2.388   5.180  50.860  1.00  0.00    -0.550 OA
ENDBRANCH   3   4
ENDBRANCH   2   3
ENDBRANCH   1   2
BRANCH   1   7
ATOM      7  C   UNL     1       5.649   3.152  47.867  1.00  0.00     0.000 C 
BRANCH   7   8
ATOM      8  C   UNL     1       6.580   2.031  47.385  1.00  0.00    -0.000 C 
BRANCH   8   9
ATOM      9  C   UNL     1       7.077   1.184  48.566  1.00  0.00    -0.000 C 
BRANCH   9  10
ATOM     10  C   UNL     1       5.927   0.640  49.427  1.00  0.00    -0.003 C 
ATOM     11  C   UNL     1       6.262   0.625  50.918  1.00  0.00     0.004 C 
ENDBRANCH   9  10
ENDBRANCH   8   9
ENDBRANCH   7   8
ENDBRANCH   1   7
TORSDOF 7
ENDMDL
