MODEL 1
REMARK VINA RESULT:    -4.358      0.000      0.000
REMARK INTER + INTRA:          -5.134
REMARK INTER:                  -4.995
REMARK INTRA:                  -0.140
REMARK UNBOUND:                -0.140
REMARK SMILES O=C([O-])C=Cc1ccc(O)cc1
REMARK SMILES IDX 6 1 7 2 12 3 8 4 11 5 9 6 5 7 4 8 2 9 1 10 3 11 10 12
REMARK H PARENT 10 13
REMARK Flexibility Score: inf
ROOT
ATOM      1  C   UNL     1      74.681  35.152  53.070  1.00  0.00    -0.025 A 
ATOM      2  C   UNL     1      74.083  33.874  53.059  1.00  0.00     0.012 A 
ATOM      3  C   UNL     1      74.295  36.071  54.060  1.00  0.00     0.012 A 
ATOM      4  C   UNL     1      73.108  33.541  54.004  1.00  0.00     0.047 A 
ATOM      5  C   UNL     1      73.318  35.735  55.003  1.00  0.00     0.047 A 
ATOM      6  C   UNL     1      72.721  34.472  54.977  1.00  0.00     0.115 A 
ENDROOT
BRANCH   1   7
ATOM      7  C   UNL     1      75.728  35.552  52.098  1.00  0.00     0.010 C 
ATOM      8  C   UNL     1      76.864  34.868  51.903  1.00  0.00     0.025 C 
BRANCH   8   9
ATOM      9  C   UNL     1      77.870  35.297  50.918  1.00  0.00     0.064 C 
ATOM     10  O   UNL     1      77.552  36.125  50.026  1.00  0.00    -0.545 OA
ATOM     11  O   UNL     1      79.168  34.801  50.956  1.00  0.00    -0.545 OA
ENDBRANCH   8   9
ENDBRANCH   1   7
BRANCH   6  12
ATOM     12  O   UNL     1      71.749  34.151  55.922  1.00  0.00    -0.508 OA
ATOM     13  H   UNL     1      71.228  33.283  55.872  1.00  0.00     0.293 HD
ENDBRANCH   6  12
TORSDOF 3
ENDMDL
MODEL 2
REMARK VINA RESULT:    -4.341      0.112      1.401
REMARK INTER + INTRA:          -5.116
REMARK INTER:                  -4.972
REMARK INTRA:                  -0.143
REMARK UNBOUND:                -0.140
REMARK SMILES O=C([O-])C=Cc1ccc(O)cc1
REMARK SMILES IDX 6 1 7 2 12 3 8 4 11 5 9 6 5 7 4 8 2 9 1 10 3 11 10 12
REMARK H PARENT 10 13
REMARK Flexibility Score: inf
ROOT
ATOM      1  C   UNL     1      74.712  35.224  53.071  1.00  0.00    -0.025 A 
ATOM      2  C   UNL     1      74.271  36.095  54.089  1.00  0.00     0.012 A 
ATOM      3  C   UNL     1      74.134  33.947  52.975  1.00  0.00     0.012 A 
ATOM      4  C   UNL     1      73.292  35.682  54.998  1.00  0.00     0.047 A 
ATOM      5  C   UNL     1      73.157  33.537  53.888  1.00  0.00     0.047 A 
ATOM      6  C   UNL     1      72.735  34.401  54.902  1.00  0.00     0.115 A 
ENDROOT
BRANCH   1   7
ATOM      7  C   UNL     1      75.738  35.615  52.073  1.00  0.00     0.010 C 
ATOM      8  C   UNL     1      76.857  34.915  51.841  1.00  0.00     0.025 C 
BRANCH   8   9
ATOM      9  C   UNL     1      77.843  35.336  50.832  1.00  0.00     0.064 C 
ATOM     10  O   UNL     1      77.488  36.107  49.903  1.00  0.00    -0.545 OA
ATOM     11  O   UNL     1      79.159  34.894  50.887  1.00  0.00    -0.545 OA
ENDBRANCH   8   9
ENDBRANCH   1   7
BRANCH   6  12
ATOM     12  O   UNL     1      71.761  33.979  55.804  1.00  0.00    -0.508 OA
ATOM     13  H   UNL     1      71.470  33.010  55.855  1.00  0.00     0.293 HD
ENDBRANCH   6  12
TORSDOF 3
ENDMDL
MODEL 3
REMARK VINA RESULT:    -4.288      1.563      6.280
REMARK INTER + INTRA:          -5.054
REMARK INTER:                  -4.918
REMARK INTRA:                  -0.135
REMARK UNBOUND:                -0.140
REMARK SMILES O=C([O-])C=Cc1ccc(O)cc1
REMARK SMILES IDX 6 1 7 2 12 3 8 4 11 5 9 6 5 7 4 8 2 9 1 10 3 11 10 12
REMARK H PARENT 10 13
REMARK Flexibility Score: inf
ROOT
ATOM      1  C   UNL     1      73.460  34.352  53.859  1.00  0.00    -0.025 A 
ATOM      2  C   UNL     1      73.667  35.721  53.588  1.00  0.00     0.012 A 
ATOM      3  C   UNL     1      74.311  33.407  53.262  1.00  0.00     0.012 A 
ATOM      4  C   UNL     1      74.687  36.124  52.722  1.00  0.00     0.047 A 
ATOM      5  C   UNL     1      75.330  33.815  52.395  1.00  0.00     0.047 A 
ATOM      6  C   UNL     1      75.520  35.172  52.121  1.00  0.00     0.115 A 
ENDROOT
BRANCH   1   7
ATOM      7  C   UNL     1      72.400  33.870  54.779  1.00  0.00     0.010 C 
ATOM      8  C   UNL     1      72.302  34.243  56.063  1.00  0.00     0.025 C 
BRANCH   8   9
ATOM      9  C   UNL     1      71.226  33.747  56.936  1.00  0.00     0.064 C 
ATOM     10  O   UNL     1      71.448  32.775  57.704  1.00  0.00    -0.545 OA
ATOM     11  O   UNL     1      69.967  34.334  56.926  1.00  0.00    -0.545 OA
ENDBRANCH   8   9
ENDBRANCH   1   7
BRANCH   6  12
ATOM     12  O   UNL     1      76.538  35.564  51.254  1.00  0.00    -0.508 OA
ATOM     13  H   UNL     1      77.071  34.885  50.723  1.00  0.00     0.293 HD
ENDBRANCH   6  12
TORSDOF 3
ENDMDL
MODEL 4
REMARK VINA RESULT:    -4.229      1.596      6.064
REMARK INTER + INTRA:          -4.987
REMARK INTER:                  -4.849
REMARK INTRA:                  -0.138
REMARK UNBOUND:                -0.140
REMARK SMILES O=C([O-])C=Cc1ccc(O)cc1
REMARK SMILES IDX 6 1 7 2 12 3 8 4 11 5 9 6 5 7 4 8 2 9 1 10 3 11 10 12
REMARK H PARENT 10 13
REMARK Flexibility Score: inf
ROOT
ATOM      1  C   UNL     1      73.485  34.278  53.855  1.00  0.00    -0.025 A 
ATOM      2  C   UNL     1      74.411  33.396  53.259  1.00  0.00     0.012 A 
ATOM      3  C   UNL     1      73.547  35.644  53.532  1.00  0.00     0.012 A 
ATOM      4  C   UNL     1      75.386  33.881  52.382  1.00  0.00     0.047 A 
ATOM      5  C   UNL     1      74.525  36.125  52.655  1.00  0.00     0.047 A 
ATOM      6  C   UNL     1      75.447  35.247  52.080  1.00  0.00     0.115 A 
ENDROOT
BRANCH   1   7
ATOM      7  C   UNL     1      72.423  33.815  54.783  1.00  0.00     0.010 C 
ATOM      8  C   UNL     1      72.320  34.217  56.057  1.00  0.00     0.025 C 
BRANCH   8   9
ATOM      9  C   UNL     1      71.242  33.740  56.938  1.00  0.00     0.064 C 
ATOM     10  O   UNL     1      70.098  34.256  56.854  1.00  0.00    -0.545 OA
ATOM     11  O   UNL     1      71.468  32.729  57.865  1.00  0.00    -0.545 OA
ENDBRANCH   8   9
ENDBRANCH   1   7
BRANCH   6  12
ATOM     12  O   UNL     1      76.416  35.740  51.209  1.00  0.00    -0.508 OA
ATOM     13  H   UNL     1      77.129  36.387  51.522  1.00  0.00     0.293 HD
ENDBRANCH   6  12
TORSDOF 3
ENDMDL
MODEL 5
REMARK VINA RESULT:    -4.168      1.533      2.136
REMARK INTER + INTRA:          -4.917
REMARK INTER:                  -4.766
REMARK INTRA:                  -0.151
REMARK UNBOUND:                -0.140
REMARK SMILES O=C([O-])C=Cc1ccc(O)cc1
REMARK SMILES IDX 6 1 7 2 12 3 8 4 11 5 9 6 5 7 4 8 2 9 1 10 3 11 10 12
REMARK H PARENT 10 13
REMARK Flexibility Score: inf
ROOT
ATOM      1  C   UNL     1      75.519  35.180  52.295  1.00  0.00    -0.025 A 
ATOM      2  C   UNL     1      74.411  36.053  52.339  1.00  0.00     0.012 A 
ATOM      3  C   UNL     1      75.335  33.836  52.662  1.00  0.00     0.012 A 
ATOM      4  C   UNL     1      73.162  35.590  52.762  1.00  0.00     0.047 A 
ATOM      5  C   UNL     1      74.084  33.377  53.085  1.00  0.00     0.047 A 
ATOM      6  C   UNL     1      72.996  34.252  53.139  1.00  0.00     0.115 A 
ENDROOT
BRANCH   1   7
ATOM      7  C   UNL     1      76.863  35.616  51.843  1.00  0.00     0.010 C 
ATOM      8  C   UNL     1      77.833  34.771  51.469  1.00  0.00     0.025 C 
BRANCH   8   9
ATOM      9  C   UNL     1      79.149  35.249  51.016  1.00  0.00     0.064 C 
ATOM     10  O   UNL     1      79.952  35.740  51.852  1.00  0.00    -0.545 OA
ATOM     11  O   UNL     1      79.520  35.172  49.679  1.00  0.00    -0.545 OA
ENDBRANCH   8   9
ENDBRANCH   1   7
BRANCH   6  12
ATOM     12  O   UNL     1      71.755  33.781  53.564  1.00  0.00    -0.508 OA
ATOM     13  H   UNL     1      70.940  34.382  53.585  1.00  0.00     0.293 HD
ENDBRANCH   6  12
TORSDOF 3
ENDMDL
MODEL 6
REMARK VINA RESULT:    -3.762      1.701      6.084
REMARK INTER + INTRA:          -4.452
REMARK INTER:                  -4.313
REMARK INTRA:                  -0.138
REMARK UNBOUND:                -0.140
REMARK SMILES O=C([O-])C=Cc1ccc(O)cc1
REMARK SMILES IDX 6 1 7 2 12 3 8 4 11 5 9 6 5 7 4 8 2 9 1 10 3 11 10 12
REMARK H PARENT 10 13
REMARK Flexibility Score: inf
ROOT
ATOM      1  C   UNL     1      76.905  35.397  51.678  1.00  0.00    -0.025 A 
ATOM      2  C   UNL     1      78.054  34.628  51.958  1.00  0.00     0.012 A 
ATOM      3  C   UNL     1      76.854  36.125  50.477  1.00  0.00     0.012 A 
ATOM      4  C   UNL     1      79.130  34.612  51.065  1.00  0.00     0.047 A 
ATOM      5  C   UNL     1      77.933  36.107  49.587  1.00  0.00     0.047 A 
ATOM      6  C   UNL     1      79.073  35.354  49.879  1.00  0.00     0.115 A 
ENDROOT
BRANCH   1   7
ATOM      7  C   UNL     1      75.731  35.441  52.585  1.00  0.00     0.010 C 
ATOM      8  C   UNL     1      74.821  34.461  52.671  1.00  0.00     0.025 C 
BRANCH   8   9
ATOM      9  C   UNL     1      73.677  34.543  53.594  1.00  0.00     0.064 C 
ATOM     10  O   UNL     1      73.629  35.472  54.442  1.00  0.00    -0.545 OA
ATOM     11  O   UNL     1      72.650  33.608  53.548  1.00  0.00    -0.545 OA
ENDBRANCH   8   9
ENDBRANCH   1   7
BRANCH   6  12
ATOM     12  O   UNL     1      80.140  35.346  48.983  1.00  0.00    -0.508 OA
ATOM     13  H   UNL     1      80.554  36.207  48.645  1.00  0.00     0.293 HD
ENDBRANCH   6  12
TORSDOF 3
ENDMDL
MODEL 7
REMARK VINA RESULT:    -3.488      1.799      2.299
REMARK INTER + INTRA:          -4.138
REMARK INTER:                  -3.997
REMARK INTRA:                  -0.141
REMARK UNBOUND:                -0.140
REMARK SMILES O=C([O-])C=Cc1ccc(O)cc1
REMARK SMILES IDX 6 1 7 2 12 3 8 4 11 5 9 6 5 7 4 8 2 9 1 10 3 11 10 12
REMARK H PARENT 10 13
REMARK Flexibility Score: inf
ROOT
ATOM      1  C   UNL     1      76.225  34.879  52.083  1.00  0.00    -0.025 A 
ATOM      2  C   UNL     1      75.668  33.638  52.457  1.00  0.00     0.012 A 
ATOM      3  C   UNL     1      75.402  36.018  52.081  1.00  0.00     0.012 A 
ATOM      4  C   UNL     1      74.315  33.544  52.796  1.00  0.00     0.047 A 
ATOM      5  C   UNL     1      74.049  35.919  52.420  1.00  0.00     0.047 A 
ATOM      6  C   UNL     1      73.501  34.684  52.776  1.00  0.00     0.115 A 
ENDROOT
BRANCH   1   7
ATOM      7  C   UNL     1      77.657  35.037  51.725  1.00  0.00     0.010 C 
ATOM      8  C   UNL     1      78.547  34.035  51.755  1.00  0.00     0.025 C 
BRANCH   8   9
ATOM      9  C   UNL     1      79.956  34.236  51.380  1.00  0.00     0.064 C 
ATOM     10  O   UNL     1      80.240  34.999  50.421  1.00  0.00    -0.545 OA
ATOM     11  O   UNL     1      80.979  33.595  52.067  1.00  0.00    -0.545 OA
ENDBRANCH   8   9
ENDBRANCH   1   7
BRANCH   6  12
ATOM     12  O   UNL     1      72.151  34.601  53.111  1.00  0.00    -0.508 OA
ATOM     13  H   UNL     1      71.843  34.622  54.075  1.00  0.00     0.293 HD
ENDBRANCH   6  12
TORSDOF 3
ENDMDL
MODEL 8
REMARK VINA RESULT:    -3.381      2.315      5.969
REMARK INTER + INTRA:          -4.015
REMARK INTER:                  -3.863
REMARK INTRA:                  -0.152
REMARK UNBOUND:                -0.140
REMARK SMILES O=C([O-])C=Cc1ccc(O)cc1
REMARK SMILES IDX 6 1 7 2 12 3 8 4 11 5 9 6 5 7 4 8 2 9 1 10 3 11 10 12
REMARK H PARENT 10 13
REMARK Flexibility Score: inf
ROOT
ATOM      1  C   UNL     1      77.073  34.153  51.978  1.00  0.00    -0.025 A 
ATOM      2  C   UNL     1      78.136  35.018  51.645  1.00  0.00     0.012 A 
ATOM      3  C   UNL     1      77.359  32.807  52.262  1.00  0.00     0.012 A 
ATOM      4  C   UNL     1      79.446  34.535  51.578  1.00  0.00     0.047 A 
ATOM      5  C   UNL     1      78.671  32.327  52.191  1.00  0.00     0.047 A 
ATOM      6  C   UNL     1      79.717  33.187  51.848  1.00  0.00     0.115 A 
ENDROOT
BRANCH   1   7
ATOM      7  C   UNL     1      75.666  34.615  52.076  1.00  0.00     0.010 C 
ATOM      8  C   UNL     1      74.708  33.951  52.737  1.00  0.00     0.025 C 
BRANCH   8   9
ATOM      9  C   UNL     1      73.327  34.455  52.817  1.00  0.00     0.064 C 
ATOM     10  O   UNL     1      72.463  33.798  53.454  1.00  0.00    -0.545 OA
ATOM     11  O   UNL     1      72.960  35.644  52.198  1.00  0.00    -0.545 OA
ENDBRANCH   8   9
ENDBRANCH   1   7
BRANCH   6  12
ATOM     12  O   UNL     1      81.019  32.696  51.781  1.00  0.00    -0.508 OA
ATOM     13  H   UNL     1      81.651  32.972  51.039  1.00  0.00     0.293 HD
ENDBRANCH   6  12
TORSDOF 3
ENDMDL
MODEL 9
REMARK VINA RESULT:    -3.302     17.860     18.416
REMARK INTER + INTRA:          -3.925
REMARK INTER:                  -3.788
REMARK INTRA:                  -0.137
REMARK UNBOUND:                -0.140
REMARK SMILES O=C([O-])C=Cc1ccc(O)cc1
REMARK SMILES IDX 6 1 7 2 12 3 8 4 11 5 9 6 5 7 4 8 2 9 1 10 3 11 10 12
REMARK H PARENT 10 13
REMARK Flexibility Score: inf
ROOT
ATOM      1  C   UNL     1      87.264  29.505  65.213  1.00  0.00    -0.025 A 
ATOM      2  C   UNL     1      88.081  30.106  66.193  1.00  0.00     0.012 A 
ATOM      3  C   UNL     1      85.942  29.957  65.064  1.00  0.00     0.012 A 
ATOM      4  C   UNL     1      87.573  31.117  67.015  1.00  0.00     0.047 A 
ATOM      5  C   UNL     1      85.437  30.967  65.889  1.00  0.00     0.047 A 
ATOM      6  C   UNL     1      86.249  31.548  66.867  1.00  0.00     0.115 A 
ENDROOT
BRANCH   1   7
ATOM      7  C   UNL     1      87.756  28.438  64.307  1.00  0.00     0.010 C 
ATOM      8  C   UNL     1      87.371  27.157  64.387  1.00  0.00     0.025 C 
BRANCH   8   9
ATOM      9  C   UNL     1      87.877  26.134  63.458  1.00  0.00     0.064 C 
ATOM     10  O   UNL     1      88.092  24.967  63.877  1.00  0.00    -0.545 OA
ATOM     11  O   UNL     1      88.125  26.435  62.124  1.00  0.00    -0.545 OA
ENDBRANCH   8   9
ENDBRANCH   1   7
BRANCH   6  12
ATOM     12  O   UNL     1      85.732  32.553  67.682  1.00  0.00    -0.508 OA
ATOM     13  H   UNL     1      84.925  33.097  67.404  1.00  0.00     0.293 HD
ENDBRANCH   6  12
TORSDOF 3
ENDMDL
