MODEL 1
REMARK VINA RESULT:    -5.867      0.000      0.000
REMARK INTER + INTRA:         -18.179
REMARK INTER:                 -14.785
REMARK INTRA:                  -3.394
REMARK UNBOUND:                -3.394
REMARK SMILES CCCCCCCCCCCCCCCCCCCCCCCCCCCC(=O)[O-]
REMARK SMILES IDX 15 1 16 2 17 3 18 4 19 5 20 6 21 7 22 8 23 9 24 10 25 11
REMARK SMILES IDX 26 12 27 13 28 14 29 15 30 16 14 17 13 18 12 19 11 20 10 21
REMARK SMILES IDX 9 22 8 23 7 24 6 25 5 26 4 27 3 28 2 29 1 30
REMARK H PARENT
REMARK Flexibility Score: inf
ROOT
ATOM      1  C   UNL     1      -8.377 -13.642  -5.627  1.00  0.00     0.000 C 
ENDROOT
BRANCH   1   2
ATOM      2  C   UNL     1      -6.946 -13.360  -5.141  1.00  0.00     0.000 C 
BRANCH   2   3
ATOM      3  C   UNL     1      -6.895 -12.939  -3.662  1.00  0.00     0.000 C 
BRANCH   3   4
ATOM      4  C   UNL     1      -6.159 -13.961  -2.780  1.00  0.00     0.000 C 
BRANCH   4   5
ATOM      5  C   UNL     1      -6.890 -15.315  -2.714  1.00  0.00     0.000 C 
BRANCH   5   6
ATOM      6  C   UNL     1      -5.927 -16.500  -2.536  1.00  0.00     0.000 C 
BRANCH   6   7
ATOM      7  C   UNL     1      -4.544 -16.063  -2.023  1.00  0.00     0.000 C 
BRANCH   7   8
ATOM      8  C   UNL     1      -4.082 -16.883  -0.807  1.00  0.00     0.000 C 
BRANCH   8   9
ATOM      9  C   UNL     1      -2.671 -17.473  -0.990  1.00  0.00     0.000 C 
BRANCH   9  10
ATOM     10  C   UNL     1      -1.722 -16.511  -1.720  1.00  0.00     0.000 C 
BRANCH  10  11
ATOM     11  C   UNL     1      -0.251 -16.712  -1.315  1.00  0.00     0.000 C 
BRANCH  11  12
ATOM     12  C   UNL     1      -0.088 -17.250   0.118  1.00  0.00     0.006 C 
BRANCH  12  13
ATOM     13  C   UNL     1       0.127 -16.154   1.176  1.00  0.00     0.053 C 
BRANCH  13  14
ATOM     14  C   UNL     1      -0.746 -16.337   2.380  1.00  0.00     0.041 C 
ATOM     15  O   UNL     1      -1.652 -17.211   2.378  1.00  0.00    -0.550 OA
ATOM     16  O   UNL     1      -0.538 -15.567   3.518  1.00  0.00    -0.550 OA
ENDBRANCH  13  14
ENDBRANCH  12  13
ENDBRANCH  11  12
ENDBRANCH  10  11
ENDBRANCH   9  10
ENDBRANCH   8   9
ENDBRANCH   7   8
ENDBRANCH   6   7
ENDBRANCH   5   6
ENDBRANCH   4   5
ENDBRANCH   3   4
ENDBRANCH   2   3
ENDBRANCH   1   2
BRANCH   1  17
ATOM     17  C   UNL     1      -8.590 -15.120  -5.999  1.00  0.00     0.000 C 
BRANCH  17  18
ATOM     18  C   UNL     1      -7.351 -15.749  -6.657  1.00  0.00     0.000 C 
BRANCH  18  19
ATOM     19  C   UNL     1      -6.967 -17.095  -6.019  1.00  0.00     0.000 C 
BRANCH  19  20
ATOM     20  C   UNL     1      -8.192 -17.902  -5.558  1.00  0.00     0.000 C 
BRANCH  20  21
ATOM     21  C   UNL     1      -8.755 -18.810  -6.662  1.00  0.00     0.000 C 
BRANCH  21  22
ATOM     22  C   UNL     1     -10.271 -18.626  -6.806  1.00  0.00    -0.000 C 
BRANCH  22  23
ATOM     23  C   UNL     1     -10.608 -17.813  -8.064  1.00  0.00    -0.000 C 
BRANCH  23  24
ATOM     24  C   UNL     1      -9.489 -17.852  -9.120  1.00  0.00    -0.000 C 
BRANCH  24  25
ATOM     25  C   UNL     1      -9.063 -16.478  -9.676  1.00  0.00    -0.000 C 
BRANCH  25  26
ATOM     26  C   UNL     1      -9.492 -16.197 -11.128  1.00  0.00    -0.000 C 
BRANCH  26  27
ATOM     27  C   UNL     1     -10.516 -15.059 -11.237  1.00  0.00    -0.000 C 
BRANCH  27  28
ATOM     28  C   UNL     1     -11.726 -15.488 -12.076  1.00  0.00    -0.000 C 
BRANCH  28  29
ATOM     29  C   UNL     1     -12.722 -16.296 -11.236  1.00  0.00    -0.003 C 
ATOM     30  C   UNL     1     -12.850 -17.725 -11.754  1.00  0.00     0.004 C 
ENDBRANCH  28  29
ENDBRANCH  27  28
ENDBRANCH  26  27
ENDBRANCH  25  26
ENDBRANCH  24  25
ENDBRANCH  23  24
ENDBRANCH  22  23
ENDBRANCH  21  22
ENDBRANCH  20  21
ENDBRANCH  19  20
ENDBRANCH  18  19
ENDBRANCH  17  18
ENDBRANCH   1  17
TORSDOF 26
ENDMDL
MODEL 2
REMARK VINA RESULT:    -5.744      4.847     11.524
REMARK INTER + INTRA:         -17.869
REMARK INTER:                 -14.369
REMARK INTRA:                  -3.500
REMARK UNBOUND:                -3.394
REMARK SMILES CCCCCCCCCCCCCCCCCCCCCCCCCCCC(=O)[O-]
REMARK SMILES IDX 15 1 16 2 17 3 18 4 19 5 20 6 21 7 22 8 23 9 24 10 25 11
REMARK SMILES IDX 26 12 27 13 28 14 29 15 30 16 14 17 13 18 12 19 11 20 10 21
REMARK SMILES IDX 9 22 8 23 7 24 6 25 5 26 4 27 3 28 2 29 1 30
REMARK H PARENT
REMARK Flexibility Score: inf
ROOT
ATOM      1  C   UNL     1      -8.616 -13.878  -5.635  1.00  0.00     0.000 C 
ENDROOT
BRANCH   1   2
ATOM      2  C   UNL     1      -8.754 -15.361  -6.017  1.00  0.00     0.000 C 
BRANCH   2   3
ATOM      3  C   UNL     1      -7.485 -15.925  -6.679  1.00  0.00     0.000 C 
BRANCH   3   4
ATOM      4  C   UNL     1      -7.139 -17.339  -6.186  1.00  0.00     0.000 C 
BRANCH   4   5
ATOM      5  C   UNL     1      -8.310 -18.007  -5.444  1.00  0.00     0.000 C 
BRANCH   5   6
ATOM      6  C   UNL     1      -9.021 -19.072  -6.295  1.00  0.00     0.000 C 
BRANCH   6   7
ATOM      7  C   UNL     1     -10.371 -18.580  -6.847  1.00  0.00     0.000 C 
BRANCH   7   8
ATOM      8  C   UNL     1     -10.301 -18.225  -8.341  1.00  0.00     0.000 C 
BRANCH   8   9
ATOM      9  C   UNL     1      -8.993 -18.696  -9.003  1.00  0.00     0.000 C 
BRANCH   9  10
ATOM     10  C   UNL     1      -8.422 -17.658  -9.980  1.00  0.00     0.000 C 
BRANCH  10  11
ATOM     11  C   UNL     1      -9.169 -16.314  -9.918  1.00  0.00     0.000 C 
BRANCH  11  12
ATOM     12  C   UNL     1      -9.526 -15.758 -11.308  1.00  0.00     0.006 C 
BRANCH  12  13
ATOM     13  C   UNL     1     -10.758 -14.835 -11.313  1.00  0.00     0.053 C 
BRANCH  13  14
ATOM     14  C   UNL     1     -11.933 -15.448 -12.014  1.00  0.00     0.041 C 
ATOM     15  O   UNL     1     -12.874 -15.954 -11.347  1.00  0.00    -0.550 OA
ATOM     16  O   UNL     1     -12.006 -15.430 -13.401  1.00  0.00    -0.550 OA
ENDBRANCH  13  14
ENDBRANCH  12  13
ENDBRANCH  11  12
ENDBRANCH  10  11
ENDBRANCH   9  10
ENDBRANCH   8   9
ENDBRANCH   7   8
ENDBRANCH   6   7
ENDBRANCH   5   6
ENDBRANCH   4   5
ENDBRANCH   3   4
ENDBRANCH   2   3
ENDBRANCH   1   2
BRANCH   1  17
ATOM     17  C   UNL     1      -7.218 -13.318  -5.953  1.00  0.00     0.000 C 
BRANCH  17  18
ATOM     18  C   UNL     1      -6.504 -12.769  -4.707  1.00  0.00     0.000 C 
BRANCH  18  19
ATOM     19  C   UNL     1      -7.173 -13.227  -3.399  1.00  0.00     0.000 C 
BRANCH  19  20
ATOM     20  C   UNL     1      -6.300 -14.209  -2.601  1.00  0.00     0.000 C 
BRANCH  20  21
ATOM     21  C   UNL     1      -6.447 -15.661  -3.085  1.00  0.00     0.000 C 
BRANCH  21  22
ATOM     22  C   UNL     1      -5.538 -16.601  -2.284  1.00  0.00    -0.000 C 
BRANCH  22  23
ATOM     23  C   UNL     1      -4.393 -15.822  -1.619  1.00  0.00    -0.000 C 
BRANCH  23  24
ATOM     24  C   UNL     1      -3.642 -16.650  -0.560  1.00  0.00    -0.000 C 
BRANCH  24  25
ATOM     25  C   UNL     1      -2.508 -17.541  -1.107  1.00  0.00    -0.000 C 
BRANCH  25  26
ATOM     26  C   UNL     1      -1.273 -16.783  -1.627  1.00  0.00    -0.000 C 
BRANCH  26  27
ATOM     27  C   UNL     1      -0.035 -16.981  -0.740  1.00  0.00    -0.000 C 
BRANCH  27  28
ATOM     28  C   UNL     1      -0.380 -17.807   0.506  1.00  0.00    -0.000 C 
BRANCH  28  29
ATOM     29  C   UNL     1      -0.098 -17.015   1.789  1.00  0.00    -0.003 C 
ATOM     30  C   UNL     1      -1.362 -16.335   2.306  1.00  0.00     0.004 C 
ENDBRANCH  28  29
ENDBRANCH  27  28
ENDBRANCH  26  27
ENDBRANCH  25  26
ENDBRANCH  24  25
ENDBRANCH  23  24
ENDBRANCH  22  23
ENDBRANCH  21  22
ENDBRANCH  20  21
ENDBRANCH  19  20
ENDBRANCH  18  19
ENDBRANCH  17  18
ENDBRANCH   1  17
TORSDOF 26
ENDMDL
MODEL 3
REMARK VINA RESULT:    -5.696      4.634     11.594
REMARK INTER + INTRA:         -17.746
REMARK INTER:                 -14.092
REMARK INTRA:                  -3.655
REMARK UNBOUND:                -3.394
REMARK SMILES CCCCCCCCCCCCCCCCCCCCCCCCCCCC(=O)[O-]
REMARK SMILES IDX 15 1 16 2 17 3 18 4 19 5 20 6 21 7 22 8 23 9 24 10 25 11
REMARK SMILES IDX 26 12 27 13 28 14 29 15 30 16 14 17 13 18 12 19 11 20 10 21
REMARK SMILES IDX 9 22 8 23 7 24 6 25 5 26 4 27 3 28 2 29 1 30
REMARK H PARENT
REMARK Flexibility Score: inf
ROOT
ATOM      1  C   UNL     1      -6.902 -12.987  -3.721  1.00  0.00     0.000 C 
ENDROOT
BRANCH   1   2
ATOM      2  C   UNL     1      -6.988 -13.500  -5.167  1.00  0.00     0.000 C 
BRANCH   2   3
ATOM      3  C   UNL     1      -8.438 -13.716  -5.635  1.00  0.00     0.000 C 
BRANCH   3   4
ATOM      4  C   UNL     1      -8.688 -15.142  -6.151  1.00  0.00     0.000 C 
BRANCH   4   5
ATOM      5  C   UNL     1      -7.417 -15.789  -6.731  1.00  0.00     0.000 C 
BRANCH   5   6
ATOM      6  C   UNL     1      -7.087 -17.139  -6.074  1.00  0.00     0.000 C 
BRANCH   6   7
ATOM      7  C   UNL     1      -8.346 -17.892  -5.610  1.00  0.00     0.000 C 
BRANCH   7   8
ATOM      8  C   UNL     1      -8.966 -18.747  -6.727  1.00  0.00     0.000 C 
BRANCH   8   9
ATOM      9  C   UNL     1     -10.410 -18.330  -7.062  1.00  0.00     0.000 C 
BRANCH   9  10
ATOM     10  C   UNL     1     -10.597 -18.003  -8.551  1.00  0.00     0.000 C 
BRANCH  10  11
ATOM     11  C   UNL     1      -9.331 -18.279  -9.380  1.00  0.00     0.000 C 
BRANCH  11  12
ATOM     12  C   UNL     1      -8.745 -17.010 -10.026  1.00  0.00     0.006 C 
BRANCH  12  13
ATOM     13  C   UNL     1      -9.694 -15.798  -9.992  1.00  0.00     0.053 C 
BRANCH  13  14
ATOM     14  C   UNL     1     -10.251 -15.466 -11.344  1.00  0.00     0.041 C 
ATOM     15  O   UNL     1      -9.500 -15.468 -12.356  1.00  0.00    -0.550 OA
ATOM     16  O   UNL     1     -11.604 -15.188 -11.493  1.00  0.00    -0.550 OA
ENDBRANCH  13  14
ENDBRANCH  12  13
ENDBRANCH  11  12
ENDBRANCH  10  11
ENDBRANCH   9  10
ENDBRANCH   8   9
ENDBRANCH   7   8
ENDBRANCH   6   7
ENDBRANCH   5   6
ENDBRANCH   4   5
ENDBRANCH   3   4
ENDBRANCH   2   3
ENDBRANCH   1   2
BRANCH   1  17
ATOM     17  C   UNL     1      -6.139 -13.954  -2.798  1.00  0.00     0.000 C 
BRANCH  17  18
ATOM     18  C   UNL     1      -6.822 -15.328  -2.688  1.00  0.00     0.000 C 
BRANCH  18  19
ATOM     19  C   UNL     1      -5.807 -16.484  -2.644  1.00  0.00     0.000 C 
BRANCH  19  20
ATOM     20  C   UNL     1      -4.531 -16.122  -1.868  1.00  0.00     0.000 C 
BRANCH  20  21
ATOM     21  C   UNL     1      -4.242 -17.096  -0.715  1.00  0.00     0.000 C 
BRANCH  21  22
ATOM     22  C   UNL     1      -2.778 -17.552  -0.734  1.00  0.00    -0.000 C 
BRANCH  22  23
ATOM     23  C   UNL     1      -2.003 -16.862  -1.867  1.00  0.00    -0.000 C 
BRANCH  23  24
ATOM     24  C   UNL     1      -0.478 -17.007  -1.725  1.00  0.00    -0.000 C 
BRANCH  24  25
ATOM     25  C   UNL     1       0.253 -15.759  -1.189  1.00  0.00    -0.000 C 
BRANCH  25  26
ATOM     26  C   UNL     1       1.371 -16.043  -0.169  1.00  0.00    -0.000 C 
BRANCH  26  27
ATOM     27  C   UNL     1       0.979 -15.666   1.266  1.00  0.00    -0.000 C 
BRANCH  27  28
ATOM     28  C   UNL     1       0.883 -16.914   2.154  1.00  0.00    -0.000 C 
BRANCH  28  29
ATOM     29  C   UNL     1      -0.575 -17.352   2.336  1.00  0.00    -0.003 C 
ATOM     30  C   UNL     1      -1.512 -16.147   2.376  1.00  0.00     0.004 C 
ENDBRANCH  28  29
ENDBRANCH  27  28
ENDBRANCH  26  27
ENDBRANCH  25  26
ENDBRANCH  24  25
ENDBRANCH  23  24
ENDBRANCH  22  23
ENDBRANCH  21  22
ENDBRANCH  20  21
ENDBRANCH  19  20
ENDBRANCH  18  19
ENDBRANCH  17  18
ENDBRANCH   1  17
TORSDOF 26
ENDMDL
MODEL 4
REMARK VINA RESULT:    -5.545      1.563      2.503
REMARK INTER + INTRA:         -17.368
REMARK INTER:                 -13.443
REMARK INTRA:                  -3.925
REMARK UNBOUND:                -3.394
REMARK SMILES CCCCCCCCCCCCCCCCCCCCCCCCCCCC(=O)[O-]
REMARK SMILES IDX 15 1 16 2 17 3 18 4 19 5 20 6 21 7 22 8 23 9 24 10 25 11
REMARK SMILES IDX 26 12 27 13 28 14 29 15 30 16 14 17 13 18 12 19 11 20 10 21
REMARK SMILES IDX 9 22 8 23 7 24 6 25 5 26 4 27 3 28 2 29 1 30
REMARK H PARENT
REMARK Flexibility Score: inf
ROOT
ATOM      1  C   UNL     1      -8.639 -15.588  -5.819  1.00  0.00     0.000 C 
ENDROOT
BRANCH   1   2
ATOM      2  C   UNL     1      -8.559 -14.068  -5.606  1.00  0.00     0.000 C 
BRANCH   2   3
ATOM      3  C   UNL     1      -7.178 -13.491  -5.964  1.00  0.00     0.000 C 
BRANCH   3   4
ATOM      4  C   UNL     1      -6.521 -12.754  -4.785  1.00  0.00     0.000 C 
BRANCH   4   5
ATOM      5  C   UNL     1      -7.164 -13.114  -3.434  1.00  0.00     0.000 C 
BRANCH   5   6
ATOM      6  C   UNL     1      -6.270 -14.026  -2.577  1.00  0.00     0.000 C 
BRANCH   6   7
ATOM      7  C   UNL     1      -6.734 -15.493  -2.596  1.00  0.00     0.000 C 
BRANCH   7   8
ATOM      8  C   UNL     1      -5.561 -16.480  -2.708  1.00  0.00     0.000 C 
BRANCH   8   9
ATOM      9  C   UNL     1      -4.369 -16.089  -1.815  1.00  0.00     0.000 C 
BRANCH   9  10
ATOM     10  C   UNL     1      -4.109 -17.113  -0.700  1.00  0.00     0.000 C 
BRANCH  10  11
ATOM     11  C   UNL     1      -2.626 -17.509  -0.595  1.00  0.00     0.000 C 
BRANCH  11  12
ATOM     12  C   UNL     1      -1.803 -17.093  -1.828  1.00  0.00     0.006 C 
BRANCH  12  13
ATOM     13  C   UNL     1      -0.522 -16.310  -1.488  1.00  0.00     0.053 C 
BRANCH  13  14
ATOM     14  C   UNL     1       0.699 -17.179  -1.484  1.00  0.00     0.041 C 
ATOM     15  O   UNL     1       1.539 -17.094  -2.419  1.00  0.00    -0.550 OA
ATOM     16  O   UNL     1       0.928 -18.058  -0.433  1.00  0.00    -0.550 OA
ENDBRANCH  13  14
ENDBRANCH  12  13
ENDBRANCH  11  12
ENDBRANCH  10  11
ENDBRANCH   9  10
ENDBRANCH   8   9
ENDBRANCH   7   8
ENDBRANCH   6   7
ENDBRANCH   5   6
ENDBRANCH   4   5
ENDBRANCH   3   4
ENDBRANCH   2   3
ENDBRANCH   1   2
BRANCH   1  17
ATOM     17  C   UNL     1      -7.329 -16.174  -6.376  1.00  0.00     0.000 C 
BRANCH  17  18
ATOM     18  C   UNL     1      -7.024 -17.575  -5.819  1.00  0.00     0.000 C 
BRANCH  18  19
ATOM     19  C   UNL     1      -8.299 -18.332  -5.410  1.00  0.00     0.000 C 
BRANCH  19  20
ATOM     20  C   UNL     1      -8.927 -19.109  -6.579  1.00  0.00     0.000 C 
BRANCH  20  21
ATOM     21  C   UNL     1     -10.354 -18.640  -6.906  1.00  0.00     0.000 C 
BRANCH  21  22
ATOM     22  C   UNL     1     -10.463 -18.192  -8.368  1.00  0.00    -0.000 C 
BRANCH  22  23
ATOM     23  C   UNL     1      -9.157 -18.471  -9.127  1.00  0.00    -0.000 C 
BRANCH  23  24
ATOM     24  C   UNL     1      -8.504 -17.193  -9.684  1.00  0.00    -0.000 C 
BRANCH  24  25
ATOM     25  C   UNL     1      -9.488 -16.072 -10.079  1.00  0.00    -0.000 C 
BRANCH  25  26
ATOM     26  C   UNL     1      -9.569 -15.774 -11.587  1.00  0.00    -0.000 C 
BRANCH  26  27
ATOM     27  C   UNL     1     -10.958 -16.055 -12.176  1.00  0.00    -0.000 C 
BRANCH  27  28
ATOM     28  C   UNL     1     -11.063 -17.506 -12.665  1.00  0.00    -0.000 C 
BRANCH  28  29
ATOM     29  C   UNL     1     -12.032 -18.313 -11.793  1.00  0.00    -0.003 C 
ATOM     30  C   UNL     1     -12.945 -17.394 -10.986  1.00  0.00     0.004 C 
ENDBRANCH  28  29
ENDBRANCH  27  28
ENDBRANCH  26  27
ENDBRANCH  25  26
ENDBRANCH  24  25
ENDBRANCH  23  24
ENDBRANCH  22  23
ENDBRANCH  21  22
ENDBRANCH  20  21
ENDBRANCH  19  20
ENDBRANCH  18  19
ENDBRANCH  17  18
ENDBRANCH   1  17
TORSDOF 26
ENDMDL
MODEL 5
REMARK VINA RESULT:    -5.529      5.033     11.131
REMARK INTER + INTRA:         -17.326
REMARK INTER:                 -13.990
REMARK INTRA:                  -3.336
REMARK UNBOUND:                -3.394
REMARK SMILES CCCCCCCCCCCCCCCCCCCCCCCCCCCC(=O)[O-]
REMARK SMILES IDX 15 1 16 2 17 3 18 4 19 5 20 6 21 7 22 8 23 9 24 10 25 11
REMARK SMILES IDX 26 12 27 13 28 14 29 15 30 16 14 17 13 18 12 19 11 20 10 21
REMARK SMILES IDX 9 22 8 23 7 24 6 25 5 26 4 27 3 28 2 29 1 30
REMARK H PARENT
REMARK Flexibility Score: inf
ROOT
ATOM      1  C   UNL     1      -9.226 -14.125  -5.667  1.00  0.00     0.000 C 
ENDROOT
BRANCH   1   2
ATOM      2  C   UNL     1      -8.721 -15.571  -5.533  1.00  0.00     0.000 C 
BRANCH   2   3
ATOM      3  C   UNL     1      -7.466 -15.842  -6.382  1.00  0.00     0.000 C 
BRANCH   3   4
ATOM      4  C   UNL     1      -6.678 -17.071  -5.898  1.00  0.00     0.000 C 
BRANCH   4   5
ATOM      5  C   UNL     1      -7.588 -18.146  -5.277  1.00  0.00     0.000 C 
BRANCH   5   6
ATOM      6  C   UNL     1      -8.148 -19.123  -6.323  1.00  0.00     0.000 C 
BRANCH   6   7
ATOM      7  C   UNL     1      -9.620 -18.837  -6.669  1.00  0.00     0.000 C 
BRANCH   7   8
ATOM      8  C   UNL     1      -9.862 -18.745  -8.184  1.00  0.00     0.000 C 
BRANCH   8   9
ATOM      9  C   UNL     1      -8.558 -18.829  -9.000  1.00  0.00     0.000 C 
BRANCH   9  10
ATOM     10  C   UNL     1      -8.216 -17.505  -9.698  1.00  0.00     0.000 C 
BRANCH  10  11
ATOM     11  C   UNL     1      -9.199 -16.377  -9.342  1.00  0.00     0.000 C 
BRANCH  11  12
ATOM     12  C   UNL     1      -9.714 -15.614 -10.576  1.00  0.00     0.006 C 
BRANCH  12  13
ATOM     13  C   UNL     1     -10.700 -16.418 -11.441  1.00  0.00     0.053 C 
BRANCH  13  14
ATOM     14  C   UNL     1     -10.805 -15.887 -12.839  1.00  0.00     0.041 C 
ATOM     15  O   UNL     1      -9.923 -16.172 -13.692  1.00  0.00    -0.550 OA
ATOM     16  O   UNL     1     -11.892 -15.106 -13.210  1.00  0.00    -0.550 OA
ENDBRANCH  13  14
ENDBRANCH  12  13
ENDBRANCH  11  12
ENDBRANCH  10  11
ENDBRANCH   9  10
ENDBRANCH   8   9
ENDBRANCH   7   8
ENDBRANCH   6   7
ENDBRANCH   5   6
ENDBRANCH   4   5
ENDBRANCH   3   4
ENDBRANCH   2   3
ENDBRANCH   1   2
BRANCH   1  17
ATOM     17  C   UNL     1      -8.079 -13.099  -5.660  1.00  0.00     0.000 C 
BRANCH  17  18
ATOM     18  C   UNL     1      -7.632 -12.722  -4.238  1.00  0.00     0.000 C 
BRANCH  18  19
ATOM     19  C   UNL     1      -6.225 -13.251  -3.907  1.00  0.00     0.000 C 
BRANCH  19  20
ATOM     20  C   UNL     1      -6.140 -13.866  -2.501  1.00  0.00     0.000 C 
BRANCH  20  21
ATOM     21  C   UNL     1      -6.833 -15.235  -2.409  1.00  0.00     0.000 C 
BRANCH  21  22
ATOM     22  C   UNL     1      -5.838 -16.373  -2.670  1.00  0.00    -0.000 C 
BRANCH  22  23
ATOM     23  C   UNL     1      -4.471 -16.060  -2.045  1.00  0.00    -0.000 C 
BRANCH  23  24
ATOM     24  C   UNL     1      -4.194 -16.876  -0.770  1.00  0.00    -0.000 C 
BRANCH  24  25
ATOM     25  C   UNL     1      -2.765 -17.444  -0.651  1.00  0.00    -0.000 C 
BRANCH  25  26
ATOM     26  C   UNL     1      -1.832 -17.119  -1.832  1.00  0.00    -0.000 C 
BRANCH  26  27
ATOM     27  C   UNL     1      -0.441 -16.651  -1.381  1.00  0.00    -0.000 C 
BRANCH  27  28
ATOM     28  C   UNL     1       0.077 -15.524  -2.283  1.00  0.00    -0.000 C 
BRANCH  28  29
ATOM     29  C   UNL     1       1.551 -15.741  -2.648  1.00  0.00    -0.003 C 
ATOM     30  C   UNL     1       1.687 -16.477  -3.978  1.00  0.00     0.004 C 
ENDBRANCH  28  29
ENDBRANCH  27  28
ENDBRANCH  26  27
ENDBRANCH  25  26
ENDBRANCH  24  25
ENDBRANCH  23  24
ENDBRANCH  22  23
ENDBRANCH  21  22
ENDBRANCH  20  21
ENDBRANCH  19  20
ENDBRANCH  18  19
ENDBRANCH  17  18
ENDBRANCH   1  17
TORSDOF 26
ENDMDL
MODEL 6
REMARK VINA RESULT:    -5.491      1.284      2.194
REMARK INTER + INTRA:         -17.232
REMARK INTER:                 -14.478
REMARK INTRA:                  -2.754
REMARK UNBOUND:                -3.394
REMARK SMILES CCCCCCCCCCCCCCCCCCCCCCCCCCCC(=O)[O-]
REMARK SMILES IDX 15 1 16 2 17 3 18 4 19 5 20 6 21 7 22 8 23 9 24 10 25 11
REMARK SMILES IDX 26 12 27 13 28 14 29 15 30 16 14 17 13 18 12 19 11 20 10 21
REMARK SMILES IDX 9 22 8 23 7 24 6 25 5 26 4 27 3 28 2 29 1 30
REMARK H PARENT
REMARK Flexibility Score: inf
ROOT
ATOM      1  C   UNL     1      -8.360 -15.448  -5.953  1.00  0.00     0.000 C 
ENDROOT
BRANCH   1   2
ATOM      2  C   UNL     1      -8.286 -13.964  -5.559  1.00  0.00     0.000 C 
BRANCH   2   3
ATOM      3  C   UNL     1      -6.896 -13.353  -5.809  1.00  0.00     0.000 C 
BRANCH   3   4
ATOM      4  C   UNL     1      -6.324 -12.653  -4.565  1.00  0.00     0.000 C 
BRANCH   4   5
ATOM      5  C   UNL     1      -7.002 -13.120  -3.264  1.00  0.00     0.000 C 
BRANCH   5   6
ATOM      6  C   UNL     1      -6.119 -14.076  -2.446  1.00  0.00     0.000 C 
BRANCH   6   7
ATOM      7  C   UNL     1      -6.584 -15.539  -2.544  1.00  0.00     0.000 C 
BRANCH   7   8
ATOM      8  C   UNL     1      -5.476 -16.536  -2.169  1.00  0.00     0.000 C 
BRANCH   8   9
ATOM      9  C   UNL     1      -4.240 -15.849  -1.560  1.00  0.00     0.000 C 
BRANCH   9  10
ATOM     10  C   UNL     1      -3.270 -16.849  -0.914  1.00  0.00     0.000 C 
BRANCH  10  11
ATOM     11  C   UNL     1      -2.109 -17.234  -1.847  1.00  0.00     0.000 C 
BRANCH  11  12
ATOM     12  C   UNL     1      -0.773 -17.416  -1.104  1.00  0.00     0.006 C 
BRANCH  12  13
ATOM     13  C   UNL     1      -0.658 -16.584   0.186  1.00  0.00     0.053 C 
BRANCH  13  14
ATOM     14  C   UNL     1      -0.724 -17.429   1.423  1.00  0.00     0.041 C 
ATOM     15  O   UNL     1       0.110 -18.355   1.601  1.00  0.00    -0.550 OA
ATOM     16  O   UNL     1      -1.684 -17.172   2.394  1.00  0.00    -0.550 OA
ENDBRANCH  13  14
ENDBRANCH  12  13
ENDBRANCH  11  12
ENDBRANCH  10  11
ENDBRANCH   9  10
ENDBRANCH   8   9
ENDBRANCH   7   8
ENDBRANCH   6   7
ENDBRANCH   5   6
ENDBRANCH   4   5
ENDBRANCH   3   4
ENDBRANCH   2   3
ENDBRANCH   1   2
BRANCH   1  17
ATOM     17  C   UNL     1      -6.994 -16.011  -6.384  1.00  0.00     0.000 C 
BRANCH  17  18
ATOM     18  C   UNL     1      -6.600 -17.271  -5.596  1.00  0.00     0.000 C 
BRANCH  18  19
ATOM     19  C   UNL     1      -7.795 -17.899  -4.858  1.00  0.00     0.000 C 
BRANCH  19  20
ATOM     20  C   UNL     1      -8.366 -19.124  -5.591  1.00  0.00     0.000 C 
BRANCH  20  21
ATOM     21  C   UNL     1      -9.620 -18.792  -6.415  1.00  0.00     0.000 C 
BRANCH  21  22
ATOM     22  C   UNL     1      -9.291 -18.719  -7.911  1.00  0.00    -0.000 C 
BRANCH  22  23
ATOM     23  C   UNL     1      -9.660 -17.344  -8.488  1.00  0.00    -0.000 C 
BRANCH  23  24
ATOM     24  C   UNL     1      -9.058 -17.100  -9.883  1.00  0.00    -0.000 C 
BRANCH  24  25
ATOM     25  C   UNL     1      -9.759 -16.008 -10.718  1.00  0.00    -0.000 C 
BRANCH  25  26
ATOM     26  C   UNL     1     -11.222 -16.308 -11.090  1.00  0.00    -0.000 C 
BRANCH  26  27
ATOM     27  C   UNL     1     -11.907 -15.136 -11.808  1.00  0.00    -0.000 C 
BRANCH  27  28
ATOM     28  C   UNL     1     -11.482 -13.795 -11.196  1.00  0.00    -0.000 C 
BRANCH  28  29
ATOM     29  C   UNL     1     -12.650 -12.803 -11.174  1.00  0.00    -0.003 C 
ATOM     30  C   UNL     1     -12.293 -11.548 -10.382  1.00  0.00     0.004 C 
ENDBRANCH  28  29
ENDBRANCH  27  28
ENDBRANCH  26  27
ENDBRANCH  25  26
ENDBRANCH  24  25
ENDBRANCH  23  24
ENDBRANCH  22  23
ENDBRANCH  21  22
ENDBRANCH  20  21
ENDBRANCH  19  20
ENDBRANCH  18  19
ENDBRANCH  17  18
ENDBRANCH   1  17
TORSDOF 26
ENDMDL
MODEL 7
REMARK VINA RESULT:    -5.477      5.150     11.143
REMARK INTER + INTRA:         -17.194
REMARK INTER:                 -14.579
REMARK INTRA:                  -2.615
REMARK UNBOUND:                -3.394
REMARK SMILES CCCCCCCCCCCCCCCCCCCCCCCCCCCC(=O)[O-]
REMARK SMILES IDX 15 1 16 2 17 3 18 4 19 5 20 6 21 7 22 8 23 9 24 10 25 11
REMARK SMILES IDX 26 12 27 13 28 14 29 15 30 16 14 17 13 18 12 19 11 20 10 21
REMARK SMILES IDX 9 22 8 23 7 24 6 25 5 26 4 27 3 28 2 29 1 30
REMARK H PARENT
REMARK Flexibility Score: inf
ROOT
ATOM      1  C   UNL     1      -7.087 -12.962  -3.465  1.00  0.00     0.000 C 
ENDROOT
BRANCH   1   2
ATOM      2  C   UNL     1      -6.982 -13.177  -4.983  1.00  0.00     0.000 C 
BRANCH   2   3
ATOM      3  C   UNL     1      -8.349 -13.439  -5.641  1.00  0.00     0.000 C 
BRANCH   3   4
ATOM      4  C   UNL     1      -8.553 -14.917  -6.014  1.00  0.00     0.000 C 
BRANCH   4   5
ATOM      5  C   UNL     1      -7.244 -15.599  -6.453  1.00  0.00     0.000 C 
BRANCH   5   6
ATOM      6  C   UNL     1      -7.373 -17.129  -6.537  1.00  0.00     0.000 C 
BRANCH   6   7
ATOM      7  C   UNL     1      -8.656 -17.650  -5.866  1.00  0.00     0.000 C 
BRANCH   7   8
ATOM      8  C   UNL     1      -9.520 -18.490  -6.820  1.00  0.00     0.000 C 
BRANCH   8   9
ATOM      9  C   UNL     1     -10.391 -17.625  -7.750  1.00  0.00     0.000 C 
BRANCH   9  10
ATOM     10  C   UNL     1      -9.951 -17.715  -9.219  1.00  0.00     0.000 C 
BRANCH  10  11
ATOM     11  C   UNL     1      -9.243 -16.438  -9.703  1.00  0.00     0.000 C 
BRANCH  11  12
ATOM     12  C   UNL     1     -10.077 -15.634 -10.716  1.00  0.00     0.006 C 
BRANCH  12  13
ATOM     13  C   UNL     1     -11.303 -16.392 -11.257  1.00  0.00     0.053 C 
BRANCH  13  14
ATOM     14  C   UNL     1     -12.418 -15.473 -11.654  1.00  0.00     0.041 C 
ATOM     15  O   UNL     1     -13.605 -15.893 -11.684  1.00  0.00    -0.550 OA
ATOM     16  O   UNL     1     -12.154 -14.143 -11.958  1.00  0.00    -0.550 OA
ENDBRANCH  13  14
ENDBRANCH  12  13
ENDBRANCH  11  12
ENDBRANCH  10  11
ENDBRANCH   9  10
ENDBRANCH   8   9
ENDBRANCH   7   8
ENDBRANCH   6   7
ENDBRANCH   5   6
ENDBRANCH   4   5
ENDBRANCH   3   4
ENDBRANCH   2   3
ENDBRANCH   1   2
BRANCH   1  17
ATOM     17  C   UNL     1      -6.265 -13.992  -2.668  1.00  0.00     0.000 C 
BRANCH  17  18
ATOM     18  C   UNL     1      -6.893 -15.395  -2.692  1.00  0.00     0.000 C 
BRANCH  18  19
ATOM     19  C   UNL     1      -5.834 -16.510  -2.742  1.00  0.00     0.000 C 
BRANCH  19  20
ATOM     20  C   UNL     1      -4.561 -16.152  -1.958  1.00  0.00     0.000 C 
BRANCH  20  21
ATOM     21  C   UNL     1      -4.270 -17.140  -0.817  1.00  0.00     0.000 C 
BRANCH  21  22
ATOM     22  C   UNL     1      -2.761 -17.280  -0.582  1.00  0.00    -0.000 C 
BRANCH  22  23
ATOM     23  C   UNL     1      -1.966 -16.532  -1.664  1.00  0.00    -0.000 C 
BRANCH  23  24
ATOM     24  C   UNL     1      -0.471 -16.898  -1.668  1.00  0.00    -0.000 C 
BRANCH  24  25
ATOM     25  C   UNL     1       0.371 -16.204  -2.758  1.00  0.00    -0.000 C 
BRANCH  25  26
ATOM     26  C   UNL     1       1.393 -17.108  -3.471  1.00  0.00    -0.000 C 
BRANCH  26  27
ATOM     27  C   UNL     1       0.755 -17.992  -4.552  1.00  0.00    -0.000 C 
BRANCH  27  28
ATOM     28  C   UNL     1       1.477 -17.825  -5.894  1.00  0.00    -0.000 C 
BRANCH  28  29
ATOM     29  C   UNL     1       1.280 -16.411  -6.454  1.00  0.00    -0.003 C 
ATOM     30  C   UNL     1       0.828 -16.452  -7.911  1.00  0.00     0.004 C 
ENDBRANCH  28  29
ENDBRANCH  27  28
ENDBRANCH  26  27
ENDBRANCH  25  26
ENDBRANCH  24  25
ENDBRANCH  23  24
ENDBRANCH  22  23
ENDBRANCH  21  22
ENDBRANCH  20  21
ENDBRANCH  19  20
ENDBRANCH  18  19
ENDBRANCH  17  18
ENDBRANCH   1  17
TORSDOF 26
ENDMDL
MODEL 8
REMARK VINA RESULT:    -5.457      0.998      2.012
REMARK INTER + INTRA:         -17.146
REMARK INTER:                 -13.951
REMARK INTRA:                  -3.196
REMARK UNBOUND:                -3.394
REMARK SMILES CCCCCCCCCCCCCCCCCCCCCCCCCCCC(=O)[O-]
REMARK SMILES IDX 15 1 16 2 17 3 18 4 19 5 20 6 21 7 22 8 23 9 24 10 25 11
REMARK SMILES IDX 26 12 27 13 28 14 29 15 30 16 14 17 13 18 12 19 11 20 10 21
REMARK SMILES IDX 9 22 8 23 7 24 6 25 5 26 4 27 3 28 2 29 1 30
REMARK H PARENT
REMARK Flexibility Score: inf
ROOT
ATOM      1  C   UNL     1      -7.228 -13.136  -3.930  1.00  0.00     0.000 C 
ENDROOT
BRANCH   1   2
ATOM      2  C   UNL     1      -6.393 -13.873  -2.871  1.00  0.00     0.000 C 
BRANCH   2   3
ATOM      3  C   UNL     1      -6.869 -15.317  -2.640  1.00  0.00     0.000 C 
BRANCH   3   4
ATOM      4  C   UNL     1      -5.722 -16.339  -2.721  1.00  0.00     0.000 C 
BRANCH   4   5
ATOM      5  C   UNL     1      -4.496 -15.914  -1.893  1.00  0.00     0.000 C 
BRANCH   5   6
ATOM      6  C   UNL     1      -4.185 -16.895  -0.750  1.00  0.00     0.000 C 
BRANCH   6   7
ATOM      7  C   UNL     1      -2.732 -17.400  -0.787  1.00  0.00     0.000 C 
BRANCH   7   8
ATOM      8  C   UNL     1      -1.846 -16.576  -1.735  1.00  0.00     0.000 C 
BRANCH   8   9
ATOM      9  C   UNL     1      -0.601 -17.350  -2.206  1.00  0.00     0.000 C 
BRANCH   9  10
ATOM     10  C   UNL     1      -0.514 -18.755  -1.591  1.00  0.00     0.000 C 
BRANCH  10  11
ATOM     11  C   UNL     1       0.881 -19.065  -1.021  1.00  0.00     0.000 C 
BRANCH  11  12
ATOM     12  C   UNL     1       1.310 -18.088   0.088  1.00  0.00     0.006 C 
BRANCH  12  13
ATOM     13  C   UNL     1       0.587 -18.309   1.429  1.00  0.00     0.053 C 
BRANCH  13  14
ATOM     14  C   UNL     1      -0.273 -17.144   1.817  1.00  0.00     0.041 C 
ATOM     15  O   UNL     1      -0.081 -16.014   1.296  1.00  0.00    -0.550 OA
ATOM     16  O   UNL     1      -1.308 -17.313   2.728  1.00  0.00    -0.550 OA
ENDBRANCH  13  14
ENDBRANCH  12  13
ENDBRANCH  11  12
ENDBRANCH  10  11
ENDBRANCH   9  10
ENDBRANCH   8   9
ENDBRANCH   7   8
ENDBRANCH   6   7
ENDBRANCH   5   6
ENDBRANCH   4   5
ENDBRANCH   3   4
ENDBRANCH   2   3
ENDBRANCH   1   2
BRANCH   1  17
ATOM     17  C   UNL     1      -6.897 -13.592  -5.363  1.00  0.00     0.000 C 
BRANCH  17  18
ATOM     18  C   UNL     1      -7.920 -14.600  -5.913  1.00  0.00     0.000 C 
BRANCH  18  19
ATOM     19  C   UNL     1      -7.261 -15.694  -6.770  1.00  0.00     0.000 C 
BRANCH  19  20
ATOM     20  C   UNL     1      -7.059 -17.009  -6.000  1.00  0.00     0.000 C 
BRANCH  20  21
ATOM     21  C   UNL     1      -8.362 -17.538  -5.377  1.00  0.00     0.000 C 
BRANCH  21  22
ATOM     22  C   UNL     1      -9.121 -18.430  -6.366  1.00  0.00    -0.000 C 
BRANCH  22  23
ATOM     23  C   UNL     1     -10.293 -17.670  -7.003  1.00  0.00    -0.000 C 
BRANCH  23  24
ATOM     24  C   UNL     1     -10.435 -17.943  -8.512  1.00  0.00    -0.000 C 
BRANCH  24  25
ATOM     25  C   UNL     1      -9.122 -17.874  -9.317  1.00  0.00    -0.000 C 
BRANCH  25  26
ATOM     26  C   UNL     1      -8.773 -16.486  -9.883  1.00  0.00    -0.000 C 
BRANCH  26  27
ATOM     27  C   UNL     1      -9.996 -15.746 -10.443  1.00  0.00    -0.000 C 
BRANCH  27  28
ATOM     28  C   UNL     1      -9.956 -15.703 -11.976  1.00  0.00    -0.000 C 
BRANCH  28  29
ATOM     29  C   UNL     1     -11.369 -15.773 -12.567  1.00  0.00    -0.003 C 
ATOM     30  C   UNL     1     -12.400 -16.108 -11.493  1.00  0.00     0.004 C 
ENDBRANCH  28  29
ENDBRANCH  27  28
ENDBRANCH  26  27
ENDBRANCH  25  26
ENDBRANCH  24  25
ENDBRANCH  23  24
ENDBRANCH  22  23
ENDBRANCH  21  22
ENDBRANCH  20  21
ENDBRANCH  19  20
ENDBRANCH  18  19
ENDBRANCH  17  18
ENDBRANCH   1  17
TORSDOF 26
ENDMDL
MODEL 9
REMARK VINA RESULT:    -5.415      2.525      3.063
REMARK INTER + INTRA:         -17.039
REMARK INTER:                 -13.918
REMARK INTRA:                  -3.121
REMARK UNBOUND:                -3.394
REMARK SMILES CCCCCCCCCCCCCCCCCCCCCCCCCCCC(=O)[O-]
REMARK SMILES IDX 15 1 16 2 17 3 18 4 19 5 20 6 21 7 22 8 23 9 24 10 25 11
REMARK SMILES IDX 26 12 27 13 28 14 29 15 30 16 14 17 13 18 12 19 11 20 10 21
REMARK SMILES IDX 9 22 8 23 7 24 6 25 5 26 4 27 3 28 2 29 1 30
REMARK H PARENT
REMARK Flexibility Score: inf
ROOT
ATOM      1  C   UNL     1      -8.545 -13.891  -5.945  1.00  0.00     0.000 C 
ENDROOT
BRANCH   1   2
ATOM      2  C   UNL     1      -7.122 -13.599  -5.443  1.00  0.00     0.000 C 
BRANCH   2   3
ATOM      3  C   UNL     1      -7.108 -12.896  -4.075  1.00  0.00     0.000 C 
BRANCH   3   4
ATOM      4  C   UNL     1      -6.421 -13.736  -2.985  1.00  0.00     0.000 C 
BRANCH   4   5
ATOM      5  C   UNL     1      -6.842 -15.216  -3.031  1.00  0.00     0.000 C 
BRANCH   5   6
ATOM      6  C   UNL     1      -5.639 -16.174  -3.013  1.00  0.00     0.000 C 
BRANCH   6   7
ATOM      7  C   UNL     1      -4.941 -16.218  -1.643  1.00  0.00     0.000 C 
BRANCH   7   8
ATOM      8  C   UNL     1      -3.448 -16.569  -1.754  1.00  0.00     0.000 C 
BRANCH   8   9
ATOM      9  C   UNL     1      -2.929 -17.350  -0.533  1.00  0.00     0.000 C 
BRANCH   9  10
ATOM     10  C   UNL     1      -1.533 -17.945  -0.766  1.00  0.00     0.000 C 
BRANCH  10  11
ATOM     11  C   UNL     1      -0.600 -16.984  -1.522  1.00  0.00     0.000 C 
BRANCH  11  12
ATOM     12  C   UNL     1      -0.045 -17.584  -2.827  1.00  0.00     0.006 C 
BRANCH  12  13
ATOM     13  C   UNL     1       0.754 -16.585  -3.683  1.00  0.00     0.053 C 
BRANCH  13  14
ATOM     14  C   UNL     1       1.234 -17.186  -4.969  1.00  0.00     0.041 C 
ATOM     15  O   UNL     1       1.255 -18.437  -5.115  1.00  0.00    -0.550 OA
ATOM     16  O   UNL     1       1.627 -16.366  -6.020  1.00  0.00    -0.550 OA
ENDBRANCH  13  14
ENDBRANCH  12  13
ENDBRANCH  11  12
ENDBRANCH  10  11
ENDBRANCH   9  10
ENDBRANCH   8   9
ENDBRANCH   7   8
ENDBRANCH   6   7
ENDBRANCH   5   6
ENDBRANCH   4   5
ENDBRANCH   3   4
ENDBRANCH   2   3
ENDBRANCH   1   2
BRANCH   1  17
ATOM     17  C   UNL     1      -8.736 -15.364  -6.349  1.00  0.00     0.000 C 
BRANCH  17  18
ATOM     18  C   UNL     1      -7.461 -15.981  -6.948  1.00  0.00     0.000 C 
BRANCH  18  19
ATOM     19  C   UNL     1      -6.952 -17.182  -6.132  1.00  0.00     0.000 C 
BRANCH  19  20
ATOM     20  C   UNL     1      -8.095 -18.019  -5.535  1.00  0.00     0.000 C 
BRANCH  20  21
ATOM     21  C   UNL     1      -8.581 -19.124  -6.486  1.00  0.00     0.000 C 
BRANCH  21  22
ATOM     22  C   UNL     1     -10.045 -18.902  -6.884  1.00  0.00    -0.000 C 
BRANCH  22  23
ATOM     23  C   UNL     1     -10.143 -18.253  -8.273  1.00  0.00    -0.000 C 
BRANCH  23  24
ATOM     24  C   UNL     1      -8.959 -18.614  -9.187  1.00  0.00    -0.000 C 
BRANCH  24  25
ATOM     25  C   UNL     1      -8.576 -17.535 -10.221  1.00  0.00    -0.000 C 
BRANCH  25  26
ATOM     26  C   UNL     1      -9.344 -16.207 -10.095  1.00  0.00    -0.000 C 
BRANCH  26  27
ATOM     27  C   UNL     1      -9.834 -15.671 -11.448  1.00  0.00    -0.000 C 
BRANCH  27  28
ATOM     28  C   UNL     1     -11.076 -16.437 -11.923  1.00  0.00    -0.000 C 
BRANCH  28  29
ATOM     29  C   UNL     1     -12.360 -15.670 -11.586  1.00  0.00    -0.003 C 
ATOM     30  C   UNL     1     -12.108 -14.165 -11.541  1.00  0.00     0.004 C 
ENDBRANCH  28  29
ENDBRANCH  27  28
ENDBRANCH  26  27
ENDBRANCH  25  26
ENDBRANCH  24  25
ENDBRANCH  23  24
ENDBRANCH  22  23
ENDBRANCH  21  22
ENDBRANCH  20  21
ENDBRANCH  19  20
ENDBRANCH  18  19
ENDBRANCH  17  18
ENDBRANCH   1  17
TORSDOF 26
ENDMDL
