MODEL 1
REMARK VINA RESULT:    -2.041      0.000      0.000
REMARK INTER + INTRA:          -2.101
REMARK INTER:                  -2.101
REMARK INTRA:                   0.000
REMARK UNBOUND:                 0.000
REMARK SMILES CC1(C)[C@H]2CC[C@](C)(C2)[C@@H]1O
REMARK SMILES IDX 1 1 2 2 4 3 5 4 6 5 7 6 9 7 10 8 8 9 3 10 11 11
REMARK H PARENT 11 12
REMARK Flexibility Score: inf
ROOT
ATOM      1  C   UNL     1     125.171 109.792 131.405  1.00  0.00     0.014 C 
ATOM      2  C   UNL     1     125.217 110.253 132.886  1.00  0.00    -0.006 C 
ATOM      3  C   UNL     1     126.706 110.466 133.324  1.00  0.00    -0.002 C 
ATOM      4  C   UNL     1     126.793 111.196 134.681  1.00  0.00     0.005 C 
ATOM      5  C   UNL     1     126.242 110.154 135.665  1.00  0.00     0.010 C 
ATOM      6  C   UNL     1     126.011 108.920 134.761  1.00  0.00    -0.006 C 
ATOM      7  C   UNL     1     127.125 109.069 133.747  1.00  0.00     0.013 C 
ATOM      8  C   UNL     1     124.741 109.156 133.900  1.00  0.00     0.126 C 
ATOM      9  C   UNL     1     126.033 107.593 135.531  1.00  0.00     0.014 C 
ATOM     10  C   UNL     1     124.349 111.530 132.998  1.00  0.00     0.014 C 
ENDROOT
BRANCH   8  11
ATOM     11  O   UNL     1     124.354 107.967 133.254  1.00  0.00    -0.392 OA
ATOM     12  H   UNL     1     123.422 108.105 132.942  1.00  0.00     0.211 HD
ENDBRANCH   8  11
TORSDOF 1
ENDMDL
MODEL 2
REMARK VINA RESULT:    -2.017      1.514      3.089
REMARK INTER + INTRA:          -2.076
REMARK INTER:                  -2.076
REMARK INTRA:                   0.000
REMARK UNBOUND:                 0.000
REMARK SMILES CC1(C)[C@H]2CC[C@](C)(C2)[C@@H]1O
REMARK SMILES IDX 1 1 2 2 4 3 5 4 6 5 7 6 9 7 10 8 8 9 3 10 11 11
REMARK H PARENT 11 12
REMARK Flexibility Score: inf
ROOT
ATOM      1  C   UNL     1     123.053 108.114 134.991  1.00  0.00     0.014 C 
ATOM      2  C   UNL     1     124.302 108.210 134.075  1.00  0.00    -0.006 C 
ATOM      3  C   UNL     1     125.556 107.659 134.835  1.00  0.00    -0.002 C 
ATOM      4  C   UNL     1     126.751 107.463 133.879  1.00  0.00     0.005 C 
ATOM      5  C   UNL     1     127.125 108.905 133.502  1.00  0.00     0.010 C 
ATOM      6  C   UNL     1     126.166 109.746 134.376  1.00  0.00    -0.006 C 
ATOM      7  C   UNL     1     126.030 108.877 135.608  1.00  0.00     0.013 C 
ATOM      8  C   UNL     1     124.740 109.683 133.764  1.00  0.00     0.126 C 
ATOM      9  C   UNL     1     126.687 111.161 134.657  1.00  0.00     0.014 C 
ATOM     10  C   UNL     1     123.977 107.438 132.773  1.00  0.00     0.014 C 
ENDROOT
BRANCH   8  11
ATOM     11  O   UNL     1     123.898 110.630 134.377  1.00  0.00    -0.392 OA
ATOM     12  H   UNL     1     124.477 111.193 134.953  1.00  0.00     0.211 HD
ENDBRANCH   8  11
TORSDOF 1
ENDMDL
MODEL 3
REMARK VINA RESULT:    -1.964      1.549      3.132
REMARK INTER + INTRA:          -2.022
REMARK INTER:                  -2.022
REMARK INTRA:                   0.000
REMARK UNBOUND:                 0.000
REMARK SMILES CC1(C)[C@H]2CC[C@](C)(C2)[C@@H]1O
REMARK SMILES IDX 1 1 2 2 4 3 5 4 6 5 7 6 9 7 10 8 8 9 3 10 11 11
REMARK H PARENT 11 12
REMARK Flexibility Score: inf
ROOT
ATOM      1  C   UNL     1     127.104 111.881 134.597  1.00  0.00     0.014 C 
ATOM      2  C   UNL     1     126.306 110.549 134.610  1.00  0.00    -0.006 C 
ATOM      3  C   UNL     1     127.125 109.438 133.869  1.00  0.00    -0.002 C 
ATOM      4  C   UNL     1     126.515 108.040 134.104  1.00  0.00     0.005 C 
ATOM      5  C   UNL     1     125.182 108.117 133.345  1.00  0.00     0.010 C 
ATOM      6  C   UNL     1     125.248 109.512 132.679  1.00  0.00    -0.006 C 
ATOM      7  C   UNL     1     126.732 109.658 132.418  1.00  0.00     0.013 C 
ATOM      8  C   UNL     1     124.990 110.598 133.759  1.00  0.00     0.126 C 
ATOM      9  C   UNL     1     124.373 109.626 131.425  1.00  0.00     0.014 C 
ATOM     10  C   UNL     1     126.001 110.211 136.090  1.00  0.00     0.014 C 
ENDROOT
BRANCH   8  11
ATOM     11  O   UNL     1     124.791 111.855 133.157  1.00  0.00    -0.392 OA
ATOM     12  H   UNL     1     125.538 112.434 133.461  1.00  0.00     0.211 HD
ENDBRANCH   8  11
TORSDOF 1
ENDMDL
MODEL 4
REMARK VINA RESULT:    -1.946      1.640      2.808
REMARK INTER + INTRA:          -2.003
REMARK INTER:                  -2.003
REMARK INTRA:                   0.000
REMARK UNBOUND:                 0.000
REMARK SMILES CC1(C)[C@H]2CC[C@](C)(C2)[C@@H]1O
REMARK SMILES IDX 1 1 2 2 4 3 5 4 6 5 7 6 9 7 10 8 8 9 3 10 11 11
REMARK H PARENT 11 12
REMARK Flexibility Score: inf
ROOT
ATOM      1  C   UNL     1     124.747 112.143 135.677  1.00  0.00     0.014 C 
ATOM      2  C   UNL     1     125.924 111.334 135.070  1.00  0.00    -0.006 C 
ATOM      3  C   UNL     1     125.477 110.690 133.714  1.00  0.00    -0.002 C 
ATOM      4  C   UNL     1     126.684 110.124 132.936  1.00  0.00     0.005 C 
ATOM      5  C   UNL     1     127.124 108.937 133.806  1.00  0.00     0.010 C 
ATOM      6  C   UNL     1     126.045 108.908 134.915  1.00  0.00    -0.006 C 
ATOM      7  C   UNL     1     124.823 109.396 134.167  1.00  0.00     0.013 C 
ATOM      8  C   UNL     1     126.314 110.068 135.911  1.00  0.00     0.126 C 
ATOM      9  C   UNL     1     125.878 107.526 135.561  1.00  0.00     0.014 C 
ATOM     10  C   UNL     1     127.124 112.302 134.932  1.00  0.00     0.014 C 
ENDROOT
BRANCH   8  11
ATOM     11  O   UNL     1     125.516 109.927 137.061  1.00  0.00    -0.392 OA
ATOM     12  H   UNL     1     125.569 110.789 137.550  1.00  0.00     0.211 HD
ENDBRANCH   8  11
TORSDOF 1
ENDMDL
MODEL 5
REMARK VINA RESULT:    -1.891      1.055      3.094
REMARK INTER + INTRA:          -1.946
REMARK INTER:                  -1.946
REMARK INTRA:                   0.000
REMARK UNBOUND:                 0.000
REMARK SMILES CC1(C)[C@H]2CC[C@](C)(C2)[C@@H]1O
REMARK SMILES IDX 1 1 2 2 4 3 5 4 6 5 7 6 9 7 10 8 8 9 3 10 11 11
REMARK H PARENT 11 12
REMARK Flexibility Score: inf
ROOT
ATOM      1  C   UNL     1     125.952 107.776 135.803  1.00  0.00     0.014 C 
ATOM      2  C   UNL     1     126.118 108.474 134.427  1.00  0.00    -0.006 C 
ATOM      3  C   UNL     1     126.670 109.925 134.635  1.00  0.00    -0.002 C 
ATOM      4  C   UNL     1     127.124 110.551 133.300  1.00  0.00     0.005 C 
ATOM      5  C   UNL     1     125.799 110.742 132.546  1.00  0.00     0.010 C 
ATOM      6  C   UNL     1     124.745 110.301 133.589  1.00  0.00    -0.006 C 
ATOM      7  C   UNL     1     125.402 110.723 134.886  1.00  0.00     0.013 C 
ATOM      8  C   UNL     1     124.759 108.752 133.696  1.00  0.00     0.126 C 
ATOM      9  C   UNL     1     123.362 110.922 133.353  1.00  0.00     0.014 C 
ATOM     10  C   UNL     1     127.040 107.578 133.565  1.00  0.00     0.014 C 
ENDROOT
BRANCH   8  11
ATOM     11  O   UNL     1     123.652 108.299 134.440  1.00  0.00    -0.392 OA
ATOM     12  H   UNL     1     122.859 108.393 133.851  1.00  0.00     0.211 HD
ENDBRANCH   8  11
TORSDOF 1
ENDMDL
MODEL 6
REMARK VINA RESULT:    -1.821      1.702      2.607
REMARK INTER + INTRA:          -1.874
REMARK INTER:                  -1.874
REMARK INTRA:                   0.000
REMARK UNBOUND:                 0.000
REMARK SMILES CC1(C)[C@H]2CC[C@](C)(C2)[C@@H]1O
REMARK SMILES IDX 1 1 2 2 4 3 5 4 6 5 7 6 9 7 10 8 8 9 3 10 11 11
REMARK H PARENT 11 12
REMARK Flexibility Score: inf
ROOT
ATOM      1  C   UNL     1     124.421 113.043 134.094  1.00  0.00     0.014 C 
ATOM      2  C   UNL     1     124.526 111.675 134.820  1.00  0.00    -0.006 C 
ATOM      3  C   UNL     1     125.743 111.695 135.806  1.00  0.00    -0.002 C 
ATOM      4  C   UNL     1     125.717 110.478 136.754  1.00  0.00     0.005 C 
ATOM      5  C   UNL     1     126.001 109.302 135.808  1.00  0.00     0.010 C 
ATOM      6  C   UNL     1     126.262 110.008 134.456  1.00  0.00    -0.006 C 
ATOM      7  C   UNL     1     126.901 111.304 134.904  1.00  0.00     0.013 C 
ATOM      8  C   UNL     1     124.907 110.488 133.868  1.00  0.00     0.126 C 
ATOM      9  C   UNL     1     127.125 109.178 133.496  1.00  0.00     0.014 C 
ATOM     10  C   UNL     1     123.168 111.418 135.516  1.00  0.00     0.014 C 
ENDROOT
BRANCH   8  11
ATOM     11  O   UNL     1     125.068 110.905 132.534  1.00  0.00    -0.392 OA
ATOM     12  H   UNL     1     124.345 111.562 132.354  1.00  0.00     0.211 HD
ENDBRANCH   8  11
TORSDOF 1
ENDMDL
MODEL 7
REMARK VINA RESULT:    -1.781      2.791      4.172
REMARK INTER + INTRA:          -1.834
REMARK INTER:                  -1.834
REMARK INTRA:                   0.000
REMARK UNBOUND:                 0.000
REMARK SMILES CC1(C)[C@H]2CC[C@](C)(C2)[C@@H]1O
REMARK SMILES IDX 1 1 2 2 4 3 5 4 6 5 7 6 9 7 10 8 8 9 3 10 11 11
REMARK H PARENT 11 12
REMARK Flexibility Score: inf
ROOT
ATOM      1  C   UNL     1     125.226 111.912 133.741  1.00  0.00     0.014 C 
ATOM      2  C   UNL     1     126.011 111.255 134.907  1.00  0.00    -0.006 C 
ATOM      3  C   UNL     1     125.045 110.998 136.114  1.00  0.00    -0.002 C 
ATOM      4  C   UNL     1     125.701 110.093 137.176  1.00  0.00     0.005 C 
ATOM      5  C   UNL     1     126.811 110.988 137.748  1.00  0.00     0.010 C 
ATOM      6  C   UNL     1     126.578 112.331 137.016  1.00  0.00    -0.006 C 
ATOM      7  C   UNL     1     125.074 112.330 136.844  1.00  0.00     0.013 C 
ATOM      8  C   UNL     1     127.082 112.201 135.553  1.00  0.00     0.126 C 
ATOM      9  C   UNL     1     127.124 113.542 137.784  1.00  0.00     0.014 C 
ATOM     10  C   UNL     1     126.667 109.967 134.353  1.00  0.00     0.014 C 
ENDROOT
BRANCH   8  11
ATOM     11  O   UNL     1     127.122 113.463 134.932  1.00  0.00    -0.392 OA
ATOM     12  H   UNL     1     126.187 113.796 134.907  1.00  0.00     0.211 HD
ENDBRANCH   8  11
TORSDOF 1
ENDMDL
MODEL 8
REMARK VINA RESULT:    -1.773      2.053      3.322
REMARK INTER + INTRA:          -1.825
REMARK INTER:                  -1.825
REMARK INTRA:                   0.000
REMARK UNBOUND:                 0.000
REMARK SMILES CC1(C)[C@H]2CC[C@](C)(C2)[C@@H]1O
REMARK SMILES IDX 1 1 2 2 4 3 5 4 6 5 7 6 9 7 10 8 8 9 3 10 11 11
REMARK H PARENT 11 12
REMARK Flexibility Score: inf
ROOT
ATOM      1  C   UNL     1     125.166 110.831 133.482  1.00  0.00     0.014 C 
ATOM      2  C   UNL     1     125.860 109.874 134.487  1.00  0.00    -0.006 C 
ATOM      3  C   UNL     1     124.826 108.822 135.013  1.00  0.00    -0.002 C 
ATOM      4  C   UNL     1     125.525 107.682 135.782  1.00  0.00     0.005 C 
ATOM      5  C   UNL     1     126.041 108.388 137.045  1.00  0.00     0.010 C 
ATOM      6  C   UNL     1     125.477 109.820 136.890  1.00  0.00    -0.006 C 
ATOM      7  C   UNL     1     124.172 109.559 136.169  1.00  0.00     0.013 C 
ATOM      8  C   UNL     1     126.306 110.576 135.817  1.00  0.00     0.126 C 
ATOM      9  C   UNL     1     125.322 110.557 138.226  1.00  0.00     0.014 C 
ATOM     10  C   UNL     1     127.071 109.241 133.758  1.00  0.00     0.014 C 
ENDROOT
BRANCH   8  11
ATOM     11  O   UNL     1     125.992 111.948 135.826  1.00  0.00    -0.392 OA
ATOM     12  H   UNL     1     126.124 112.262 136.758  1.00  0.00     0.211 HD
ENDBRANCH   8  11
TORSDOF 1
ENDMDL
