MODEL 1
REMARK VINA RESULT:    -6.524      0.000      0.000
REMARK INTER + INTRA:          -8.164
REMARK INTER:                  -7.858
REMARK INTRA:                  -0.306
REMARK UNBOUND:                -0.306
REMARK SMILES O=c1c(O)c(-c2ccc(O)c(O)c2)oc2cc(O)cc(O)c12
REMARK SMILES IDX 5 1 3 2 2 3 1 4 22 5 20 6 19 7 17 8 16 9 15 10 14 11 6 12
REMARK SMILES IDX 7 13 8 14 9 15 13 16 11 17 10 18 12 20 4 22 21 24 18 26
REMARK H PARENT 10 19 12 21 4 23 21 25 18 27
REMARK Flexibility Score: inf
ROOT
ATOM      1  C   UNL     1     -21.337 -11.677  14.197  1.00  0.00     0.180 A 
ATOM      2  C   UNL     1     -20.110 -11.064  13.891  1.00  0.00     0.208 A 
ATOM      3  C   UNL     1     -19.619 -11.143  12.578  1.00  0.00     0.238 A 
ATOM      4  O   UNL     1     -18.495 -10.640  12.322  1.00  0.00    -0.285 OA
ATOM      5  C   UNL     1     -20.369 -11.818  11.585  1.00  0.00     0.111 A 
ATOM      6  C   UNL     1     -19.987 -11.926  10.213  1.00  0.00     0.134 A 
ATOM      7  C   UNL     1     -20.740 -12.729   9.348  1.00  0.00     0.093 A 
ATOM      8  C   UNL     1     -21.894 -13.375   9.786  1.00  0.00     0.123 A 
ATOM      9  C   UNL     1     -22.310 -13.229  11.110  1.00  0.00     0.094 A 
ATOM     10  C   UNL     1     -21.560 -12.464  12.007  1.00  0.00     0.146 A 
ATOM     11  O   UNL     1     -21.984 -12.359  13.261  1.00  0.00    -0.452 OA
ENDROOT
BRANCH   1  12
ATOM     12  C   UNL     1     -21.931 -11.616  15.553  1.00  0.00     0.025 A 
ATOM     13  C   UNL     1     -22.867 -10.614  15.852  1.00  0.00     0.016 A 
ATOM     14  C   UNL     1     -23.425 -10.525  17.130  1.00  0.00     0.051 A 
ATOM     15  C   UNL     1     -23.041 -11.425  18.133  1.00  0.00     0.157 A 
ATOM     16  C   UNL     1     -21.533 -12.504  16.568  1.00  0.00     0.062 A 
ATOM     17  C   UNL     1     -22.087 -12.417  17.850  1.00  0.00     0.158 A 
BRANCH  15  18
ATOM     18  O   UNL     1     -23.599 -11.334  19.407  1.00  0.00    -0.504 OA
ATOM     19  H   UNL     1     -24.247 -12.030  19.754  1.00  0.00     0.293 HD
ENDBRANCH  15  18
BRANCH  17  20
ATOM     20  O   UNL     1     -21.674 -13.318  18.830  1.00  0.00    -0.504 OA
ATOM     21  H   UNL     1     -22.333 -13.817  19.416  1.00  0.00     0.293 HD
ENDBRANCH  17  20
ENDBRANCH   1  12
BRANCH   2  22
ATOM     22  O   UNL     1     -19.376 -10.421  14.891  1.00  0.00    -0.502 OA
ATOM     23  H   UNL     1     -19.603  -9.490  15.218  1.00  0.00     0.293 HD
ENDBRANCH   2  22
BRANCH   6  24
ATOM     24  O   UNL     1     -18.902 -11.247   9.650  1.00  0.00    -0.507 OA
ATOM     25  H   UNL     1     -18.916 -10.281   9.364  1.00  0.00     0.293 HD
ENDBRANCH   6  24
BRANCH   8  26
ATOM     26  O   UNL     1     -22.627 -14.154   8.893  1.00  0.00    -0.508 OA
ATOM     27  H   UNL     1     -22.172 -14.719   8.185  1.00  0.00     0.293 HD
ENDBRANCH   8  26
TORSDOF 6
ENDMDL
MODEL 2
REMARK VINA RESULT:    -6.401      2.933      5.244
REMARK INTER + INTRA:          -8.016
REMARK INTER:                  -7.921
REMARK INTRA:                  -0.095
REMARK UNBOUND:                -0.306
REMARK SMILES O=c1c(O)c(-c2ccc(O)c(O)c2)oc2cc(O)cc(O)c12
REMARK SMILES IDX 5 1 3 2 2 3 1 4 22 5 20 6 19 7 17 8 16 9 15 10 14 11 6 12
REMARK SMILES IDX 7 13 8 14 9 15 13 16 11 17 10 18 12 20 4 22 21 24 18 26
REMARK H PARENT 10 19 12 21 4 23 21 25 18 27
REMARK Flexibility Score: inf
ROOT
ATOM      1  C   UNL     1     -22.619 -13.713  12.796  1.00  0.00     0.180 A 
ATOM      2  C   UNL     1     -22.147 -13.247  14.036  1.00  0.00     0.208 A 
ATOM      3  C   UNL     1     -21.049 -12.373  14.060  1.00  0.00     0.238 A 
ATOM      4  O   UNL     1     -20.596 -12.003  15.174  1.00  0.00    -0.285 OA
ATOM      5  C   UNL     1     -20.447 -11.963  12.846  1.00  0.00     0.111 A 
ATOM      6  C   UNL     1     -19.355 -11.049  12.750  1.00  0.00     0.134 A 
ATOM      7  C   UNL     1     -18.756 -10.817  11.506  1.00  0.00     0.093 A 
ATOM      8  C   UNL     1     -19.248 -11.414  10.347  1.00  0.00     0.123 A 
ATOM      9  C   UNL     1     -20.354 -12.262  10.420  1.00  0.00     0.094 A 
ATOM     10  C   UNL     1     -20.951 -12.542  11.652  1.00  0.00     0.146 A 
ATOM     11  O   UNL     1     -21.993 -13.363  11.680  1.00  0.00    -0.452 OA
ENDROOT
BRANCH   1  12
ATOM     12  C   UNL     1     -23.788 -14.617  12.689  1.00  0.00     0.025 A 
ATOM     13  C   UNL     1     -23.740 -15.882  13.293  1.00  0.00     0.016 A 
ATOM     14  C   UNL     1     -24.823 -16.760  13.186  1.00  0.00     0.051 A 
ATOM     15  C   UNL     1     -25.962 -16.391  12.459  1.00  0.00     0.157 A 
ATOM     16  C   UNL     1     -24.925 -14.259  11.943  1.00  0.00     0.062 A 
ATOM     17  C   UNL     1     -26.011 -15.135  11.832  1.00  0.00     0.158 A 
BRANCH  15  18
ATOM     18  O   UNL     1     -27.041 -17.267  12.356  1.00  0.00    -0.504 OA
ATOM     19  H   UNL     1     -27.977 -16.937  12.156  1.00  0.00     0.293 HD
ENDBRANCH  15  18
BRANCH  17  20
ATOM     20  O   UNL     1     -27.125 -14.744  11.089  1.00  0.00    -0.504 OA
ATOM     21  H   UNL     1     -27.080 -14.005  10.398  1.00  0.00     0.293 HD
ENDBRANCH  17  20
ENDBRANCH   1  12
BRANCH   2  22
ATOM     22  O   UNL     1     -22.742 -13.681  15.223  1.00  0.00    -0.502 OA
ATOM     23  H   UNL     1     -22.333 -14.404  15.803  1.00  0.00     0.293 HD
ENDBRANCH   2  22
BRANCH   6  24
ATOM     24  O   UNL     1     -18.843 -10.329  13.834  1.00  0.00    -0.507 OA
ATOM     25  H   UNL     1     -19.322  -9.574  14.299  1.00  0.00     0.293 HD
ENDBRANCH   6  24
BRANCH   8  26
ATOM     26  O   UNL     1     -18.637 -11.147   9.123  1.00  0.00    -0.508 OA
ATOM     27  H   UNL     1     -19.072 -10.547   8.432  1.00  0.00     0.293 HD
ENDBRANCH   8  26
TORSDOF 6
ENDMDL
MODEL 3
REMARK VINA RESULT:    -6.379      0.909      1.627
REMARK INTER + INTRA:          -7.990
REMARK INTER:                  -7.663
REMARK INTRA:                  -0.328
REMARK UNBOUND:                -0.306
REMARK SMILES O=c1c(O)c(-c2ccc(O)c(O)c2)oc2cc(O)cc(O)c12
REMARK SMILES IDX 5 1 3 2 2 3 1 4 22 5 20 6 19 7 17 8 16 9 15 10 14 11 6 12
REMARK SMILES IDX 7 13 8 14 9 15 13 16 11 17 10 18 12 20 4 22 21 24 18 26
REMARK H PARENT 10 19 12 21 4 23 21 25 18 27
REMARK Flexibility Score: inf
ROOT
ATOM      1  C   UNL     1     -21.013 -11.259  14.347  1.00  0.00     0.180 A 
ATOM      2  C   UNL     1     -19.782 -10.746  13.901  1.00  0.00     0.208 A 
ATOM      3  C   UNL     1     -19.388 -10.981  12.574  1.00  0.00     0.238 A 
ATOM      4  O   UNL     1     -18.262 -10.567  12.196  1.00  0.00    -0.285 OA
ATOM      5  C   UNL     1     -20.235 -11.713  11.707  1.00  0.00     0.111 A 
ATOM      6  C   UNL     1     -19.954 -11.977  10.332  1.00  0.00     0.134 A 
ATOM      7  C   UNL     1     -20.801 -12.823   9.605  1.00  0.00     0.093 A 
ATOM      8  C   UNL     1     -21.951 -13.360  10.181  1.00  0.00     0.123 A 
ATOM      9  C   UNL     1     -22.267 -13.059  11.506  1.00  0.00     0.094 A 
ATOM     10  C   UNL     1     -21.423 -12.249  12.269  1.00  0.00     0.146 A 
ATOM     11  O   UNL     1     -21.753 -11.997  13.530  1.00  0.00    -0.452 OA
ENDROOT
BRANCH   1  12
ATOM     12  C   UNL     1     -21.508 -11.030  15.725  1.00  0.00     0.025 A 
ATOM     13  C   UNL     1     -21.188 -11.951  16.734  1.00  0.00     0.016 A 
ATOM     14  C   UNL     1     -21.662 -11.766  18.036  1.00  0.00     0.051 A 
ATOM     15  C   UNL     1     -22.476 -10.667  18.343  1.00  0.00     0.157 A 
ATOM     16  C   UNL     1     -22.342  -9.940  16.032  1.00  0.00     0.062 A 
ATOM     17  C   UNL     1     -22.820  -9.753  17.333  1.00  0.00     0.158 A 
BRANCH  15  18
ATOM     18  O   UNL     1     -22.945 -10.485  19.643  1.00  0.00    -0.504 OA
ATOM     19  H   UNL     1     -22.999  -9.566  20.064  1.00  0.00     0.293 HD
ENDBRANCH  15  18
BRANCH  17  20
ATOM     20  O   UNL     1     -23.639  -8.658  17.604  1.00  0.00    -0.504 OA
ATOM     21  H   UNL     1     -24.431  -8.419  17.018  1.00  0.00     0.293 HD
ENDBRANCH  17  20
ENDBRANCH   1  12
BRANCH   2  22
ATOM     22  O   UNL     1     -18.953 -10.045  14.779  1.00  0.00    -0.502 OA
ATOM     23  H   UNL     1     -18.534 -10.479  15.593  1.00  0.00     0.293 HD
ENDBRANCH   2  22
BRANCH   6  24
ATOM     24  O   UNL     1     -18.881 -11.417   9.633  1.00  0.00    -0.507 OA
ATOM     25  H   UNL     1     -18.528 -11.758   8.753  1.00  0.00     0.293 HD
ENDBRANCH   6  24
BRANCH   8  26
ATOM     26  O   UNL     1     -22.779 -14.185   9.422  1.00  0.00    -0.508 OA
ATOM     27  H   UNL     1     -22.454 -15.073   9.059  1.00  0.00     0.293 HD
ENDBRANCH   8  26
TORSDOF 6
ENDMDL
MODEL 4
REMARK VINA RESULT:    -6.359      3.592      6.600
REMARK INTER + INTRA:          -7.966
REMARK INTER:                  -7.667
REMARK INTRA:                  -0.299
REMARK UNBOUND:                -0.306
REMARK SMILES O=c1c(O)c(-c2ccc(O)c(O)c2)oc2cc(O)cc(O)c12
REMARK SMILES IDX 5 1 3 2 2 3 1 4 22 5 20 6 19 7 17 8 16 9 15 10 14 11 6 12
REMARK SMILES IDX 7 13 8 14 9 15 13 16 11 17 10 18 12 20 4 22 21 24 18 26
REMARK H PARENT 10 19 12 21 4 23 21 25 18 27
REMARK Flexibility Score: inf
ROOT
ATOM      1  C   UNL     1     -22.700 -13.427  12.556  1.00  0.00     0.180 A 
ATOM      2  C   UNL     1     -23.861 -12.710  12.896  1.00  0.00     0.208 A 
ATOM      3  C   UNL     1     -24.945 -13.400  13.462  1.00  0.00     0.238 A 
ATOM      4  O   UNL     1     -26.001 -12.765  13.714  1.00  0.00    -0.285 OA
ATOM      5  C   UNL     1     -24.848 -14.793  13.697  1.00  0.00     0.111 A 
ATOM      6  C   UNL     1     -25.869 -15.586  14.303  1.00  0.00     0.134 A 
ATOM      7  C   UNL     1     -25.717 -16.977  14.366  1.00  0.00     0.093 A 
ATOM      8  C   UNL     1     -24.557 -17.596  13.905  1.00  0.00     0.123 A 
ATOM      9  C   UNL     1     -23.527 -16.825  13.366  1.00  0.00     0.094 A 
ATOM     10  C   UNL     1     -23.663 -15.439  13.256  1.00  0.00     0.146 A 
ATOM     11  O   UNL     1     -22.665 -14.742  12.727  1.00  0.00    -0.452 OA
ENDROOT
BRANCH   1  12
ATOM     12  C   UNL     1     -21.507 -12.765  11.977  1.00  0.00     0.025 A 
ATOM     13  C   UNL     1     -21.237 -12.905  10.608  1.00  0.00     0.016 A 
ATOM     14  C   UNL     1     -20.106 -12.307  10.045  1.00  0.00     0.051 A 
ATOM     15  C   UNL     1     -19.221 -11.573  10.847  1.00  0.00     0.157 A 
ATOM     16  C   UNL     1     -20.606 -12.046  12.783  1.00  0.00     0.062 A 
ATOM     17  C   UNL     1     -19.472 -11.447  12.224  1.00  0.00     0.158 A 
BRANCH  15  18
ATOM     18  O   UNL     1     -18.095 -10.977  10.283  1.00  0.00    -0.504 OA
ATOM     19  H   UNL     1     -17.836 -11.139   9.317  1.00  0.00     0.293 HD
ENDBRANCH  15  18
BRANCH  17  20
ATOM     20  O   UNL     1     -18.603 -10.736  13.051  1.00  0.00    -0.504 OA
ATOM     21  H   UNL     1     -18.705 -10.725  14.059  1.00  0.00     0.293 HD
ENDBRANCH  17  20
ENDBRANCH   1  12
BRANCH   2  22
ATOM     22  O   UNL     1     -23.943 -11.341  12.636  1.00  0.00    -0.502 OA
ATOM     23  H   UNL     1     -24.705 -10.932  12.108  1.00  0.00     0.293 HD
ENDBRANCH   2  22
BRANCH   6  24
ATOM     24  O   UNL     1     -27.029 -15.058  14.878  1.00  0.00    -0.507 OA
ATOM     25  H   UNL     1     -27.044 -14.328  15.572  1.00  0.00     0.293 HD
ENDBRANCH   6  24
BRANCH   8  26
ATOM     26  O   UNL     1     -24.434 -18.981  13.998  1.00  0.00    -0.508 OA
ATOM     27  H   UNL     1     -24.758 -19.593  13.258  1.00  0.00     0.293 HD
ENDBRANCH   8  26
TORSDOF 6
ENDMDL
MODEL 5
REMARK VINA RESULT:    -6.257      1.571      2.932
REMARK INTER + INTRA:          -7.843
REMARK INTER:                  -7.509
REMARK INTRA:                  -0.334
REMARK UNBOUND:                -0.306
REMARK SMILES O=c1c(O)c(-c2ccc(O)c(O)c2)oc2cc(O)cc(O)c12
REMARK SMILES IDX 5 1 3 2 2 3 1 4 22 5 20 6 19 7 17 8 16 9 15 10 14 11 6 12
REMARK SMILES IDX 7 13 8 14 9 15 13 16 11 17 10 18 12 20 4 22 21 24 18 26
REMARK H PARENT 10 19 12 21 4 23 21 25 18 27
REMARK Flexibility Score: inf
ROOT
ATOM      1  C   UNL     1     -21.468 -11.195  14.684  1.00  0.00     0.180 A 
ATOM      2  C   UNL     1     -22.600 -11.769  14.079  1.00  0.00     0.208 A 
ATOM      3  C   UNL     1     -22.527 -12.159  12.732  1.00  0.00     0.238 A 
ATOM      4  O   UNL     1     -23.559 -12.621  12.180  1.00  0.00    -0.285 OA
ATOM      5  C   UNL     1     -21.320 -11.985  12.013  1.00  0.00     0.111 A 
ATOM      6  C   UNL     1     -21.121 -12.380  10.655  1.00  0.00     0.134 A 
ATOM      7  C   UNL     1     -19.928 -12.041  10.005  1.00  0.00     0.093 A 
ATOM      8  C   UNL     1     -18.903 -11.379  10.679  1.00  0.00     0.123 A 
ATOM      9  C   UNL     1     -19.064 -11.041  12.023  1.00  0.00     0.094 A 
ATOM     10  C   UNL     1     -20.256 -11.334  12.690  1.00  0.00     0.146 A 
ATOM     11  O   UNL     1     -20.373 -10.985  13.965  1.00  0.00    -0.452 OA
ENDROOT
BRANCH   1  12
ATOM     12  C   UNL     1     -21.461 -10.782  16.107  1.00  0.00     0.025 A 
ATOM     13  C   UNL     1     -21.737  -9.448  16.439  1.00  0.00     0.016 A 
ATOM     14  C   UNL     1     -21.716  -9.031  17.773  1.00  0.00     0.051 A 
ATOM     15  C   UNL     1     -21.399  -9.940  18.792  1.00  0.00     0.157 A 
ATOM     16  C   UNL     1     -21.123 -11.686  17.130  1.00  0.00     0.062 A 
ATOM     17  C   UNL     1     -21.098 -11.273  18.466  1.00  0.00     0.158 A 
BRANCH  15  18
ATOM     18  O   UNL     1     -21.379  -9.522  20.121  1.00  0.00    -0.504 OA
ATOM     19  H   UNL     1     -20.511  -9.319  20.602  1.00  0.00     0.293 HD
ENDBRANCH  15  18
BRANCH  17  20
ATOM     20  O   UNL     1     -20.766 -12.197  19.456  1.00  0.00    -0.504 OA
ATOM     21  H   UNL     1     -21.203 -12.190  20.370  1.00  0.00     0.293 HD
ENDBRANCH  17  20
ENDBRANCH   1  12
BRANCH   2  22
ATOM     22  O   UNL     1     -23.787 -11.911  14.801  1.00  0.00    -0.502 OA
ATOM     23  H   UNL     1     -24.585 -12.420  14.440  1.00  0.00     0.293 HD
ENDBRANCH   2  22
BRANCH   6  24
ATOM     24  O   UNL     1     -22.044 -13.126   9.917  1.00  0.00    -0.507 OA
ATOM     25  H   UNL     1     -22.111 -13.125   8.911  1.00  0.00     0.293 HD
ENDBRANCH   6  24
BRANCH   8  26
ATOM     26  O   UNL     1     -17.724 -11.071  10.004  1.00  0.00    -0.508 OA
ATOM     27  H   UNL     1     -16.970 -11.744   9.921  1.00  0.00     0.293 HD
ENDBRANCH   8  26
TORSDOF 6
ENDMDL
MODEL 6
REMARK VINA RESULT:    -6.080      2.546      4.016
REMARK INTER + INTRA:          -7.630
REMARK INTER:                  -7.817
REMARK INTRA:                   0.187
REMARK UNBOUND:                -0.306
REMARK SMILES O=c1c(O)c(-c2ccc(O)c(O)c2)oc2cc(O)cc(O)c12
REMARK SMILES IDX 5 1 3 2 2 3 1 4 22 5 20 6 19 7 17 8 16 9 15 10 14 11 6 12
REMARK SMILES IDX 7 13 8 14 9 15 13 16 11 17 10 18 12 20 4 22 21 24 18 26
REMARK H PARENT 10 19 12 21 4 23 21 25 18 27
REMARK Flexibility Score: inf
ROOT
ATOM      1  C   UNL     1     -21.058 -11.100  15.040  1.00  0.00     0.180 A 
ATOM      2  C   UNL     1     -21.764 -12.179  15.600  1.00  0.00     0.208 A 
ATOM      3  C   UNL     1     -22.253 -13.186  14.752  1.00  0.00     0.238 A 
ATOM      4  O   UNL     1     -22.931 -14.120  15.252  1.00  0.00    -0.285 OA
ATOM      5  C   UNL     1     -22.018 -13.109  13.359  1.00  0.00     0.111 A 
ATOM      6  C   UNL     1     -22.432 -14.092  12.410  1.00  0.00     0.134 A 
ATOM      7  C   UNL     1     -22.260 -13.849  11.042  1.00  0.00     0.093 A 
ATOM      8  C   UNL     1     -21.630 -12.690  10.590  1.00  0.00     0.123 A 
ATOM      9  C   UNL     1     -21.167 -11.750  11.511  1.00  0.00     0.094 A 
ATOM     10  C   UNL     1     -21.356 -11.947  12.881  1.00  0.00     0.146 A 
ATOM     11  O   UNL     1     -20.911 -11.023  13.723  1.00  0.00    -0.452 OA
ENDROOT
BRANCH   1  12
ATOM     12  C   UNL     1     -20.490 -10.014  15.872  1.00  0.00     0.025 A 
ATOM     13  C   UNL     1     -21.238  -9.502  16.942  1.00  0.00     0.016 A 
ATOM     14  C   UNL     1     -20.731  -8.463  17.728  1.00  0.00     0.051 A 
ATOM     15  C   UNL     1     -19.475  -7.910  17.443  1.00  0.00     0.157 A 
ATOM     16  C   UNL     1     -19.239  -9.443  15.576  1.00  0.00     0.062 A 
ATOM     17  C   UNL     1     -18.729  -8.401  16.359  1.00  0.00     0.158 A 
BRANCH  15  18
ATOM     18  O   UNL     1     -18.972  -6.875  18.229  1.00  0.00    -0.504 OA
ATOM     19  H   UNL     1     -18.218  -7.027  18.888  1.00  0.00     0.293 HD
ENDBRANCH  15  18
BRANCH  17  20
ATOM     20  O   UNL     1     -17.482  -7.862  16.042  1.00  0.00    -0.504 OA
ATOM     21  H   UNL     1     -17.216  -7.643  15.089  1.00  0.00     0.293 HD
ENDBRANCH  17  20
ENDBRANCH   1  12
BRANCH   2  22
ATOM     22  O   UNL     1     -22.004 -12.224  16.975  1.00  0.00    -0.502 OA
ATOM     23  H   UNL     1     -22.899 -11.977  17.379  1.00  0.00     0.293 HD
ENDBRANCH   2  22
BRANCH   6  24
ATOM     24  O   UNL     1     -22.989 -15.326  12.760  1.00  0.00    -0.507 OA
ATOM     25  H   UNL     1     -23.007 -16.138  12.162  1.00  0.00     0.293 HD
ENDBRANCH   6  24
BRANCH   8  26
ATOM     26  O   UNL     1     -21.462 -12.488   9.222  1.00  0.00    -0.508 OA
ATOM     27  H   UNL     1     -22.122 -12.857   8.547  1.00  0.00     0.293 HD
ENDBRANCH   8  26
TORSDOF 6
ENDMDL
MODEL 7
REMARK VINA RESULT:    -6.051      2.209      2.704
REMARK INTER + INTRA:          -7.595
REMARK INTER:                  -7.772
REMARK INTRA:                   0.177
REMARK UNBOUND:                -0.306
REMARK SMILES O=c1c(O)c(-c2ccc(O)c(O)c2)oc2cc(O)cc(O)c12
REMARK SMILES IDX 5 1 3 2 2 3 1 4 22 5 20 6 19 7 17 8 16 9 15 10 14 11 6 12
REMARK SMILES IDX 7 13 8 14 9 15 13 16 11 17 10 18 12 20 4 22 21 24 18 26
REMARK H PARENT 10 19 12 21 4 23 21 25 18 27
REMARK Flexibility Score: inf
ROOT
ATOM      1  C   UNL     1     -20.752 -10.914  14.396  1.00  0.00     0.180 A 
ATOM      2  C   UNL     1     -19.700 -10.833  13.467  1.00  0.00     0.208 A 
ATOM      3  C   UNL     1     -19.850 -11.445  12.213  1.00  0.00     0.238 A 
ATOM      4  O   UNL     1     -18.885 -11.416  11.407  1.00  0.00    -0.285 OA
ATOM      5  C   UNL     1     -21.056 -12.116  11.897  1.00  0.00     0.111 A 
ATOM      6  C   UNL     1     -21.333 -12.738  10.642  1.00  0.00     0.134 A 
ATOM      7  C   UNL     1     -22.507 -13.486  10.486  1.00  0.00     0.093 A 
ATOM      8  C   UNL     1     -23.443 -13.581  11.515  1.00  0.00     0.123 A 
ATOM      9  C   UNL     1     -23.210 -12.928  12.726  1.00  0.00     0.094 A 
ATOM     10  C   UNL     1     -22.032 -12.204  12.925  1.00  0.00     0.146 A 
ATOM     11  O   UNL     1     -21.843 -11.606  14.095  1.00  0.00    -0.452 OA
ENDROOT
BRANCH   1  12
ATOM     12  C   UNL     1     -20.677 -10.272  15.730  1.00  0.00     0.025 A 
ATOM     13  C   UNL     1     -21.328 -10.868  16.820  1.00  0.00     0.016 A 
ATOM     14  C   UNL     1     -21.288 -10.270  18.082  1.00  0.00     0.051 A 
ATOM     15  C   UNL     1     -20.610  -9.057  18.268  1.00  0.00     0.157 A 
ATOM     16  C   UNL     1     -20.015  -9.045  15.915  1.00  0.00     0.062 A 
ATOM     17  C   UNL     1     -19.974  -8.442  17.177  1.00  0.00     0.158 A 
BRANCH  15  18
ATOM     18  O   UNL     1     -20.570  -8.463  19.528  1.00  0.00    -0.504 OA
ATOM     19  H   UNL     1     -19.735  -8.008  19.875  1.00  0.00     0.293 HD
ENDBRANCH  15  18
BRANCH  17  20
ATOM     20  O   UNL     1     -19.303  -7.228  17.327  1.00  0.00    -0.504 OA
ATOM     21  H   UNL     1     -19.444  -6.452  16.691  1.00  0.00     0.293 HD
ENDBRANCH  17  20
ENDBRANCH   1  12
BRANCH   2  22
ATOM     22  O   UNL     1     -18.510 -10.184  13.808  1.00  0.00    -0.502 OA
ATOM     23  H   UNL     1     -17.901 -10.517  14.545  1.00  0.00     0.293 HD
ENDBRANCH   2  22
BRANCH   6  24
ATOM     24  O   UNL     1     -20.509 -12.629   9.519  1.00  0.00    -0.507 OA
ATOM     25  H   UNL     1     -20.554 -13.231   8.712  1.00  0.00     0.293 HD
ENDBRANCH   6  24
BRANCH   8  26
ATOM     26  O   UNL     1     -24.607 -14.321  11.319  1.00  0.00    -0.508 OA
ATOM     27  H   UNL     1     -24.606 -15.334  11.368  1.00  0.00     0.293 HD
ENDBRANCH   8  26
TORSDOF 6
ENDMDL
MODEL 8
REMARK VINA RESULT:    -5.917      2.215      7.450
REMARK INTER + INTRA:          -7.433
REMARK INTER:                  -7.343
REMARK INTRA:                  -0.090
REMARK UNBOUND:                -0.306
REMARK SMILES O=c1c(O)c(-c2ccc(O)c(O)c2)oc2cc(O)cc(O)c12
REMARK SMILES IDX 5 1 3 2 2 3 1 4 22 5 20 6 19 7 17 8 16 9 15 10 14 11 6 12
REMARK SMILES IDX 7 13 8 14 9 15 13 16 11 17 10 18 12 20 4 22 21 24 18 26
REMARK H PARENT 10 19 12 21 4 23 21 25 18 27
REMARK Flexibility Score: inf
ROOT
ATOM      1  C   UNL     1     -20.512 -11.123  14.722  1.00  0.00     0.180 A 
ATOM      2  C   UNL     1     -21.108 -12.170  15.447  1.00  0.00     0.208 A 
ATOM      3  C   UNL     1     -21.429 -11.966  16.798  1.00  0.00     0.238 A 
ATOM      4  O   UNL     1     -21.911 -12.924  17.456  1.00  0.00    -0.285 OA
ATOM      5  C   UNL     1     -21.166 -10.714  17.403  1.00  0.00     0.111 A 
ATOM      6  C   UNL     1     -21.487 -10.383  18.755  1.00  0.00     0.134 A 
ATOM      7  C   UNL     1     -21.062  -9.159  19.285  1.00  0.00     0.093 A 
ATOM      8  C   UNL     1     -20.387  -8.227  18.498  1.00  0.00     0.123 A 
ATOM      9  C   UNL     1     -20.121  -8.516  17.159  1.00  0.00     0.094 A 
ATOM     10  C   UNL     1     -20.499  -9.743  16.610  1.00  0.00     0.146 A 
ATOM     11  O   UNL     1     -20.218  -9.983  15.335  1.00  0.00    -0.452 OA
ENDROOT
BRANCH   1  12
ATOM     12  C   UNL     1     -20.167 -11.254  13.287  1.00  0.00     0.025 A 
ATOM     13  C   UNL     1     -18.864 -10.961  12.861  1.00  0.00     0.016 A 
ATOM     14  C   UNL     1     -18.522 -11.058  11.510  1.00  0.00     0.051 A 
ATOM     15  C   UNL     1     -19.484 -11.433  10.563  1.00  0.00     0.157 A 
ATOM     16  C   UNL     1     -21.136 -11.610  12.332  1.00  0.00     0.062 A 
ATOM     17  C   UNL     1     -20.798 -11.706  10.977  1.00  0.00     0.158 A 
BRANCH  15  18
ATOM     18  O   UNL     1     -19.140 -11.530   9.216  1.00  0.00    -0.504 OA
ATOM     19  H   UNL     1     -18.303 -12.014   8.915  1.00  0.00     0.293 HD
ENDBRANCH  15  18
BRANCH  17  20
ATOM     20  O   UNL     1     -21.782 -12.068  10.057  1.00  0.00    -0.504 OA
ATOM     21  H   UNL     1     -21.687 -11.883   9.065  1.00  0.00     0.293 HD
ENDBRANCH  17  20
ENDBRANCH   1  12
BRANCH   2  22
ATOM     22  O   UNL     1     -21.338 -13.405  14.835  1.00  0.00    -0.502 OA
ATOM     23  H   UNL     1     -20.645 -14.143  14.821  1.00  0.00     0.293 HD
ENDBRANCH   2  22
BRANCH   6  24
ATOM     24  O   UNL     1     -22.238 -11.204  19.601  1.00  0.00    -0.507 OA
ATOM     25  H   UNL     1     -23.072 -10.916  20.088  1.00  0.00     0.293 HD
ENDBRANCH   6  24
BRANCH   8  26
ATOM     26  O   UNL     1     -19.993  -7.013  19.055  1.00  0.00    -0.508 OA
ATOM     27  H   UNL     1     -19.375  -6.974  19.858  1.00  0.00     0.293 HD
ENDBRANCH   8  26
TORSDOF 6
ENDMDL
MODEL 9
REMARK VINA RESULT:    -5.903      3.923      5.562
REMARK INTER + INTRA:          -7.417
REMARK INTER:                  -7.407
REMARK INTRA:                  -0.010
REMARK UNBOUND:                -0.306
REMARK SMILES O=c1c(O)c(-c2ccc(O)c(O)c2)oc2cc(O)cc(O)c12
REMARK SMILES IDX 5 1 3 2 2 3 1 4 22 5 20 6 19 7 17 8 16 9 15 10 14 11 6 12
REMARK SMILES IDX 7 13 8 14 9 15 13 16 11 17 10 18 12 20 4 22 21 24 18 26
REMARK H PARENT 10 19 12 21 4 23 21 25 18 27
REMARK Flexibility Score: inf
ROOT
ATOM      1  C   UNL     1     -23.415 -14.758  13.068  1.00  0.00     0.180 A 
ATOM      2  C   UNL     1     -23.001 -14.201  14.291  1.00  0.00     0.208 A 
ATOM      3  C   UNL     1     -22.122 -13.106  14.276  1.00  0.00     0.238 A 
ATOM      4  O   UNL     1     -21.711 -12.646  15.372  1.00  0.00    -0.285 OA
ATOM      5  C   UNL     1     -21.682 -12.572  13.041  1.00  0.00     0.111 A 
ATOM      6  C   UNL     1     -20.823 -11.439  12.906  1.00  0.00     0.134 A 
ATOM      7  C   UNL     1     -20.348 -11.079  11.639  1.00  0.00     0.093 A 
ATOM      8  C   UNL     1     -20.750 -11.768  10.496  1.00  0.00     0.123 A 
ATOM      9  C   UNL     1     -21.637 -12.840  10.610  1.00  0.00     0.094 A 
ATOM     10  C   UNL     1     -22.100 -13.246  11.863  1.00  0.00     0.146 A 
ATOM     11  O   UNL     1     -22.933 -14.277  11.929  1.00  0.00    -0.452 OA
ENDROOT
BRANCH   1  12
ATOM     12  C   UNL     1     -24.360 -15.897  13.002  1.00  0.00     0.025 A 
ATOM     13  C   UNL     1     -25.537 -15.775  12.249  1.00  0.00     0.016 A 
ATOM     14  C   UNL     1     -26.452 -16.830  12.190  1.00  0.00     0.051 A 
ATOM     15  C   UNL     1     -26.211 -18.015  12.898  1.00  0.00     0.157 A 
ATOM     16  C   UNL     1     -24.131 -17.081  13.728  1.00  0.00     0.062 A 
ATOM     17  C   UNL     1     -25.046 -18.138  13.673  1.00  0.00     0.158 A 
BRANCH  15  18
ATOM     18  O   UNL     1     -27.125 -19.066  12.836  1.00  0.00    -0.504 OA
ATOM     19  H   UNL     1     -27.712 -19.307  13.625  1.00  0.00     0.293 HD
ENDBRANCH  15  18
BRANCH  17  20
ATOM     20  O   UNL     1     -24.785 -19.299  14.399  1.00  0.00    -0.504 OA
ATOM     21  H   UNL     1     -24.909 -20.223  14.002  1.00  0.00     0.293 HD
ENDBRANCH  17  20
ENDBRANCH   1  12
BRANCH   2  22
ATOM     22  O   UNL     1     -23.430 -14.757  15.498  1.00  0.00    -0.502 OA
ATOM     23  H   UNL     1     -23.318 -15.740  15.714  1.00  0.00     0.293 HD
ENDBRANCH   2  22
BRANCH   6  24
ATOM     24  O   UNL     1     -20.434 -10.625  13.974  1.00  0.00    -0.507 OA
ATOM     25  H   UNL     1     -20.346 -10.933  14.929  1.00  0.00     0.293 HD
ENDBRANCH   6  24
BRANCH   8  26
ATOM     26  O   UNL     1     -20.269 -11.372   9.250  1.00  0.00    -0.508 OA
ATOM     27  H   UNL     1     -20.570 -11.829   8.397  1.00  0.00     0.293 HD
ENDBRANCH   8  26
TORSDOF 6
ENDMDL
