MODEL 1
REMARK VINA RESULT:    -3.786      0.000      0.000
REMARK INTER + INTRA:          -9.408
REMARK INTER:                  -6.885
REMARK INTRA:                  -2.523
REMARK UNBOUND:                -2.523
REMARK SMILES CCCCCCCCCCCCCCCC(=O)[O-]
REMARK SMILES IDX 9 1 10 2 11 3 12 4 13 5 14 6 15 7 16 8 17 9 18 10 8 11 7 12
REMARK SMILES IDX 6 13 5 14 4 15 3 16 2 17 1 18
REMARK H PARENT
REMARK Flexibility Score: inf
ROOT
ATOM      1  C   UNL     1     -36.803  80.914 -19.993  1.00  0.00     0.000 C 
ENDROOT
BRANCH   1   2
ATOM      2  C   UNL     1     -35.362  80.712 -19.496  1.00  0.00     0.000 C 
BRANCH   2   3
ATOM      3  C   UNL     1     -34.400  80.303 -20.621  1.00  0.00     0.000 C 
BRANCH   3   4
ATOM      4  C   UNL     1     -33.071  81.064 -20.509  1.00  0.00     0.000 C 
BRANCH   4   5
ATOM      5  C   UNL     1     -32.628  81.275 -19.052  1.00  0.00     0.000 C 
BRANCH   5   6
ATOM      6  C   UNL     1     -31.487  82.293 -18.920  1.00  0.00     0.006 C 
BRANCH   6   7
ATOM      7  C   UNL     1     -31.423  83.206 -20.149  1.00  0.00     0.053 C 
BRANCH   7   8
ATOM      8  C   UNL     1     -30.159  82.968 -20.913  1.00  0.00     0.041 C 
ATOM      9  O   UNL     1     -29.605  81.837 -20.886  1.00  0.00    -0.550 OA
ATOM     10  O   UNL     1     -29.618  83.981 -21.694  1.00  0.00    -0.550 OA
ENDBRANCH   7   8
ENDBRANCH   6   7
ENDBRANCH   5   6
ENDBRANCH   4   5
ENDBRANCH   3   4
ENDBRANCH   2   3
ENDBRANCH   1   2
BRANCH   1  11
ATOM     11  C   UNL     1     -37.559  81.989 -19.197  1.00  0.00     0.000 C 
BRANCH  11  12
ATOM     12  C   UNL     1     -36.719  82.486 -18.012  1.00  0.00    -0.000 C 
BRANCH  12  13
ATOM     13  C   UNL     1     -36.790  84.012 -17.825  1.00  0.00    -0.000 C 
BRANCH  13  14
ATOM     14  C   UNL     1     -35.430  84.738 -17.885  1.00  0.00    -0.000 C 
BRANCH  14  15
ATOM     15  C   UNL     1     -34.621  84.500 -19.175  1.00  0.00    -0.000 C 
BRANCH  15  16
ATOM     16  C   UNL     1     -35.375  84.806 -20.484  1.00  0.00    -0.000 C 
BRANCH  16  17
ATOM     17  C   UNL     1     -35.021  83.885 -21.664  1.00  0.00    -0.003 C 
ATOM     18  C   UNL     1     -36.230  83.538 -22.533  1.00  0.00     0.004 C 
ENDBRANCH  16  17
ENDBRANCH  15  16
ENDBRANCH  14  15
ENDBRANCH  13  14
ENDBRANCH  12  13
ENDBRANCH  11  12
ENDBRANCH   1  11
TORSDOF 14
ENDMDL
MODEL 2
REMARK VINA RESULT:    -3.727      1.382      2.763
REMARK INTER + INTRA:          -9.301
REMARK INTER:                  -7.221
REMARK INTRA:                  -2.080
REMARK UNBOUND:                -2.523
REMARK SMILES CCCCCCCCCCCCCCCC(=O)[O-]
REMARK SMILES IDX 9 1 10 2 11 3 12 4 13 5 14 6 15 7 16 8 17 9 18 10 8 11 7 12
REMARK SMILES IDX 6 13 5 14 4 15 3 16 2 17 1 18
REMARK H PARENT
REMARK Flexibility Score: inf
ROOT
ATOM      1  C   UNL     1     -36.756  83.833 -17.690  1.00  0.00     0.000 C 
ENDROOT
BRANCH   1   2
ATOM      2  C   UNL     1     -36.395  82.344 -17.559  1.00  0.00     0.000 C 
BRANCH   2   3
ATOM      3  C   UNL     1     -36.689  81.548 -18.839  1.00  0.00     0.000 C 
BRANCH   3   4
ATOM      4  C   UNL     1     -35.390  81.024 -19.469  1.00  0.00     0.000 C 
BRANCH   4   5
ATOM      5  C   UNL     1     -34.169  81.209 -18.553  1.00  0.00     0.000 C 
BRANCH   5   6
ATOM      6  C   UNL     1     -32.840  81.173 -19.321  1.00  0.00     0.006 C 
BRANCH   6   7
ATOM      7  C   UNL     1     -32.106  82.513 -19.208  1.00  0.00     0.053 C 
BRANCH   7   8
ATOM      8  C   UNL     1     -30.789  82.452 -19.914  1.00  0.00     0.041 C 
ATOM      9  O   UNL     1     -30.052  81.439 -19.792  1.00  0.00    -0.550 OA
ATOM     10  O   UNL     1     -30.398  83.493 -20.746  1.00  0.00    -0.550 OA
ENDBRANCH   7   8
ENDBRANCH   6   7
ENDBRANCH   5   6
ENDBRANCH   4   5
ENDBRANCH   3   4
ENDBRANCH   2   3
ENDBRANCH   1   2
BRANCH   1  11
ATOM     11  C   UNL     1     -35.558  84.759 -17.437  1.00  0.00     0.000 C 
BRANCH  11  12
ATOM     12  C   UNL     1     -34.732  84.950 -18.717  1.00  0.00    -0.000 C 
BRANCH  12  13
ATOM     13  C   UNL     1     -35.581  84.853 -19.997  1.00  0.00    -0.000 C 
BRANCH  13  14
ATOM     14  C   UNL     1     -34.864  84.214 -21.205  1.00  0.00    -0.000 C 
BRANCH  14  15
ATOM     15  C   UNL     1     -35.783  83.848 -22.388  1.00  0.00    -0.000 C 
BRANCH  15  16
ATOM     16  C   UNL     1     -35.486  84.599 -23.702  1.00  0.00    -0.000 C 
BRANCH  16  17
ATOM     17  C   UNL     1     -35.088  86.074 -23.527  1.00  0.00    -0.003 C 
ATOM     18  C   UNL     1     -36.283  86.985 -23.249  1.00  0.00     0.004 C 
ENDBRANCH  16  17
ENDBRANCH  15  16
ENDBRANCH  14  15
ENDBRANCH  13  14
ENDBRANCH  12  13
ENDBRANCH  11  12
ENDBRANCH   1  11
TORSDOF 14
ENDMDL
MODEL 3
REMARK VINA RESULT:    -3.698      1.963      3.871
REMARK INTER + INTRA:          -9.247
REMARK INTER:                  -7.077
REMARK INTRA:                  -2.171
REMARK UNBOUND:                -2.523
REMARK SMILES CCCCCCCCCCCCCCCC(=O)[O-]
REMARK SMILES IDX 9 1 10 2 11 3 12 4 13 5 14 6 15 7 16 8 17 9 18 10 8 11 7 12
REMARK SMILES IDX 6 13 5 14 4 15 3 16 2 17 1 18
REMARK H PARENT
REMARK Flexibility Score: inf
ROOT
ATOM      1  C   UNL     1     -37.022  81.270 -19.389  1.00  0.00     0.000 C 
ENDROOT
BRANCH   1   2
ATOM      2  C   UNL     1     -37.296  82.706 -18.911  1.00  0.00     0.000 C 
BRANCH   2   3
ATOM      3  C   UNL     1     -36.561  83.046 -17.606  1.00  0.00     0.000 C 
BRANCH   3   4
ATOM      4  C   UNL     1     -35.855  84.406 -17.713  1.00  0.00     0.000 C 
BRANCH   4   5
ATOM      5  C   UNL     1     -35.154  84.606 -19.067  1.00  0.00     0.000 C 
BRANCH   5   6
ATOM      6  C   UNL     1     -33.785  83.915 -19.134  1.00  0.00     0.006 C 
BRANCH   6   7
ATOM      7  C   UNL     1     -33.779  82.814 -20.200  1.00  0.00     0.053 C 
BRANCH   7   8
ATOM      8  C   UNL     1     -33.191  81.553 -19.650  1.00  0.00     0.041 C 
ATOM      9  O   UNL     1     -32.244  80.982 -20.250  1.00  0.00    -0.550 OA
ATOM     10  O   UNL     1     -33.657  81.036 -18.448  1.00  0.00    -0.550 OA
ENDBRANCH   7   8
ENDBRANCH   6   7
ENDBRANCH   5   6
ENDBRANCH   4   5
ENDBRANCH   3   4
ENDBRANCH   2   3
ENDBRANCH   1   2
BRANCH   1  11
ATOM     11  C   UNL     1     -38.228  80.642 -20.103  1.00  0.00     0.000 C 
BRANCH  11  12
ATOM     12  C   UNL     1     -38.000  80.592 -21.621  1.00  0.00    -0.000 C 
BRANCH  12  13
ATOM     13  C   UNL     1     -36.571  80.996 -22.026  1.00  0.00    -0.000 C 
BRANCH  13  14
ATOM     14  C   UNL     1     -36.465  82.334 -22.786  1.00  0.00    -0.000 C 
BRANCH  14  15
ATOM     15  C   UNL     1     -37.756  83.177 -22.804  1.00  0.00    -0.000 C 
BRANCH  15  16
ATOM     16  C   UNL     1     -37.610  84.606 -22.244  1.00  0.00    -0.000 C 
BRANCH  16  17
ATOM     17  C   UNL     1     -36.226  85.244 -22.452  1.00  0.00    -0.003 C 
ATOM     18  C   UNL     1     -36.296  86.613 -23.127  1.00  0.00     0.004 C 
ENDBRANCH  16  17
ENDBRANCH  15  16
ENDBRANCH  14  15
ENDBRANCH  13  14
ENDBRANCH  12  13
ENDBRANCH  11  12
ENDBRANCH   1  11
TORSDOF 14
ENDMDL
MODEL 4
REMARK VINA RESULT:    -3.685     13.967     16.869
REMARK INTER + INTRA:          -9.225
REMARK INTER:                  -6.877
REMARK INTRA:                  -2.348
REMARK UNBOUND:                -2.523
REMARK SMILES CCCCCCCCCCCCCCCC(=O)[O-]
REMARK SMILES IDX 9 1 10 2 11 3 12 4 13 5 14 6 15 7 16 8 17 9 18 10 8 11 7 12
REMARK SMILES IDX 6 13 5 14 4 15 3 16 2 17 1 18
REMARK H PARENT
REMARK Flexibility Score: inf
ROOT
ATOM      1  C   UNL     1     -24.322  92.537 -32.132  1.00  0.00     0.000 C 
ENDROOT
BRANCH   1   2
ATOM      2  C   UNL     1     -24.146  91.229 -31.342  1.00  0.00     0.000 C 
BRANCH   2   3
ATOM      3  C   UNL     1     -22.708  91.030 -30.840  1.00  0.00     0.000 C 
BRANCH   3   4
ATOM      4  C   UNL     1     -22.701  90.444 -29.420  1.00  0.00     0.000 C 
BRANCH   4   5
ATOM      5  C   UNL     1     -23.641  89.237 -29.271  1.00  0.00     0.000 C 
BRANCH   5   6
ATOM      6  C   UNL     1     -24.448  89.271 -27.965  1.00  0.00     0.006 C 
BRANCH   6   7
ATOM      7  C   UNL     1     -23.607  89.841 -26.817  1.00  0.00     0.053 C 
BRANCH   7   8
ATOM      8  C   UNL     1     -23.316  88.781 -25.803  1.00  0.00     0.041 C 
ATOM      9  O   UNL     1     -23.415  89.036 -24.574  1.00  0.00    -0.550 OA
ATOM     10  O   UNL     1     -22.982  87.497 -26.215  1.00  0.00    -0.550 OA
ENDBRANCH   7   8
ENDBRANCH   6   7
ENDBRANCH   5   6
ENDBRANCH   4   5
ENDBRANCH   3   4
ENDBRANCH   2   3
ENDBRANCH   1   2
BRANCH   1  11
ATOM     11  C   UNL     1     -23.135  93.496 -31.962  1.00  0.00     0.000 C 
BRANCH  11  12
ATOM     12  C   UNL     1     -23.617  94.948 -31.829  1.00  0.00    -0.000 C 
BRANCH  12  13
ATOM     13  C   UNL     1     -24.822  95.094 -30.881  1.00  0.00    -0.000 C 
BRANCH  13  14
ATOM     14  C   UNL     1     -24.561  95.952 -29.626  1.00  0.00    -0.000 C 
BRANCH  14  15
ATOM     15  C   UNL     1     -24.607  95.183 -28.291  1.00  0.00    -0.000 C 
BRANCH  15  16
ATOM     16  C   UNL     1     -24.464  93.653 -28.413  1.00  0.00    -0.000 C 
BRANCH  16  17
ATOM     17  C   UNL     1     -25.612  92.844 -27.786  1.00  0.00    -0.003 C 
ATOM     18  C   UNL     1     -26.556  92.244 -28.827  1.00  0.00     0.004 C 
ENDBRANCH  16  17
ENDBRANCH  15  16
ENDBRANCH  14  15
ENDBRANCH  13  14
ENDBRANCH  12  13
ENDBRANCH  11  12
ENDBRANCH   1  11
TORSDOF 14
ENDMDL
MODEL 5
REMARK VINA RESULT:    -3.642      1.244      2.766
REMARK INTER + INTRA:          -9.147
REMARK INTER:                  -7.352
REMARK INTRA:                  -1.795
REMARK UNBOUND:                -2.523
REMARK SMILES CCCCCCCCCCCCCCCC(=O)[O-]
REMARK SMILES IDX 9 1 10 2 11 3 12 4 13 5 14 6 15 7 16 8 17 9 18 10 8 11 7 12
REMARK SMILES IDX 6 13 5 14 4 15 3 16 2 17 1 18
REMARK H PARENT
REMARK Flexibility Score: inf
ROOT
ATOM      1  C   UNL     1     -34.602  83.579 -21.246  1.00  0.00     0.000 C 
ENDROOT
BRANCH   1   2
ATOM      2  C   UNL     1     -33.445  82.815 -20.580  1.00  0.00     0.000 C 
BRANCH   2   3
ATOM      3  C   UNL     1     -33.738  81.315 -20.425  1.00  0.00     0.000 C 
BRANCH   3   4
ATOM      4  C   UNL     1     -32.851  80.693 -19.336  1.00  0.00     0.000 C 
BRANCH   4   5
ATOM      5  C   UNL     1     -31.479  81.377 -19.226  1.00  0.00     0.000 C 
BRANCH   5   6
ATOM      6  C   UNL     1     -30.348  80.543 -19.844  1.00  0.00     0.006 C 
BRANCH   6   7
ATOM      7  C   UNL     1     -30.304  80.723 -21.365  1.00  0.00     0.053 C 
BRANCH   7   8
ATOM      8  C   UNL     1     -29.329  81.793 -21.740  1.00  0.00     0.041 C 
ATOM      9  O   UNL     1     -28.188  81.487 -22.176  1.00  0.00    -0.550 OA
ATOM     10  O   UNL     1     -29.696  83.130 -21.652  1.00  0.00    -0.550 OA
ENDBRANCH   7   8
ENDBRANCH   6   7
ENDBRANCH   5   6
ENDBRANCH   4   5
ENDBRANCH   3   4
ENDBRANCH   2   3
ENDBRANCH   1   2
BRANCH   1  11
ATOM     11  C   UNL     1     -35.233  84.626 -20.317  1.00  0.00     0.000 C 
BRANCH  11  12
ATOM     12  C   UNL     1     -34.520  84.654 -18.958  1.00  0.00    -0.000 C 
BRANCH  12  13
ATOM     13  C   UNL     1     -35.467  84.987 -17.791  1.00  0.00    -0.000 C 
BRANCH  13  14
ATOM     14  C   UNL     1     -36.675  84.038 -17.643  1.00  0.00    -0.000 C 
BRANCH  14  15
ATOM     15  C   UNL     1     -36.318  82.577 -17.308  1.00  0.00    -0.000 C 
BRANCH  15  16
ATOM     16  C   UNL     1     -36.447  81.588 -18.484  1.00  0.00    -0.000 C 
BRANCH  16  17
ATOM     17  C   UNL     1     -37.578  81.906 -19.476  1.00  0.00    -0.003 C 
ATOM     18  C   UNL     1     -38.330  80.659 -19.942  1.00  0.00     0.004 C 
ENDBRANCH  16  17
ENDBRANCH  15  16
ENDBRANCH  14  15
ENDBRANCH  13  14
ENDBRANCH  12  13
ENDBRANCH  11  12
ENDBRANCH   1  11
TORSDOF 14
ENDMDL
MODEL 6
REMARK VINA RESULT:    -3.627     13.425     16.359
REMARK INTER + INTRA:          -9.118
REMARK INTER:                  -7.639
REMARK INTRA:                  -1.479
REMARK UNBOUND:                -2.523
REMARK SMILES CCCCCCCCCCCCCCCC(=O)[O-]
REMARK SMILES IDX 9 1 10 2 11 3 12 4 13 5 14 6 15 7 16 8 17 9 18 10 8 11 7 12
REMARK SMILES IDX 6 13 5 14 4 15 3 16 2 17 1 18
REMARK H PARENT
REMARK Flexibility Score: inf
ROOT
ATOM      1  C   UNL     1     -24.556  91.778 -29.619  1.00  0.00     0.000 C 
ENDROOT
BRANCH   1   2
ATOM      2  C   UNL     1     -23.466  90.832 -30.150  1.00  0.00     0.000 C 
BRANCH   2   3
ATOM      3  C   UNL     1     -22.846  89.963 -29.046  1.00  0.00     0.000 C 
BRANCH   3   4
ATOM      4  C   UNL     1     -23.720  88.732 -28.762  1.00  0.00     0.000 C 
BRANCH   4   5
ATOM      5  C   UNL     1     -23.689  88.311 -27.284  1.00  0.00     0.000 C 
BRANCH   5   6
ATOM      6  C   UNL     1     -23.451  89.494 -26.335  1.00  0.00     0.006 C 
BRANCH   6   7
ATOM      7  C   UNL     1     -23.663  89.077 -24.876  1.00  0.00     0.053 C 
BRANCH   7   8
ATOM      8  C   UNL     1     -23.101  87.712 -24.634  1.00  0.00     0.041 C 
ATOM      9  O   UNL     1     -21.855  87.532 -24.626  1.00  0.00    -0.550 OA
ATOM     10  O   UNL     1     -23.952  86.647 -24.370  1.00  0.00    -0.550 OA
ENDBRANCH   7   8
ENDBRANCH   6   7
ENDBRANCH   5   6
ENDBRANCH   4   5
ENDBRANCH   3   4
ENDBRANCH   2   3
ENDBRANCH   1   2
BRANCH   1  11
ATOM     11  C   UNL     1     -24.073  92.639 -28.443  1.00  0.00     0.000 C 
BRANCH  11  12
ATOM     12  C   UNL     1     -25.253  93.337 -27.754  1.00  0.00    -0.000 C 
BRANCH  12  13
ATOM     13  C   UNL     1     -25.785  94.542 -28.551  1.00  0.00    -0.000 C 
BRANCH  13  14
ATOM     14  C   UNL     1     -24.914  95.813 -28.467  1.00  0.00    -0.000 C 
BRANCH  14  15
ATOM     15  C   UNL     1     -24.413  96.349 -29.822  1.00  0.00    -0.000 C 
BRANCH  15  16
ATOM     16  C   UNL     1     -24.590  95.385 -31.012  1.00  0.00    -0.000 C 
BRANCH  16  17
ATOM     17  C   UNL     1     -23.377  95.289 -31.953  1.00  0.00    -0.003 C 
ATOM     18  C   UNL     1     -23.063  93.854 -32.376  1.00  0.00     0.004 C 
ENDBRANCH  16  17
ENDBRANCH  15  16
ENDBRANCH  14  15
ENDBRANCH  13  14
ENDBRANCH  12  13
ENDBRANCH  11  12
ENDBRANCH   1  11
TORSDOF 14
ENDMDL
MODEL 7
REMARK VINA RESULT:    -3.620     13.654     15.626
REMARK INTER + INTRA:          -9.106
REMARK INTER:                  -7.048
REMARK INTRA:                  -2.058
REMARK UNBOUND:                -2.523
REMARK SMILES CCCCCCCCCCCCCCCC(=O)[O-]
REMARK SMILES IDX 9 1 10 2 11 3 12 4 13 5 14 6 15 7 16 8 17 9 18 10 8 11 7 12
REMARK SMILES IDX 6 13 5 14 4 15 3 16 2 17 1 18
REMARK H PARENT
REMARK Flexibility Score: inf
ROOT
ATOM      1  C   UNL     1     -24.271  93.321 -30.686  1.00  0.00     0.000 C 
ENDROOT
BRANCH   1   2
ATOM      2  C   UNL     1     -23.853  92.271 -29.643  1.00  0.00     0.000 C 
BRANCH   2   3
ATOM      3  C   UNL     1     -23.426  90.940 -30.281  1.00  0.00     0.000 C 
BRANCH   3   4
ATOM      4  C   UNL     1     -23.274  89.845 -29.215  1.00  0.00     0.000 C 
BRANCH   4   5
ATOM      5  C   UNL     1     -23.240  90.409 -27.786  1.00  0.00     0.000 C 
BRANCH   5   6
ATOM      6  C   UNL     1     -24.151  89.637 -26.821  1.00  0.00     0.006 C 
BRANCH   6   7
ATOM      7  C   UNL     1     -23.530  88.289 -26.441  1.00  0.00     0.053 C 
BRANCH   7   8
ATOM      8  C   UNL     1     -22.789  88.399 -25.146  1.00  0.00     0.041 C 
ATOM      9  O   UNL     1     -22.935  89.414 -24.417  1.00  0.00    -0.550 OA
ATOM     10  O   UNL     1     -21.973  87.357 -24.722  1.00  0.00    -0.550 OA
ENDBRANCH   7   8
ENDBRANCH   6   7
ENDBRANCH   5   6
ENDBRANCH   4   5
ENDBRANCH   3   4
ENDBRANCH   2   3
ENDBRANCH   1   2
BRANCH   1  11
ATOM     11  C   UNL     1     -24.861  94.587 -30.048  1.00  0.00     0.000 C 
BRANCH  11  12
ATOM     12  C   UNL     1     -24.607  94.608 -28.534  1.00  0.00    -0.000 C 
BRANCH  12  13
ATOM     13  C   UNL     1     -25.599  95.504 -27.772  1.00  0.00    -0.000 C 
BRANCH  13  14
ATOM     14  C   UNL     1     -26.334  94.815 -26.604  1.00  0.00    -0.000 C 
BRANCH  14  15
ATOM     15  C   UNL     1     -27.338  93.722 -27.021  1.00  0.00    -0.000 C 
BRANCH  15  16
ATOM     16  C   UNL     1     -26.812  92.277 -26.912  1.00  0.00    -0.000 C 
BRANCH  16  17
ATOM     17  C   UNL     1     -27.130  91.380 -28.121  1.00  0.00    -0.003 C 
ATOM     18  C   UNL     1     -27.614  92.169 -29.337  1.00  0.00     0.004 C 
ENDBRANCH  16  17
ENDBRANCH  15  16
ENDBRANCH  14  15
ENDBRANCH  13  14
ENDBRANCH  12  13
ENDBRANCH  11  12
ENDBRANCH   1  11
TORSDOF 14
ENDMDL
MODEL 8
REMARK VINA RESULT:    -3.567      1.471      2.866
REMARK INTER + INTRA:          -9.009
REMARK INTER:                  -6.442
REMARK INTRA:                  -2.567
REMARK UNBOUND:                -2.523
REMARK SMILES CCCCCCCCCCCCCCCC(=O)[O-]
REMARK SMILES IDX 9 1 10 2 11 3 12 4 13 5 14 6 15 7 16 8 17 9 18 10 8 11 7 12
REMARK SMILES IDX 6 13 5 14 4 15 3 16 2 17 1 18
REMARK H PARENT
REMARK Flexibility Score: inf
ROOT
ATOM      1  C   UNL     1     -34.193  81.552 -21.408  1.00  0.00     0.000 C 
ENDROOT
BRANCH   1   2
ATOM      2  C   UNL     1     -34.046  80.575 -20.229  1.00  0.00     0.000 C 
BRANCH   2   3
ATOM      3  C   UNL     1     -33.590  81.269 -18.937  1.00  0.00     0.000 C 
BRANCH   3   4
ATOM      4  C   UNL     1     -32.110  80.975 -18.650  1.00  0.00     0.000 C 
BRANCH   4   5
ATOM      5  C   UNL     1     -31.213  82.209 -18.837  1.00  0.00     0.000 C 
BRANCH   5   6
ATOM      6  C   UNL     1     -30.254  82.071 -20.028  1.00  0.00     0.006 C 
BRANCH   6   7
ATOM      7  C   UNL     1     -30.231  80.630 -20.548  1.00  0.00     0.053 C 
BRANCH   7   8
ATOM      8  C   UNL     1     -30.621  80.587 -21.992  1.00  0.00     0.041 C 
ATOM      9  O   UNL     1     -30.749  79.482 -22.580  1.00  0.00    -0.550 OA
ATOM     10  O   UNL     1     -30.890  81.767 -22.675  1.00  0.00    -0.550 OA
ENDBRANCH   7   8
ENDBRANCH   6   7
ENDBRANCH   5   6
ENDBRANCH   4   5
ENDBRANCH   3   4
ENDBRANCH   2   3
ENDBRANCH   1   2
BRANCH   1  11
ATOM     11  C   UNL     1     -33.840  82.997 -21.027  1.00  0.00     0.000 C 
BRANCH  11  12
ATOM     12  C   UNL     1     -34.866  83.982 -21.606  1.00  0.00    -0.000 C 
BRANCH  12  13
ATOM     13  C   UNL     1     -35.588  84.801 -20.521  1.00  0.00    -0.000 C 
BRANCH  13  14
ATOM     14  C   UNL     1     -34.963  84.711 -19.114  1.00  0.00    -0.000 C 
BRANCH  14  15
ATOM     15  C   UNL     1     -35.867  84.073 -18.039  1.00  0.00    -0.000 C 
BRANCH  15  16
ATOM     16  C   UNL     1     -37.168  83.441 -18.572  1.00  0.00    -0.000 C 
BRANCH  16  17
ATOM     17  C   UNL     1     -37.118  81.914 -18.752  1.00  0.00    -0.003 C 
ATOM     18  C   UNL     1     -37.778  81.445 -20.048  1.00  0.00     0.004 C 
ENDBRANCH  16  17
ENDBRANCH  15  16
ENDBRANCH  14  15
ENDBRANCH  13  14
ENDBRANCH  12  13
ENDBRANCH  11  12
ENDBRANCH   1  11
TORSDOF 14
ENDMDL
MODEL 9
REMARK VINA RESULT:    -3.551      1.943      3.673
REMARK INTER + INTRA:          -8.980
REMARK INTER:                  -6.922
REMARK INTRA:                  -2.058
REMARK UNBOUND:                -2.523
REMARK SMILES CCCCCCCCCCCCCCCC(=O)[O-]
REMARK SMILES IDX 9 1 10 2 11 3 12 4 13 5 14 6 15 7 16 8 17 9 18 10 8 11 7 12
REMARK SMILES IDX 6 13 5 14 4 15 3 16 2 17 1 18
REMARK H PARENT
REMARK Flexibility Score: inf
ROOT
ATOM      1  C   UNL     1     -35.663  84.370 -17.731  1.00  0.00     0.000 C 
ENDROOT
BRANCH   1   2
ATOM      2  C   UNL     1     -36.939  83.682 -18.244  1.00  0.00     0.000 C 
BRANCH   2   3
ATOM      3  C   UNL     1     -36.802  82.153 -18.310  1.00  0.00     0.000 C 
BRANCH   3   4
ATOM      4  C   UNL     1     -35.402  81.708 -17.862  1.00  0.00     0.000 C 
BRANCH   4   5
ATOM      5  C   UNL     1     -34.599  81.045 -18.993  1.00  0.00     0.000 C 
BRANCH   5   6
ATOM      6  C   UNL     1     -33.083  81.101 -18.757  1.00  0.00     0.006 C 
BRANCH   6   7
ATOM      7  C   UNL     1     -32.317  80.690 -20.018  1.00  0.00     0.053 C 
BRANCH   7   8
ATOM      8  C   UNL     1     -31.323  79.618 -19.703  1.00  0.00     0.041 C 
ATOM      9  O   UNL     1     -31.329  79.062 -18.573  1.00  0.00    -0.550 OA
ATOM     10  O   UNL     1     -30.422  79.199 -20.673  1.00  0.00    -0.550 OA
ENDBRANCH   7   8
ENDBRANCH   6   7
ENDBRANCH   5   6
ENDBRANCH   4   5
ENDBRANCH   3   4
ENDBRANCH   2   3
ENDBRANCH   1   2
BRANCH   1  11
ATOM     11  C   UNL     1     -34.872  85.063 -18.849  1.00  0.00     0.000 C 
BRANCH  11  12
ATOM     12  C   UNL     1     -35.546  84.847 -20.212  1.00  0.00    -0.000 C 
BRANCH  12  13
ATOM     13  C   UNL     1     -34.749  83.905 -21.132  1.00  0.00    -0.000 C 
BRANCH  13  14
ATOM     14  C   UNL     1     -35.609  82.937 -21.972  1.00  0.00    -0.000 C 
BRANCH  14  15
ATOM     15  C   UNL     1     -37.132  83.134 -21.837  1.00  0.00    -0.000 C 
BRANCH  15  16
ATOM     16  C   UNL     1     -37.820  83.760 -23.066  1.00  0.00    -0.000 C 
BRANCH  16  17
ATOM     17  C   UNL     1     -38.196  85.243 -22.910  1.00  0.00    -0.003 C 
ATOM     18  C   UNL     1     -37.060  86.190 -23.297  1.00  0.00     0.004 C 
ENDBRANCH  16  17
ENDBRANCH  15  16
ENDBRANCH  14  15
ENDBRANCH  13  14
ENDBRANCH  12  13
ENDBRANCH  11  12
ENDBRANCH   1  11
TORSDOF 14
ENDMDL
