MODEL 1
REMARK VINA RESULT:    -4.114      0.000      0.000
REMARK INTER + INTRA:          -6.562
REMARK INTER:                  -5.798
REMARK INTRA:                  -0.764
REMARK UNBOUND:                -0.764
REMARK SMILES CCCCCCCCC(=O)[O-]
REMARK SMILES IDX 6 1 7 2 8 3 9 4 10 5 11 6 5 7 4 8 3 9 2 10 1 11
REMARK H PARENT
REMARK Flexibility Score: inf
ROOT
ATOM      1  C   UNL     1      26.322   0.621  30.093  1.00  0.00     0.000 C 
ENDROOT
BRANCH   1   2
ATOM      2  C   UNL     1      26.873   1.437  28.916  1.00  0.00     0.006 C 
BRANCH   2   3
ATOM      3  C   UNL     1      27.747   2.592  29.412  1.00  0.00     0.053 C 
BRANCH   3   4
ATOM      4  C   UNL     1      27.235   3.897  28.891  1.00  0.00     0.041 C 
ATOM      5  O   UNL     1      26.302   3.920  28.046  1.00  0.00    -0.550 OA
ATOM      6  O   UNL     1      27.820   5.088  29.303  1.00  0.00    -0.550 OA
ENDBRANCH   3   4
ENDBRANCH   2   3
ENDBRANCH   1   2
BRANCH   1   7
ATOM      7  C   UNL     1      27.039   0.985  31.399  1.00  0.00     0.000 C 
BRANCH   7   8
ATOM      8  C   UNL     1      27.950  -0.161  31.864  1.00  0.00    -0.000 C 
BRANCH   8   9
ATOM      9  C   UNL     1      29.443   0.175  31.721  1.00  0.00    -0.000 C 
BRANCH   9  10
ATOM     10  C   UNL     1      30.030  -0.296  30.384  1.00  0.00    -0.003 C 
ATOM     11  C   UNL     1      29.348  -1.574  29.904  1.00  0.00     0.004 C 
ENDBRANCH   9  10
ENDBRANCH   8   9
ENDBRANCH   7   8
ENDBRANCH   1   7
TORSDOF 7
ENDMDL
MODEL 2
REMARK VINA RESULT:    -4.084      3.771      5.411
REMARK INTER + INTRA:          -6.520
REMARK INTER:                  -5.773
REMARK INTRA:                  -0.747
REMARK UNBOUND:                -0.764
REMARK SMILES CCCCCCCCC(=O)[O-]
REMARK SMILES IDX 6 1 7 2 8 3 9 4 10 5 11 6 5 7 4 8 3 9 2 10 1 11
REMARK H PARENT
REMARK Flexibility Score: inf
ROOT
ATOM      1  C   UNL     1      29.388   0.057  31.578  1.00  0.00     0.000 C 
ENDROOT
BRANCH   1   2
ATOM      2  C   UNL     1      29.980  -0.634  30.343  1.00  0.00     0.006 C 
BRANCH   2   3
ATOM      3  C   UNL     1      29.084  -1.784  29.875  1.00  0.00     0.053 C 
BRANCH   3   4
ATOM      4  C   UNL     1      29.855  -3.065  29.832  1.00  0.00     0.041 C 
ATOM      5  O   UNL     1      31.111  -3.052  29.917  1.00  0.00    -0.550 OA
ATOM      6  O   UNL     1      29.190  -4.271  29.648  1.00  0.00    -0.550 OA
ENDBRANCH   3   4
ENDBRANCH   2   3
ENDBRANCH   1   2
BRANCH   1   7
ATOM      7  C   UNL     1      27.934  -0.376  31.807  1.00  0.00     0.000 C 
BRANCH   7   8
ATOM      8  C   UNL     1      26.961   0.757  31.451  1.00  0.00    -0.000 C 
BRANCH   8   9
ATOM      9  C   UNL     1      26.129   0.451  30.195  1.00  0.00    -0.000 C 
BRANCH   9  10
ATOM     10  C   UNL     1      26.713   1.089  28.928  1.00  0.00    -0.003 C 
ATOM     11  C   UNL     1      27.555   2.316  29.269  1.00  0.00     0.004 C 
ENDBRANCH   9  10
ENDBRANCH   8   9
ENDBRANCH   7   8
ENDBRANCH   1   7
TORSDOF 7
ENDMDL
MODEL 3
REMARK VINA RESULT:    -4.022      4.023      5.148
REMARK INTER + INTRA:          -6.432
REMARK INTER:                  -5.688
REMARK INTRA:                  -0.744
REMARK UNBOUND:                -0.764
REMARK SMILES CCCCCCCCC(=O)[O-]
REMARK SMILES IDX 6 1 7 2 8 3 9 4 10 5 11 6 5 7 4 8 3 9 2 10 1 11
REMARK H PARENT
REMARK Flexibility Score: inf
ROOT
ATOM      1  C   UNL     1      26.883  -0.116  29.138  1.00  0.00     0.000 C 
ENDROOT
BRANCH   1   2
ATOM      2  C   UNL     1      26.471  -0.933  30.369  1.00  0.00     0.006 C 
BRANCH   2   3
ATOM      3  C   UNL     1      27.569  -1.927  30.760  1.00  0.00     0.053 C 
BRANCH   3   4
ATOM      4  C   UNL     1      27.032  -3.323  30.773  1.00  0.00     0.041 C 
ATOM      5  O   UNL     1      27.820  -4.305  30.782  1.00  0.00    -0.550 OA
ATOM      6  O   UNL     1      25.661  -3.540  30.724  1.00  0.00    -0.550 OA
ENDBRANCH   3   4
ENDBRANCH   2   3
ENDBRANCH   1   2
BRANCH   1   7
ATOM      7  C   UNL     1      28.369  -0.316  28.816  1.00  0.00     0.000 C 
BRANCH   7   8
ATOM      8  C   UNL     1      29.180   0.942  29.163  1.00  0.00    -0.000 C 
BRANCH   8   9
ATOM      9  C   UNL     1      30.117   0.730  30.364  1.00  0.00    -0.000 C 
BRANCH   9  10
ATOM     10  C   UNL     1      29.505   1.214  31.684  1.00  0.00    -0.003 C 
ATOM     11  C   UNL     1      28.494   2.332  31.445  1.00  0.00     0.004 C 
ENDBRANCH   9  10
ENDBRANCH   8   9
ENDBRANCH   7   8
ENDBRANCH   1   7
TORSDOF 7
ENDMDL
MODEL 4
REMARK VINA RESULT:    -4.001      2.087      3.336
REMARK INTER + INTRA:          -6.402
REMARK INTER:                  -5.649
REMARK INTRA:                  -0.753
REMARK UNBOUND:                -0.764
REMARK SMILES CCCCCCCCC(=O)[O-]
REMARK SMILES IDX 6 1 7 2 8 3 9 4 10 5 11 6 5 7 4 8 3 9 2 10 1 11
REMARK H PARENT
REMARK Flexibility Score: inf
ROOT
ATOM      1  C   UNL     1      29.884   1.003  30.489  1.00  0.00     0.000 C 
ENDROOT
BRANCH   1   2
ATOM      2  C   UNL     1      29.052   1.495  31.680  1.00  0.00     0.006 C 
BRANCH   2   3
ATOM      3  C   UNL     1      28.019   2.536  31.236  1.00  0.00     0.053 C 
BRANCH   3   4
ATOM      4  C   UNL     1      28.430   3.904  31.680  1.00  0.00     0.041 C 
ATOM      5  O   UNL     1      29.325   4.044  32.554  1.00  0.00    -0.550 OA
ATOM      6  O   UNL     1      27.790   5.023  31.164  1.00  0.00    -0.550 OA
ENDBRANCH   3   4
ENDBRANCH   2   3
ENDBRANCH   1   2
BRANCH   1   7
ATOM      7  C   UNL     1      29.106   1.153  29.175  1.00  0.00     0.000 C 
BRANCH   7   8
ATOM      8  C   UNL     1      28.392  -0.156  28.807  1.00  0.00    -0.000 C 
BRANCH   8   9
ATOM      9  C   UNL     1      26.865  -0.061  28.961  1.00  0.00    -0.000 C 
BRANCH   9  10
ATOM     10  C   UNL     1      26.354  -0.763  30.226  1.00  0.00    -0.003 C 
ATOM     11  C   UNL     1      27.380  -1.763  30.752  1.00  0.00     0.004 C 
ENDBRANCH   9  10
ENDBRANCH   8   9
ENDBRANCH   7   8
ENDBRANCH   1   7
TORSDOF 7
ENDMDL
MODEL 5
REMARK VINA RESULT:    -3.935      2.625      4.714
REMARK INTER + INTRA:          -6.310
REMARK INTER:                  -5.681
REMARK INTRA:                  -0.629
REMARK UNBOUND:                -0.764
REMARK SMILES CCCCCCCCC(=O)[O-]
REMARK SMILES IDX 6 1 7 2 8 3 9 4 10 5 11 6 5 7 4 8 3 9 2 10 1 11
REMARK H PARENT
REMARK Flexibility Score: inf
ROOT
ATOM      1  C   UNL     1      27.003   1.039  31.397  1.00  0.00     0.000 C 
ENDROOT
BRANCH   1   2
ATOM      2  C   UNL     1      27.866  -0.091  31.971  1.00  0.00     0.006 C 
BRANCH   2   3
ATOM      3  C   UNL     1      29.351   0.283  31.941  1.00  0.00     0.053 C 
BRANCH   3   4
ATOM      4  C   UNL     1      29.985  -0.192  30.672  1.00  0.00     0.041 C 
ATOM      5  O   UNL     1      30.963   0.430  30.182  1.00  0.00    -0.550 OA
ATOM      6  O   UNL     1      29.464  -1.293  30.004  1.00  0.00    -0.550 OA
ENDBRANCH   3   4
ENDBRANCH   2   3
ENDBRANCH   1   2
BRANCH   1   7
ATOM      7  C   UNL     1      26.334   0.610  30.085  1.00  0.00     0.000 C 
BRANCH   7   8
ATOM      8  C   UNL     1      26.897   1.403  28.897  1.00  0.00    -0.000 C 
BRANCH   8   9
ATOM      9  C   UNL     1      27.744   2.609  29.337  1.00  0.00    -0.000 C 
BRANCH   9  10
ATOM     10  C   UNL     1      27.215   3.938  28.781  1.00  0.00    -0.003 C 
ATOM     11  C   UNL     1      27.568   5.100  29.706  1.00  0.00     0.004 C 
ENDBRANCH   9  10
ENDBRANCH   8   9
ENDBRANCH   7   8
ENDBRANCH   1   7
TORSDOF 7
ENDMDL
MODEL 6
REMARK VINA RESULT:    -3.924      4.084      5.788
REMARK INTER + INTRA:          -6.293
REMARK INTER:                  -5.740
REMARK INTRA:                  -0.553
REMARK UNBOUND:                -0.764
REMARK SMILES CCCCCCCCC(=O)[O-]
REMARK SMILES IDX 6 1 7 2 8 3 9 4 10 5 11 6 5 7 4 8 3 9 2 10 1 11
REMARK H PARENT
REMARK Flexibility Score: inf
ROOT
ATOM      1  C   UNL     1      30.018  -0.729  30.354  1.00  0.00     0.000 C 
ENDROOT
BRANCH   1   2
ATOM      2  C   UNL     1      29.045  -1.837  29.931  1.00  0.00     0.006 C 
BRANCH   2   3
ATOM      3  C   UNL     1      29.778  -3.169  29.746  1.00  0.00     0.053 C 
BRANCH   3   4
ATOM      4  C   UNL     1      28.848  -4.316  29.987  1.00  0.00     0.041 C 
ATOM      5  O   UNL     1      28.979  -5.385  29.334  1.00  0.00    -0.550 OA
ATOM      6  O   UNL     1      27.807  -4.187  30.896  1.00  0.00    -0.550 OA
ENDBRANCH   3   4
ENDBRANCH   2   3
ENDBRANCH   1   2
BRANCH   1   7
ATOM      7  C   UNL     1      29.414   0.140  31.464  1.00  0.00     0.000 C 
BRANCH   7   8
ATOM      8  C   UNL     1      27.962  -0.270  31.753  1.00  0.00    -0.000 C 
BRANCH   8   9
ATOM      9  C   UNL     1      26.948   0.808  31.335  1.00  0.00    -0.000 C 
BRANCH   9  10
ATOM     10  C   UNL     1      25.993   0.326  30.235  1.00  0.00    -0.003 C 
ATOM     11  C   UNL     1      26.539   0.660  28.849  1.00  0.00     0.004 C 
ENDBRANCH   9  10
ENDBRANCH   8   9
ENDBRANCH   7   8
ENDBRANCH   1   7
TORSDOF 7
ENDMDL
MODEL 7
REMARK VINA RESULT:    -3.892      2.927      4.324
REMARK INTER + INTRA:          -6.249
REMARK INTER:                  -5.645
REMARK INTRA:                  -0.604
REMARK UNBOUND:                -0.764
REMARK SMILES CCCCCCCCC(=O)[O-]
REMARK SMILES IDX 6 1 7 2 8 3 9 4 10 5 11 6 5 7 4 8 3 9 2 10 1 11
REMARK H PARENT
REMARK Flexibility Score: inf
ROOT
ATOM      1  C   UNL     1      29.177   1.189  29.098  1.00  0.00     0.000 C 
ENDROOT
BRANCH   1   2
ATOM      2  C   UNL     1      28.416  -0.082  28.699  1.00  0.00     0.006 C 
BRANCH   2   3
ATOM      3  C   UNL     1      26.903   0.126  28.813  1.00  0.00     0.053 C 
BRANCH   3   4
ATOM      4  C   UNL     1      26.383  -0.492  30.071  1.00  0.00     0.041 C 
ATOM      5  O   UNL     1      25.209  -0.253  30.456  1.00  0.00    -0.550 OA
ATOM      6  O   UNL     1      27.211  -1.294  30.846  1.00  0.00    -0.550 OA
ENDBRANCH   3   4
ENDBRANCH   2   3
ENDBRANCH   1   2
BRANCH   1   7
ATOM      7  C   UNL     1      29.946   0.981  30.409  1.00  0.00     0.000 C 
BRANCH   7   8
ATOM      8  C   UNL     1      29.188   1.599  31.593  1.00  0.00    -0.000 C 
BRANCH   8   9
ATOM      9  C   UNL     1      28.206   2.699  31.158  1.00  0.00    -0.000 C 
BRANCH   9  10
ATOM     10  C   UNL     1      28.490   4.047  31.835  1.00  0.00    -0.003 C 
ATOM     11  C   UNL     1      27.866   5.198  31.051  1.00  0.00     0.004 C 
ENDBRANCH   9  10
ENDBRANCH   8   9
ENDBRANCH   7   8
ENDBRANCH   1   7
TORSDOF 7
ENDMDL
MODEL 8
REMARK VINA RESULT:    -3.891      4.421      5.652
REMARK INTER + INTRA:          -6.247
REMARK INTER:                  -5.709
REMARK INTRA:                  -0.538
REMARK UNBOUND:                -0.764
REMARK SMILES CCCCCCCCC(=O)[O-]
REMARK SMILES IDX 6 1 7 2 8 3 9 4 10 5 11 6 5 7 4 8 3 9 2 10 1 11
REMARK H PARENT
REMARK Flexibility Score: inf
ROOT
ATOM      1  C   UNL     1      26.506  -0.948  30.386  1.00  0.00     0.000 C 
ENDROOT
BRANCH   1   2
ATOM      2  C   UNL     1      27.601  -1.966  30.728  1.00  0.00     0.006 C 
BRANCH   2   3
ATOM      3  C   UNL     1      27.027  -3.384  30.806  1.00  0.00     0.053 C 
BRANCH   3   4
ATOM      4  C   UNL     1      28.112  -4.399  30.638  1.00  0.00     0.041 C 
ATOM      5  O   UNL     1      28.178  -5.389  31.412  1.00  0.00    -0.550 OA
ATOM      6  O   UNL     1      29.080  -4.225  29.658  1.00  0.00    -0.550 OA
ENDBRANCH   3   4
ENDBRANCH   2   3
ENDBRANCH   1   2
BRANCH   1   7
ATOM      7  C   UNL     1      26.876  -0.143  29.134  1.00  0.00     0.000 C 
BRANCH   7   8
ATOM      8  C   UNL     1      28.385  -0.219  28.857  1.00  0.00    -0.000 C 
BRANCH   8   9
ATOM      9  C   UNL     1      29.141   1.026  29.347  1.00  0.00    -0.000 C 
BRANCH   9  10
ATOM     10  C   UNL     1      30.233   0.690  30.371  1.00  0.00    -0.003 C 
ATOM     11  C   UNL     1      29.714   0.843  31.798  1.00  0.00     0.004 C 
ENDBRANCH   9  10
ENDBRANCH   8   9
ENDBRANCH   7   8
ENDBRANCH   1   7
TORSDOF 7
ENDMDL
MODEL 9
REMARK VINA RESULT:    -3.838      1.881      2.936
REMARK INTER + INTRA:          -6.173
REMARK INTER:                  -5.592
REMARK INTRA:                  -0.581
REMARK UNBOUND:                -0.764
REMARK SMILES CCCCCCCCC(=O)[O-]
REMARK SMILES IDX 6 1 7 2 8 3 9 4 10 5 11 6 5 7 4 8 3 9 2 10 1 11
REMARK H PARENT
REMARK Flexibility Score: inf
ROOT
ATOM      1  C   UNL     1      29.148   1.771  31.723  1.00  0.00     0.000 C 
ENDROOT
BRANCH   1   2
ATOM      2  C   UNL     1      28.096   2.733  31.157  1.00  0.00     0.006 C 
BRANCH   2   3
ATOM      3  C   UNL     1      28.298   4.150  31.701  1.00  0.00     0.053 C 
BRANCH   3   4
ATOM      4  C   UNL     1      27.688   5.157  30.779  1.00  0.00     0.041 C 
ATOM      5  O   UNL     1      27.793   5.020  29.532  1.00  0.00    -0.550 OA
ATOM      6  O   UNL     1      27.045   6.274  31.297  1.00  0.00    -0.550 OA
ENDBRANCH   3   4
ENDBRANCH   2   3
ENDBRANCH   1   2
BRANCH   1   7
ATOM      7  C   UNL     1      29.831   0.980  30.601  1.00  0.00     0.000 C 
BRANCH   7   8
ATOM      8  C   UNL     1      29.109   1.192  29.262  1.00  0.00    -0.000 C 
BRANCH   8   9
ATOM      9  C   UNL     1      28.398  -0.078  28.765  1.00  0.00    -0.000 C 
BRANCH   9  10
ATOM     10  C   UNL     1      26.876  -0.013  28.949  1.00  0.00    -0.003 C 
ATOM     11  C   UNL     1      26.452  -0.676  30.256  1.00  0.00     0.004 C 
ENDBRANCH   9  10
ENDBRANCH   8   9
ENDBRANCH   7   8
ENDBRANCH   1   7
TORSDOF 7
ENDMDL
