MODEL 1
REMARK VINA RESULT:    -5.298      0.000      0.000
REMARK INTER + INTRA:          -6.754
REMARK INTER:                  -6.227
REMARK INTRA:                  -0.527
REMARK UNBOUND:                -0.527
REMARK SMILES CC1(C)CC[C@@]2(C(=O)[O-])CC[C@@]3(C)C(=CC[C@@H]4[C@]5(C)CC[C@H](O)[C@@](C)(CO)[C@@H]5CC[C@@]43C)[C@H]2C1
REMARK SMILES IDX 6 1 5 2 10 3 33 4 4 5 11 6 14 7 34 8 2 9 12 10 15 11 1 12
REMARK SMILES IDX 3 13 13 14 31 15 16 16 17 17 30 18 32 19 18 20 29 21 28 22
REMARK SMILES IDX 20 23 19 24 24 25 21 26 22 27 25 28 7 29 8 30 9 31 26 32
REMARK SMILES IDX 27 33 23 35
REMARK H PARENT 27 34 23 36
REMARK Flexibility Score: inf
ROOT
ATOM      1  C   UNL     1      -4.941 -55.224 -24.965  1.00  0.00     0.017 C 
ATOM      2  C   UNL     1      -6.134 -54.267 -24.338  1.00  0.00     0.014 C 
ATOM      3  C   UNL     1      -5.603 -56.687 -25.117  1.00  0.00     0.014 C 
ATOM      4  C   UNL     1      -4.281 -54.783 -26.452  1.00  0.00     0.028 C 
ATOM      5  C   UNL     1      -6.263 -52.660 -24.570  1.00  0.00     0.007 C 
ATOM      6  C   UNL     1      -4.855 -57.662 -25.980  1.00  0.00     0.013 C 
ATOM      7  C   UNL     1      -4.065 -55.987 -27.633  1.00  0.00    -0.064 C 
ATOM      8  C   UNL     1      -4.886 -53.291 -26.821  1.00  0.00     0.015 C 
ATOM      9  C   UNL     1      -5.838 -52.244 -26.028  1.00  0.00    -0.035 C 
ATOM     10  C   UNL     1      -4.918 -57.324 -27.475  1.00  0.00    -0.006 C 
ATOM     11  C   UNL     1      -3.164 -56.031 -28.715  1.00  0.00    -0.027 C 
ATOM     12  C   UNL     1      -5.371 -50.759 -25.860  1.00  0.00     0.011 C 
ATOM     13  C   UNL     1      -7.085 -52.029 -26.977  1.00  0.00     0.011 C 
ATOM     14  C   UNL     1      -6.362 -56.905 -27.968  1.00  0.00     0.017 C 
ATOM     15  C   UNL     1      -4.369 -58.615 -28.413  1.00  0.00    -0.020 C 
ATOM     16  C   UNL     1      -3.636 -56.707 -29.999  1.00  0.00     0.032 C 
ATOM     17  C   UNL     1      -3.736 -58.279 -29.822  1.00  0.00     0.006 C 
ATOM     18  C   UNL     1      -5.546 -59.604 -28.697  1.00  0.00     0.008 C 
ATOM     19  C   UNL     1      -3.313 -59.441 -27.610  1.00  0.00     0.012 C 
ATOM     20  C   UNL     1      -4.269 -59.018 -31.193  1.00  0.00    -0.025 C 
ATOM     21  C   UNL     1      -5.196 -60.831 -29.574  1.00  0.00     0.005 C 
ATOM     22  C   UNL     1      -4.448 -60.553 -30.914  1.00  0.00     0.006 C 
ATOM     23  C   UNL     1      -5.538 -58.435 -31.826  1.00  0.00     0.010 C 
ATOM     24  C   UNL     1      -3.141 -58.843 -32.299  1.00  0.00     0.012 C 
ATOM     25  C   UNL     1      -4.884 -61.420 -32.151  1.00  0.00     0.020 C 
ATOM     26  C   UNL     1      -6.258 -59.343 -32.847  1.00  0.00     0.033 C 
ATOM     27  C   UNL     1      -5.479 -60.569 -33.380  1.00  0.00     0.123 C 
ATOM     28  C   UNL     1      -5.936 -62.544 -31.860  1.00  0.00     0.017 C 
ENDROOT
BRANCH   1  29
ATOM     29  C   UNL     1      -3.666 -55.333 -23.985  1.00  0.00     0.048 C 
ATOM     30  O   UNL     1      -2.476 -55.051 -24.494  1.00  0.00    -0.550 OA
ATOM     31  O   UNL     1      -3.828 -56.202 -22.873  1.00  0.00    -0.550 OA
ENDBRANCH   1  29
BRANCH  25  32
ATOM     32  C   UNL     1      -3.617 -62.155 -32.709  1.00  0.00     0.165 C 
BRANCH  32  33
ATOM     33  O   UNL     1      -3.656 -62.057 -34.152  1.00  0.00    -0.396 OA
ATOM     34  H   UNL     1      -4.432 -62.608 -34.505  1.00  0.00     0.210 HD
ENDBRANCH  32  33
ENDBRANCH  25  32
BRANCH  27  35
ATOM     35  O   UNL     1      -6.309 -61.336 -34.197  1.00  0.00    -0.392 OA
ATOM     36  H   UNL     1      -6.996 -60.715 -34.594  1.00  0.00     0.210 HD
ENDBRANCH  27  35
TORSDOF 4
ENDMDL
MODEL 2
REMARK VINA RESULT:    -5.014      3.357     10.289
REMARK INTER + INTRA:          -6.420
REMARK INTER:                  -5.871
REMARK INTRA:                  -0.550
REMARK UNBOUND:                -0.527
REMARK SMILES CC1(C)CC[C@@]2(C(=O)[O-])CC[C@@]3(C)C(=CC[C@@H]4[C@]5(C)CC[C@H](O)[C@@](C)(CO)[C@@H]5CC[C@@]43C)[C@H]2C1
REMARK SMILES IDX 6 1 5 2 10 3 33 4 4 5 11 6 14 7 34 8 2 9 12 10 15 11 1 12
REMARK SMILES IDX 3 13 13 14 31 15 16 16 17 17 30 18 32 19 18 20 29 21 28 22
REMARK SMILES IDX 20 23 19 24 24 25 21 26 22 27 25 28 7 29 8 30 9 31 26 32
REMARK SMILES IDX 27 33 23 35
REMARK H PARENT 27 34 23 36
REMARK Flexibility Score: inf
ROOT
ATOM      1  C   UNL     1      -4.663 -57.013 -25.909  1.00  0.00     0.017 C 
ATOM      2  C   UNL     1      -3.472 -57.844 -26.699  1.00  0.00     0.014 C 
ATOM      3  C   UNL     1      -3.919 -56.255 -24.693  1.00  0.00     0.014 C 
ATOM      4  C   UNL     1      -5.540 -55.873 -26.787  1.00  0.00     0.028 C 
ATOM      5  C   UNL     1      -3.493 -58.231 -28.281  1.00  0.00     0.007 C 
ATOM      6  C   UNL     1      -4.698 -55.159 -24.026  1.00  0.00     0.013 C 
ATOM      7  C   UNL     1      -5.818 -54.349 -26.089  1.00  0.00    -0.064 C 
ATOM      8  C   UNL     1      -5.100 -56.046 -28.370  1.00  0.00     0.015 C 
ATOM      9  C   UNL     1      -4.133 -57.087 -29.153  1.00  0.00    -0.035 C 
ATOM     10  C   UNL     1      -4.855 -53.906 -24.898  1.00  0.00    -0.006 C 
ATOM     11  C   UNL     1      -6.846 -53.418 -26.343  1.00  0.00    -0.027 C 
ATOM     12  C   UNL     1      -4.683 -57.850 -30.405  1.00  0.00     0.011 C 
ATOM     13  C   UNL     1      -3.038 -56.181 -29.849  1.00  0.00     0.011 C 
ATOM     14  C   UNL     1      -3.522 -53.479 -25.636  1.00  0.00     0.017 C 
ATOM     15  C   UNL     1      -5.424 -52.601 -23.991  1.00  0.00    -0.020 C 
ATOM     16  C   UNL     1      -6.495 -51.937 -26.250  1.00  0.00     0.032 C 
ATOM     17  C   UNL     1      -6.257 -51.491 -24.747  1.00  0.00     0.006 C 
ATOM     18  C   UNL     1      -4.224 -51.855 -23.322  1.00  0.00     0.008 C 
ATOM     19  C   UNL     1      -6.303 -53.123 -22.809  1.00  0.00     0.012 C 
ATOM     20  C   UNL     1      -5.854 -49.900 -24.635  1.00  0.00    -0.025 C 
ATOM     21  C   UNL     1      -4.593 -50.614 -22.475  1.00  0.00     0.005 C 
ATOM     22  C   UNL     1      -5.527 -49.555 -23.139  1.00  0.00     0.006 C 
ATOM     23  C   UNL     1      -4.724 -49.422 -25.555  1.00  0.00     0.010 C 
ATOM     24  C   UNL     1      -7.125 -49.053 -25.073  1.00  0.00     0.012 C 
ATOM     25  C   UNL     1      -5.192 -48.047 -22.848  1.00  0.00     0.020 C 
ATOM     26  C   UNL     1      -4.076 -48.071 -25.180  1.00  0.00     0.033 C 
ATOM     27  C   UNL     1      -4.825 -47.186 -24.156  1.00  0.00     0.123 C 
ATOM     28  C   UNL     1      -4.031 -47.790 -21.827  1.00  0.00     0.017 C 
ENDROOT
BRANCH   1  29
ATOM     29  C   UNL     1      -5.788 -57.990 -25.296  1.00  0.00     0.048 C 
ATOM     30  O   UNL     1      -5.520 -59.287 -25.260  1.00  0.00    -0.550 OA
ATOM     31  O   UNL     1      -7.118 -57.492 -25.346  1.00  0.00    -0.550 OA
ENDBRANCH   1  29
BRANCH  25  32
ATOM     32  C   UNL     1      -6.462 -47.370 -22.228  1.00  0.00     0.165 C 
BRANCH  32  33
ATOM     33  O   UNL     1      -6.752 -46.187 -23.010  1.00  0.00    -0.396 OA
ATOM     34  H   UNL     1      -7.757 -46.060 -23.066  1.00  0.00     0.210 HD
ENDBRANCH  32  33
ENDBRANCH  25  32
BRANCH  27  35
ATOM     35  O   UNL     1      -4.054 -46.066 -23.848  1.00  0.00    -0.392 OA
ATOM     36  H   UNL     1      -4.685 -45.286 -23.743  1.00  0.00     0.210 HD
ENDBRANCH  27  35
TORSDOF 4
ENDMDL
MODEL 3
REMARK VINA RESULT:    -4.912      1.843      3.579
REMARK INTER + INTRA:          -6.301
REMARK INTER:                  -5.812
REMARK INTRA:                  -0.488
REMARK UNBOUND:                -0.527
REMARK SMILES CC1(C)CC[C@@]2(C(=O)[O-])CC[C@@]3(C)C(=CC[C@@H]4[C@]5(C)CC[C@H](O)[C@@](C)(CO)[C@@H]5CC[C@@]43C)[C@H]2C1
REMARK SMILES IDX 6 1 5 2 10 3 33 4 4 5 11 6 14 7 34 8 2 9 12 10 15 11 1 12
REMARK SMILES IDX 3 13 13 14 31 15 16 16 17 17 30 18 32 19 18 20 29 21 28 22
REMARK SMILES IDX 20 23 19 24 24 25 21 26 22 27 25 28 7 29 8 30 9 31 26 32
REMARK SMILES IDX 27 33 23 35
REMARK H PARENT 27 34 23 36
REMARK Flexibility Score: inf
ROOT
ATOM      1  C   UNL     1      -4.123 -55.097 -26.065  1.00  0.00     0.017 C 
ATOM      2  C   UNL     1      -3.035 -53.853 -26.006  1.00  0.00     0.014 C 
ATOM      3  C   UNL     1      -4.848 -54.962 -27.500  1.00  0.00     0.014 C 
ATOM      4  C   UNL     1      -3.529 -56.667 -25.916  1.00  0.00     0.028 C 
ATOM      5  C   UNL     1      -1.648 -53.863 -25.154  1.00  0.00     0.007 C 
ATOM      6  C   UNL     1      -5.630 -56.159 -27.958  1.00  0.00     0.013 C 
ATOM      7  C   UNL     1      -4.091 -57.853 -26.996  1.00  0.00    -0.064 C 
ATOM      8  C   UNL     1      -1.934 -56.539 -25.506  1.00  0.00     0.015 C 
ATOM      9  C   UNL     1      -0.965 -55.282 -25.166  1.00  0.00    -0.035 C 
ATOM     10  C   UNL     1      -4.745 -57.348 -28.358  1.00  0.00    -0.006 C 
ATOM     11  C   UNL     1      -4.151 -59.253 -26.840  1.00  0.00    -0.027 C 
ATOM     12  C   UNL     1      -0.131 -55.295 -23.840  1.00  0.00     0.011 C 
ATOM     13  C   UNL     1       0.208 -55.374 -26.223  1.00  0.00     0.011 C 
ATOM     14  C   UNL     1      -3.498 -56.937 -29.241  1.00  0.00     0.017 C 
ATOM     15  C   UNL     1      -5.639 -58.521 -29.179  1.00  0.00    -0.020 C 
ATOM     16  C   UNL     1      -3.919 -60.111 -28.080  1.00  0.00     0.032 C 
ATOM     17  C   UNL     1      -5.143 -60.018 -29.085  1.00  0.00     0.006 C 
ATOM     18  C   UNL     1      -5.688 -58.181 -30.704  1.00  0.00     0.008 C 
ATOM     19  C   UNL     1      -7.125 -58.488 -28.695  1.00  0.00     0.012 C 
ATOM     20  C   UNL     1      -4.895 -60.920 -30.439  1.00  0.00    -0.025 C 
ATOM     21  C   UNL     1      -6.456 -59.189 -31.593  1.00  0.00     0.005 C 
ATOM     22  C   UNL     1      -6.090 -60.697 -31.432  1.00  0.00     0.006 C 
ATOM     23  C   UNL     1      -3.555 -60.711 -31.154  1.00  0.00     0.010 C 
ATOM     24  C   UNL     1      -4.892 -62.448 -30.001  1.00  0.00     0.012 C 
ATOM     25  C   UNL     1      -6.042 -61.549 -32.752  1.00  0.00     0.020 C 
ATOM     26  C   UNL     1      -3.480 -61.230 -32.607  1.00  0.00     0.033 C 
ATOM     27  C   UNL     1      -4.601 -62.187 -33.077  1.00  0.00     0.123 C 
ATOM     28  C   UNL     1      -6.486 -60.808 -34.060  1.00  0.00     0.017 C 
ENDROOT
BRANCH   1  29
ATOM     29  C   UNL     1      -5.241 -54.987 -24.909  1.00  0.00     0.048 C 
ATOM     30  O   UNL     1      -5.524 -56.085 -24.224  1.00  0.00    -0.550 OA
ATOM     31  O   UNL     1      -6.178 -53.931 -25.069  1.00  0.00    -0.550 OA
ENDBRANCH   1  29
BRANCH  25  32
ATOM     32  C   UNL     1      -7.024 -62.760 -32.594  1.00  0.00     0.165 C 
BRANCH  32  33
ATOM     33  O   UNL     1      -6.888 -63.589 -33.771  1.00  0.00    -0.396 OA
ATOM     34  H   UNL     1      -6.086 -64.201 -33.660  1.00  0.00     0.210 HD
ENDBRANCH  32  33
ENDBRANCH  25  32
BRANCH  27  35
ATOM     35  O   UNL     1      -4.444 -62.466 -34.434  1.00  0.00    -0.392 OA
ATOM     36  H   UNL     1      -5.182 -63.102 -34.697  1.00  0.00     0.210 HD
ENDBRANCH  27  35
TORSDOF 4
ENDMDL
MODEL 4
REMARK VINA RESULT:    -4.885      2.257      4.520
REMARK INTER + INTRA:          -6.269
REMARK INTER:                  -5.709
REMARK INTRA:                  -0.560
REMARK UNBOUND:                -0.527
REMARK SMILES CC1(C)CC[C@@]2(C(=O)[O-])CC[C@@]3(C)C(=CC[C@@H]4[C@]5(C)CC[C@H](O)[C@@](C)(CO)[C@@H]5CC[C@@]43C)[C@H]2C1
REMARK SMILES IDX 6 1 5 2 10 3 33 4 4 5 11 6 14 7 34 8 2 9 12 10 15 11 1 12
REMARK SMILES IDX 3 13 13 14 31 15 16 16 17 17 30 18 32 19 18 20 29 21 28 22
REMARK SMILES IDX 20 23 19 24 24 25 21 26 22 27 25 28 7 29 8 30 9 31 26 32
REMARK SMILES IDX 27 33 23 35
REMARK H PARENT 27 34 23 36
REMARK Flexibility Score: inf
ROOT
ATOM      1  C   UNL     1      -4.936 -56.247 -23.402  1.00  0.00     0.017 C 
ATOM      2  C   UNL     1      -4.216 -56.855 -22.043  1.00  0.00     0.014 C 
ATOM      3  C   UNL     1      -3.722 -55.884 -24.402  1.00  0.00     0.014 C 
ATOM      4  C   UNL     1      -6.023 -57.236 -24.224  1.00  0.00     0.028 C 
ATOM      5  C   UNL     1      -4.895 -57.930 -21.026  1.00  0.00     0.007 C 
ATOM      6  C   UNL     1      -4.100 -55.640 -25.834  1.00  0.00     0.013 C 
ATOM      7  C   UNL     1      -5.905 -57.342 -25.916  1.00  0.00    -0.064 C 
ATOM      8  C   UNL     1      -6.270 -58.568 -23.277  1.00  0.00     0.015 C 
ATOM      9  C   UNL     1      -5.763 -58.994 -21.796  1.00  0.00    -0.035 C 
ATOM     10  C   UNL     1      -4.520 -56.914 -26.579  1.00  0.00    -0.006 C 
ATOM     11  C   UNL     1      -6.892 -57.677 -26.866  1.00  0.00    -0.027 C 
ATOM     12  C   UNL     1      -6.816 -59.446 -20.727  1.00  0.00     0.011 C 
ATOM     13  C   UNL     1      -4.991 -60.358 -22.007  1.00  0.00     0.011 C 
ATOM     14  C   UNL     1      -3.575 -58.151 -26.297  1.00  0.00     0.017 C 
ATOM     15  C   UNL     1      -4.597 -56.648 -28.244  1.00  0.00    -0.020 C 
ATOM     16  C   UNL     1      -6.447 -58.452 -28.103  1.00  0.00     0.032 C 
ATOM     17  C   UNL     1      -5.597 -57.539 -29.083  1.00  0.00     0.006 C 
ATOM     18  C   UNL     1      -3.188 -56.868 -28.883  1.00  0.00     0.008 C 
ATOM     19  C   UNL     1      -4.955 -55.152 -28.524  1.00  0.00     0.012 C 
ATOM     20  C   UNL     1      -5.089 -58.370 -30.409  1.00  0.00    -0.025 C 
ATOM     21  C   UNL     1      -3.109 -56.683 -30.417  1.00  0.00     0.005 C 
ATOM     22  C   UNL     1      -4.167 -57.442 -31.277  1.00  0.00     0.006 C 
ATOM     23  C   UNL     1      -4.400 -59.714 -30.142  1.00  0.00     0.010 C 
ATOM     24  C   UNL     1      -6.377 -58.733 -31.267  1.00  0.00     0.012 C 
ATOM     25  C   UNL     1      -3.655 -58.065 -32.626  1.00  0.00     0.020 C 
ATOM     26  C   UNL     1      -3.577 -60.292 -31.315  1.00  0.00     0.033 C 
ATOM     27  C   UNL     1      -3.796 -59.665 -32.712  1.00  0.00     0.123 C 
ATOM     28  C   UNL     1      -2.168 -57.746 -33.004  1.00  0.00     0.017 C 
ENDROOT
BRANCH   1  29
ATOM     29  C   UNL     1      -5.775 -54.904 -23.101  1.00  0.00     0.048 C 
ATOM     30  O   UNL     1      -7.002 -54.825 -23.593  1.00  0.00    -0.550 OA
ATOM     31  O   UNL     1      -4.995 -53.750 -22.822  1.00  0.00    -0.550 OA
ENDBRANCH   1  29
BRANCH  25  32
ATOM     32  C   UNL     1      -4.525 -57.492 -33.796  1.00  0.00     0.165 C 
BRANCH  32  33
ATOM     33  O   UNL     1      -5.071 -58.616 -34.525  1.00  0.00    -0.396 OA
ATOM     34  H   UNL     1      -5.308 -59.356 -33.873  1.00  0.00     0.210 HD
ENDBRANCH  32  33
ENDBRANCH  25  32
BRANCH  27  35
ATOM     35  O   UNL     1      -2.901 -60.223 -33.624  1.00  0.00    -0.392 OA
ATOM     36  H   UNL     1      -2.177 -60.681 -33.093  1.00  0.00     0.210 HD
ENDBRANCH  27  35
TORSDOF 4
ENDMDL
MODEL 5
REMARK VINA RESULT:    -4.880      3.144      9.369
REMARK INTER + INTRA:          -6.263
REMARK INTER:                  -5.746
REMARK INTRA:                  -0.517
REMARK UNBOUND:                -0.527
REMARK SMILES CC1(C)CC[C@@]2(C(=O)[O-])CC[C@@]3(C)C(=CC[C@@H]4[C@]5(C)CC[C@H](O)[C@@](C)(CO)[C@@H]5CC[C@@]43C)[C@H]2C1
REMARK SMILES IDX 6 1 5 2 10 3 33 4 4 5 11 6 14 7 34 8 2 9 12 10 15 11 1 12
REMARK SMILES IDX 3 13 13 14 31 15 16 16 17 17 30 18 32 19 18 20 29 21 28 22
REMARK SMILES IDX 20 23 19 24 24 25 21 26 22 27 25 28 7 29 8 30 9 31 26 32
REMARK SMILES IDX 27 33 23 35
REMARK H PARENT 27 34 23 36
REMARK Flexibility Score: inf
ROOT
ATOM      1  C   UNL     1      -5.998 -61.993 -32.990  1.00  0.00     0.017 C 
ATOM      2  C   UNL     1      -5.809 -63.468 -33.710  1.00  0.00     0.014 C 
ATOM      3  C   UNL     1      -6.988 -62.251 -31.742  1.00  0.00     0.014 C 
ATOM      4  C   UNL     1      -4.617 -61.215 -32.419  1.00  0.00     0.028 C 
ATOM      5  C   UNL     1      -4.498 -63.936 -34.555  1.00  0.00     0.007 C 
ATOM      6  C   UNL     1      -7.052 -61.157 -30.715  1.00  0.00     0.013 C 
ATOM      7  C   UNL     1      -4.658 -60.521 -30.868  1.00  0.00    -0.064 C 
ATOM      8  C   UNL     1      -3.320 -62.087 -32.956  1.00  0.00     0.015 C 
ATOM      9  C   UNL     1      -3.167 -63.382 -33.922  1.00  0.00    -0.035 C 
ATOM     10  C   UNL     1      -5.780 -61.044 -29.865  1.00  0.00    -0.006 C 
ATOM     11  C   UNL     1      -3.891 -59.465 -30.336  1.00  0.00    -0.027 C 
ATOM     12  C   UNL     1      -2.185 -63.318 -35.140  1.00  0.00     0.011 C 
ATOM     13  C   UNL     1      -2.429 -64.465 -33.036  1.00  0.00     0.011 C 
ATOM     14  C   UNL     1      -5.221 -62.441 -29.376  1.00  0.00     0.017 C 
ATOM     15  C   UNL     1      -6.033 -60.052 -28.523  1.00  0.00    -0.020 C 
ATOM     16  C   UNL     1      -3.519 -59.537 -28.859  1.00  0.00     0.032 C 
ATOM     17  C   UNL     1      -4.781 -59.288 -27.932  1.00  0.00     0.006 C 
ATOM     18  C   UNL     1      -6.618 -60.893 -27.343  1.00  0.00     0.008 C 
ATOM     19  C   UNL     1      -7.121 -58.981 -28.854  1.00  0.00     0.012 C 
ATOM     20  C   UNL     1      -4.399 -59.388 -26.334  1.00  0.00    -0.025 C 
ATOM     21  C   UNL     1      -6.877 -60.117 -26.029  1.00  0.00     0.005 C 
ATOM     22  C   UNL     1      -5.709 -59.241 -25.481  1.00  0.00     0.006 C 
ATOM     23  C   UNL     1      -3.615 -60.634 -25.904  1.00  0.00     0.010 C 
ATOM     24  C   UNL     1      -3.445 -58.164 -25.994  1.00  0.00     0.012 C 
ATOM     25  C   UNL     1      -5.506 -59.241 -23.922  1.00  0.00     0.020 C 
ATOM     26  C   UNL     1      -3.607 -60.933 -24.388  1.00  0.00     0.033 C 
ATOM     27  C   UNL     1      -4.079 -59.805 -23.440  1.00  0.00     0.123 C 
ATOM     28  C   UNL     1      -6.579 -60.028 -23.095  1.00  0.00     0.017 C 
ENDROOT
BRANCH   1  29
ATOM     29  C   UNL     1      -6.681 -60.914 -33.974  1.00  0.00     0.048 C 
ATOM     30  O   UNL     1      -7.124 -61.347 -35.145  1.00  0.00    -0.550 OA
ATOM     31  O   UNL     1      -6.284 -59.566 -33.765  1.00  0.00    -0.550 OA
ENDBRANCH   1  29
BRANCH  25  32
ATOM     32  C   UNL     1      -5.578 -57.760 -23.415  1.00  0.00     0.165 C 
BRANCH  32  33
ATOM     33  O   UNL     1      -4.310 -57.450 -22.792  1.00  0.00    -0.396 OA
ATOM     34  H   UNL     1      -4.269 -57.889 -21.878  1.00  0.00     0.210 HD
ENDBRANCH  32  33
ENDBRANCH  25  32
BRANCH  27  35
ATOM     35  O   UNL     1      -4.116 -60.277 -22.129  1.00  0.00    -0.392 OA
ATOM     36  H   UNL     1      -3.167 -60.291 -21.787  1.00  0.00     0.210 HD
ENDBRANCH  27  35
TORSDOF 4
ENDMDL
MODEL 6
REMARK VINA RESULT:    -4.852      3.473      6.426
REMARK INTER + INTRA:          -6.231
REMARK INTER:                  -5.703
REMARK INTRA:                  -0.528
REMARK UNBOUND:                -0.527
REMARK SMILES CC1(C)CC[C@@]2(C(=O)[O-])CC[C@@]3(C)C(=CC[C@@H]4[C@]5(C)CC[C@H](O)[C@@](C)(CO)[C@@H]5CC[C@@]43C)[C@H]2C1
REMARK SMILES IDX 6 1 5 2 10 3 33 4 4 5 11 6 14 7 34 8 2 9 12 10 15 11 1 12
REMARK SMILES IDX 3 13 13 14 31 15 16 16 17 17 30 18 32 19 18 20 29 21 28 22
REMARK SMILES IDX 20 23 19 24 24 25 21 26 22 27 25 28 7 29 8 30 9 31 26 32
REMARK SMILES IDX 27 33 23 35
REMARK H PARENT 27 34 23 36
REMARK Flexibility Score: inf
ROOT
ATOM      1  C   UNL     1      -6.125 -49.385 -22.737  1.00  0.00     0.017 C 
ATOM      2  C   UNL     1      -6.291 -47.802 -23.182  1.00  0.00     0.014 C 
ATOM      3  C   UNL     1      -7.124 -50.207 -23.701  1.00  0.00     0.014 C 
ATOM      4  C   UNL     1      -4.592 -50.076 -22.850  1.00  0.00     0.028 C 
ATOM      5  C   UNL     1      -5.137 -46.662 -23.035  1.00  0.00     0.007 C 
ATOM      6  C   UNL     1      -6.918 -51.693 -23.750  1.00  0.00     0.013 C 
ATOM      7  C   UNL     1      -4.445 -51.616 -23.554  1.00  0.00    -0.064 C 
ATOM      8  C   UNL     1      -3.539 -48.850 -23.195  1.00  0.00     0.015 C 
ATOM      9  C   UNL     1      -3.704 -47.242 -23.334  1.00  0.00    -0.035 C 
ATOM     10  C   UNL     1      -5.639 -52.107 -24.489  1.00  0.00    -0.006 C 
ATOM     11  C   UNL     1      -3.447 -52.594 -23.374  1.00  0.00    -0.027 C 
ATOM     12  C   UNL     1      -2.755 -46.300 -22.518  1.00  0.00     0.011 C 
ATOM     13  C   UNL     1      -3.217 -46.909 -24.802  1.00  0.00     0.011 C 
ATOM     14  C   UNL     1      -5.406 -51.315 -25.839  1.00  0.00     0.017 C 
ATOM     15  C   UNL     1      -5.634 -53.763 -24.814  1.00  0.00    -0.020 C 
ATOM     16  C   UNL     1      -3.075 -53.454 -24.577  1.00  0.00     0.032 C 
ATOM     17  C   UNL     1      -4.230 -54.481 -24.934  1.00  0.00     0.006 C 
ATOM     18  C   UNL     1      -6.374 -54.043 -26.161  1.00  0.00     0.008 C 
ATOM     19  C   UNL     1      -6.455 -54.519 -23.720  1.00  0.00     0.012 C 
ATOM     20  C   UNL     1      -3.853 -55.398 -26.247  1.00  0.00    -0.025 C 
ATOM     21  C   UNL     1      -6.426 -55.525 -26.605  1.00  0.00     0.005 C 
ATOM     22  C   UNL     1      -5.078 -56.311 -26.608  1.00  0.00     0.006 C 
ATOM     23  C   UNL     1      -3.366 -54.637 -27.486  1.00  0.00     0.010 C 
ATOM     24  C   UNL     1      -2.638 -56.338 -25.839  1.00  0.00     0.012 C 
ATOM     25  C   UNL     1      -4.853 -57.307 -27.802  1.00  0.00     0.020 C 
ATOM     26  C   UNL     1      -3.400 -55.424 -28.815  1.00  0.00     0.033 C 
ATOM     27  C   UNL     1      -3.584 -56.957 -28.727  1.00  0.00     0.123 C 
ATOM     28  C   UNL     1      -6.062 -57.481 -28.783  1.00  0.00     0.017 C 
ENDROOT
BRANCH   1  29
ATOM     29  C   UNL     1      -6.559 -49.640 -21.206  1.00  0.00     0.048 C 
ATOM     30  O   UNL     1      -7.054 -48.613 -20.530  1.00  0.00    -0.550 OA
ATOM     31  O   UNL     1      -5.911 -50.728 -20.563  1.00  0.00    -0.550 OA
ENDBRANCH   1  29
BRANCH  25  32
ATOM     32  C   UNL     1      -4.575 -58.732 -27.210  1.00  0.00     0.165 C 
BRANCH  32  33
ATOM     33  O   UNL     1      -3.352 -59.222 -27.807  1.00  0.00    -0.396 OA
ATOM     34  H   UNL     1      -2.700 -59.478 -27.073  1.00  0.00     0.210 HD
ENDBRANCH  32  33
ENDBRANCH  25  32
BRANCH  27  35
ATOM     35  O   UNL     1      -3.705 -57.492 -30.009  1.00  0.00    -0.392 OA
ATOM     36  H   UNL     1      -4.026 -58.443 -29.908  1.00  0.00     0.210 HD
ENDBRANCH  27  35
TORSDOF 4
ENDMDL
MODEL 7
REMARK VINA RESULT:    -4.813      4.366      8.897
REMARK INTER + INTRA:          -6.185
REMARK INTER:                  -5.783
REMARK INTRA:                  -0.402
REMARK UNBOUND:                -0.527
REMARK SMILES CC1(C)CC[C@@]2(C(=O)[O-])CC[C@@]3(C)C(=CC[C@@H]4[C@]5(C)CC[C@H](O)[C@@](C)(CO)[C@@H]5CC[C@@]43C)[C@H]2C1
REMARK SMILES IDX 6 1 5 2 10 3 33 4 4 5 11 6 14 7 34 8 2 9 12 10 15 11 1 12
REMARK SMILES IDX 3 13 13 14 31 15 16 16 17 17 30 18 32 19 18 20 29 21 28 22
REMARK SMILES IDX 20 23 19 24 24 25 21 26 22 27 25 28 7 29 8 30 9 31 26 32
REMARK SMILES IDX 27 33 23 35
REMARK H PARENT 27 34 23 36
REMARK Flexibility Score: inf
ROOT
ATOM      1  C   UNL     1      -5.496 -62.957 -25.112  1.00  0.00     0.017 C 
ATOM      2  C   UNL     1      -6.616 -64.006 -24.497  1.00  0.00     0.014 C 
ATOM      3  C   UNL     1      -6.321 -61.982 -26.098  1.00  0.00     0.014 C 
ATOM      4  C   UNL     1      -4.633 -62.004 -24.023  1.00  0.00     0.028 C 
ATOM      5  C   UNL     1      -6.514 -64.741 -23.047  1.00  0.00     0.007 C 
ATOM      6  C   UNL     1      -5.618 -60.724 -26.519  1.00  0.00     0.013 C 
ATOM      7  C   UNL     1      -4.451 -60.348 -24.361  1.00  0.00    -0.064 C 
ATOM      8  C   UNL     1      -5.000 -62.554 -22.509  1.00  0.00     0.015 C 
ATOM      9  C   UNL     1      -5.888 -63.794 -21.956  1.00  0.00    -0.035 C 
ATOM     10  C   UNL     1      -5.480 -59.696 -25.389  1.00  0.00    -0.006 C 
ATOM     11  C   UNL     1      -3.454 -59.448 -23.933  1.00  0.00    -0.027 C 
ATOM     12  C   UNL     1      -5.255 -64.792 -20.929  1.00  0.00     0.011 C 
ATOM     13  C   UNL     1      -6.991 -63.127 -21.038  1.00  0.00     0.011 C 
ATOM     14  C   UNL     1      -6.798 -59.517 -24.533  1.00  0.00     0.017 C 
ATOM     15  C   UNL     1      -5.005 -58.192 -25.991  1.00  0.00    -0.020 C 
ATOM     16  C   UNL     1      -3.871 -58.004 -23.673  1.00  0.00     0.032 C 
ATOM     17  C   UNL     1      -4.190 -57.241 -25.026  1.00  0.00     0.006 C 
ATOM     18  C   UNL     1      -6.263 -57.376 -26.434  1.00  0.00     0.008 C 
ATOM     19  C   UNL     1      -4.154 -58.386 -27.287  1.00  0.00     0.012 C 
ATOM     20  C   UNL     1      -4.666 -55.689 -24.758  1.00  0.00    -0.025 C 
ATOM     21  C   UNL     1      -5.983 -55.957 -26.985  1.00  0.00     0.005 C 
ATOM     22  C   UNL     1      -5.069 -55.031 -26.125  1.00  0.00     0.006 C 
ATOM     23  C   UNL     1      -5.776 -55.492 -23.719  1.00  0.00     0.010 C 
ATOM     24  C   UNL     1      -3.415 -54.900 -24.177  1.00  0.00     0.012 C 
ATOM     25  C   UNL     1      -5.480 -53.515 -26.052  1.00  0.00     0.020 C 
ATOM     26  C   UNL     1      -6.496 -54.126 -23.755  1.00  0.00     0.033 C 
ATOM     27  C   UNL     1      -5.829 -52.994 -24.572  1.00  0.00     0.123 C 
ATOM     28  C   UNL     1      -6.692 -53.093 -26.951  1.00  0.00     0.017 C 
ENDROOT
BRANCH   1  29
ATOM     29  C   UNL     1      -4.356 -63.711 -25.966  1.00  0.00     0.048 C 
ATOM     30  O   UNL     1      -4.356 -65.035 -25.953  1.00  0.00    -0.550 OA
ATOM     31  O   UNL     1      -3.178 -62.954 -26.206  1.00  0.00    -0.550 OA
ENDBRANCH   1  29
BRANCH  25  32
ATOM     32  C   UNL     1      -4.266 -52.651 -26.539  1.00  0.00     0.165 C 
BRANCH  32  33
ATOM     33  O   UNL     1      -4.670 -51.263 -26.485  1.00  0.00    -0.396 OA
ATOM     34  H   UNL     1      -3.857 -50.684 -26.301  1.00  0.00     0.210 HD
ENDBRANCH  32  33
ENDBRANCH  25  32
BRANCH  27  35
ATOM     35  O   UNL     1      -6.660 -51.874 -24.591  1.00  0.00    -0.392 OA
ATOM     36  H   UNL     1      -7.596 -52.198 -24.777  1.00  0.00     0.210 HD
ENDBRANCH  27  35
TORSDOF 4
ENDMDL
MODEL 8
REMARK VINA RESULT:    -4.801      3.148      4.281
REMARK INTER + INTRA:          -6.170
REMARK INTER:                  -5.657
REMARK INTRA:                  -0.513
REMARK UNBOUND:                -0.527
REMARK SMILES CC1(C)CC[C@@]2(C(=O)[O-])CC[C@@]3(C)C(=CC[C@@H]4[C@]5(C)CC[C@H](O)[C@@](C)(CO)[C@@H]5CC[C@@]43C)[C@H]2C1
REMARK SMILES IDX 6 1 5 2 10 3 33 4 4 5 11 6 14 7 34 8 2 9 12 10 15 11 1 12
REMARK SMILES IDX 3 13 13 14 31 15 16 16 17 17 30 18 32 19 18 20 29 21 28 22
REMARK SMILES IDX 20 23 19 24 24 25 21 26 22 27 25 28 7 29 8 30 9 31 26 32
REMARK SMILES IDX 27 33 23 35
REMARK H PARENT 27 34 23 36
REMARK Flexibility Score: inf
ROOT
ATOM      1  C   UNL     1      -3.187 -53.520 -23.506  1.00  0.00     0.017 C 
ATOM      2  C   UNL     1      -4.166 -52.373 -22.830  1.00  0.00     0.014 C 
ATOM      3  C   UNL     1      -3.442 -54.860 -22.645  1.00  0.00     0.014 C 
ATOM      4  C   UNL     1      -3.415 -53.885 -25.135  1.00  0.00     0.028 C 
ATOM      5  C   UNL     1      -4.797 -51.096 -23.620  1.00  0.00     0.007 C 
ATOM      6  C   UNL     1      -2.946 -56.139 -23.254  1.00  0.00     0.013 C 
ATOM      7  C   UNL     1      -3.457 -55.519 -25.603  1.00  0.00    -0.064 C 
ATOM      8  C   UNL     1      -4.485 -52.775 -25.730  1.00  0.00     0.015 C 
ATOM      9  C   UNL     1      -5.206 -51.468 -25.095  1.00  0.00    -0.035 C 
ATOM     10  C   UNL     1      -3.767 -56.594 -24.468  1.00  0.00    -0.006 C 
ATOM     11  C   UNL     1      -3.170 -56.103 -26.853  1.00  0.00    -0.027 C 
ATOM     12  C   UNL     1      -5.115 -50.099 -25.852  1.00  0.00     0.011 C 
ATOM     13  C   UNL     1      -6.756 -51.750 -25.234  1.00  0.00     0.011 C 
ATOM     14  C   UNL     1      -5.329 -56.472 -24.255  1.00  0.00     0.017 C 
ATOM     15  C   UNL     1      -3.392 -58.184 -24.893  1.00  0.00    -0.020 C 
ATOM     16  C   UNL     1      -3.982 -57.328 -27.263  1.00  0.00     0.032 C 
ATOM     17  C   UNL     1      -3.580 -58.601 -26.407  1.00  0.00     0.006 C 
ATOM     18  C   UNL     1      -4.268 -59.177 -24.064  1.00  0.00     0.008 C 
ATOM     19  C   UNL     1      -1.913 -58.502 -24.501  1.00  0.00     0.012 C 
ATOM     20  C   UNL     1      -4.467 -59.924 -26.822  1.00  0.00    -0.025 C 
ATOM     21  C   UNL     1      -4.052 -60.679 -24.367  1.00  0.00     0.005 C 
ATOM     22  C   UNL     1      -4.096 -61.112 -25.865  1.00  0.00     0.006 C 
ATOM     23  C   UNL     1      -5.987 -59.730 -26.874  1.00  0.00     0.010 C 
ATOM     24  C   UNL     1      -4.054 -60.330 -28.302  1.00  0.00     0.012 C 
ATOM     25  C   UNL     1      -4.806 -62.480 -26.177  1.00  0.00     0.020 C 
ATOM     26  C   UNL     1      -6.831 -61.024 -26.860  1.00  0.00     0.033 C 
ATOM     27  C   UNL     1      -6.092 -62.355 -27.135  1.00  0.00     0.123 C 
ATOM     28  C   UNL     1      -5.279 -63.303 -24.931  1.00  0.00     0.017 C 
ENDROOT
BRANCH   1  29
ATOM     29  C   UNL     1      -1.626 -53.130 -23.404  1.00  0.00     0.048 C 
ATOM     30  O   UNL     1      -1.305 -52.076 -22.669  1.00  0.00    -0.550 OA
ATOM     31  O   UNL     1      -0.817 -53.577 -24.482  1.00  0.00    -0.550 OA
ENDBRANCH   1  29
BRANCH  25  32
ATOM     32  C   UNL     1      -3.790 -63.401 -26.937  1.00  0.00     0.165 C 
BRANCH  32  33
ATOM     33  O   UNL     1      -4.351 -63.688 -28.239  1.00  0.00    -0.396 OA
ATOM     34  H   UNL     1      -4.034 -64.602 -28.546  1.00  0.00     0.210 HD
ENDBRANCH  32  33
ENDBRANCH  25  32
BRANCH  27  35
ATOM     35  O   UNL     1      -6.972 -63.424 -26.975  1.00  0.00    -0.392 OA
ATOM     36  H   UNL     1      -7.818 -63.058 -26.566  1.00  0.00     0.210 HD
ENDBRANCH  27  35
TORSDOF 4
ENDMDL
MODEL 9
REMARK VINA RESULT:    -4.670      2.117      3.349
REMARK INTER + INTRA:          -6.017
REMARK INTER:                  -5.490
REMARK INTRA:                  -0.527
REMARK UNBOUND:                -0.527
REMARK SMILES CC1(C)CC[C@@]2(C(=O)[O-])CC[C@@]3(C)C(=CC[C@@H]4[C@]5(C)CC[C@H](O)[C@@](C)(CO)[C@@H]5CC[C@@]43C)[C@H]2C1
REMARK SMILES IDX 6 1 5 2 10 3 33 4 4 5 11 6 14 7 34 8 2 9 12 10 15 11 1 12
REMARK SMILES IDX 3 13 13 14 31 15 16 16 17 17 30 18 32 19 18 20 29 21 28 22
REMARK SMILES IDX 20 23 19 24 24 25 21 26 22 27 25 28 7 29 8 30 9 31 26 32
REMARK SMILES IDX 27 33 23 35
REMARK H PARENT 27 34 23 36
REMARK Flexibility Score: inf
ROOT
ATOM      1  C   UNL     1      -5.008 -56.091 -23.580  1.00  0.00     0.017 C 
ATOM      2  C   UNL     1      -4.602 -54.612 -22.966  1.00  0.00     0.014 C 
ATOM      3  C   UNL     1      -6.138 -55.796 -24.693  1.00  0.00     0.014 C 
ATOM      4  C   UNL     1      -3.787 -57.007 -24.294  1.00  0.00     0.028 C 
ATOM      5  C   UNL     1      -3.152 -54.227 -22.331  1.00  0.00     0.007 C 
ATOM      6  C   UNL     1      -6.434 -56.918 -25.646  1.00  0.00     0.013 C 
ATOM      7  C   UNL     1      -4.100 -57.754 -25.788  1.00  0.00    -0.064 C 
ATOM      8  C   UNL     1      -2.362 -56.231 -23.982  1.00  0.00     0.015 C 
ATOM      9  C   UNL     1      -1.972 -54.919 -23.112  1.00  0.00    -0.035 C 
ATOM     10  C   UNL     1      -5.306 -57.173 -26.655  1.00  0.00    -0.006 C 
ATOM     11  C   UNL     1      -3.503 -58.891 -26.367  1.00  0.00    -0.027 C 
ATOM     12  C   UNL     1      -0.837 -55.021 -22.037  1.00  0.00     0.011 C 
ATOM     13  C   UNL     1      -1.280 -53.938 -24.142  1.00  0.00     0.011 C 
ATOM     14  C   UNL     1      -4.710 -55.850 -27.283  1.00  0.00     0.017 C 
ATOM     15  C   UNL     1      -5.822 -58.190 -27.899  1.00  0.00    -0.020 C 
ATOM     16  C   UNL     1      -3.336 -58.908 -27.883  1.00  0.00     0.032 C 
ATOM     17  C   UNL     1      -4.732 -59.082 -28.616  1.00  0.00     0.006 C 
ATOM     18  C   UNL     1      -6.497 -57.347 -29.029  1.00  0.00     0.008 C 
ATOM     19  C   UNL     1      -6.937 -59.149 -27.370  1.00  0.00     0.012 C 
ATOM     20  C   UNL     1      -4.570 -59.076 -30.254  1.00  0.00    -0.025 C 
ATOM     21  C   UNL     1      -7.000 -58.147 -30.255  1.00  0.00     0.005 C 
ATOM     22  C   UNL     1      -5.993 -59.141 -30.912  1.00  0.00     0.006 C 
ATOM     23  C   UNL     1      -3.755 -57.920 -30.848  1.00  0.00     0.010 C 
ATOM     24  C   UNL     1      -3.774 -60.390 -30.660  1.00  0.00     0.012 C 
ATOM     25  C   UNL     1      -6.011 -59.218 -32.482  1.00  0.00     0.020 C 
ATOM     26  C   UNL     1      -3.935 -57.680 -32.364  1.00  0.00     0.033 C 
ATOM     27  C   UNL     1      -4.624 -58.798 -33.182  1.00  0.00     0.123 C 
ATOM     28  C   UNL     1      -7.122 -58.373 -33.195  1.00  0.00     0.017 C 
ENDROOT
BRANCH   1  29
ATOM     29  C   UNL     1      -5.631 -57.069 -22.460  1.00  0.00     0.048 C 
ATOM     30  O   UNL     1      -6.591 -56.582 -21.687  1.00  0.00    -0.550 OA
ATOM     31  O   UNL     1      -4.783 -58.129 -22.040  1.00  0.00    -0.550 OA
ENDBRANCH   1  29
BRANCH  25  32
ATOM     32  C   UNL     1      -6.272 -60.705 -32.901  1.00  0.00     0.165 C 
BRANCH  32  33
ATOM     33  O   UNL     1      -5.178 -61.118 -33.754  1.00  0.00    -0.396 OA
ATOM     34  H   UNL     1      -4.371 -61.337 -33.180  1.00  0.00     0.210 HD
ENDBRANCH  32  33
ENDBRANCH  25  32
BRANCH  27  35
ATOM     35  O   UNL     1      -4.806 -58.376 -34.498  1.00  0.00    -0.392 OA
ATOM     36  H   UNL     1      -5.705 -57.920 -34.545  1.00  0.00     0.210 HD
ENDBRANCH  27  35
TORSDOF 4
ENDMDL
