MODEL 1
REMARK VINA RESULT:    -3.826      0.000      0.000
REMARK INTER + INTRA:          -4.405
REMARK INTER:                  -4.609
REMARK INTRA:                   0.205
REMARK UNBOUND:                 0.205
REMARK SMILES O=c1c(O)c(-c2ccc(O)c(O)c2)oc2cc(O)cc(O)c12
REMARK SMILES IDX 5 1 3 2 2 3 1 4 22 5 20 6 19 7 17 8 16 9 15 10 14 11 6 12
REMARK SMILES IDX 7 13 8 14 9 15 13 16 11 17 10 18 12 20 4 22 21 24 18 26
REMARK H PARENT 10 19 12 21 4 23 21 25 18 27
REMARK Flexibility Score: inf
ROOT
ATOM      1  C   UNL     1      16.697  22.831   3.956  1.00  0.00     0.180 A 
ATOM      2  C   UNL     1      16.773  23.614   5.126  1.00  0.00     0.208 A 
ATOM      3  C   UNL     1      16.650  22.982   6.372  1.00  0.00     0.238 A 
ATOM      4  O   UNL     1      16.706  23.674   7.426  1.00  0.00    -0.285 OA
ATOM      5  C   UNL     1      16.478  21.584   6.433  1.00  0.00     0.111 A 
ATOM      6  C   UNL     1      16.350  20.871   7.650  1.00  0.00     0.134 A 
ATOM      7  C   UNL     1      16.189  19.477   7.625  1.00  0.00     0.093 A 
ATOM      8  C   UNL     1      16.154  18.785   6.410  1.00  0.00     0.123 A 
ATOM      9  C   UNL     1      16.278  19.484   5.207  1.00  0.00     0.094 A 
ATOM     10  C   UNL     1      16.438  20.873   5.210  1.00  0.00     0.146 A 
ATOM     11  O   UNL     1      16.547  21.513   4.052  1.00  0.00    -0.452 OA
ENDROOT
BRANCH   1  12
ATOM     12  C   UNL     1      16.798  23.426   2.605  1.00  0.00     0.025 A 
ATOM     13  C   UNL     1      17.642  24.519   2.346  1.00  0.00     0.016 A 
ATOM     14  C   UNL     1      17.701  25.079   1.066  1.00  0.00     0.051 A 
ATOM     15  C   UNL     1      16.909  24.564   0.032  1.00  0.00     0.157 A 
ATOM     16  C   UNL     1      15.990  22.927   1.569  1.00  0.00     0.062 A 
ATOM     17  C   UNL     1      16.047  23.484   0.286  1.00  0.00     0.158 A 
BRANCH  15  18
ATOM     18  O   UNL     1      16.973  25.124  -1.244  1.00  0.00    -0.504 OA
ATOM     19  H   UNL     1      17.858  25.277  -1.712  1.00  0.00     0.293 HD
ENDBRANCH  15  18
BRANCH  17  20
ATOM     20  O   UNL     1      15.241  22.954  -0.720  1.00  0.00    -0.504 OA
ATOM     21  H   UNL     1      15.067  23.448  -1.587  1.00  0.00     0.293 HD
ENDBRANCH  17  20
ENDBRANCH   1  12
BRANCH   2  22
ATOM     22  O   UNL     1      16.994  24.990   5.040  1.00  0.00    -0.502 OA
ATOM     23  H   UNL     1      17.677  25.467   5.617  1.00  0.00     0.293 HD
ENDBRANCH   2  22
BRANCH   6  24
ATOM     24  O   UNL     1      16.383  21.533   8.877  1.00  0.00    -0.507 OA
ATOM     25  H   UNL     1      17.171  21.445   9.509  1.00  0.00     0.293 HD
ENDBRANCH   6  24
BRANCH   8  26
ATOM     26  O   UNL     1      15.995  17.401   6.385  1.00  0.00    -0.508 OA
ATOM     27  H   UNL     1      15.728  16.915   5.537  1.00  0.00     0.293 HD
ENDBRANCH   8  26
TORSDOF 6
ENDMDL
MODEL 2
REMARK VINA RESULT:    -2.382      1.437      2.208
REMARK INTER + INTRA:          -2.664
REMARK INTER:                  -3.207
REMARK INTRA:                   0.543
REMARK UNBOUND:                 0.205
REMARK SMILES O=c1c(O)c(-c2ccc(O)c(O)c2)oc2cc(O)cc(O)c12
REMARK SMILES IDX 5 1 3 2 2 3 1 4 22 5 20 6 19 7 17 8 16 9 15 10 14 11 6 12
REMARK SMILES IDX 7 13 8 14 9 15 13 16 11 17 10 18 12 20 4 22 21 24 18 26
REMARK H PARENT 10 19 12 21 4 23 21 25 18 27
REMARK Flexibility Score: inf
ROOT
ATOM      1  C   UNL     1      16.625  23.002   4.107  1.00  0.00     0.180 A 
ATOM      2  C   UNL     1      17.345  24.068   4.683  1.00  0.00     0.208 A 
ATOM      3  C   UNL     1      17.618  24.036   6.058  1.00  0.00     0.238 A 
ATOM      4  O   UNL     1      18.253  24.989   6.587  1.00  0.00    -0.285 OA
ATOM      5  C   UNL     1      17.190  22.937   6.829  1.00  0.00     0.111 A 
ATOM      6  C   UNL     1      17.429  22.826   8.221  1.00  0.00     0.134 A 
ATOM      7  C   UNL     1      16.977  21.694   8.916  1.00  0.00     0.093 A 
ATOM      8  C   UNL     1      16.293  20.673   8.247  1.00  0.00     0.123 A 
ATOM      9  C   UNL     1      16.054  20.778   6.876  1.00  0.00     0.094 A 
ATOM     10  C   UNL     1      16.495  21.898   6.165  1.00  0.00     0.146 A 
ATOM     11  O   UNL     1      16.249  21.975   4.863  1.00  0.00    -0.452 OA
ENDROOT
BRANCH   1  12
ATOM     12  C   UNL     1      16.281  22.973   2.668  1.00  0.00     0.025 A 
ATOM     13  C   UNL     1      15.595  21.885   2.100  1.00  0.00     0.016 A 
ATOM     14  C   UNL     1      15.303  21.869   0.733  1.00  0.00     0.051 A 
ATOM     15  C   UNL     1      15.702  22.932  -0.088  1.00  0.00     0.157 A 
ATOM     16  C   UNL     1      16.698  24.026   1.837  1.00  0.00     0.062 A 
ATOM     17  C   UNL     1      16.406  24.015   0.467  1.00  0.00     0.158 A 
BRANCH  15  18
ATOM     18  O   UNL     1      15.407  22.914  -1.450  1.00  0.00    -0.504 OA
ATOM     19  H   UNL     1      15.605  23.710  -2.046  1.00  0.00     0.293 HD
ENDBRANCH  15  18
BRANCH  17  20
ATOM     20  O   UNL     1      16.823  25.083  -0.324  1.00  0.00    -0.504 OA
ATOM     21  H   UNL     1      16.313  25.375  -1.149  1.00  0.00     0.293 HD
ENDBRANCH  17  20
ENDBRANCH   1  12
BRANCH   2  22
ATOM     22  O   UNL     1      17.801  25.122   3.887  1.00  0.00    -0.502 OA
ATOM     23  H   UNL     1      17.272  25.977   3.763  1.00  0.00     0.293 HD
ENDBRANCH   2  22
BRANCH   6  24
ATOM     24  O   UNL     1      18.109  23.826   8.914  1.00  0.00    -0.507 OA
ATOM     25  H   UNL     1      18.070  24.797   8.626  1.00  0.00     0.293 HD
ENDBRANCH   6  24
BRANCH   8  26
ATOM     26  O   UNL     1      15.844  19.548   8.937  1.00  0.00    -0.508 OA
ATOM     27  H   UNL     1      15.499  19.614   9.888  1.00  0.00     0.293 HD
ENDBRANCH   8  26
TORSDOF 6
ENDMDL
MODEL 3
REMARK VINA RESULT:    -1.592      1.615      6.770
REMARK INTER + INTRA:          -1.714
REMARK INTER:                  -1.553
REMARK INTRA:                  -0.161
REMARK UNBOUND:                 0.205
REMARK SMILES O=c1c(O)c(-c2ccc(O)c(O)c2)oc2cc(O)cc(O)c12
REMARK SMILES IDX 5 1 3 2 2 3 1 4 22 5 20 6 19 7 17 8 16 9 15 10 14 11 6 12
REMARK SMILES IDX 7 13 8 14 9 15 13 16 11 17 10 18 12 20 4 22 21 24 18 26
REMARK H PARENT 10 19 12 21 4 23 21 25 18 27
REMARK Flexibility Score: inf
ROOT
ATOM      1  C   UNL     1      16.870  23.044   4.304  1.00  0.00     0.180 A 
ATOM      2  C   UNL     1      17.949  23.925   4.091  1.00  0.00     0.208 A 
ATOM      3  C   UNL     1      18.232  24.344   2.782  1.00  0.00     0.238 A 
ATOM      4  O   UNL     1      19.201  25.125   2.577  1.00  0.00    -0.285 OA
ATOM      5  C   UNL     1      17.425  23.897   1.716  1.00  0.00     0.111 A 
ATOM      6  C   UNL     1      17.641  24.276   0.369  1.00  0.00     0.134 A 
ATOM      7  C   UNL     1      16.787  23.793  -0.635  1.00  0.00     0.093 A 
ATOM      8  C   UNL     1      15.724  22.941  -0.317  1.00  0.00     0.123 A 
ATOM      9  C   UNL     1      15.507  22.564   1.010  1.00  0.00     0.094 A 
ATOM     10  C   UNL     1      16.348  23.033   2.024  1.00  0.00     0.146 A 
ATOM     11  O   UNL     1      16.123  22.653   3.276  1.00  0.00    -0.452 OA
ENDROOT
BRANCH   1  12
ATOM     12  C   UNL     1      16.521  22.541   5.652  1.00  0.00     0.025 A 
ATOM     13  C   UNL     1      16.599  21.173   5.967  1.00  0.00     0.016 A 
ATOM     14  C   UNL     1      16.240  20.719   7.240  1.00  0.00     0.051 A 
ATOM     15  C   UNL     1      15.788  21.622   8.211  1.00  0.00     0.157 A 
ATOM     16  C   UNL     1      16.047  23.439   6.622  1.00  0.00     0.062 A 
ATOM     17  C   UNL     1      15.688  22.989   7.899  1.00  0.00     0.158 A 
BRANCH  15  18
ATOM     18  O   UNL     1      15.434  21.166   9.480  1.00  0.00    -0.504 OA
ATOM     19  H   UNL     1      15.186  20.198   9.646  1.00  0.00     0.293 HD
ENDBRANCH  15  18
BRANCH  17  20
ATOM     20  O   UNL     1      15.235  23.911   8.840  1.00  0.00    -0.504 OA
ATOM     21  H   UNL     1      15.532  24.879   8.833  1.00  0.00     0.293 HD
ENDBRANCH  17  20
ENDBRANCH   1  12
BRANCH   2  22
ATOM     22  O   UNL     1      18.702  24.393   5.170  1.00  0.00    -0.502 OA
ATOM     23  H   UNL     1      18.286  24.900   5.943  1.00  0.00     0.293 HD
ENDBRANCH   2  22
BRANCH   6  24
ATOM     24  O   UNL     1      18.691  25.125   0.021  1.00  0.00    -0.507 OA
ATOM     25  H   UNL     1      19.515  25.220   0.604  1.00  0.00     0.293 HD
ENDBRANCH   6  24
BRANCH   8  26
ATOM     26  O   UNL     1      14.875  22.462  -1.313  1.00  0.00    -0.508 OA
ATOM     27  H   UNL     1      14.878  22.858  -2.246  1.00  0.00     0.293 HD
ENDBRANCH   8  26
TORSDOF 6
ENDMDL
MODEL 4
REMARK VINA RESULT:    -1.456      1.849      6.780
REMARK INTER + INTRA:          -1.549
REMARK INTER:                  -2.083
REMARK INTRA:                   0.534
REMARK UNBOUND:                 0.205
REMARK SMILES O=c1c(O)c(-c2ccc(O)c(O)c2)oc2cc(O)cc(O)c12
REMARK SMILES IDX 5 1 3 2 2 3 1 4 22 5 20 6 19 7 17 8 16 9 15 10 14 11 6 12
REMARK SMILES IDX 7 13 8 14 9 15 13 16 11 17 10 18 12 20 4 22 21 24 18 26
REMARK H PARENT 10 19 12 21 4 23 21 25 18 27
REMARK Flexibility Score: inf
ROOT
ATOM      1  C   UNL     1      16.675  22.770   4.916  1.00  0.00     0.180 A 
ATOM      2  C   UNL     1      16.364  21.423   4.645  1.00  0.00     0.208 A 
ATOM      3  C   UNL     1      15.996  21.063   3.339  1.00  0.00     0.238 A 
ATOM      4  O   UNL     1      15.706  19.862   3.087  1.00  0.00    -0.285 OA
ATOM      5  C   UNL     1      15.965  22.043   2.328  1.00  0.00     0.111 A 
ATOM      6  C   UNL     1      15.609  21.762   0.986  1.00  0.00     0.134 A 
ATOM      7  C   UNL     1      15.611  22.793   0.035  1.00  0.00     0.093 A 
ATOM      8  C   UNL     1      15.962  24.097   0.399  1.00  0.00     0.123 A 
ATOM      9  C   UNL     1      16.313  24.381   1.720  1.00  0.00     0.094 A 
ATOM     10  C   UNL     1      16.316  23.367   2.683  1.00  0.00     0.146 A 
ATOM     11  O   UNL     1      16.649  23.665   3.933  1.00  0.00    -0.452 OA
ENDROOT
BRANCH   1  12
ATOM     12  C   UNL     1      17.053  23.232   6.271  1.00  0.00     0.025 A 
ATOM     13  C   UNL     1      17.236  24.596   6.556  1.00  0.00     0.016 A 
ATOM     14  C   UNL     1      17.617  25.006   7.837  1.00  0.00     0.051 A 
ATOM     15  C   UNL     1      17.832  24.060   8.847  1.00  0.00     0.157 A 
ATOM     16  C   UNL     1      17.290  22.286   7.282  1.00  0.00     0.062 A 
ATOM     17  C   UNL     1      17.670  22.692   8.567  1.00  0.00     0.158 A 
BRANCH  15  18
ATOM     18  O   UNL     1      18.209  24.472  10.125  1.00  0.00    -0.504 OA
ATOM     19  H   UNL     1      19.137  24.289  10.489  1.00  0.00     0.293 HD
ENDBRANCH  15  18
BRANCH  17  20
ATOM     20  O   UNL     1      17.883  21.726   9.548  1.00  0.00    -0.504 OA
ATOM     21  H   UNL     1      17.121  21.216   9.977  1.00  0.00     0.293 HD
ENDBRANCH  17  20
ENDBRANCH   1  12
BRANCH   2  22
ATOM     22  O   UNL     1      16.450  20.462   5.655  1.00  0.00    -0.502 OA
ATOM     23  H   UNL     1      16.596  20.708   6.627  1.00  0.00     0.293 HD
ENDBRANCH   2  22
BRANCH   6  24
ATOM     24  O   UNL     1      15.256  20.471   0.593  1.00  0.00    -0.507 OA
ATOM     25  H   UNL     1      14.639  20.302  -0.193  1.00  0.00     0.293 HD
ENDBRANCH   6  24
BRANCH   8  26
ATOM     26  O   UNL     1      15.965  25.122  -0.546  1.00  0.00    -0.508 OA
ATOM     27  H   UNL     1      16.823  25.435  -0.984  1.00  0.00     0.293 HD
ENDBRANCH   8  26
TORSDOF 6
ENDMDL
