MODEL 1
REMARK VINA RESULT:    -4.630      0.000      0.000
REMARK INTER + INTRA:          -6.075
REMARK INTER:                  -6.254
REMARK INTRA:                   0.179
REMARK UNBOUND:                 0.179
REMARK SMILES COc1ccc(-c2cc(=O)c3c(OC)c(OC)c(OC)c(OC)c3o2)cc1
REMARK SMILES IDX 7 1 8 2 9 3 10 4 11 5 24 6 25 7 21 8 18 9 15 10 12 11 6 12
REMARK SMILES IDX 3 13 4 14 27 15 5 16 26 17 2 18 1 19 22 20 23 21 13 22 14 23
REMARK SMILES IDX 19 24 20 25 16 26 17 27
REMARK H PARENT
REMARK Flexibility Score: inf
ROOT
ATOM      1  C   UNL     1       4.508  -6.867  -9.137  1.00  0.00     0.138 A 
ATOM      2  C   UNL     1       5.801  -7.407  -9.156  1.00  0.00     0.100 A 
ATOM      3  C   UNL     1       6.896  -6.557  -9.308  1.00  0.00     0.197 A 
ATOM      4  O   UNL     1       8.052  -7.061  -9.327  1.00  0.00    -0.289 OA
ATOM      5  C   UNL     1       6.692  -5.164  -9.441  1.00  0.00     0.115 A 
ATOM      6  C   UNL     1       5.357  -4.701  -9.427  1.00  0.00     0.188 A 
ATOM      7  O   UNL     1       4.347  -5.555  -9.279  1.00  0.00    -0.452 OA
ATOM      8  C   UNL     1       5.067  -3.343  -9.567  1.00  0.00     0.209 A 
ATOM      9  C   UNL     1       6.117  -2.425  -9.774  1.00  0.00     0.211 A 
ATOM     10  C   UNL     1       7.466  -2.852  -9.700  1.00  0.00     0.208 A 
ATOM     11  C   UNL     1       7.756  -4.238  -9.575  1.00  0.00     0.179 A 
ENDROOT
BRANCH   1  12
ATOM     12  C   UNL     1       3.306  -7.722  -8.983  1.00  0.00     0.018 A 
ATOM     13  C   UNL     1       0.994  -9.324  -8.736  1.00  0.00     0.118 A 
ATOM     14  C   UNL     1       1.441  -8.908 -10.003  1.00  0.00     0.047 A 
ATOM     15  C   UNL     1       1.706  -8.927  -7.600  1.00  0.00     0.047 A 
ATOM     16  C   UNL     1       2.581  -8.109 -10.122  1.00  0.00     0.016 A 
ATOM     17  C   UNL     1       2.851  -8.133  -7.717  1.00  0.00     0.016 A 
BRANCH  13  18
ATOM     18  O   UNL     1      -0.145 -10.125  -8.563  1.00  0.00    -0.497 OA
ATOM     19  C   UNL     1      -1.291  -9.740  -7.812  1.00  0.00     0.278 C 
ENDBRANCH  13  18
ENDBRANCH   1  12
BRANCH   8  20
ATOM     20  O   UNL     1       3.714  -2.964  -9.499  1.00  0.00    -0.490 OA
ATOM     21  C   UNL     1       3.121  -2.189  -8.462  1.00  0.00     0.278 C 
ENDBRANCH   8  20
BRANCH  11  22
ATOM     22  O   UNL     1       9.075  -4.742  -9.569  1.00  0.00    -0.492 OA
ATOM     23  C   UNL     1       9.982  -4.780  -8.471  1.00  0.00     0.278 C 
ENDBRANCH  11  22
BRANCH   9  24
ATOM     24  O   UNL     1       5.822  -1.106 -10.115  1.00  0.00    -0.490 OA
ATOM     25  C   UNL     1       6.280  -0.025  -9.308  1.00  0.00     0.279 C 
ENDBRANCH   9  24
BRANCH  10  26
ATOM     26  O   UNL     1       8.532  -1.937  -9.746  1.00  0.00    -0.490 OA
ATOM     27  C   UNL     1       9.378  -1.572  -8.659  1.00  0.00     0.278 C 
ENDBRANCH  10  26
TORSDOF 6
ENDMDL
MODEL 2
REMARK VINA RESULT:    -4.341      2.512      6.808
REMARK INTER + INTRA:          -5.685
REMARK INTER:                  -5.652
REMARK INTRA:                  -0.033
REMARK UNBOUND:                 0.179
REMARK SMILES COc1ccc(-c2cc(=O)c3c(OC)c(OC)c(OC)c(OC)c3o2)cc1
REMARK SMILES IDX 7 1 8 2 9 3 10 4 11 5 24 6 25 7 21 8 18 9 15 10 12 11 6 12
REMARK SMILES IDX 3 13 4 14 27 15 5 16 26 17 2 18 1 19 22 20 23 21 13 22 14 23
REMARK SMILES IDX 19 24 20 25 16 26 17 27
REMARK H PARENT
REMARK Flexibility Score: inf
ROOT
ATOM      1  C   UNL     1       3.610  -2.052  -9.092  1.00  0.00     0.138 A 
ATOM      2  C   UNL     1       2.908  -3.213  -8.742  1.00  0.00     0.100 A 
ATOM      3  C   UNL     1       3.590  -4.427  -8.660  1.00  0.00     0.197 A 
ATOM      4  O   UNL     1       2.941  -5.462  -8.349  1.00  0.00    -0.289 OA
ATOM      5  C   UNL     1       4.978  -4.473  -8.929  1.00  0.00     0.115 A 
ATOM      6  C   UNL     1       5.608  -3.262  -9.288  1.00  0.00     0.188 A 
ATOM      7  O   UNL     1       4.911  -2.130  -9.353  1.00  0.00    -0.452 OA
ATOM      8  C   UNL     1       6.972  -3.223  -9.584  1.00  0.00     0.209 A 
ATOM      9  C   UNL     1       7.721  -4.417  -9.570  1.00  0.00     0.211 A 
ATOM     10  C   UNL     1       7.132  -5.626  -9.124  1.00  0.00     0.208 A 
ATOM     11  C   UNL     1       5.740  -5.665  -8.841  1.00  0.00     0.179 A 
ENDROOT
BRANCH   1  12
ATOM     12  C   UNL     1       2.937  -0.734  -9.199  1.00  0.00     0.018 A 
ATOM     13  C   UNL     1       1.605   1.747  -9.395  1.00  0.00     0.118 A 
ATOM     14  C   UNL     1       1.092   0.726  -8.575  1.00  0.00     0.047 A 
ATOM     15  C   UNL     1       2.779   1.514 -10.118  1.00  0.00     0.047 A 
ATOM     16  C   UNL     1       1.749  -0.504  -8.486  1.00  0.00     0.016 A 
ATOM     17  C   UNL     1       3.441   0.287 -10.025  1.00  0.00     0.016 A 
BRANCH  13  18
ATOM     18  O   UNL     1       0.981   2.998  -9.520  1.00  0.00    -0.497 OA
ATOM     19  C   UNL     1       0.543   3.790  -8.423  1.00  0.00     0.278 C 
ENDBRANCH  13  18
ENDBRANCH   1  12
BRANCH   8  20
ATOM     20  O   UNL     1       7.528  -1.968  -9.891  1.00  0.00    -0.490 OA
ATOM     21  C   UNL     1       8.710  -1.421  -9.315  1.00  0.00     0.278 C 
ENDBRANCH   8  20
BRANCH  11  22
ATOM     22  O   UNL     1       5.072  -6.850  -8.464  1.00  0.00    -0.492 OA
ATOM     23  C   UNL     1       4.875  -8.020  -9.254  1.00  0.00     0.278 C 
ENDBRANCH  11  22
BRANCH   9  24
ATOM     24  O   UNL     1       9.027  -4.417 -10.058  1.00  0.00    -0.490 OA
ATOM     25  C   UNL     1      10.124  -4.728  -9.204  1.00  0.00     0.279 C 
ENDBRANCH   9  24
BRANCH  10  26
ATOM     26  O   UNL     1       7.893  -6.796  -8.952  1.00  0.00    -0.490 OA
ATOM     27  C   UNL     1       8.319  -7.684  -9.981  1.00  0.00     0.278 C 
ENDBRANCH  10  26
TORSDOF 6
ENDMDL
MODEL 3
REMARK VINA RESULT:    -4.231      2.229      6.595
REMARK INTER + INTRA:          -5.536
REMARK INTER:                  -5.808
REMARK INTRA:                   0.272
REMARK UNBOUND:                 0.179
REMARK SMILES COc1ccc(-c2cc(=O)c3c(OC)c(OC)c(OC)c(OC)c3o2)cc1
REMARK SMILES IDX 7 1 8 2 9 3 10 4 11 5 24 6 25 7 21 8 18 9 15 10 12 11 6 12
REMARK SMILES IDX 3 13 4 14 27 15 5 16 26 17 2 18 1 19 22 20 23 21 13 22 14 23
REMARK SMILES IDX 19 24 20 25 16 26 17 27
REMARK H PARENT
REMARK Flexibility Score: inf
ROOT
ATOM      1  C   UNL     1       4.812  -2.772  -9.665  1.00  0.00     0.138 A 
ATOM      2  C   UNL     1       6.196  -2.624  -9.822  1.00  0.00     0.100 A 
ATOM      3  C   UNL     1       7.004  -3.759  -9.875  1.00  0.00     0.197 A 
ATOM      4  O   UNL     1       8.249  -3.607 -10.012  1.00  0.00    -0.289 OA
ATOM      5  C   UNL     1       6.421  -5.044  -9.773  1.00  0.00     0.115 A 
ATOM      6  C   UNL     1       5.020  -5.106  -9.602  1.00  0.00     0.188 A 
ATOM      7  O   UNL     1       4.295  -3.992  -9.557  1.00  0.00    -0.452 OA
ATOM      8  C   UNL     1       4.367  -6.334  -9.477  1.00  0.00     0.209 A 
ATOM      9  C   UNL     1       5.121  -7.526  -9.473  1.00  0.00     0.211 A 
ATOM     10  C   UNL     1       6.512  -7.493  -9.734  1.00  0.00     0.208 A 
ATOM     11  C   UNL     1       7.176  -6.241  -9.843  1.00  0.00     0.179 A 
ENDROOT
BRANCH   1  12
ATOM     12  C   UNL     1       3.903  -1.602  -9.597  1.00  0.00     0.018 A 
ATOM     13  C   UNL     1       2.221   0.661  -9.463  1.00  0.00     0.118 A 
ATOM     14  C   UNL     1       3.494   0.754 -10.054  1.00  0.00     0.047 A 
ATOM     15  C   UNL     1       1.803  -0.564  -8.936  1.00  0.00     0.047 A 
ATOM     16  C   UNL     1       4.328  -0.365 -10.112  1.00  0.00     0.016 A 
ATOM     17  C   UNL     1       2.633  -1.688  -8.999  1.00  0.00     0.016 A 
BRANCH  13  18
ATOM     18  O   UNL     1       1.348   1.756  -9.378  1.00  0.00    -0.497 OA
ATOM     19  C   UNL     1       1.522   2.979 -10.085  1.00  0.00     0.278 C 
ENDBRANCH  13  18
ENDBRANCH   1  12
BRANCH   8  20
ATOM     20  O   UNL     1       2.966  -6.307  -9.353  1.00  0.00    -0.490 OA
ATOM     21  C   UNL     1       2.240  -6.432  -8.135  1.00  0.00     0.278 C 
ENDBRANCH   8  20
BRANCH  11  22
ATOM     22  O   UNL     1       8.571  -6.132 -10.029  1.00  0.00    -0.492 OA
ATOM     23  C   UNL     1       9.593  -6.375  -9.066  1.00  0.00     0.278 C 
ENDBRANCH  11  22
BRANCH   9  24
ATOM     24  O   UNL     1       4.501  -8.731  -9.147  1.00  0.00    -0.490 OA
ATOM     25  C   UNL     1       4.271  -9.088  -7.787  1.00  0.00     0.279 C 
ENDBRANCH   9  24
BRANCH  10  26
ATOM     26  O   UNL     1       7.261  -8.674  -9.891  1.00  0.00    -0.490 OA
ATOM     27  C   UNL     1       6.737  -9.978 -10.123  1.00  0.00     0.278 C 
ENDBRANCH  10  26
TORSDOF 6
ENDMDL
MODEL 4
REMARK VINA RESULT:    -3.826     16.051     19.497
REMARK INTER + INTRA:          -4.989
REMARK INTER:                  -4.400
REMARK INTRA:                  -0.589
REMARK UNBOUND:                 0.179
REMARK SMILES COc1ccc(-c2cc(=O)c3c(OC)c(OC)c(OC)c(OC)c3o2)cc1
REMARK SMILES IDX 7 1 8 2 9 3 10 4 11 5 24 6 25 7 21 8 18 9 15 10 12 11 6 12
REMARK SMILES IDX 3 13 4 14 27 15 5 16 26 17 2 18 1 19 22 20 23 21 13 22 14 23
REMARK SMILES IDX 19 24 20 25 16 26 17 27
REMARK H PARENT
REMARK Flexibility Score: inf
ROOT
ATOM      1  C   UNL     1      -6.340   9.319  -3.566  1.00  0.00     0.138 A 
ATOM      2  C   UNL     1      -5.094   9.868  -3.896  1.00  0.00     0.100 A 
ATOM      3  C   UNL     1      -4.551   9.627  -5.157  1.00  0.00     0.197 A 
ATOM      4  O   UNL     1      -3.426  10.125  -5.435  1.00  0.00    -0.289 OA
ATOM      5  C   UNL     1      -5.261   8.833  -6.089  1.00  0.00     0.115 A 
ATOM      6  C   UNL     1      -6.503   8.305  -5.674  1.00  0.00     0.188 A 
ATOM      7  O   UNL     1      -6.977   8.566  -4.458  1.00  0.00    -0.452 OA
ATOM      8  C   UNL     1      -7.261   7.500  -6.526  1.00  0.00     0.209 A 
ATOM      9  C   UNL     1      -6.758   7.170  -7.802  1.00  0.00     0.211 A 
ATOM     10  C   UNL     1      -5.560   7.761  -8.273  1.00  0.00     0.208 A 
ATOM     11  C   UNL     1      -4.783   8.566  -7.396  1.00  0.00     0.179 A 
ENDROOT
BRANCH   1  12
ATOM     12  C   UNL     1      -6.965   9.538  -2.240  1.00  0.00     0.018 A 
ATOM     13  C   UNL     1      -8.108   9.930   0.312  1.00  0.00     0.118 A 
ATOM     14  C   UNL     1      -6.711   9.953   0.146  1.00  0.00     0.047 A 
ATOM     15  C   UNL     1      -8.922   9.703  -0.801  1.00  0.00     0.047 A 
ATOM     16  C   UNL     1      -6.147   9.751  -1.117  1.00  0.00     0.016 A 
ATOM     17  C   UNL     1      -8.360   9.507  -2.067  1.00  0.00     0.016 A 
BRANCH  13  18
ATOM     18  O   UNL     1      -8.721  10.125   1.559  1.00  0.00    -0.497 OA
ATOM     19  C   UNL     1      -8.304   9.498   2.766  1.00  0.00     0.278 C 
ENDBRANCH  13  18
ENDBRANCH   1  12
BRANCH   8  20
ATOM     20  O   UNL     1      -8.506   7.050  -6.049  1.00  0.00    -0.490 OA
ATOM     21  C   UNL     1      -9.759   7.689  -6.271  1.00  0.00     0.278 C 
ENDBRANCH   8  20
BRANCH  11  22
ATOM     22  O   UNL     1      -3.544   9.126  -7.774  1.00  0.00    -0.492 OA
ATOM     23  C   UNL     1      -3.297  10.043  -8.835  1.00  0.00     0.278 C 
ENDBRANCH  11  22
BRANCH   9  24
ATOM     24  O   UNL     1      -7.410   6.209  -8.572  1.00  0.00    -0.490 OA
ATOM     25  C   UNL     1      -8.333   6.593  -9.587  1.00  0.00     0.279 C 
ENDBRANCH   9  24
BRANCH  10  26
ATOM     26  O   UNL     1      -5.116   7.574  -9.594  1.00  0.00    -0.490 OA
ATOM     27  C   UNL     1      -4.415   6.439 -10.094  1.00  0.00     0.278 C 
ENDBRANCH  10  26
TORSDOF 6
ENDMDL
MODEL 5
REMARK VINA RESULT:    -3.611     17.174     20.415
REMARK INTER + INTRA:          -4.699
REMARK INTER:                  -4.376
REMARK INTRA:                  -0.322
REMARK UNBOUND:                 0.179
REMARK SMILES COc1ccc(-c2cc(=O)c3c(OC)c(OC)c(OC)c(OC)c3o2)cc1
REMARK SMILES IDX 7 1 8 2 9 3 10 4 11 5 24 6 25 7 21 8 18 9 15 10 12 11 6 12
REMARK SMILES IDX 3 13 4 14 27 15 5 16 26 17 2 18 1 19 22 20 23 21 13 22 14 23
REMARK SMILES IDX 19 24 20 25 16 26 17 27
REMARK H PARENT
REMARK Flexibility Score: inf
ROOT
ATOM      1  C   UNL     1      -6.816   9.454  -1.945  1.00  0.00     0.138 A 
ATOM      2  C   UNL     1      -5.536   9.894  -2.306  1.00  0.00     0.100 A 
ATOM      3  C   UNL     1      -5.096   9.718  -3.618  1.00  0.00     0.197 A 
ATOM      4  O   UNL     1      -3.939  10.116  -3.923  1.00  0.00    -0.289 OA
ATOM      5  C   UNL     1      -5.943   9.100  -4.567  1.00  0.00     0.115 A 
ATOM      6  C   UNL     1      -7.212   8.672  -4.119  1.00  0.00     0.188 A 
ATOM      7  O   UNL     1      -7.584   8.864  -2.856  1.00  0.00    -0.452 OA
ATOM      8  C   UNL     1      -8.104   8.040  -4.988  1.00  0.00     0.209 A 
ATOM      9  C   UNL     1      -7.714   7.781  -6.318  1.00  0.00     0.211 A 
ATOM     10  C   UNL     1      -6.485   8.282  -6.813  1.00  0.00     0.208 A 
ATOM     11  C   UNL     1      -5.573   8.909  -5.922  1.00  0.00     0.179 A 
ENDROOT
BRANCH   1  12
ATOM     12  C   UNL     1      -7.336   9.611  -0.565  1.00  0.00     0.018 A 
ATOM     13  C   UNL     1      -8.364   9.950   2.043  1.00  0.00     0.118 A 
ATOM     14  C   UNL     1      -9.195  10.125   0.921  1.00  0.00     0.047 A 
ATOM     15  C   UNL     1      -7.021   9.614   1.849  1.00  0.00     0.047 A 
ATOM     16  C   UNL     1      -8.682   9.964  -0.369  1.00  0.00     0.016 A 
ATOM     17  C   UNL     1      -6.507   9.446   0.559  1.00  0.00     0.016 A 
BRANCH  13  18
ATOM     18  O   UNL     1      -8.830  10.103   3.357  1.00  0.00    -0.497 OA
ATOM     19  C   UNL     1      -9.823   9.279   3.958  1.00  0.00     0.278 C 
ENDBRANCH  13  18
ENDBRANCH   1  12
BRANCH   8  20
ATOM     20  O   UNL     1      -9.363   7.683  -4.471  1.00  0.00    -0.490 OA
ATOM     21  C   UNL     1      -9.687   6.437  -3.865  1.00  0.00     0.278 C 
ENDBRANCH   8  20
BRANCH  11  22
ATOM     22  O   UNL     1      -4.301   9.366  -6.329  1.00  0.00    -0.492 OA
ATOM     23  C   UNL     1      -3.974  10.053  -7.533  1.00  0.00     0.278 C 
ENDBRANCH  11  22
BRANCH   9  24
ATOM     24  O   UNL     1      -8.514   6.976  -7.127  1.00  0.00    -0.490 OA
ATOM     25  C   UNL     1      -9.460   7.553  -8.022  1.00  0.00     0.279 C 
ENDBRANCH   9  24
BRANCH  10  26
ATOM     26  O   UNL     1      -6.140   8.176  -8.173  1.00  0.00    -0.490 OA
ATOM     27  C   UNL     1      -5.654   7.009  -8.830  1.00  0.00     0.278 C 
ENDBRANCH  10  26
TORSDOF 6
ENDMDL
MODEL 6
REMARK VINA RESULT:    -3.009     10.638     14.523
REMARK INTER + INTRA:          -3.886
REMARK INTER:                  -3.344
REMARK INTRA:                  -0.542
REMARK UNBOUND:                 0.179
REMARK SMILES COc1ccc(-c2cc(=O)c3c(OC)c(OC)c(OC)c(OC)c3o2)cc1
REMARK SMILES IDX 7 1 8 2 9 3 10 4 11 5 24 6 25 7 21 8 18 9 15 10 12 11 6 12
REMARK SMILES IDX 3 13 4 14 27 15 5 16 26 17 2 18 1 19 22 20 23 21 13 22 14 23
REMARK SMILES IDX 19 24 20 25 16 26 17 27
REMARK H PARENT
REMARK Flexibility Score: inf
ROOT
ATOM      1  C   UNL     1      -0.907   5.112  -8.124  1.00  0.00     0.138 A 
ATOM      2  C   UNL     1      -0.390   6.307  -7.608  1.00  0.00     0.100 A 
ATOM      3  C   UNL     1      -1.221   7.422  -7.497  1.00  0.00     0.197 A 
ATOM      4  O   UNL     1      -0.737   8.491  -7.035  1.00  0.00    -0.289 OA
ATOM      5  C   UNL     1      -2.572   7.336  -7.906  1.00  0.00     0.115 A 
ATOM      6  C   UNL     1      -3.012   6.100  -8.429  1.00  0.00     0.188 A 
ATOM      7  O   UNL     1      -2.178   5.066  -8.513  1.00  0.00    -0.452 OA
ATOM      8  C   UNL     1      -4.327   5.933  -8.869  1.00  0.00     0.209 A 
ATOM      9  C   UNL     1      -5.215   7.028  -8.835  1.00  0.00     0.211 A 
ATOM     10  C   UNL     1      -4.824   8.248  -8.231  1.00  0.00     0.208 A 
ATOM     11  C   UNL     1      -3.480   8.419  -7.800  1.00  0.00     0.179 A 
ENDROOT
BRANCH   1  12
ATOM     12  C   UNL     1      -0.071   3.897  -8.269  1.00  0.00     0.018 A 
ATOM     13  C   UNL     1       1.516   1.585  -8.603  1.00  0.00     0.118 A 
ATOM     14  C   UNL     1       1.524   2.601  -9.576  1.00  0.00     0.047 A 
ATOM     15  C   UNL     1       0.706   1.731  -7.472  1.00  0.00     0.047 A 
ATOM     16  C   UNL     1       0.731   3.740  -9.412  1.00  0.00     0.016 A 
ATOM     17  C   UNL     1      -0.082   2.874  -7.303  1.00  0.00     0.016 A 
BRANCH  13  18
ATOM     18  O   UNL     1       2.291   0.422  -8.722  1.00  0.00    -0.497 OA
ATOM     19  C   UNL     1       1.860  -0.768  -9.374  1.00  0.00     0.278 C 
ENDBRANCH  13  18
ENDBRANCH   1  12
BRANCH   8  20
ATOM     20  O   UNL     1      -4.692   4.658  -9.336  1.00  0.00    -0.490 OA
ATOM     21  C   UNL     1      -5.310   3.637  -8.561  1.00  0.00     0.278 C 
ENDBRANCH   8  20
BRANCH  11  22
ATOM     22  O   UNL     1      -3.002   9.631  -7.258  1.00  0.00    -0.492 OA
ATOM     23  C   UNL     1      -3.194  10.121  -5.934  1.00  0.00     0.278 C 
ENDBRANCH  11  22
BRANCH   9  24
ATOM     24  O   UNL     1      -6.458   6.925  -9.456  1.00  0.00    -0.490 OA
ATOM     25  C   UNL     1      -7.591   6.435  -8.743  1.00  0.00     0.279 C 
ENDBRANCH   9  24
BRANCH  10  26
ATOM     26  O   UNL     1      -5.736   9.302  -8.042  1.00  0.00    -0.490 OA
ATOM     27  C   UNL     1      -6.645   9.446  -6.955  1.00  0.00     0.278 C 
ENDBRANCH  10  26
TORSDOF 6
ENDMDL
MODEL 7
REMARK VINA RESULT:    -2.653     13.653     17.664
REMARK INTER + INTRA:          -3.405
REMARK INTER:                  -3.180
REMARK INTRA:                  -0.225
REMARK UNBOUND:                 0.179
REMARK SMILES COc1ccc(-c2cc(=O)c3c(OC)c(OC)c(OC)c(OC)c3o2)cc1
REMARK SMILES IDX 7 1 8 2 9 3 10 4 11 5 24 6 25 7 21 8 18 9 15 10 12 11 6 12
REMARK SMILES IDX 3 13 4 14 27 15 5 16 26 17 2 18 1 19 22 20 23 21 13 22 14 23
REMARK SMILES IDX 19 24 20 25 16 26 17 27
REMARK H PARENT
REMARK Flexibility Score: inf
ROOT
ATOM      1  C   UNL     1      -4.318   6.345  -7.680  1.00  0.00     0.138 A 
ATOM      2  C   UNL     1      -5.336   6.092  -8.608  1.00  0.00     0.100 A 
ATOM      3  C   UNL     1      -6.557   6.754  -8.484  1.00  0.00     0.197 A 
ATOM      4  O   UNL     1      -7.463   6.511  -9.326  1.00  0.00    -0.289 OA
ATOM      5  C   UNL     1      -6.754   7.673  -7.427  1.00  0.00     0.115 A 
ATOM      6  C   UNL     1      -5.683   7.861  -6.525  1.00  0.00     0.188 A 
ATOM      7  O   UNL     1      -4.538   7.203  -6.689  1.00  0.00    -0.452 OA
ATOM      8  C   UNL     1      -5.800   8.739  -5.446  1.00  0.00     0.209 A 
ATOM      9  C   UNL     1      -7.020   9.410  -5.224  1.00  0.00     0.211 A 
ATOM     10  C   UNL     1      -8.074   9.308  -6.165  1.00  0.00     0.208 A 
ATOM     11  C   UNL     1      -7.958   8.401  -7.252  1.00  0.00     0.179 A 
ENDROOT
BRANCH   1  12
ATOM     12  C   UNL     1      -3.001   5.667  -7.759  1.00  0.00     0.018 A 
ATOM     13  C   UNL     1      -0.504   4.353  -7.857  1.00  0.00     0.118 A 
ATOM     14  C   UNL     1      -1.587   3.775  -7.169  1.00  0.00     0.047 A 
ATOM     15  C   UNL     1      -0.679   5.590  -8.485  1.00  0.00     0.047 A 
ATOM     16  C   UNL     1      -2.819   4.432  -7.115  1.00  0.00     0.016 A 
ATOM     17  C   UNL     1      -1.913   6.245  -8.438  1.00  0.00     0.016 A 
BRANCH  13  18
ATOM     18  O   UNL     1       0.753   3.736  -7.937  1.00  0.00    -0.497 OA
ATOM     19  C   UNL     1       1.163   2.883  -9.001  1.00  0.00     0.278 C 
ENDBRANCH  13  18
ENDBRANCH   1  12
BRANCH   8  20
ATOM     20  O   UNL     1      -4.671   8.898  -4.621  1.00  0.00    -0.490 OA
ATOM     21  C   UNL     1      -3.837  10.051  -4.572  1.00  0.00     0.278 C 
ENDBRANCH   8  20
BRANCH  11  22
ATOM     22  O   UNL     1      -8.996   8.192  -8.185  1.00  0.00    -0.492 OA
ATOM     23  C   UNL     1      -9.522   9.132  -9.118  1.00  0.00     0.278 C 
ENDBRANCH  11  22
BRANCH   9  24
ATOM     24  O   UNL     1      -7.208  10.125  -4.042  1.00  0.00    -0.490 OA
ATOM     25  C   UNL     1      -7.342   9.449  -2.795  1.00  0.00     0.279 C 
ENDBRANCH   9  24
BRANCH  10  26
ATOM     26  O   UNL     1      -9.240  10.086  -6.052  1.00  0.00    -0.490 OA
ATOM     27  C   UNL     1     -10.125  10.121  -4.936  1.00  0.00     0.278 C 
ENDBRANCH  10  26
TORSDOF 6
ENDMDL
MODEL 8
REMARK VINA RESULT:    -2.321      1.409      2.495
REMARK INTER + INTRA:          -2.956
REMARK INTER:                  -5.229
REMARK INTRA:                   2.273
REMARK UNBOUND:                 0.179
REMARK SMILES COc1ccc(-c2cc(=O)c3c(OC)c(OC)c(OC)c(OC)c3o2)cc1
REMARK SMILES IDX 7 1 8 2 9 3 10 4 11 5 24 6 25 7 21 8 18 9 15 10 12 11 6 12
REMARK SMILES IDX 3 13 4 14 27 15 5 16 26 17 2 18 1 19 22 20 23 21 13 22 14 23
REMARK SMILES IDX 19 24 20 25 16 26 17 27
REMARK H PARENT
REMARK Flexibility Score: inf
ROOT
ATOM      1  C   UNL     1       4.712  -5.306  -9.194  1.00  0.00     0.138 A 
ATOM      2  C   UNL     1       6.111  -5.389  -9.192  1.00  0.00     0.100 A 
ATOM      3  C   UNL     1       6.866  -4.224  -9.322  1.00  0.00     0.197 A 
ATOM      4  O   UNL     1       8.123  -4.318  -9.323  1.00  0.00    -0.289 OA
ATOM      5  C   UNL     1       6.215  -2.974  -9.453  1.00  0.00     0.115 A 
ATOM      6  C   UNL     1       4.803  -2.979  -9.460  1.00  0.00     0.188 A 
ATOM      7  O   UNL     1       4.129  -4.120  -9.333  1.00  0.00    -0.452 OA
ATOM      8  C   UNL     1       4.083  -1.791  -9.599  1.00  0.00     0.209 A 
ATOM      9  C   UNL     1       4.774  -0.575  -9.784  1.00  0.00     0.211 A 
ATOM     10  C   UNL     1       6.187  -0.535  -9.688  1.00  0.00     0.208 A 
ATOM     11  C   UNL     1       6.917  -1.748  -9.564  1.00  0.00     0.179 A 
ENDROOT
BRANCH   1  12
ATOM     12  C   UNL     1       3.858  -6.511  -9.064  1.00  0.00     0.018 A 
ATOM     13  C   UNL     1       2.279  -8.838  -8.805  1.00  0.00     0.118 A 
ATOM     14  C   UNL     1       3.447  -8.680  -8.037  1.00  0.00     0.047 A 
ATOM     15  C   UNL     1       1.914  -7.831  -9.704  1.00  0.00     0.047 A 
ATOM     16  C   UNL     1       4.231  -7.531  -8.173  1.00  0.00     0.016 A 
ATOM     17  C   UNL     1       2.694  -6.677  -9.836  1.00  0.00     0.016 A 
BRANCH  13  18
ATOM     18  O   UNL     1       1.460  -9.973  -8.706  1.00  0.00    -0.497 OA
ATOM     19  C   UNL     1       0.104  -9.950  -8.274  1.00  0.00     0.278 C 
ENDBRANCH  13  18
ENDBRANCH   1  12
BRANCH   8  20
ATOM     20  O   UNL     1       2.679  -1.880  -9.554  1.00  0.00    -0.490 OA
ATOM     21  C   UNL     1       1.850  -1.369  -8.516  1.00  0.00     0.278 C 
ENDBRANCH   8  20
BRANCH  11  22
ATOM     22  O   UNL     1       8.327  -1.789  -9.538  1.00  0.00    -0.492 OA
ATOM     23  C   UNL     1       9.191  -1.221  -8.557  1.00  0.00     0.278 C 
ENDBRANCH  11  22
BRANCH   9  24
ATOM     24  O   UNL     1       4.065   0.575 -10.125  1.00  0.00    -0.490 OA
ATOM     25  C   UNL     1       2.641   0.588 -10.100  1.00  0.00     0.279 C 
ENDBRANCH   9  24
BRANCH  10  26
ATOM     26  O   UNL     1       6.892   0.682  -9.712  1.00  0.00    -0.490 OA
ATOM     27  C   UNL     1       6.322   1.987  -9.685  1.00  0.00     0.278 C 
ENDBRANCH  10  26
TORSDOF 6
ENDMDL
