MODEL 1
REMARK VINA RESULT:    -4.499      0.000      0.000
REMARK INTER + INTRA:          -8.191
REMARK INTER:                  -6.603
REMARK INTRA:                  -1.589
REMARK UNBOUND:                -1.589
REMARK SMILES Cc1cc2c(C(C)C)c(O)c(O)c(C=O)c2c(O)c1-c1c(C)cc2c(C(C)C)c(O)c(O)c(C=O)c2c1O
REMARK SMILES IDX 1 1 2 2 3 3 4 4 16 5 13 6 11 7 9 8 5 9 17 10 19 11 20 12
REMARK SMILES IDX 37 13 21 14 36 15 23 16 22 17 24 18 33 19 25 20 31 21 29 22
REMARK SMILES IDX 38 23 34 25 35 26 26 27 27 28 28 29 32 30 30 32 18 34 6 36
REMARK SMILES IDX 7 37 8 38 14 39 15 40 10 41 12 43
REMARK H PARENT 38 24 32 31 30 33 18 35 10 42 12 44
REMARK Flexibility Score: inf
ROOT
ATOM      1  C   UNL     1     118.755 115.172 102.611  1.00  0.00     0.045 C 
ATOM      2  C   UNL     1     117.309 115.569 102.786  1.00  0.00    -0.039 A 
ATOM      3  C   UNL     1     116.954 116.394 103.854  1.00  0.00     0.013 A 
ATOM      4  C   UNL     1     115.616 116.780 104.083  1.00  0.00    -0.006 A 
ATOM      5  C   UNL     1     114.630 116.428 103.118  1.00  0.00     0.039 A 
ATOM      6  C   UNL     1     113.337 117.018 103.206  1.00  0.00     0.072 A 
ATOM      7  C   UNL     1     113.024 117.879 104.274  1.00  0.00     0.169 A 
ATOM      8  C   UNL     1     113.983 118.161 105.268  1.00  0.00     0.162 A 
ATOM      9  C   UNL     1     115.250 117.537 105.237  1.00  0.00     0.008 A 
ATOM     10  C   UNL     1     114.966 115.470 102.115  1.00  0.00     0.132 A 
ATOM     11  C   UNL     1     116.305 115.057 101.945  1.00  0.00     0.031 A 
ENDROOT
BRANCH  11  12
ATOM     12  C   UNL     1     116.659 114.076 100.886  1.00  0.00     0.031 A 
ATOM     13  C   UNL     1     116.645 112.693 101.167  1.00  0.00     0.132 A 
ATOM     14  C   UNL     1     117.085 114.531  99.628  1.00  0.00    -0.039 A 
ATOM     15  C   UNL     1     117.025 111.747 100.169  1.00  0.00     0.039 A 
ATOM     16  C   UNL     1     117.524 113.611  98.676  1.00  0.00     0.013 A 
ATOM     17  C   UNL     1     117.170 116.007  99.320  1.00  0.00     0.045 C 
ATOM     18  C   UNL     1     117.479 112.221  98.899  1.00  0.00    -0.006 A 
ATOM     19  C   UNL     1     117.017 110.342 100.416  1.00  0.00     0.072 A 
ATOM     20  C   UNL     1     117.915 111.295  97.900  1.00  0.00     0.008 A 
ATOM     21  C   UNL     1     117.638 109.474  99.503  1.00  0.00     0.169 A 
ATOM     22  C   UNL     1     118.135 109.952  98.289  1.00  0.00     0.162 A 
BRANCH  13  23
ATOM     23  O   UNL     1     116.297 112.265 102.453  1.00  0.00    -0.507 OA
ATOM     24  H   UNL     1     116.710 112.629 103.299  1.00  0.00     0.293 HD
ENDBRANCH  13  23
BRANCH  19  25
ATOM     25  C   UNL     1     116.319 109.744 101.580  1.00  0.00     0.264 C 
ATOM     26  O   UNL     1     116.960 109.296 102.567  1.00  0.00    -0.298 OA
ENDBRANCH  19  25
BRANCH  20  27
ATOM     27  C   UNL     1     118.083 111.654  96.411  1.00  0.00     0.017 C 
ATOM     28  C   UNL     1     116.761 111.904  95.663  1.00  0.00     0.012 C 
ATOM     29  C   UNL     1     119.125 112.758  96.176  1.00  0.00     0.012 C 
ENDBRANCH  20  27
BRANCH  21  30
ATOM     30  O   UNL     1     117.737 108.111  99.805  1.00  0.00    -0.504 OA
ATOM     31  H   UNL     1     117.753 107.757 100.754  1.00  0.00     0.293 HD
ENDBRANCH  21  30
BRANCH  22  32
ATOM     32  O   UNL     1     118.845 109.056  97.481  1.00  0.00    -0.504 OA
ATOM     33  H   UNL     1     119.027 108.093  97.736  1.00  0.00     0.293 HD
ENDBRANCH  22  32
ENDBRANCH  11  12
BRANCH  10  34
ATOM     34  O   UNL     1     113.965 114.898 101.322  1.00  0.00    -0.507 OA
ATOM     35  H   UNL     1     113.011 114.765 101.630  1.00  0.00     0.293 HD
ENDBRANCH  10  34
BRANCH   9  36
ATOM     36  C   UNL     1     116.211 117.695 106.430  1.00  0.00     0.017 C 
ATOM     37  C   UNL     1     116.756 119.124 106.510  1.00  0.00     0.012 C 
ATOM     38  C   UNL     1     115.608 117.247 107.775  1.00  0.00     0.012 C 
ENDBRANCH   9  36
BRANCH   6  39
ATOM     39  C   UNL     1     112.334 116.868 102.124  1.00  0.00     0.264 C 
ATOM     40  O   UNL     1     111.267 116.225 102.313  1.00  0.00    -0.298 OA
ENDBRANCH   6  39
BRANCH   8  41
ATOM     41  O   UNL     1     113.717 119.091 106.277  1.00  0.00    -0.504 OA
ATOM     42  H   UNL     1     112.937 119.043 106.915  1.00  0.00     0.293 HD
ENDBRANCH   8  41
BRANCH   7  43
ATOM     43  O   UNL     1     111.746 118.448 104.315  1.00  0.00    -0.504 OA
ATOM     44  H   UNL     1     111.174 118.643 103.506  1.00  0.00     0.293 HD
ENDBRANCH   7  43
TORSDOF 11
ENDMDL
MODEL 2
REMARK VINA RESULT:    -4.492      4.604     11.422
REMARK INTER + INTRA:          -8.182
REMARK INTER:                  -6.573
REMARK INTRA:                  -1.609
REMARK UNBOUND:                -1.589
REMARK SMILES Cc1cc2c(C(C)C)c(O)c(O)c(C=O)c2c(O)c1-c1c(C)cc2c(C(C)C)c(O)c(O)c(C=O)c2c1O
REMARK SMILES IDX 1 1 2 2 3 3 4 4 16 5 13 6 11 7 9 8 5 9 17 10 19 11 20 12
REMARK SMILES IDX 37 13 21 14 36 15 23 16 22 17 24 18 33 19 25 20 31 21 29 22
REMARK SMILES IDX 38 23 34 25 35 26 26 27 27 28 28 29 32 30 30 32 18 34 6 36
REMARK SMILES IDX 7 37 8 38 14 39 15 40 10 41 12 43
REMARK H PARENT 38 24 32 31 30 33 18 35 10 42 12 44
REMARK Flexibility Score: inf
ROOT
ATOM      1  C   UNL     1     115.264 108.051  96.433  1.00  0.00     0.045 C 
ATOM      2  C   UNL     1     115.924 106.879  97.118  1.00  0.00    -0.039 A 
ATOM      3  C   UNL     1     115.670 105.587  96.655  1.00  0.00     0.013 A 
ATOM      4  C   UNL     1     116.238 104.450  97.268  1.00  0.00    -0.006 A 
ATOM      5  C   UNL     1     117.203 104.643  98.297  1.00  0.00     0.039 A 
ATOM      6  C   UNL     1     117.963 103.525  98.748  1.00  0.00     0.072 A 
ATOM      7  C   UNL     1     117.708 102.243  98.229  1.00  0.00     0.169 A 
ATOM      8  C   UNL     1     116.698 102.049  97.266  1.00  0.00     0.162 A 
ATOM      9  C   UNL     1     115.888 103.130  96.852  1.00  0.00     0.008 A 
ATOM     10  C   UNL     1     117.350 105.944  98.863  1.00  0.00     0.132 A 
ATOM     11  C   UNL     1     116.722 107.057  98.262  1.00  0.00     0.031 A 
ENDROOT
BRANCH  11  12
ATOM     12  C   UNL     1     116.893 108.417  98.838  1.00  0.00     0.031 A 
ATOM     13  C   UNL     1     115.990 108.892  99.812  1.00  0.00     0.132 A 
ATOM     14  C   UNL     1     117.908 109.257  98.353  1.00  0.00    -0.039 A 
ATOM     15  C   UNL     1     116.122 110.212 100.339  1.00  0.00     0.039 A 
ATOM     16  C   UNL     1     117.993 110.570  98.815  1.00  0.00     0.013 A 
ATOM     17  C   UNL     1     118.849 108.796  97.266  1.00  0.00     0.045 C 
ATOM     18  C   UNL     1     117.143 111.068  99.822  1.00  0.00    -0.006 A 
ATOM     19  C   UNL     1     115.231 110.724 101.328  1.00  0.00     0.072 A 
ATOM     20  C   UNL     1     117.262 112.412 100.295  1.00  0.00     0.008 A 
ATOM     21  C   UNL     1     115.238 112.096 101.624  1.00  0.00     0.169 A 
ATOM     22  C   UNL     1     116.202 112.941 101.069  1.00  0.00     0.162 A 
BRANCH  13  23
ATOM     23  O   UNL     1     114.936 108.068 100.222  1.00  0.00    -0.507 OA
ATOM     24  H   UNL     1     114.060 108.413 100.584  1.00  0.00     0.293 HD
ENDBRANCH  13  23
BRANCH  19  25
ATOM     25  C   UNL     1     114.327 109.848 102.114  1.00  0.00     0.264 C 
ATOM     26  O   UNL     1     113.086 109.831 101.900  1.00  0.00    -0.298 OA
ENDBRANCH  19  25
BRANCH  20  27
ATOM     27  C   UNL     1     118.510 113.291 100.081  1.00  0.00     0.017 C 
ATOM     28  C   UNL     1     118.329 114.409  99.038  1.00  0.00     0.012 C 
ATOM     29  C   UNL     1     119.123 113.791 101.397  1.00  0.00     0.012 C 
ENDBRANCH  20  27
BRANCH  21  30
ATOM     30  O   UNL     1     114.283 112.618 102.504  1.00  0.00    -0.504 OA
ATOM     31  H   UNL     1     113.529 113.222 102.202  1.00  0.00     0.293 HD
ENDBRANCH  21  30
BRANCH  22  32
ATOM     32  O   UNL     1     116.079 114.315 101.313  1.00  0.00    -0.504 OA
ATOM     33  H   UNL     1     115.191 114.790 101.413  1.00  0.00     0.293 HD
ENDBRANCH  22  32
ENDBRANCH  11  12
BRANCH  10  34
ATOM     34  O   UNL     1     118.080 106.123 100.043  1.00  0.00    -0.507 OA
ATOM     35  H   UNL     1     118.760 106.860 100.178  1.00  0.00     0.293 HD
ENDBRANCH  10  34
BRANCH   9  36
ATOM     36  C   UNL     1     114.662 102.870  95.956  1.00  0.00     0.017 C 
ATOM     37  C   UNL     1     115.086 102.625  94.505  1.00  0.00     0.012 C 
ATOM     38  C   UNL     1     113.744 101.747  96.473  1.00  0.00     0.012 C 
ENDBRANCH   9  36
BRANCH   6  39
ATOM     39  C   UNL     1     119.125 103.684  99.654  1.00  0.00     0.264 C 
ATOM     40  O   UNL     1     119.059 103.330 100.862  1.00  0.00    -0.298 OA
ENDBRANCH   6  39
BRANCH   8  41
ATOM     41  O   UNL     1     116.503 100.799  96.672  1.00  0.00    -0.504 OA
ATOM     42  H   UNL     1     117.238 100.212  96.308  1.00  0.00     0.293 HD
ENDBRANCH   8  41
BRANCH   7  43
ATOM     43  O   UNL     1     118.487 101.174  98.689  1.00  0.00    -0.504 OA
ATOM     44  H   UNL     1     118.136 100.248  98.888  1.00  0.00     0.293 HD
ENDBRANCH   7  43
TORSDOF 11
ENDMDL
MODEL 3
REMARK VINA RESULT:    -4.461      0.846      9.161
REMARK INTER + INTRA:          -8.137
REMARK INTER:                  -6.651
REMARK INTRA:                  -1.486
REMARK UNBOUND:                -1.589
REMARK SMILES Cc1cc2c(C(C)C)c(O)c(O)c(C=O)c2c(O)c1-c1c(C)cc2c(C(C)C)c(O)c(O)c(C=O)c2c1O
REMARK SMILES IDX 1 1 2 2 3 3 4 4 16 5 13 6 11 7 9 8 5 9 17 10 19 11 20 12
REMARK SMILES IDX 37 13 21 14 36 15 23 16 22 17 24 18 33 19 25 20 31 21 29 22
REMARK SMILES IDX 38 23 34 25 35 26 26 27 27 28 28 29 32 30 30 32 18 34 6 36
REMARK SMILES IDX 7 37 8 38 14 39 15 40 10 41 12 43
REMARK H PARENT 38 24 32 31 30 33 18 35 10 42 12 44
REMARK Flexibility Score: inf
ROOT
ATOM      1  C   UNL     1     117.696 115.542  99.196  1.00  0.00     0.045 C 
ATOM      2  C   UNL     1     117.551 114.053  99.396  1.00  0.00    -0.039 A 
ATOM      3  C   UNL     1     117.886 113.190  98.351  1.00  0.00     0.013 A 
ATOM      4  C   UNL     1     117.750 111.790  98.469  1.00  0.00    -0.006 A 
ATOM      5  C   UNL     1     117.392 111.245  99.734  1.00  0.00     0.039 A 
ATOM      6  C   UNL     1     117.494 109.838  99.933  1.00  0.00     0.072 A 
ATOM      7  C   UNL     1     117.875 109.000  98.869  1.00  0.00     0.169 A 
ATOM      8  C   UNL     1     118.152 109.542  97.597  1.00  0.00     0.162 A 
ATOM      9  C   UNL     1     117.995 110.926  97.360  1.00  0.00     0.008 A 
ATOM     10  C   UNL     1     116.913 112.126 100.749  1.00  0.00     0.132 A 
ATOM     11  C   UNL     1     117.008 113.524 100.580  1.00  0.00     0.031 A 
ENDROOT
BRANCH  11  12
ATOM     12  C   UNL     1     116.528 114.443 101.647  1.00  0.00     0.031 A 
ATOM     13  C   UNL     1     115.222 114.973 101.590  1.00  0.00     0.132 A 
ATOM     14  C   UNL     1     117.406 114.844 102.667  1.00  0.00    -0.039 A 
ATOM     15  C   UNL     1     114.770 115.890 102.587  1.00  0.00     0.039 A 
ATOM     16  C   UNL     1     116.987 115.794 103.600  1.00  0.00     0.013 A 
ATOM     17  C   UNL     1     118.828 114.341 102.716  1.00  0.00     0.045 C 
ATOM     18  C   UNL     1     115.677 116.310 103.608  1.00  0.00    -0.006 A 
ATOM     19  C   UNL     1     113.454 116.442 102.564  1.00  0.00     0.072 A 
ATOM     20  C   UNL     1     115.263 117.268 104.586  1.00  0.00     0.008 A 
ATOM     21  C   UNL     1     113.142 117.523 103.404  1.00  0.00     0.169 A 
ATOM     22  C   UNL     1     114.056 117.970 104.361  1.00  0.00     0.162 A 
BRANCH  13  23
ATOM     23  O   UNL     1     114.393 114.625 100.519  1.00  0.00    -0.507 OA
ATOM     24  H   UNL     1     113.390 114.541 100.588  1.00  0.00     0.293 HD
ENDBRANCH  13  23
BRANCH  19  25
ATOM     25  C   UNL     1     112.369 115.876 101.727  1.00  0.00     0.264 C 
ATOM     26  O   UNL     1     111.866 116.534 100.777  1.00  0.00    -0.298 OA
ENDBRANCH  19  25
BRANCH  20  27
ATOM     27  C   UNL     1     116.013 117.523 105.909  1.00  0.00     0.017 C 
ATOM     28  C   UNL     1     116.826 118.830 105.939  1.00  0.00     0.012 C 
ATOM     29  C   UNL     1     115.121 117.342 107.146  1.00  0.00     0.012 C 
ENDBRANCH  20  27
BRANCH  21  30
ATOM     30  O   UNL     1     111.892 118.143 103.297  1.00  0.00    -0.504 OA
ATOM     31  H   UNL     1     111.260 118.246 104.081  1.00  0.00     0.293 HD
ENDBRANCH  21  30
BRANCH  22  32
ATOM     32  O   UNL     1     113.727 119.125 105.083  1.00  0.00    -0.504 OA
ATOM     33  H   UNL     1     114.311 119.951 105.117  1.00  0.00     0.293 HD
ENDBRANCH  22  32
ENDBRANCH  11  12
BRANCH  10  34
ATOM     34  O   UNL     1     116.302 111.613 101.899  1.00  0.00    -0.507 OA
ATOM     35  H   UNL     1     116.074 110.636 102.026  1.00  0.00     0.293 HD
ENDBRANCH  10  34
BRANCH   9  36
ATOM     36  C   UNL     1     118.104 111.474  95.924  1.00  0.00     0.017 C 
ATOM     37  C   UNL     1     116.729 111.876  95.385  1.00  0.00     0.012 C 
ATOM     38  C   UNL     1     119.125 112.617  95.773  1.00  0.00     0.012 C 
ENDBRANCH   9  36
BRANCH   6  39
ATOM     39  C   UNL     1     117.348 109.225 101.275  1.00  0.00     0.264 C 
ATOM     40  O   UNL     1     116.377 108.467 101.539  1.00  0.00    -0.298 OA
ENDBRANCH   6  39
BRANCH   8  41
ATOM     41  O   UNL     1     118.627 108.733  96.561  1.00  0.00    -0.504 OA
ATOM     42  H   UNL     1     119.585 108.696  96.249  1.00  0.00     0.293 HD
ENDBRANCH   8  41
BRANCH   7  43
ATOM     43  O   UNL     1     117.976 107.625  99.110  1.00  0.00    -0.504 OA
ATOM     44  H   UNL     1     118.815 107.077  98.981  1.00  0.00     0.293 HD
ENDBRANCH   7  43
TORSDOF 11
ENDMDL
MODEL 4
REMARK VINA RESULT:    -4.440      5.811      9.874
REMARK INTER + INTRA:          -8.106
REMARK INTER:                  -6.519
REMARK INTRA:                  -1.587
REMARK UNBOUND:                -1.589
REMARK SMILES Cc1cc2c(C(C)C)c(O)c(O)c(C=O)c2c(O)c1-c1c(C)cc2c(C(C)C)c(O)c(O)c(C=O)c2c1O
REMARK SMILES IDX 1 1 2 2 3 3 4 4 16 5 13 6 11 7 9 8 5 9 17 10 19 11 20 12
REMARK SMILES IDX 37 13 21 14 36 15 23 16 22 17 24 18 33 19 25 20 31 21 29 22
REMARK SMILES IDX 38 23 34 25 35 26 26 27 27 28 28 29 32 30 30 32 18 34 6 36
REMARK SMILES IDX 7 37 8 38 14 39 15 40 10 41 12 43
REMARK H PARENT 38 24 32 31 30 33 18 35 10 42 12 44
REMARK Flexibility Score: inf
ROOT
ATOM      1  C   UNL     1     116.109 106.438 100.960  1.00  0.00     0.045 C 
ATOM      2  C   UNL     1     116.425 107.388  99.830  1.00  0.00    -0.039 A 
ATOM      3  C   UNL     1     116.928 108.656 100.127  1.00  0.00     0.013 A 
ATOM      4  C   UNL     1     117.219 109.597  99.116  1.00  0.00    -0.006 A 
ATOM      5  C   UNL     1     117.125 109.186  97.756  1.00  0.00     0.039 A 
ATOM      6  C   UNL     1     117.652 110.036  96.741  1.00  0.00     0.072 A 
ATOM      7  C   UNL     1     118.190 111.291  97.080  1.00  0.00     0.169 A 
ATOM      8  C   UNL     1     118.208 111.722  98.422  1.00  0.00     0.162 A 
ATOM      9  C   UNL     1     117.633 110.925  99.436  1.00  0.00     0.008 A 
ATOM     10  C   UNL     1     116.477 107.951  97.457  1.00  0.00     0.132 A 
ATOM     11  C   UNL     1     116.144 107.053  98.494  1.00  0.00     0.031 A 
ENDROOT
BRANCH  11  12
ATOM     12  C   UNL     1     115.488 105.756  98.181  1.00  0.00     0.031 A 
ATOM     13  C   UNL     1     116.270 104.611  97.919  1.00  0.00     0.132 A 
ATOM     14  C   UNL     1     114.090 105.692  98.067  1.00  0.00    -0.039 A 
ATOM     15  C   UNL     1     115.649 103.373  97.575  1.00  0.00     0.039 A 
ATOM     16  C   UNL     1     113.487 104.500  97.661  1.00  0.00     0.013 A 
ATOM     17  C   UNL     1     113.233 106.916  98.279  1.00  0.00     0.045 C 
ATOM     18  C   UNL     1     114.227 103.323  97.439  1.00  0.00    -0.006 A 
ATOM     19  C   UNL     1     116.408 102.194  97.310  1.00  0.00     0.072 A 
ATOM     20  C   UNL     1     113.586 102.107  97.044  1.00  0.00     0.008 A 
ATOM     21  C   UNL     1     115.778 101.081  96.730  1.00  0.00     0.169 A 
ATOM     22  C   UNL     1     114.394 101.061  96.543  1.00  0.00     0.162 A 
BRANCH  13  23
ATOM     23  O   UNL     1     117.665 104.718  97.957  1.00  0.00    -0.507 OA
ATOM     24  H   UNL     1     118.271 104.030  98.379  1.00  0.00     0.293 HD
ENDBRANCH  13  23
BRANCH  19  25
ATOM     25  C   UNL     1     117.838 102.069  97.682  1.00  0.00     0.264 C 
ATOM     26  O   UNL     1     118.722 101.842  96.813  1.00  0.00    -0.298 OA
ENDBRANCH  19  25
BRANCH  20  27
ATOM     27  C   UNL     1     112.076 101.841  97.206  1.00  0.00     0.017 C 
ATOM     28  C   UNL     1     111.263 101.971  95.904  1.00  0.00     0.012 C 
ATOM     29  C   UNL     1     111.776 100.546  97.974  1.00  0.00     0.012 C 
ENDBRANCH  20  27
BRANCH  21  30
ATOM     30  O   UNL     1     116.545  99.970  96.358  1.00  0.00    -0.504 OA
ATOM     31  H   UNL     1     117.143  99.473  97.007  1.00  0.00     0.293 HD
ENDBRANCH  21  30
BRANCH  22  32
ATOM     32  O   UNL     1     113.849  99.971  95.853  1.00  0.00    -0.504 OA
ATOM     33  H   UNL     1     113.152 100.059  95.124  1.00  0.00     0.293 HD
ENDBRANCH  22  32
ENDBRANCH  11  12
BRANCH  10  34
ATOM     34  O   UNL     1     116.125 107.639  96.139  1.00  0.00    -0.507 OA
ATOM     35  H   UNL     1     115.237 107.233  95.875  1.00  0.00     0.293 HD
ENDBRANCH  10  34
BRANCH   9  36
ATOM     36  C   UNL     1     117.478 111.492 100.860  1.00  0.00     0.017 C 
ATOM     37  C   UNL     1     118.838 111.612 101.554  1.00  0.00     0.012 C 
ATOM     38  C   UNL     1     116.698 112.819 100.918  1.00  0.00     0.012 C 
ENDBRANCH   9  36
BRANCH   6  39
ATOM     39  C   UNL     1     117.784 109.586  95.335  1.00  0.00     0.264 C 
ATOM     40  O   UNL     1     117.044 110.057  94.430  1.00  0.00    -0.298 OA
ENDBRANCH   6  39
BRANCH   8  41
ATOM     41  O   UNL     1     118.828 112.922  98.781  1.00  0.00    -0.504 OA
ATOM     42  H   UNL     1     119.552 113.380  98.248  1.00  0.00     0.293 HD
ENDBRANCH   8  41
BRANCH   7  43
ATOM     43  O   UNL     1     118.709 112.090  96.053  1.00  0.00    -0.504 OA
ATOM     44  H   UNL     1     119.114 113.006  96.184  1.00  0.00     0.293 HD
ENDBRANCH   7  43
TORSDOF 11
ENDMDL
MODEL 5
REMARK VINA RESULT:    -4.401      1.463      8.942
REMARK INTER + INTRA:          -8.048
REMARK INTER:                  -6.536
REMARK INTRA:                  -1.512
REMARK UNBOUND:                -1.589
REMARK SMILES Cc1cc2c(C(C)C)c(O)c(O)c(C=O)c2c(O)c1-c1c(C)cc2c(C(C)C)c(O)c(O)c(C=O)c2c1O
REMARK SMILES IDX 1 1 2 2 3 3 4 4 16 5 13 6 11 7 9 8 5 9 17 10 19 11 20 12
REMARK SMILES IDX 37 13 21 14 36 15 23 16 22 17 24 18 33 19 25 20 31 21 29 22
REMARK SMILES IDX 38 23 34 25 35 26 26 27 27 28 28 29 32 30 30 32 18 34 6 36
REMARK SMILES IDX 7 37 8 38 14 39 15 40 10 41 12 43
REMARK H PARENT 38 24 32 31 30 33 18 35 10 42 12 44
REMARK Flexibility Score: inf
ROOT
ATOM      1  C   UNL     1     116.873 116.028  99.342  1.00  0.00     0.045 C 
ATOM      2  C   UNL     1     116.787 114.578  99.754  1.00  0.00    -0.039 A 
ATOM      3  C   UNL     1     117.366 113.603  98.940  1.00  0.00     0.013 A 
ATOM      4  C   UNL     1     117.299 112.230  99.260  1.00  0.00    -0.006 A 
ATOM      5  C   UNL     1     116.745 111.850 100.515  1.00  0.00     0.039 A 
ATOM      6  C   UNL     1     116.897 110.504 100.957  1.00  0.00     0.072 A 
ATOM      7  C   UNL     1     117.523 109.555 100.128  1.00  0.00     0.169 A 
ATOM      8  C   UNL     1     118.000 109.924  98.854  1.00  0.00     0.162 A 
ATOM      9  C   UNL     1     117.803 111.236  98.369  1.00  0.00     0.008 A 
ATOM     10  C   UNL     1     116.029 112.825 101.271  1.00  0.00     0.132 A 
ATOM     11  C   UNL     1     116.066 114.185 100.895  1.00  0.00     0.031 A 
ENDROOT
BRANCH  11  12
ATOM     12  C   UNL     1     115.337 115.205 101.695  1.00  0.00     0.031 A 
ATOM     13  C   UNL     1     115.994 115.885 102.742  1.00  0.00     0.132 A 
ATOM     14  C   UNL     1     113.972 115.431 101.458  1.00  0.00    -0.039 A 
ATOM     15  C   UNL     1     115.289 116.834 103.543  1.00  0.00     0.039 A 
ATOM     16  C   UNL     1     113.266 116.305 102.286  1.00  0.00     0.013 A 
ATOM     17  C   UNL     1     113.229 114.671 100.386  1.00  0.00     0.045 C 
ATOM     18  C   UNL     1     113.894 117.040 103.309  1.00  0.00    -0.006 A 
ATOM     19  C   UNL     1     115.921 117.545 104.606  1.00  0.00     0.072 A 
ATOM     20  C   UNL     1     113.154 117.946 104.133  1.00  0.00     0.008 A 
ATOM     21  C   UNL     1     115.137 118.265 105.521  1.00  0.00     0.169 A 
ATOM     22  C   UNL     1     113.762 118.414 105.321  1.00  0.00     0.162 A 
BRANCH  13  23
ATOM     23  O   UNL     1     117.333 115.584 103.015  1.00  0.00    -0.507 OA
ATOM     24  H   UNL     1     117.890 114.950 102.463  1.00  0.00     0.293 HD
ENDBRANCH  13  23
BRANCH  19  25
ATOM     25  C   UNL     1     117.396 117.608 104.753  1.00  0.00     0.264 C 
ATOM     26  O   UNL     1     118.000 116.890 105.595  1.00  0.00    -0.298 OA
ENDBRANCH  19  25
BRANCH  20  27
ATOM     27  C   UNL     1     111.766 118.505 103.762  1.00  0.00     0.017 C 
ATOM     28  C   UNL     1     111.627 118.941 102.292  1.00  0.00     0.012 C 
ATOM     29  C   UNL     1     110.614 117.606 104.234  1.00  0.00     0.012 C 
ENDBRANCH  20  27
BRANCH  21  30
ATOM     30  O   UNL     1     115.745 118.861 106.632  1.00  0.00    -0.504 OA
ATOM     31  H   UNL     1     116.412 119.618 106.554  1.00  0.00     0.293 HD
ENDBRANCH  21  30
BRANCH  22  32
ATOM     32  O   UNL     1     113.024 119.042 106.332  1.00  0.00    -0.504 OA
ATOM     33  H   UNL     1     112.053 119.309 106.234  1.00  0.00     0.293 HD
ENDBRANCH  22  32
ENDBRANCH  11  12
BRANCH  10  34
ATOM     34  O   UNL     1     115.247 112.436 102.364  1.00  0.00    -0.507 OA
ATOM     35  H   UNL     1     114.774 111.544 102.428  1.00  0.00     0.293 HD
ENDBRANCH  10  34
BRANCH   9  36
ATOM     36  C   UNL     1     118.145 111.571  96.905  1.00  0.00     0.017 C 
ATOM     37  C   UNL     1     116.874 111.788  96.080  1.00  0.00     0.012 C 
ATOM     38  C   UNL     1     119.125 112.749  96.751  1.00  0.00     0.012 C 
ENDBRANCH   9  36
BRANCH   6  39
ATOM     39  C   UNL     1     116.540 110.087 102.334  1.00  0.00     0.264 C 
ATOM     40  O   UNL     1     115.521 109.379 102.554  1.00  0.00    -0.298 OA
ENDBRANCH   6  39
BRANCH   8  41
ATOM     41  O   UNL     1     118.711 109.016  98.064  1.00  0.00    -0.504 OA
ATOM     42  H   UNL     1     118.380 108.622  97.196  1.00  0.00     0.293 HD
ENDBRANCH   8  41
BRANCH   7  43
ATOM     43  O   UNL     1     117.664 108.246 100.605  1.00  0.00    -0.504 OA
ATOM     44  H   UNL     1     116.928 107.555 100.619  1.00  0.00     0.293 HD
ENDBRANCH   7  43
TORSDOF 11
ENDMDL
MODEL 6
REMARK VINA RESULT:    -4.377      4.859      8.694
REMARK INTER + INTRA:          -8.012
REMARK INTER:                  -6.678
REMARK INTRA:                  -1.334
REMARK UNBOUND:                -1.589
REMARK SMILES Cc1cc2c(C(C)C)c(O)c(O)c(C=O)c2c(O)c1-c1c(C)cc2c(C(C)C)c(O)c(O)c(C=O)c2c1O
REMARK SMILES IDX 1 1 2 2 3 3 4 4 16 5 13 6 11 7 9 8 5 9 17 10 19 11 20 12
REMARK SMILES IDX 37 13 21 14 36 15 23 16 22 17 24 18 33 19 25 20 31 21 29 22
REMARK SMILES IDX 38 23 34 25 35 26 26 27 27 28 28 29 32 30 30 32 18 34 6 36
REMARK SMILES IDX 7 37 8 38 14 39 15 40 10 41 12 43
REMARK H PARENT 38 24 32 31 30 33 18 35 10 42 12 44
REMARK Flexibility Score: inf
ROOT
ATOM      1  C   UNL     1     116.307 107.564 101.481  1.00  0.00     0.045 C 
ATOM      2  C   UNL     1     116.665 108.512 100.362  1.00  0.00    -0.039 A 
ATOM      3  C   UNL     1     116.912 109.853 100.659  1.00  0.00     0.013 A 
ATOM      4  C   UNL     1     117.229 110.792  99.654  1.00  0.00    -0.006 A 
ATOM      5  C   UNL     1     117.434 110.325  98.325  1.00  0.00     0.039 A 
ATOM      6  C   UNL     1     117.993 111.211  97.361  1.00  0.00     0.072 A 
ATOM      7  C   UNL     1     118.269 112.547  97.706  1.00  0.00     0.169 A 
ATOM      8  C   UNL     1     117.990 113.022  99.003  1.00  0.00     0.162 A 
ATOM      9  C   UNL     1     117.376 112.180  99.956  1.00  0.00     0.008 A 
ATOM     10  C   UNL     1     117.041 108.992  98.001  1.00  0.00     0.132 A 
ATOM     11  C   UNL     1     116.673 108.089  99.021  1.00  0.00     0.031 A 
ENDROOT
BRANCH  11  12
ATOM     12  C   UNL     1     116.285 106.694  98.685  1.00  0.00     0.031 A 
ATOM     13  C   UNL     1     117.237 105.656  98.760  1.00  0.00     0.132 A 
ATOM     14  C   UNL     1     114.989 106.426  98.215  1.00  0.00    -0.039 A 
ATOM     15  C   UNL     1     116.883 104.321  98.397  1.00  0.00     0.039 A 
ATOM     16  C   UNL     1     114.664 105.136  97.793  1.00  0.00     0.013 A 
ATOM     17  C   UNL     1     113.969 107.529  98.065  1.00  0.00     0.045 C 
ATOM     18  C   UNL     1     115.569 104.062  97.898  1.00  0.00    -0.006 A 
ATOM     19  C   UNL     1     117.818 103.246  98.466  1.00  0.00     0.072 A 
ATOM     20  C   UNL     1     115.207 102.744  97.478  1.00  0.00     0.008 A 
ATOM     21  C   UNL     1     117.506 102.018  97.861  1.00  0.00     0.169 A 
ATOM     22  C   UNL     1     116.239 101.789  97.320  1.00  0.00     0.162 A 
BRANCH  13  23
ATOM     23  O   UNL     1     118.546 105.960  99.151  1.00  0.00    -0.507 OA
ATOM     24  H   UNL     1     118.947 105.686 100.036  1.00  0.00     0.293 HD
ENDBRANCH  13  23
BRANCH  19  25
ATOM     25  C   UNL     1     119.096 103.349  99.212  1.00  0.00     0.264 C 
ATOM     26  O   UNL     1     119.124 103.294 100.470  1.00  0.00    -0.298 OA
ENDBRANCH  19  25
BRANCH  20  27
ATOM     27  C   UNL     1     113.753 102.279  97.264  1.00  0.00     0.017 C 
ATOM     28  C   UNL     1     113.408 101.916  95.809  1.00  0.00     0.012 C 
ATOM     29  C   UNL     1     113.314 101.207  98.272  1.00  0.00     0.012 C 
ENDBRANCH  20  27
BRANCH  21  30
ATOM     30  O   UNL     1     118.470 101.003  97.822  1.00  0.00    -0.504 OA
ATOM     31  H   UNL     1     119.420 101.134  98.147  1.00  0.00     0.293 HD
ENDBRANCH  21  30
BRANCH  22  32
ATOM     32  O   UNL     1     116.035 100.588  96.629  1.00  0.00    -0.504 OA
ATOM     33  H   UNL     1     116.060 100.509  95.620  1.00  0.00     0.293 HD
ENDBRANCH  22  32
ENDBRANCH  11  12
BRANCH  10  34
ATOM     34  O   UNL     1     116.973 108.582  96.664  1.00  0.00    -0.507 OA
ATOM     35  H   UNL     1     116.578 107.700  96.366  1.00  0.00     0.293 HD
ENDBRANCH  10  34
BRANCH   9  36
ATOM     36  C   UNL     1     116.893 112.765 101.297  1.00  0.00     0.017 C 
ATOM     37  C   UNL     1     118.079 113.136 102.191  1.00  0.00     0.012 C 
ATOM     38  C   UNL     1     115.914 113.943 101.143  1.00  0.00     0.012 C 
ENDBRANCH   9  36
BRANCH   6  39
ATOM     39  C   UNL     1     118.433 110.738  96.026  1.00  0.00     0.264 C 
ATOM     40  O   UNL     1     117.757 110.990  94.994  1.00  0.00    -0.298 OA
ENDBRANCH   6  39
BRANCH   8  41
ATOM     41  O   UNL     1     118.351 114.317  99.385  1.00  0.00    -0.504 OA
ATOM     42  H   UNL     1     118.350 115.121  98.775  1.00  0.00     0.293 HD
ENDBRANCH   8  41
BRANCH   7  43
ATOM     43  O   UNL     1     118.831 113.382  96.731  1.00  0.00    -0.504 OA
ATOM     44  H   UNL     1     119.728 113.838  96.811  1.00  0.00     0.293 HD
ENDBRANCH   7  43
TORSDOF 11
ENDMDL
MODEL 7
REMARK VINA RESULT:    -4.288      5.897     12.414
REMARK INTER + INTRA:          -7.882
REMARK INTER:                  -6.435
REMARK INTRA:                  -1.447
REMARK UNBOUND:                -1.589
REMARK SMILES Cc1cc2c(C(C)C)c(O)c(O)c(C=O)c2c(O)c1-c1c(C)cc2c(C(C)C)c(O)c(O)c(C=O)c2c1O
REMARK SMILES IDX 1 1 2 2 3 3 4 4 16 5 13 6 11 7 9 8 5 9 17 10 19 11 20 12
REMARK SMILES IDX 37 13 21 14 36 15 23 16 22 17 24 18 33 19 25 20 31 21 29 22
REMARK SMILES IDX 38 23 34 25 35 26 26 27 27 28 28 29 32 30 30 32 18 34 6 36
REMARK SMILES IDX 7 37 8 38 14 39 15 40 10 41 12 43
REMARK H PARENT 38 24 32 31 30 33 18 35 10 42 12 44
REMARK Flexibility Score: inf
ROOT
ATOM      1  C   UNL     1     112.852 106.857  96.933  1.00  0.00     0.045 C 
ATOM      2  C   UNL     1     113.774 105.666  97.025  1.00  0.00    -0.039 A 
ATOM      3  C   UNL     1     113.268 104.391  96.763  1.00  0.00     0.013 A 
ATOM      4  C   UNL     1     114.075 103.237  96.855  1.00  0.00    -0.006 A 
ATOM      5  C   UNL     1     115.470 103.397  97.086  1.00  0.00     0.039 A 
ATOM      6  C   UNL     1     116.329 102.271  96.933  1.00  0.00     0.072 A 
ATOM      7  C   UNL     1     115.790 101.008  96.628  1.00  0.00     0.169 A 
ATOM      8  C   UNL     1     114.398 100.843  96.477  1.00  0.00     0.162 A 
ATOM      9  C   UNL     1     113.522 101.931  96.688  1.00  0.00     0.008 A 
ATOM     10  C   UNL     1     115.953 104.676  97.495  1.00  0.00     0.132 A 
ATOM     11  C   UNL     1     115.108 105.805  97.448  1.00  0.00     0.031 A 
ENDROOT
BRANCH  11  12
ATOM     12  C   UNL     1     115.617 107.142  97.853  1.00  0.00     0.031 A 
ATOM     13  C   UNL     1     116.184 108.005  96.892  1.00  0.00     0.132 A 
ATOM     14  C   UNL     1     115.606 107.510  99.208  1.00  0.00    -0.039 A 
ATOM     15  C   UNL     1     116.715 109.272  97.280  1.00  0.00     0.039 A 
ATOM     16  C   UNL     1     116.189 108.717  99.597  1.00  0.00     0.013 A 
ATOM     17  C   UNL     1     115.063 106.580 100.265  1.00  0.00     0.045 C 
ATOM     18  C   UNL     1     116.720 109.628  98.665  1.00  0.00    -0.006 A 
ATOM     19  C   UNL     1     117.291 110.172  96.335  1.00  0.00     0.072 A 
ATOM     20  C   UNL     1     117.295 110.869  99.084  1.00  0.00     0.008 A 
ATOM     21  C   UNL     1     118.025 111.279  96.791  1.00  0.00     0.169 A 
ATOM     22  C   UNL     1     118.077 111.589  98.152  1.00  0.00     0.162 A 
BRANCH  13  23
ATOM     23  O   UNL     1     116.261 107.583  95.560  1.00  0.00    -0.507 OA
ATOM     24  H   UNL     1     116.034 108.168  94.770  1.00  0.00     0.293 HD
ENDBRANCH  13  23
BRANCH  19  25
ATOM     25  C   UNL     1     117.093 110.024  94.873  1.00  0.00     0.264 C 
ATOM     26  O   UNL     1     116.612 110.960  94.180  1.00  0.00    -0.298 OA
ENDBRANCH  19  25
BRANCH  20  27
ATOM     27  C   UNL     1     117.046 111.506 100.466  1.00  0.00     0.017 C 
ATOM     28  C   UNL     1     118.270 111.500 101.400  1.00  0.00     0.012 C 
ATOM     29  C   UNL     1     116.365 112.880 100.377  1.00  0.00     0.012 C 
ENDBRANCH  20  27
BRANCH  21  30
ATOM     30  O   UNL     1     118.691 112.094  95.868  1.00  0.00    -0.504 OA
ATOM     31  H   UNL     1     119.631 112.440  96.018  1.00  0.00     0.293 HD
ENDBRANCH  21  30
BRANCH  22  32
ATOM     32  O   UNL     1     118.922 112.635  98.547  1.00  0.00    -0.504 OA
ATOM     33  H   UNL     1     118.786 113.178  99.390  1.00  0.00     0.293 HD
ENDBRANCH  22  32
ENDBRANCH  11  12
BRANCH  10  34
ATOM     34  O   UNL     1     117.256 104.814  97.988  1.00  0.00    -0.507 OA
ATOM     35  H   UNL     1     117.750 104.082  98.482  1.00  0.00     0.293 HD
ENDBRANCH  10  34
BRANCH   9  36
ATOM     36  C   UNL     1     112.000 101.694  96.719  1.00  0.00     0.017 C 
ATOM     37  C   UNL     1     111.393 102.198  98.031  1.00  0.00     0.012 C 
ATOM     38  C   UNL     1     111.258 102.269  95.498  1.00  0.00     0.012 C 
ENDBRANCH   9  36
BRANCH   6  39
ATOM     39  C   UNL     1     117.805 102.406  96.946  1.00  0.00     0.264 C 
ATOM     40  O   UNL     1     118.487 101.983  97.917  1.00  0.00    -0.298 OA
ENDBRANCH   6  39
BRANCH   8  41
ATOM     41  O   UNL     1     113.861  99.616  96.077  1.00  0.00    -0.504 OA
ATOM     42  H   UNL     1     113.980  99.203  95.164  1.00  0.00     0.293 HD
ENDBRANCH   8  41
BRANCH   7  43
ATOM     43  O   UNL     1     116.670  99.930  96.473  1.00  0.00    -0.504 OA
ATOM     44  H   UNL     1     116.612  99.239  95.739  1.00  0.00     0.293 HD
ENDBRANCH   7  43
TORSDOF 11
ENDMDL
MODEL 8
REMARK VINA RESULT:    -4.280      4.985     11.052
REMARK INTER + INTRA:          -7.870
REMARK INTER:                  -6.477
REMARK INTRA:                  -1.393
REMARK UNBOUND:                -1.589
REMARK SMILES Cc1cc2c(C(C)C)c(O)c(O)c(C=O)c2c(O)c1-c1c(C)cc2c(C(C)C)c(O)c(O)c(C=O)c2c1O
REMARK SMILES IDX 1 1 2 2 3 3 4 4 16 5 13 6 11 7 9 8 5 9 17 10 19 11 20 12
REMARK SMILES IDX 37 13 21 14 36 15 23 16 22 17 24 18 33 19 25 20 31 21 29 22
REMARK SMILES IDX 38 23 34 25 35 26 26 27 27 28 28 29 32 30 30 32 18 34 6 36
REMARK SMILES IDX 7 37 8 38 14 39 15 40 10 41 12 43
REMARK H PARENT 38 24 32 31 30 33 18 35 10 42 12 44
REMARK Flexibility Score: inf
ROOT
ATOM      1  C   UNL     1     113.372 107.793  97.918  1.00  0.00     0.045 C 
ATOM      2  C   UNL     1     114.332 106.739  98.413  1.00  0.00    -0.039 A 
ATOM      3  C   UNL     1     113.883 105.426  98.563  1.00  0.00     0.013 A 
ATOM      4  C   UNL     1     114.727 104.401  99.044  1.00  0.00    -0.006 A 
ATOM      5  C   UNL     1     116.105 104.693  99.247  1.00  0.00     0.039 A 
ATOM      6  C   UNL     1     117.009 103.619  99.489  1.00  0.00     0.072 A 
ATOM      7  C   UNL     1     116.528 102.301  99.593  1.00  0.00     0.169 A 
ATOM      8  C   UNL     1     115.150 102.031  99.468  1.00  0.00     0.162 A 
ATOM      9  C   UNL     1     114.228 103.087  99.293  1.00  0.00     0.008 A 
ATOM     10  C   UNL     1     116.525 106.056  99.233  1.00  0.00     0.132 A 
ATOM     11  C   UNL     1     115.642 107.069  98.802  1.00  0.00     0.031 A 
ENDROOT
BRANCH  11  12
ATOM     12  C   UNL     1     116.087 108.488  98.767  1.00  0.00     0.031 A 
ATOM     13  C   UNL     1     116.608 109.038  97.577  1.00  0.00     0.132 A 
ATOM     14  C   UNL     1     116.062 109.255  99.943  1.00  0.00    -0.039 A 
ATOM     15  C   UNL     1     117.078 110.385  97.548  1.00  0.00     0.039 A 
ATOM     16  C   UNL     1     116.586 110.548  99.932  1.00  0.00     0.013 A 
ATOM     17  C   UNL     1     115.567 108.672 101.245  1.00  0.00     0.045 C 
ATOM     18  C   UNL     1     117.069 111.151  98.755  1.00  0.00    -0.006 A 
ATOM     19  C   UNL     1     117.606 110.976  96.361  1.00  0.00     0.072 A 
ATOM     20  C   UNL     1     117.583 112.485  98.762  1.00  0.00     0.008 A 
ATOM     21  C   UNL     1     118.286 112.202  96.441  1.00  0.00     0.169 A 
ATOM     22  C   UNL     1     118.327 112.918  97.639  1.00  0.00     0.162 A 
BRANCH  13  23
ATOM     23  O   UNL     1     116.701 108.229  96.439  1.00  0.00    -0.507 OA
ATOM     24  H   UNL     1     116.114 107.427  96.268  1.00  0.00     0.293 HD
ENDBRANCH  13  23
BRANCH  19  25
ATOM     25  C   UNL     1     117.411 110.375  95.019  1.00  0.00     0.264 C 
ATOM     26  O   UNL     1     116.781 110.986  94.115  1.00  0.00    -0.298 OA
ENDBRANCH  19  25
BRANCH  20  27
ATOM     27  C   UNL     1     117.308 113.506  99.885  1.00  0.00     0.017 C 
ATOM     28  C   UNL     1     118.504 113.763 100.819  1.00  0.00     0.012 C 
ATOM     29  C   UNL     1     116.658 114.799  99.371  1.00  0.00     0.012 C 
ENDBRANCH  20  27
BRANCH  21  30
ATOM     30  O   UNL     1     118.909 112.721  95.300  1.00  0.00    -0.504 OA
ATOM     31  H   UNL     1     118.392 113.113  94.522  1.00  0.00     0.293 HD
ENDBRANCH  21  30
BRANCH  22  32
ATOM     32  O   UNL     1     119.121 114.072  97.678  1.00  0.00    -0.504 OA
ATOM     33  H   UNL     1     118.752 115.010  97.590  1.00  0.00     0.293 HD
ENDBRANCH  22  32
ENDBRANCH  11  12
BRANCH  10  34
ATOM     34  O   UNL     1     117.801 106.406  99.690  1.00  0.00    -0.507 OA
ATOM     35  H   UNL     1     118.315 107.213  99.360  1.00  0.00     0.293 HD
ENDBRANCH  10  34
BRANCH   9  36
ATOM     36  C   UNL     1     112.716 102.801  99.360  1.00  0.00     0.017 C 
ATOM     37  C   UNL     1     112.271 101.928  98.183  1.00  0.00     0.012 C 
ATOM     38  C   UNL     1     112.255 102.211 100.705  1.00  0.00     0.012 C 
ENDBRANCH   9  36
BRANCH   6  39
ATOM     39  C   UNL     1     118.478 103.819  99.495  1.00  0.00     0.264 C 
ATOM     40  O   UNL     1     119.125 103.839 100.576  1.00  0.00    -0.298 OA
ENDBRANCH   6  39
BRANCH   8  41
ATOM     41  O   UNL     1     114.674 100.717  99.472  1.00  0.00    -0.504 OA
ATOM     42  H   UNL     1     115.230  99.900  99.267  1.00  0.00     0.293 HD
ENDBRANCH   8  41
BRANCH   7  43
ATOM     43  O   UNL     1     117.452 101.273  99.818  1.00  0.00    -0.504 OA
ATOM     44  H   UNL     1     118.331 101.383 100.302  1.00  0.00     0.293 HD
ENDBRANCH   7  43
TORSDOF 11
ENDMDL
MODEL 9
REMARK VINA RESULT:    -2.465      4.446     11.338
REMARK INTER + INTRA:          -5.206
REMARK INTER:                  -3.765
REMARK INTRA:                  -1.441
REMARK UNBOUND:                -1.589
REMARK SMILES Cc1cc2c(C(C)C)c(O)c(O)c(C=O)c2c(O)c1-c1c(C)cc2c(C(C)C)c(O)c(O)c(C=O)c2c1O
REMARK SMILES IDX 1 1 2 2 3 3 4 4 16 5 13 6 11 7 9 8 5 9 17 10 19 11 20 12
REMARK SMILES IDX 37 13 21 14 36 15 23 16 22 17 24 18 33 19 25 20 31 21 29 22
REMARK SMILES IDX 38 23 34 25 35 26 26 27 27 28 28 29 32 30 30 32 18 34 6 36
REMARK SMILES IDX 7 37 8 38 14 39 15 40 10 41 12 43
REMARK H PARENT 38 24 32 31 30 33 18 35 10 42 12 44
REMARK Flexibility Score: inf
ROOT
ATOM      1  C   UNL     1     114.715 108.030  96.099  1.00  0.00     0.045 C 
ATOM      2  C   UNL     1     115.529 107.061  96.921  1.00  0.00    -0.039 A 
ATOM      3  C   UNL     1     115.479 105.700  96.616  1.00  0.00     0.013 A 
ATOM      4  C   UNL     1     116.200 104.743  97.363  1.00  0.00    -0.006 A 
ATOM      5  C   UNL     1     117.105 105.199  98.362  1.00  0.00     0.039 A 
ATOM      6  C   UNL     1     118.015 104.271  98.945  1.00  0.00     0.072 A 
ATOM      7  C   UNL     1     117.964 102.912  98.584  1.00  0.00     0.169 A 
ATOM      8  C   UNL     1     117.012 102.455  97.651  1.00  0.00     0.162 A 
ATOM      9  C   UNL     1     116.058 103.345  97.109  1.00  0.00     0.008 A 
ATOM     10  C   UNL     1     117.046 106.566  98.766  1.00  0.00     0.132 A 
ATOM     11  C   UNL     1     116.270 107.492  98.035  1.00  0.00     0.031 A 
ENDROOT
BRANCH  11  12
ATOM     12  C   UNL     1     116.226 108.921  98.444  1.00  0.00     0.031 A 
ATOM     13  C   UNL     1     117.134 109.846  97.887  1.00  0.00     0.132 A 
ATOM     14  C   UNL     1     115.330 109.332  99.444  1.00  0.00    -0.039 A 
ATOM     15  C   UNL     1     117.126 111.211  98.306  1.00  0.00     0.039 A 
ATOM     16  C   UNL     1     115.370 110.648  99.904  1.00  0.00     0.013 A 
ATOM     17  C   UNL     1     114.390 108.350 100.101  1.00  0.00     0.045 C 
ATOM     18  C   UNL     1     116.226 111.614  99.341  1.00  0.00    -0.006 A 
ATOM     19  C   UNL     1     118.026 112.174  97.761  1.00  0.00     0.072 A 
ATOM     20  C   UNL     1     116.236 112.963  99.815  1.00  0.00     0.008 A 
ATOM     21  C   UNL     1     118.156 113.428  98.380  1.00  0.00     0.169 A 
ATOM     22  C   UNL     1     117.314 113.795  99.433  1.00  0.00     0.162 A 
BRANCH  13  23
ATOM     23  O   UNL     1     118.074 109.398  96.952  1.00  0.00    -0.507 OA
ATOM     24  H   UNL     1     118.231 109.837  96.058  1.00  0.00     0.293 HD
ENDBRANCH  13  23
BRANCH  19  25
ATOM     25  C   UNL     1     118.794 111.930  96.516  1.00  0.00     0.264 C 
ATOM     26  O   UNL     1     118.244 111.998  95.385  1.00  0.00    -0.298 OA
ENDBRANCH  19  25
BRANCH  20  27
ATOM     27  C   UNL     1     115.102 113.588 100.652  1.00  0.00     0.017 C 
ATOM     28  C   UNL     1     115.461 113.834 102.129  1.00  0.00     0.012 C 
ATOM     29  C   UNL     1     114.465 114.812  99.977  1.00  0.00     0.012 C 
ENDBRANCH  20  27
BRANCH  21  30
ATOM     30  O   UNL     1     119.125 114.327  97.920  1.00  0.00    -0.504 OA
ATOM     31  H   UNL     1     118.914 115.083  97.280  1.00  0.00     0.293 HD
ENDBRANCH  21  30
BRANCH  22  32
ATOM     32  O   UNL     1     117.577 115.010 100.079  1.00  0.00    -0.504 OA
ATOM     33  H   UNL     1     118.494 115.283 100.409  1.00  0.00     0.293 HD
ENDBRANCH  22  32
ENDBRANCH  11  12
BRANCH  10  34
ATOM     34  O   UNL     1     117.718 106.992  99.917  1.00  0.00    -0.507 OA
ATOM     35  H   UNL     1     118.250 107.850  99.973  1.00  0.00     0.293 HD
ENDBRANCH  10  34
BRANCH   9  36
ATOM     36  C   UNL     1     114.902 102.799  96.250  1.00  0.00     0.017 C 
ATOM     37  C   UNL     1     115.383 102.457  94.837  1.00  0.00     0.012 C 
ATOM     38  C   UNL     1     114.158 101.614  96.894  1.00  0.00     0.012 C 
ENDBRANCH   9  36
BRANCH   6  39
ATOM     39  C   UNL     1     119.123 104.710  99.826  1.00  0.00     0.264 C 
ATOM     40  O   UNL     1     119.099 104.474 101.064  1.00  0.00    -0.298 OA
ENDBRANCH   6  39
BRANCH   8  41
ATOM     41  O   UNL     1     117.017 101.128  97.212  1.00  0.00    -0.504 OA
ATOM     42  H   UNL     1     117.322 100.822  96.300  1.00  0.00     0.293 HD
ENDBRANCH   8  41
BRANCH   7  43
ATOM     43  O   UNL     1     118.885 102.035  99.171  1.00  0.00    -0.504 OA
ATOM     44  H   UNL     1     118.640 101.240  99.744  1.00  0.00     0.293 HD
ENDBRANCH   7  43
TORSDOF 11
ENDMDL
