MODEL 1
REMARK VINA RESULT:    -2.622      0.000      0.000
REMARK INTER + INTRA:          -5.124
REMARK INTER:                  -4.462
REMARK INTRA:                  -0.662
REMARK UNBOUND:                -0.662
REMARK SMILES CCCCCCCCCCCCCC(=O)[O-]
REMARK SMILES IDX 8 1 9 2 10 3 11 4 12 5 13 6 14 7 15 8 16 9 7 10 6 11 5 12
REMARK SMILES IDX 4 13 3 14 2 15 1 16
REMARK H PARENT
REMARK Flexibility Score: inf
ROOT
ATOM      1  C   UNL     1      19.122   8.210  11.798  1.00  0.00     0.000 C 
ENDROOT
BRANCH   1   2
ATOM      2  C   UNL     1      17.649   8.088  12.205  1.00  0.00     0.000 C 
BRANCH   2   3
ATOM      3  C   UNL     1      17.415   8.671  13.604  1.00  0.00     0.000 C 
BRANCH   3   4
ATOM      4  C   UNL     1      16.899   7.595  14.570  1.00  0.00     0.000 C 
BRANCH   4   5
ATOM      5  C   UNL     1      17.726   7.500  15.866  1.00  0.00     0.006 C 
BRANCH   5   6
ATOM      6  C   UNL     1      19.071   6.770  15.696  1.00  0.00     0.053 C 
BRANCH   6   7
ATOM      7  C   UNL     1      18.905   5.323  15.348  1.00  0.00     0.041 C 
ATOM      8  O   UNL     1      19.526   4.827  14.371  1.00  0.00    -0.550 OA
ATOM      9  O   UNL     1      18.087   4.510  16.124  1.00  0.00    -0.550 OA
ENDBRANCH   6   7
ENDBRANCH   5   6
ENDBRANCH   4   5
ENDBRANCH   3   4
ENDBRANCH   2   3
ENDBRANCH   1   2
BRANCH   1  10
ATOM     10  C   UNL     1      19.480   9.660  11.450  1.00  0.00     0.000 C 
BRANCH  10  11
ATOM     11  C   UNL     1      20.739   9.722  10.578  1.00  0.00    -0.000 C 
BRANCH  11  12
ATOM     12  C   UNL     1      20.394  10.125   9.139  1.00  0.00    -0.000 C 
BRANCH  12  13
ATOM     13  C   UNL     1      21.551   9.799   8.184  1.00  0.00    -0.000 C 
BRANCH  13  14
ATOM     14  C   UNL     1      21.120   9.806   6.708  1.00  0.00    -0.000 C 
BRANCH  14  15
ATOM     15  C   UNL     1      21.609   8.566   5.945  1.00  0.00    -0.003 C 
ATOM     16  C   UNL     1      22.725   7.856   6.708  1.00  0.00     0.004 C 
ENDBRANCH  14  15
ENDBRANCH  13  14
ENDBRANCH  12  13
ENDBRANCH  11  12
ENDBRANCH  10  11
ENDBRANCH   1  10
TORSDOF 12
ENDMDL
MODEL 2
REMARK VINA RESULT:    -2.611      9.442     12.116
REMARK INTER + INTRA:          -5.105
REMARK INTER:                  -4.608
REMARK INTRA:                  -0.496
REMARK UNBOUND:                -0.662
REMARK SMILES CCCCCCCCCCCCCC(=O)[O-]
REMARK SMILES IDX 8 1 9 2 10 3 11 4 12 5 13 6 14 7 15 8 16 9 7 10 6 11 5 12
REMARK SMILES IDX 4 13 3 14 2 15 1 16
REMARK H PARENT
REMARK Flexibility Score: inf
ROOT
ATOM      1  C   UNL     1      19.128  -3.288  12.760  1.00  0.00     0.000 C 
ENDROOT
BRANCH   1   2
ATOM      2  C   UNL     1      19.442  -2.594  14.091  1.00  0.00     0.000 C 
BRANCH   2   3
ATOM      3  C   UNL     1      18.246  -2.669  15.047  1.00  0.00     0.000 C 
BRANCH   3   4
ATOM      4  C   UNL     1      18.199  -1.440  15.967  1.00  0.00     0.000 C 
BRANCH   4   5
ATOM      5  C   UNL     1      17.062  -0.464  15.613  1.00  0.00     0.006 C 
BRANCH   5   6
ATOM      6  C   UNL     1      17.378   1.007  15.937  1.00  0.00     0.053 C 
BRANCH   6   7
ATOM      7  C   UNL     1      17.083   1.928  14.793  1.00  0.00     0.041 C 
ATOM      8  O   UNL     1      16.875   1.465  13.640  1.00  0.00    -0.550 OA
ATOM      9  O   UNL     1      17.005   3.299  15.006  1.00  0.00    -0.550 OA
ENDBRANCH   6   7
ENDBRANCH   5   6
ENDBRANCH   4   5
ENDBRANCH   3   4
ENDBRANCH   2   3
ENDBRANCH   1   2
BRANCH   1  10
ATOM     10  C   UNL     1      18.714  -4.747  12.985  1.00  0.00     0.000 C 
BRANCH  10  11
ATOM     11  C   UNL     1      17.204  -4.926  12.790  1.00  0.00    -0.000 C 
BRANCH  11  12
ATOM     12  C   UNL     1      16.888  -5.464  11.388  1.00  0.00    -0.000 C 
BRANCH  12  13
ATOM     13  C   UNL     1      18.036  -6.337  10.863  1.00  0.00    -0.000 C 
BRANCH  13  14
ATOM     14  C   UNL     1      18.212  -6.231   9.340  1.00  0.00    -0.000 C 
BRANCH  14  15
ATOM     15  C   UNL     1      16.877  -6.048   8.602  1.00  0.00    -0.003 C 
ATOM     16  C   UNL     1      16.963  -6.577   7.173  1.00  0.00     0.004 C 
ENDBRANCH  14  15
ENDBRANCH  13  14
ENDBRANCH  12  13
ENDBRANCH  11  12
ENDBRANCH  10  11
ENDBRANCH   1  10
TORSDOF 12
ENDMDL
MODEL 3
REMARK VINA RESULT:    -2.551     20.457     22.360
REMARK INTER + INTRA:          -5.002
REMARK INTER:                  -4.129
REMARK INTRA:                  -0.872
REMARK UNBOUND:                -0.662
REMARK SMILES CCCCCCCCCCCCCC(=O)[O-]
REMARK SMILES IDX 8 1 9 2 10 3 11 4 12 5 13 6 14 7 15 8 16 9 7 10 6 11 5 12
REMARK SMILES IDX 4 13 3 14 2 15 1 16
REMARK H PARENT
REMARK Flexibility Score: inf
ROOT
ATOM      1  C   UNL     1      36.532  -5.128  12.207  1.00  0.00     0.000 C 
ENDROOT
BRANCH   1   2
ATOM      2  C   UNL     1      37.123  -6.522  11.965  1.00  0.00     0.000 C 
BRANCH   2   3
ATOM      3  C   UNL     1      36.237  -7.339  11.017  1.00  0.00     0.000 C 
BRANCH   3   4
ATOM      4  C   UNL     1      36.519  -8.842  11.158  1.00  0.00     0.000 C 
BRANCH   4   5
ATOM      5  C   UNL     1      35.685  -9.512  12.266  1.00  0.00     0.006 C 
BRANCH   5   6
ATOM      6  C   UNL     1      36.431  -9.665  13.604  1.00  0.00     0.053 C 
BRANCH   6   7
ATOM      7  C   UNL     1      35.890  -8.767  14.674  1.00  0.00     0.041 C 
ATOM      8  O   UNL     1      34.762  -8.223  14.538  1.00  0.00    -0.550 OA
ATOM      9  O   UNL     1      36.618  -8.556  15.839  1.00  0.00    -0.550 OA
ENDBRANCH   6   7
ENDBRANCH   5   6
ENDBRANCH   4   5
ENDBRANCH   3   4
ENDBRANCH   2   3
ENDBRANCH   1   2
BRANCH   1  10
ATOM     10  C   UNL     1      37.123  -4.490  13.470  1.00  0.00     0.000 C 
BRANCH  10  11
ATOM     11  C   UNL     1      36.617  -5.197  14.732  1.00  0.00    -0.000 C 
BRANCH  11  12
ATOM     12  C   UNL     1      36.231  -4.182  15.815  1.00  0.00    -0.000 C 
BRANCH  12  13
ATOM     13  C   UNL     1      36.771  -2.785  15.478  1.00  0.00    -0.000 C 
BRANCH  13  14
ATOM     14  C   UNL     1      35.680  -1.703  15.513  1.00  0.00    -0.000 C 
BRANCH  14  15
ATOM     15  C   UNL     1      35.958  -0.552  14.535  1.00  0.00    -0.003 C 
ATOM     16  C   UNL     1      36.065   0.781  15.272  1.00  0.00     0.004 C 
ENDBRANCH  14  15
ENDBRANCH  13  14
ENDBRANCH  12  13
ENDBRANCH  11  12
ENDBRANCH  10  11
ENDBRANCH   1  10
TORSDOF 12
ENDMDL
MODEL 4
REMARK VINA RESULT:    -2.309     14.684     19.284
REMARK INTER + INTRA:          -4.591
REMARK INTER:                  -4.025
REMARK INTRA:                  -0.566
REMARK UNBOUND:                -0.662
REMARK SMILES CCCCCCCCCCCCCC(=O)[O-]
REMARK SMILES IDX 8 1 9 2 10 3 11 4 12 5 13 6 14 7 15 8 16 9 7 10 6 11 5 12
REMARK SMILES IDX 4 13 3 14 2 15 1 16
REMARK H PARENT
REMARK Flexibility Score: inf
ROOT
ATOM      1  C   UNL     1      30.843   1.029   0.252  1.00  0.00     0.000 C 
ENDROOT
BRANCH   1   2
ATOM      2  C   UNL     1      30.644   0.492  -1.171  1.00  0.00     0.000 C 
BRANCH   2   3
ATOM      3  C   UNL     1      31.777  -0.464  -1.562  1.00  0.00     0.000 C 
BRANCH   3   4
ATOM      4  C   UNL     1      31.416  -1.255  -2.828  1.00  0.00     0.000 C 
BRANCH   4   5
ATOM      5  C   UNL     1      31.656  -0.461  -4.125  1.00  0.00     0.006 C 
BRANCH   5   6
ATOM      6  C   UNL     1      32.882   0.469  -4.070  1.00  0.00     0.053 C 
BRANCH   6   7
ATOM      7  C   UNL     1      32.509   1.920  -4.088  1.00  0.00     0.041 C 
ATOM      8  O   UNL     1      33.404   2.806  -4.100  1.00  0.00    -0.550 OA
ATOM      9  O   UNL     1      31.171   2.295  -4.124  1.00  0.00    -0.550 OA
ENDBRANCH   6   7
ENDBRANCH   5   6
ENDBRANCH   4   5
ENDBRANCH   3   4
ENDBRANCH   2   3
ENDBRANCH   1   2
BRANCH   1  10
ATOM     10  C   UNL     1      29.518   1.054   1.022  1.00  0.00     0.000 C 
BRANCH  10  11
ATOM     11  C   UNL     1      29.659   1.835   2.334  1.00  0.00    -0.000 C 
BRANCH  11  12
ATOM     12  C   UNL     1      30.897   2.740   2.307  1.00  0.00    -0.000 C 
BRANCH  12  13
ATOM     13  C   UNL     1      30.910   3.691   3.512  1.00  0.00    -0.000 C 
BRANCH  13  14
ATOM     14  C   UNL     1      30.722   5.162   3.107  1.00  0.00    -0.000 C 
BRANCH  14  15
ATOM     15  C   UNL     1      31.085   6.136   4.239  1.00  0.00    -0.003 C 
ATOM     16  C   UNL     1      29.929   7.090   4.533  1.00  0.00     0.004 C 
ENDBRANCH  14  15
ENDBRANCH  13  14
ENDBRANCH  12  13
ENDBRANCH  11  12
ENDBRANCH  10  11
ENDBRANCH   1  10
TORSDOF 12
ENDMDL
MODEL 5
REMARK VINA RESULT:    -2.121     14.451     17.801
REMARK INTER + INTRA:          -4.271
REMARK INTER:                  -3.501
REMARK INTRA:                  -0.770
REMARK UNBOUND:                -0.662
REMARK SMILES CCCCCCCCCCCCCC(=O)[O-]
REMARK SMILES IDX 8 1 9 2 10 3 11 4 12 5 13 6 14 7 15 8 16 9 7 10 6 11 5 12
REMARK SMILES IDX 4 13 3 14 2 15 1 16
REMARK H PARENT
REMARK Flexibility Score: inf
ROOT
ATOM      1  C   UNL     1      30.918   1.060   0.458  1.00  0.00     0.000 C 
ENDROOT
BRANCH   1   2
ATOM      2  C   UNL     1      29.569   1.106   1.188  1.00  0.00     0.000 C 
BRANCH   2   3
ATOM      3  C   UNL     1      29.565   2.192   2.270  1.00  0.00     0.000 C 
BRANCH   3   4
ATOM      4  C   UNL     1      30.992   2.674   2.571  1.00  0.00     0.000 C 
BRANCH   4   5
ATOM      5  C   UNL     1      31.035   3.855   3.559  1.00  0.00     0.006 C 
BRANCH   5   6
ATOM      6  C   UNL     1      30.424   5.155   3.005  1.00  0.00     0.053 C 
BRANCH   6   7
ATOM      7  C   UNL     1      30.863   6.370   3.763  1.00  0.00     0.041 C 
ATOM      8  O   UNL     1      30.157   6.825   4.701  1.00  0.00    -0.550 OA
ATOM      9  O   UNL     1      32.072   6.983   3.455  1.00  0.00    -0.550 OA
ENDBRANCH   6   7
ENDBRANCH   5   6
ENDBRANCH   4   5
ENDBRANCH   3   4
ENDBRANCH   2   3
ENDBRANCH   1   2
BRANCH   1  10
ATOM     10  C   UNL     1      30.732   0.709  -1.022  1.00  0.00     0.000 C 
BRANCH  10  11
ATOM     11  C   UNL     1      31.499  -0.567  -1.386  1.00  0.00    -0.000 C 
BRANCH  11  12
ATOM     12  C   UNL     1      31.241  -0.970  -2.843  1.00  0.00    -0.000 C 
BRANCH  12  13
ATOM     13  C   UNL     1      31.448   0.222  -3.788  1.00  0.00    -0.000 C 
BRANCH  13  14
ATOM     14  C   UNL     1      32.919   0.662  -3.873  1.00  0.00    -0.000 C 
BRANCH  14  15
ATOM     15  C   UNL     1      33.071   2.170  -4.122  1.00  0.00    -0.003 C 
ATOM     16  C   UNL     1      31.796   2.920  -3.743  1.00  0.00     0.004 C 
ENDBRANCH  14  15
ENDBRANCH  13  14
ENDBRANCH  12  13
ENDBRANCH  11  12
ENDBRANCH  10  11
ENDBRANCH   1  10
TORSDOF 12
ENDMDL
MODEL 6
REMARK VINA RESULT:    -1.982      2.039      3.087
REMARK INTER + INTRA:          -4.035
REMARK INTER:                  -3.243
REMARK INTRA:                  -0.792
REMARK UNBOUND:                -0.662
REMARK SMILES CCCCCCCCCCCCCC(=O)[O-]
REMARK SMILES IDX 8 1 9 2 10 3 11 4 12 5 13 6 14 7 15 8 16 9 7 10 6 11 5 12
REMARK SMILES IDX 4 13 3 14 2 15 1 16
REMARK H PARENT
REMARK Flexibility Score: inf
ROOT
ATOM      1  C   UNL     1      20.209   6.148  12.495  1.00  0.00     0.000 C 
ENDROOT
BRANCH   1   2
ATOM      2  C   UNL     1      19.827   5.753  13.926  1.00  0.00     0.000 C 
BRANCH   2   3
ATOM      3  C   UNL     1      18.448   5.084  13.964  1.00  0.00     0.000 C 
BRANCH   3   4
ATOM      4  C   UNL     1      17.415   5.987  14.654  1.00  0.00     0.000 C 
BRANCH   4   5
ATOM      5  C   UNL     1      17.915   6.563  15.991  1.00  0.00     0.006 C 
BRANCH   5   6
ATOM      6  C   UNL     1      17.728   8.085  16.125  1.00  0.00     0.053 C 
BRANCH   6   7
ATOM      7  C   UNL     1      18.457   8.853  15.065  1.00  0.00     0.041 C 
ATOM      8  O   UNL     1      19.715   8.833  15.017  1.00  0.00    -0.550 OA
ATOM      9  O   UNL     1      17.745   9.568  14.109  1.00  0.00    -0.550 OA
ENDBRANCH   6   7
ENDBRANCH   5   6
ENDBRANCH   4   5
ENDBRANCH   3   4
ENDBRANCH   2   3
ENDBRANCH   1   2
BRANCH   1  10
ATOM     10  C   UNL     1      18.973   6.567  11.690  1.00  0.00     0.000 C 
BRANCH  10  11
ATOM     11  C   UNL     1      18.870   8.094  11.595  1.00  0.00    -0.000 C 
BRANCH  11  12
ATOM     12  C   UNL     1      20.240   8.722  11.306  1.00  0.00    -0.000 C 
BRANCH  12  13
ATOM     13  C   UNL     1      20.085  10.122  10.698  1.00  0.00    -0.000 C 
BRANCH  13  14
ATOM     14  C   UNL     1      20.246  10.125   9.169  1.00  0.00    -0.000 C 
BRANCH  14  15
ATOM     15  C   UNL     1      21.684   9.818   8.725  1.00  0.00    -0.003 C 
ATOM     16  C   UNL     1      21.758   9.600   7.216  1.00  0.00     0.004 C 
ENDBRANCH  14  15
ENDBRANCH  13  14
ENDBRANCH  12  13
ENDBRANCH  11  12
ENDBRANCH  10  11
ENDBRANCH   1  10
TORSDOF 12
ENDMDL
