MODEL 1
REMARK VINA RESULT:    -5.443      0.000      0.000
REMARK INTER + INTRA:          -7.759
REMARK INTER:                  -8.307
REMARK INTRA:                   0.548
REMARK UNBOUND:                 0.548
REMARK SMILES CC1=CCC[C@H](C)C(=O)C[C@H](C(C)C)C(=O)C1
REMARK SMILES IDX 8 1 9 2 6 3 7 4 5 5 4 6 3 7 2 8 1 9 10 11 11 12 15 13 16 14
REMARK SMILES IDX 17 15 12 17 13 18 14 19
REMARK H PARENT
REMARK Flexibility Score: 70.00
ROOT
ATOM      1  C   UNL     1      -4.137 -13.428  27.294  1.00  0.00     0.136 C 
ATOM      2  O   UNL     1      -4.656 -14.364  26.704  1.00  0.00    -0.299 OA
ENDROOT
BRANCH   1   3
ATOM      3  C   UNL     1      -2.878 -12.808  26.716  1.00  0.00     0.053 C 
ATOM      4  C   UNL     1      -3.227 -11.730  25.684  1.00  0.00     0.016 C 
BRANCH   3   5
ATOM      5  C   UNL     1      -1.964 -12.243  27.821  1.00  0.00     0.015 C 
BRANCH   5   6
ATOM      6  C   UNL     1      -1.185 -13.352  28.550  1.00  0.00     0.028 C 
BRANCH   6   7
ATOM      7  C   UNL     1      -0.509 -12.805  29.780  1.00  0.00    -0.028 C 
ATOM      8  C   UNL     1      -1.013 -12.888  31.034  1.00  0.00    -0.070 CG0
ATOM      9  C   UNL     1      -0.244 -12.229  32.150  1.00  0.00     0.039 C 
ATOM     10  G   UNL     1      -2.302 -13.626  31.360  1.00  0.00     0.000 G0
ENDBRANCH   6   7
ENDBRANCH   5   6
ENDBRANCH   3   5
ENDBRANCH   1   3
BRANCH   1  11
ATOM     11  C   UNL     1      -4.792 -12.913  28.557  1.00  0.00     0.087 C 
BRANCH  11  12
ATOM     12  C   UNL     1      -4.418 -13.762  29.803  1.00  0.00     0.066 C 
BRANCH  12  13
ATOM     13  C   UNL     1      -3.525 -12.984  30.759  1.00  0.00     0.140 C 
ATOM     14  O   UNL     1      -3.825 -11.842  31.079  1.00  0.00    -0.299 OA
BRANCH  13  15
ATOM     15  C   UNL     1      -2.304 -13.622  31.377  1.00  0.00     0.106 CG0
ATOM     16  G   UNL     1      -1.027 -12.869  31.035  1.00  0.00     0.000 G0
ENDBRANCH  13  15
ENDBRANCH  12  13
BRANCH  12  17
ATOM     17  C   UNL     1      -5.682 -14.342  30.511  1.00  0.00    -0.006 C 
ATOM     18  C   UNL     1      -6.529 -15.190  29.550  1.00  0.00     0.008 C 
ATOM     19  C   UNL     1      -5.374 -15.140  31.791  1.00  0.00     0.008 C 
ENDBRANCH  12  17
ENDBRANCH  11  12
ENDBRANCH   1  11
TORSDOF 1
ENDMDL
MODEL 2
REMARK VINA RESULT:    -4.939      1.769      3.725
REMARK INTER + INTRA:          -6.990
REMARK INTER:                  -7.525
REMARK INTRA:                   0.535
REMARK UNBOUND:                 0.548
REMARK SMILES CC1=CCC[C@H](C)C(=O)C[C@H](C(C)C)C(=O)C1
REMARK SMILES IDX 8 1 9 2 6 3 7 4 5 5 4 6 3 7 2 8 1 9 10 11 11 12 15 13 16 14
REMARK SMILES IDX 17 15 12 17 13 18 14 19
REMARK H PARENT
REMARK Flexibility Score: 70.00
ROOT
ATOM      1  C   UNL     1      -4.083 -12.524  31.745  1.00  0.00     0.136 C 
ATOM      2  O   UNL     1      -4.599 -12.819  32.813  1.00  0.00    -0.299 OA
ENDROOT
BRANCH   1   3
ATOM      3  C   UNL     1      -3.735 -11.071  31.478  1.00  0.00     0.053 C 
ATOM      4  C   UNL     1      -4.611 -10.138  32.322  1.00  0.00     0.016 C 
BRANCH   3   5
ATOM      5  C   UNL     1      -2.238 -10.793  31.716  1.00  0.00     0.015 C 
BRANCH   5   6
ATOM      6  C   UNL     1      -1.472 -10.586  30.398  1.00  0.00     0.028 C 
BRANCH   6   7
ATOM      7  C   UNL     1      -0.887 -11.887  29.913  1.00  0.00    -0.028 C 
ATOM      8  C   UNL     1      -1.443 -12.670  28.960  1.00  0.00    -0.070 CG0
ATOM      9  C   UNL     1      -0.767 -13.978  28.636  1.00  0.00     0.039 C 
ATOM     10  G   UNL     1      -2.700 -12.279  28.197  1.00  0.00     0.000 G0
ENDBRANCH   6   7
ENDBRANCH   5   6
ENDBRANCH   3   5
ENDBRANCH   1   3
BRANCH   1  11
ATOM     11  C   UNL     1      -3.788 -13.627  30.753  1.00  0.00     0.087 C 
BRANCH  11  12
ATOM     12  C   UNL     1      -4.647 -13.505  29.464  1.00  0.00     0.066 C 
BRANCH  12  13
ATOM     13  C   UNL     1      -3.775 -13.333  28.228  1.00  0.00     0.140 C 
ATOM     14  O   UNL     1      -3.983 -14.019  27.236  1.00  0.00    -0.299 OA
BRANCH  13  15
ATOM     15  C   UNL     1      -2.693 -12.281  28.178  1.00  0.00     0.106 CG0
ATOM     16  G   UNL     1      -1.461 -12.685  28.973  1.00  0.00     0.000 G0
ENDBRANCH  13  15
ENDBRANCH  12  13
BRANCH  12  17
ATOM     17  C   UNL     1      -5.651 -14.690  29.321  1.00  0.00    -0.006 C 
ATOM     18  C   UNL     1      -6.179 -15.151  30.688  1.00  0.00     0.008 C 
ATOM     19  C   UNL     1      -6.826 -14.406  28.368  1.00  0.00     0.008 C 
ENDBRANCH  12  17
ENDBRANCH  11  12
ENDBRANCH   1  11
TORSDOF 1
ENDMDL
MODEL 3
REMARK VINA RESULT:    -4.893      2.142      4.189
REMARK INTER + INTRA:          -6.920
REMARK INTER:                  -7.313
REMARK INTRA:                   0.393
REMARK UNBOUND:                 0.548
REMARK SMILES CC1=CCC[C@H](C)C(=O)C[C@H](C(C)C)C(=O)C1
REMARK SMILES IDX 8 1 9 2 6 3 7 4 5 5 4 6 3 7 2 8 1 9 10 11 11 12 15 13 16 14
REMARK SMILES IDX 17 15 12 17 13 18 14 19
REMARK H PARENT
REMARK Flexibility Score: 70.00
ROOT
ATOM      1  C   UNL     1      -3.081 -11.732  31.778  1.00  0.00     0.136 C 
ATOM      2  O   UNL     1      -3.981 -11.137  32.352  1.00  0.00    -0.299 OA
ENDROOT
BRANCH   1   3
ATOM      3  C   UNL     1      -1.826 -10.967  31.398  1.00  0.00     0.053 C 
ATOM      4  C   UNL     1      -0.721 -11.927  30.942  1.00  0.00     0.016 C 
BRANCH   3   5
ATOM      5  C   UNL     1      -2.114  -9.901  30.324  1.00  0.00     0.015 C 
BRANCH   5   6
ATOM      6  C   UNL     1      -3.392 -10.213  29.527  1.00  0.00     0.028 C 
BRANCH   6   7
ATOM      7  C   UNL     1      -3.067 -10.458  28.076  1.00  0.00    -0.028 C 
ATOM      8  C   UNL     1      -3.480 -11.535  27.368  1.00  0.00    -0.070 CG0
ATOM      9  C   UNL     1      -3.011 -11.665  25.941  1.00  0.00     0.039 C 
ATOM     10  G   UNL     1      -4.403 -12.599  27.942  1.00  0.00     0.000 G0
ENDBRANCH   6   7
ENDBRANCH   5   6
ENDBRANCH   3   5
ENDBRANCH   1   3
BRANCH   1  11
ATOM     11  C   UNL     1      -3.250 -13.209  31.499  1.00  0.00     0.087 C 
BRANCH  11  12
ATOM     12  C   UNL     1      -4.334 -13.485  30.421  1.00  0.00     0.066 C 
BRANCH  12  13
ATOM     13  C   UNL     1      -3.751 -13.425  29.016  1.00  0.00     0.140 C 
ATOM     14  O   UNL     1      -2.765 -14.093  28.737  1.00  0.00    -0.299 OA
BRANCH  13  15
ATOM     15  C   UNL     1      -4.410 -12.604  27.935  1.00  0.00     0.106 CG0
ATOM     16  G   UNL     1      -3.477 -11.545  27.367  1.00  0.00     0.000 G0
ENDBRANCH  13  15
ENDBRANCH  12  13
BRANCH  12  17
ATOM     17  C   UNL     1      -5.093 -14.821  30.691  1.00  0.00    -0.006 C 
ATOM     18  C   UNL     1      -5.399 -15.005  32.186  1.00  0.00     0.008 C 
ATOM     19  C   UNL     1      -6.380 -14.991  29.862  1.00  0.00     0.008 C 
ENDBRANCH  12  17
ENDBRANCH  11  12
ENDBRANCH   1  11
TORSDOF 1
ENDMDL
MODEL 4
REMARK VINA RESULT:    -4.872      1.971      3.575
REMARK INTER + INTRA:          -6.888
REMARK INTER:                  -7.289
REMARK INTRA:                   0.401
REMARK UNBOUND:                 0.548
REMARK SMILES CC1=CCC[C@H](C)C(=O)C[C@H](C(C)C)C(=O)C1
REMARK SMILES IDX 8 1 9 2 6 3 7 4 5 5 4 6 3 7 2 8 1 9 10 11 11 12 15 13 16 14
REMARK SMILES IDX 17 15 12 17 13 18 14 19
REMARK H PARENT
REMARK Flexibility Score: 70.00
ROOT
ATOM      1  C   UNL     1      -4.273 -10.928  30.322  1.00  0.00     0.136 C 
ATOM      2  O   UNL     1      -4.795 -10.410  29.345  1.00  0.00    -0.299 OA
ENDROOT
BRANCH   1   3
ATOM      3  C   UNL     1      -3.715 -10.033  31.413  1.00  0.00     0.053 C 
ATOM      4  C   UNL     1      -4.585 -10.104  32.673  1.00  0.00     0.016 C 
BRANCH   3   5
ATOM      5  C   UNL     1      -2.247 -10.374  31.732  1.00  0.00     0.015 C 
BRANCH   5   6
ATOM      6  C   UNL     1      -1.366 -10.374  30.470  1.00  0.00     0.028 C 
BRANCH   6   7
ATOM      7  C   UNL     1      -0.705 -11.715  30.284  1.00  0.00    -0.028 C 
ATOM      8  C   UNL     1      -1.043 -12.613  29.329  1.00  0.00    -0.070 CG0
ATOM      9  C   UNL     1      -0.329 -13.939  29.320  1.00  0.00     0.039 C 
ATOM     10  G   UNL     1      -2.093 -12.330  28.264  1.00  0.00     0.000 G0
ENDBRANCH   6   7
ENDBRANCH   5   6
ENDBRANCH   3   5
ENDBRANCH   1   3
BRANCH   1  11
ATOM     11  C   UNL     1      -4.235 -12.438  30.409  1.00  0.00     0.087 C 
BRANCH  11  12
ATOM     12  C   UNL     1      -4.501 -13.114  29.036  1.00  0.00     0.066 C 
BRANCH  12  13
ATOM     13  C   UNL     1      -3.206 -13.355  28.273  1.00  0.00     0.140 C 
ATOM     14  O   UNL     1      -3.068 -14.377  27.614  1.00  0.00    -0.299 OA
BRANCH  13  15
ATOM     15  C   UNL     1      -2.106 -12.321  28.260  1.00  0.00     0.106 CG0
ATOM     16  G   UNL     1      -1.047 -12.594  29.318  1.00  0.00     0.000 G0
ENDBRANCH  13  15
ENDBRANCH  12  13
BRANCH  12  17
ATOM     17  C   UNL     1      -5.352 -14.413  29.183  1.00  0.00    -0.006 C 
ATOM     18  C   UNL     1      -5.652 -14.727  30.657  1.00  0.00     0.008 C 
ATOM     19  C   UNL     1      -6.658 -14.405  28.368  1.00  0.00     0.008 C 
ENDBRANCH  12  17
ENDBRANCH  11  12
ENDBRANCH   1  11
TORSDOF 1
ENDMDL
MODEL 5
REMARK VINA RESULT:    -4.871      1.919      4.898
REMARK INTER + INTRA:          -6.886
REMARK INTER:                  -7.177
REMARK INTRA:                   0.292
REMARK UNBOUND:                 0.548
REMARK SMILES CC1=CCC[C@H](C)C(=O)C[C@H](C(C)C)C(=O)C1
REMARK SMILES IDX 8 1 9 2 6 3 7 4 5 5 4 6 3 7 2 8 1 9 10 11 11 12 15 13 16 14
REMARK SMILES IDX 17 15 12 17 13 18 14 19
REMARK H PARENT
REMARK Flexibility Score: 70.00
ROOT
ATOM      1  C   UNL     1      -4.087 -13.171  31.252  1.00  0.00     0.136 C 
ATOM      2  O   UNL     1      -4.232 -12.854  32.423  1.00  0.00    -0.299 OA
ENDROOT
BRANCH   1   3
ATOM      3  C   UNL     1      -4.823 -14.392  30.729  1.00  0.00     0.053 C 
ATOM      4  C   UNL     1      -5.514 -15.142  31.874  1.00  0.00     0.016 C 
BRANCH   3   5
ATOM      5  C   UNL     1      -5.828 -14.019  29.623  1.00  0.00     0.015 C 
BRANCH   5   6
ATOM      6  C   UNL     1      -5.360 -14.489  28.234  1.00  0.00     0.028 C 
BRANCH   6   7
ATOM      7  C   UNL     1      -4.751 -13.347  27.464  1.00  0.00    -0.028 C 
ATOM      8  C   UNL     1      -3.423 -13.099  27.379  1.00  0.00    -0.070 CG0
ATOM      9  C   UNL     1      -2.978 -11.874  26.623  1.00  0.00     0.039 C 
ATOM     10  G   UNL     1      -2.372 -14.010  27.995  1.00  0.00     0.000 G0
ENDBRANCH   6   7
ENDBRANCH   5   6
ENDBRANCH   3   5
ENDBRANCH   1   3
BRANCH   1  11
ATOM     11  C   UNL     1      -3.205 -12.314  30.371  1.00  0.00     0.087 C 
BRANCH  11  12
ATOM     12  C   UNL     1      -1.751 -12.854  30.291  1.00  0.00     0.066 C 
BRANCH  12  13
ATOM     13  C   UNL     1      -1.389 -13.268  28.871  1.00  0.00     0.140 C 
ATOM     14  O   UNL     1      -0.266 -13.042  28.439  1.00  0.00    -0.299 OA
BRANCH  13  15
ATOM     15  C   UNL     1      -2.372 -14.015  28.003  1.00  0.00     0.106 CG0
ATOM     16  G   UNL     1      -3.416 -13.094  27.391  1.00  0.00     0.000 G0
ENDBRANCH  13  15
ENDBRANCH  12  13
BRANCH  12  17
ATOM     17  C   UNL     1      -0.723 -11.847  30.894  1.00  0.00    -0.006 C 
ATOM     18  C   UNL     1      -1.425 -10.631  31.518  1.00  0.00     0.008 C 
ATOM     19  C   UNL     1       0.250 -12.474  31.908  1.00  0.00     0.008 C 
ENDBRANCH  12  17
ENDBRANCH  11  12
ENDBRANCH   1  11
TORSDOF 1
ENDMDL
MODEL 6
REMARK VINA RESULT:    -4.870      2.347      4.128
REMARK INTER + INTRA:          -6.884
REMARK INTER:                  -7.587
REMARK INTRA:                   0.703
REMARK UNBOUND:                 0.548
REMARK SMILES CC1=CCC[C@H](C)C(=O)C[C@H](C(C)C)C(=O)C1
REMARK SMILES IDX 8 1 9 2 6 3 7 4 5 5 4 6 3 7 2 8 1 9 10 11 11 12 15 13 16 14
REMARK SMILES IDX 17 15 12 17 13 18 14 19
REMARK H PARENT
REMARK Flexibility Score: 70.00
ROOT
ATOM      1  C   UNL     1      -0.743 -13.394  29.315  1.00  0.00     0.136 C 
ATOM      2  O   UNL     1       0.250 -12.961  28.748  1.00  0.00    -0.299 OA
ENDROOT
BRANCH   1   3
ATOM      3  C   UNL     1      -0.751 -13.453  30.832  1.00  0.00     0.053 C 
ATOM      4  C   UNL     1       0.249 -12.451  31.420  1.00  0.00     0.016 C 
BRANCH   3   5
ATOM      5  C   UNL     1      -2.164 -13.226  31.402  1.00  0.00     0.015 C 
BRANCH   5   6
ATOM      6  C   UNL     1      -2.326 -11.820  32.005  1.00  0.00     0.028 C 
BRANCH   6   7
ATOM      7  C   UNL     1      -3.615 -11.189  31.546  1.00  0.00    -0.028 C 
ATOM      8  C   UNL     1      -3.765 -10.505  30.388  1.00  0.00    -0.070 CG0
ATOM      9  C   UNL     1      -5.105  -9.877  30.107  1.00  0.00     0.039 C 
ATOM     10  G   UNL     1      -2.651 -10.361  29.362  1.00  0.00     0.000 G0
ENDBRANCH   6   7
ENDBRANCH   5   6
ENDBRANCH   3   5
ENDBRANCH   1   3
BRANCH   1  11
ATOM     11  C   UNL     1      -1.927 -13.822  28.478  1.00  0.00     0.087 C 
BRANCH  11  12
ATOM     12  C   UNL     1      -3.138 -12.862  28.635  1.00  0.00     0.066 C 
BRANCH  12  13
ATOM     13  C   UNL     1      -2.764 -11.430  28.277  1.00  0.00     0.140 C 
ATOM     14  O   UNL     1      -2.579 -11.124  27.107  1.00  0.00    -0.299 OA
BRANCH  13  15
ATOM     15  C   UNL     1      -2.680 -10.359  29.338  1.00  0.00     0.106 CG0
ATOM     16  G   UNL     1      -3.765 -10.510  30.394  1.00  0.00     0.000 G0
ENDBRANCH  13  15
ENDBRANCH  12  13
BRANCH  12  17
ATOM     17  C   UNL     1      -4.384 -13.364  27.842  1.00  0.00    -0.006 C 
ATOM     18  C   UNL     1      -3.985 -14.331  26.716  1.00  0.00     0.008 C 
ATOM     19  C   UNL     1      -5.476 -13.998  28.722  1.00  0.00     0.008 C 
ENDBRANCH  12  17
ENDBRANCH  11  12
ENDBRANCH   1  11
TORSDOF 1
ENDMDL
MODEL 7
REMARK VINA RESULT:    -4.581      1.678      4.026
REMARK INTER + INTRA:          -6.444
REMARK INTER:                  -6.756
REMARK INTRA:                   0.312
REMARK UNBOUND:                 0.548
REMARK SMILES CC1=CCC[C@H](C)C(=O)C[C@H](C(C)C)C(=O)C1
REMARK SMILES IDX 8 1 9 2 6 3 7 4 5 5 4 6 3 7 2 8 1 9 10 11 11 12 15 13 16 14
REMARK SMILES IDX 17 15 12 17 13 18 14 19
REMARK H PARENT
REMARK Flexibility Score: 70.00
ROOT
ATOM      1  C   UNL     1      -3.867 -12.438  28.449  1.00  0.00     0.136 C 
ATOM      2  O   UNL     1      -3.936 -11.226  28.585  1.00  0.00    -0.299 OA
ENDROOT
BRANCH   1   3
ATOM      3  C   UNL     1      -5.011 -13.162  27.763  1.00  0.00     0.053 C 
ATOM      4  C   UNL     1      -4.483 -14.289  26.869  1.00  0.00     0.016 C 
BRANCH   3   5
ATOM      5  C   UNL     1      -6.037 -13.695  28.781  1.00  0.00     0.015 C 
BRANCH   5   6
ATOM      6  C   UNL     1      -5.473 -14.859  29.615  1.00  0.00     0.028 C 
BRANCH   6   7
ATOM      7  C   UNL     1      -5.884 -14.726  31.059  1.00  0.00    -0.028 C 
ATOM      8  C   UNL     1      -5.027 -14.508  32.084  1.00  0.00    -0.070 CG0
ATOM      9  C   UNL     1      -5.592 -14.467  33.480  1.00  0.00     0.039 C 
ATOM     10  G   UNL     1      -3.536 -14.288  31.882  1.00  0.00     0.000 G0
ENDBRANCH   6   7
ENDBRANCH   5   6
ENDBRANCH   3   5
ENDBRANCH   1   3
BRANCH   1  11
ATOM     11  C   UNL     1      -2.631 -13.155  28.944  1.00  0.00     0.087 C 
BRANCH  11  12
ATOM     12  C   UNL     1      -2.161 -12.631  30.329  1.00  0.00     0.066 C 
BRANCH  12  13
ATOM     13  C   UNL     1      -3.214 -12.871  31.402  1.00  0.00     0.140 C 
ATOM     14  O   UNL     1      -3.860 -11.930  31.843  1.00  0.00    -0.299 OA
BRANCH  13  15
ATOM     15  C   UNL     1      -3.525 -14.266  31.888  1.00  0.00     0.106 CG0
ATOM     16  G   UNL     1      -5.018 -14.493  32.067  1.00  0.00     0.000 G0
ENDBRANCH  13  15
ENDBRANCH  12  13
BRANCH  12  17
ATOM     17  C   UNL     1      -0.767 -13.209  30.726  1.00  0.00    -0.006 C 
ATOM     18  C   UNL     1      -0.001 -13.728  29.500  1.00  0.00     0.008 C 
ATOM     19  C   UNL     1       0.113 -12.232  31.527  1.00  0.00     0.008 C 
ENDBRANCH  12  17
ENDBRANCH  11  12
ENDBRANCH   1  11
TORSDOF 1
ENDMDL
MODEL 8
REMARK VINA RESULT:    -4.536      2.065      2.836
REMARK INTER + INTRA:          -6.374
REMARK INTER:                  -6.684
REMARK INTRA:                   0.311
REMARK UNBOUND:                 0.548
REMARK SMILES CC1=CCC[C@H](C)C(=O)C[C@H](C(C)C)C(=O)C1
REMARK SMILES IDX 8 1 9 2 6 3 7 4 5 5 4 6 3 7 2 8 1 9 10 11 11 12 15 13 16 14
REMARK SMILES IDX 17 15 12 17 13 18 14 19
REMARK H PARENT
REMARK Flexibility Score: 70.00
ROOT
ATOM      1  C   UNL     1      -1.787 -13.380  28.255  1.00  0.00     0.136 C 
ATOM      2  O   UNL     1      -1.484 -12.557  27.403  1.00  0.00    -0.299 OA
ENDROOT
BRANCH   1   3
ATOM      3  C   UNL     1      -0.686 -14.004  29.092  1.00  0.00     0.053 C 
ATOM      4  C   UNL     1       0.692 -13.686  28.503  1.00  0.00     0.016 C 
BRANCH   3   5
ATOM      5  C   UNL     1      -0.775 -13.565  30.566  1.00  0.00     0.015 C 
BRANCH   5   6
ATOM      6  C   UNL     1      -0.389 -12.087  30.753  1.00  0.00     0.028 C 
BRANCH   6   7
ATOM      7  C   UNL     1      -1.355 -11.399  31.683  1.00  0.00    -0.028 C 
ATOM      8  C   UNL     1      -2.428 -10.679  31.280  1.00  0.00    -0.070 CG0
ATOM      9  C   UNL     1      -3.259  -9.996  32.336  1.00  0.00     0.039 C 
ATOM     10  G   UNL     1      -2.834 -10.547  29.820  1.00  0.00     0.000 G0
ENDBRANCH   6   7
ENDBRANCH   5   6
ENDBRANCH   3   5
ENDBRANCH   1   3
BRANCH   1  11
ATOM     11  C   UNL     1      -3.250 -13.713  28.454  1.00  0.00     0.087 C 
BRANCH  11  12
ATOM     12  C   UNL     1      -3.856 -12.988  29.687  1.00  0.00     0.066 C 
BRANCH  12  13
ATOM     13  C   UNL     1      -3.971 -11.488  29.451  1.00  0.00     0.140 C 
ATOM     14  O   UNL     1      -5.009 -11.020  29.006  1.00  0.00    -0.299 OA
BRANCH  13  15
ATOM     15  C   UNL     1      -2.844 -10.554  29.821  1.00  0.00     0.106 CG0
ATOM     16  G   UNL     1      -2.430 -10.700  31.278  1.00  0.00     0.000 G0
ENDBRANCH  13  15
ENDBRANCH  12  13
BRANCH  12  17
ATOM     17  C   UNL     1      -5.212 -13.624  30.125  1.00  0.00    -0.006 C 
ATOM     18  C   UNL     1      -5.861 -14.415  28.979  1.00  0.00     0.008 C 
ATOM     19  C   UNL     1      -5.116 -14.501  31.386  1.00  0.00     0.008 C 
ENDBRANCH  12  17
ENDBRANCH  11  12
ENDBRANCH   1  11
TORSDOF 1
ENDMDL
MODEL 9
REMARK VINA RESULT:    -4.313      1.739      3.975
REMARK INTER + INTRA:          -6.035
REMARK INTER:                  -6.196
REMARK INTRA:                   0.161
REMARK UNBOUND:                 0.548
REMARK SMILES CC1=CCC[C@H](C)C(=O)C[C@H](C(C)C)C(=O)C1
REMARK SMILES IDX 8 1 9 2 6 3 7 4 5 5 4 6 3 7 2 8 1 9 10 11 11 12 15 13 16 14
REMARK SMILES IDX 17 15 12 17 13 18 14 19
REMARK H PARENT
REMARK Flexibility Score: 70.00
ROOT
ATOM      1  C   UNL     1      -2.122 -13.484  28.115  1.00  0.00     0.136 C 
ATOM      2  O   UNL     1      -1.667 -14.492  27.595  1.00  0.00    -0.299 OA
ENDROOT
BRANCH   1   3
ATOM      3  C   UNL     1      -3.436 -12.925  27.600  1.00  0.00     0.053 C 
ATOM      4  C   UNL     1      -3.285 -12.423  26.159  1.00  0.00     0.016 C 
BRANCH   3   5
ATOM      5  C   UNL     1      -4.575 -13.956  27.712  1.00  0.00     0.015 C 
BRANCH   5   6
ATOM      6  C   UNL     1      -5.635 -13.537  28.744  1.00  0.00     0.028 C 
BRANCH   6   7
ATOM      7  C   UNL     1      -5.668 -14.507  29.897  1.00  0.00    -0.028 C 
ATOM      8  C   UNL     1      -5.114 -14.276  31.110  1.00  0.00    -0.070 CG0
ATOM      9  C   UNL     1      -5.175 -15.378  32.136  1.00  0.00     0.039 C 
ATOM     10  G   UNL     1      -4.457 -12.955  31.482  1.00  0.00     0.000 G0
ENDBRANCH   6   7
ENDBRANCH   5   6
ENDBRANCH   3   5
ENDBRANCH   1   3
BRANCH   1  11
ATOM     11  C   UNL     1      -1.368 -12.859  29.268  1.00  0.00     0.087 C 
BRANCH  11  12
ATOM     12  C   UNL     1      -2.304 -12.071  30.226  1.00  0.00     0.066 C 
BRANCH  12  13
ATOM     13  C   UNL     1      -2.951 -12.990  31.253  1.00  0.00     0.140 C 
ATOM     14  O   UNL     1      -2.252 -13.724  31.938  1.00  0.00    -0.299 OA
BRANCH  13  15
ATOM     15  C   UNL     1      -4.441 -12.965  31.491  1.00  0.00     0.106 CG0
ATOM     16  G   UNL     1      -5.109 -14.275  31.101  1.00  0.00     0.000 G0
ENDBRANCH  13  15
ENDBRANCH  12  13
BRANCH  12  17
ATOM     17  C   UNL     1      -1.572 -10.863  30.889  1.00  0.00    -0.006 C 
ATOM     18  C   UNL     1      -2.563  -9.912  31.577  1.00  0.00     0.008 C 
ATOM     19  C   UNL     1      -0.456 -11.266  31.870  1.00  0.00     0.008 C 
ENDBRANCH  12  17
ENDBRANCH  11  12
ENDBRANCH   1  11
TORSDOF 1
ENDMDL
