MODEL 1
REMARK VINA RESULT:     3.407      0.000      0.000
REMARK INTER + INTRA:           6.329
REMARK INTER:                   5.797
REMARK INTRA:                   0.533
REMARK UNBOUND:                 0.533
REMARK SMILES CCCCCCCCCCCCCC(=O)[O-]
REMARK SMILES IDX 8 1 9 2 10 3 11 4 12 5 13 6 14 7 15 8 16 9 7 10 6 11 5 12
REMARK SMILES IDX 4 13 3 14 2 15 1 16
REMARK H PARENT
REMARK Flexibility Score: inf
ROOT
ATOM      1  C   UNL     1       6.748 -28.398 -16.823  1.00  0.00     0.000 C 
ENDROOT
BRANCH   1   2
ATOM      2  C   UNL     1       8.100 -28.781 -16.205  1.00  0.00     0.000 C 
BRANCH   2   3
ATOM      3  C   UNL     1       7.981 -29.235 -14.739  1.00  0.00     0.000 C 
BRANCH   3   4
ATOM      4  C   UNL     1       8.917 -30.392 -14.333  1.00  0.00     0.000 C 
BRANCH   4   5
ATOM      5  C   UNL     1      10.010 -30.739 -15.358  1.00  0.00     0.006 C 
BRANCH   5   6
ATOM      6  C   UNL     1       9.438 -31.177 -16.712  1.00  0.00     0.053 C 
BRANCH   6   7
ATOM      7  C   UNL     1       9.273 -32.663 -16.752  1.00  0.00     0.041 C 
ATOM      8  O   UNL     1       9.005 -33.300 -15.699  1.00  0.00    -0.550 OA
ATOM      9  O   UNL     1       9.366 -33.341 -17.961  1.00  0.00    -0.550 OA
ENDBRANCH   6   7
ENDBRANCH   5   6
ENDBRANCH   4   5
ENDBRANCH   3   4
ENDBRANCH   2   3
ENDBRANCH   1   2
BRANCH   1  10
ATOM     10  C   UNL     1       6.693 -28.789 -18.306  1.00  0.00     0.000 C 
BRANCH  10  11
ATOM     11  C   UNL     1       8.078 -28.794 -18.976  1.00  0.00    -0.000 C 
BRANCH  11  12
ATOM     12  C   UNL     1       8.308 -29.923 -20.001  1.00  0.00    -0.000 C 
BRANCH  12  13
ATOM     13  C   UNL     1       7.439 -29.846 -21.270  1.00  0.00    -0.000 C 
BRANCH  13  14
ATOM     14  C   UNL     1       6.539 -28.599 -21.301  1.00  0.00    -0.000 C 
BRANCH  14  15
ATOM     15  C   UNL     1       5.882 -28.383 -22.673  1.00  0.00    -0.003 C 
ATOM     16  C   UNL     1       5.875 -26.916 -23.104  1.00  0.00     0.004 C 
ENDBRANCH  14  15
ENDBRANCH  13  14
ENDBRANCH  12  13
ENDBRANCH  11  12
ENDBRANCH  10  11
ENDBRANCH   1  10
TORSDOF 12
ENDMDL
MODEL 2
REMARK VINA RESULT:     4.309      2.950      6.548
REMARK INTER + INTRA:           7.864
REMARK INTER:                   8.443
REMARK INTRA:                  -0.579
REMARK UNBOUND:                 0.533
REMARK SMILES CCCCCCCCCCCCCC(=O)[O-]
REMARK SMILES IDX 8 1 9 2 10 3 11 4 12 5 13 6 14 7 15 8 16 9 7 10 6 11 5 12
REMARK SMILES IDX 4 13 3 14 2 15 1 16
REMARK H PARENT
REMARK Flexibility Score: inf
ROOT
ATOM      1  C   UNL     1       8.137 -28.817 -16.373  1.00  0.00     0.000 C 
ENDROOT
BRANCH   1   2
ATOM      2  C   UNL     1       6.782 -28.398 -16.960  1.00  0.00     0.000 C 
BRANCH   2   3
ATOM      3  C   UNL     1       6.582 -28.880 -18.408  1.00  0.00     0.000 C 
BRANCH   3   4
ATOM      4  C   UNL     1       7.879 -29.227 -19.168  1.00  0.00     0.000 C 
BRANCH   4   5
ATOM      5  C   UNL     1       7.675 -29.790 -20.586  1.00  0.00     0.006 C 
BRANCH   5   6
ATOM      6  C   UNL     1       6.347 -29.352 -21.215  1.00  0.00     0.053 C 
BRANCH   6   7
ATOM      7  C   UNL     1       6.548 -28.141 -22.069  1.00  0.00     0.041 C 
ATOM      8  O   UNL     1       5.875 -27.990 -23.124  1.00  0.00    -0.550 OA
ATOM      9  O   UNL     1       7.442 -27.154 -21.676  1.00  0.00    -0.550 OA
ENDBRANCH   6   7
ENDBRANCH   5   6
ENDBRANCH   4   5
ENDBRANCH   3   4
ENDBRANCH   2   3
ENDBRANCH   1   2
BRANCH   1  10
ATOM     10  C   UNL     1       7.973 -29.355 -14.944  1.00  0.00     0.000 C 
BRANCH  10  11
ATOM     11  C   UNL     1       9.117 -30.295 -14.524  1.00  0.00    -0.000 C 
BRANCH  11  12
ATOM     12  C   UNL     1       9.995 -30.818 -15.679  1.00  0.00    -0.000 C 
BRANCH  12  13
ATOM     13  C   UNL     1       9.259 -31.669 -16.731  1.00  0.00    -0.000 C 
BRANCH  13  14
ATOM     14  C   UNL     1       9.365 -33.179 -16.458  1.00  0.00    -0.000 C 
BRANCH  14  15
ATOM     15  C   UNL     1       8.374 -33.652 -15.382  1.00  0.00    -0.003 C 
ATOM     16  C   UNL     1       9.061 -34.033 -14.070  1.00  0.00     0.004 C 
ENDBRANCH  14  15
ENDBRANCH  13  14
ENDBRANCH  12  13
ENDBRANCH  11  12
ENDBRANCH  10  11
ENDBRANCH   1  10
TORSDOF 12
ENDMDL
MODEL 3
REMARK VINA RESULT:     4.647      1.242      1.706
REMARK INTER + INTRA:           8.439
REMARK INTER:                   8.415
REMARK INTRA:                   0.024
REMARK UNBOUND:                 0.533
REMARK SMILES CCCCCCCCCCCCCC(=O)[O-]
REMARK SMILES IDX 8 1 9 2 10 3 11 4 12 5 13 6 14 7 15 8 16 9 7 10 6 11 5 12
REMARK SMILES IDX 4 13 3 14 2 15 1 16
REMARK H PARENT
REMARK Flexibility Score: inf
ROOT
ATOM      1  C   UNL     1       8.776 -28.787 -17.119  1.00  0.00     0.000 C 
ENDROOT
BRANCH   1   2
ATOM      2  C   UNL     1       7.897 -29.504 -16.085  1.00  0.00     0.000 C 
BRANCH   2   3
ATOM      3  C   UNL     1       8.559 -29.599 -14.698  1.00  0.00     0.000 C 
BRANCH   3   4
ATOM      4  C   UNL     1       9.225 -30.954 -14.382  1.00  0.00     0.000 C 
BRANCH   4   5
ATOM      5  C   UNL     1       9.931 -31.629 -15.571  1.00  0.00     0.006 C 
BRANCH   5   6
ATOM      6  C   UNL     1       9.025 -32.613 -16.321  1.00  0.00     0.053 C 
BRANCH   6   7
ATOM      7  C   UNL     1       8.503 -33.658 -15.386  1.00  0.00     0.041 C 
ATOM      8  O   UNL     1       7.425 -34.257 -15.643  1.00  0.00    -0.550 OA
ATOM      9  O   UNL     1       9.232 -34.006 -14.256  1.00  0.00    -0.550 OA
ENDBRANCH   6   7
ENDBRANCH   5   6
ENDBRANCH   4   5
ENDBRANCH   3   4
ENDBRANCH   2   3
ENDBRANCH   1   2
BRANCH   1  10
ATOM     10  C   UNL     1       9.198 -29.747 -18.240  1.00  0.00     0.000 C 
BRANCH  10  11
ATOM     11  C   UNL     1       8.296 -29.651 -19.482  1.00  0.00    -0.000 C 
BRANCH  11  12
ATOM     12  C   UNL     1       6.982 -28.867 -19.280  1.00  0.00    -0.000 C 
BRANCH  12  13
ATOM     13  C   UNL     1       6.286 -28.405 -20.574  1.00  0.00    -0.000 C 
BRANCH  13  14
ATOM     14  C   UNL     1       6.901 -29.031 -21.838  1.00  0.00    -0.000 C 
BRANCH  14  15
ATOM     15  C   UNL     1       6.207 -28.558 -23.125  1.00  0.00    -0.003 C 
ATOM     16  C   UNL     1       5.875 -27.066 -23.106  1.00  0.00     0.004 C 
ENDBRANCH  14  15
ENDBRANCH  13  14
ENDBRANCH  12  13
ENDBRANCH  11  12
ENDBRANCH  10  11
ENDBRANCH   1  10
TORSDOF 12
ENDMDL
MODEL 4
REMARK VINA RESULT:     5.215      1.987      2.939
REMARK INTER + INTRA:           9.407
REMARK INTER:                   7.474
REMARK INTRA:                   1.932
REMARK UNBOUND:                 0.533
REMARK SMILES CCCCCCCCCCCCCC(=O)[O-]
REMARK SMILES IDX 8 1 9 2 10 3 11 4 12 5 13 6 14 7 15 8 16 9 7 10 6 11 5 12
REMARK SMILES IDX 4 13 3 14 2 15 1 16
REMARK H PARENT
REMARK Flexibility Score: inf
ROOT
ATOM      1  C   UNL     1       9.626 -30.510 -18.875  1.00  0.00     0.000 C 
ENDROOT
BRANCH   1   2
ATOM      2  C   UNL     1       9.505 -30.906 -17.396  1.00  0.00     0.000 C 
BRANCH   2   3
ATOM      3  C   UNL     1       9.426 -32.429 -17.189  1.00  0.00     0.000 C 
BRANCH   3   4
ATOM      4  C   UNL     1       8.958 -32.878 -15.789  1.00  0.00     0.000 C 
BRANCH   4   5
ATOM      5  C   UNL     1       9.257 -31.886 -14.652  1.00  0.00     0.006 C 
BRANCH   5   6
ATOM      6  C   UNL     1       9.459 -30.450 -15.151  1.00  0.00     0.053 C 
BRANCH   6   7
ATOM      7  C   UNL     1       8.308 -29.588 -14.739  1.00  0.00     0.041 C 
ATOM      8  O   UNL     1       7.883 -29.621 -13.553  1.00  0.00    -0.550 OA
ATOM      9  O   UNL     1       7.735 -28.711 -15.651  1.00  0.00    -0.550 OA
ENDBRANCH   6   7
ENDBRANCH   5   6
ENDBRANCH   4   5
ENDBRANCH   3   4
ENDBRANCH   2   3
ENDBRANCH   1   2
BRANCH   1  10
ATOM     10  C   UNL     1       8.780 -29.266 -19.180  1.00  0.00     0.000 C 
BRANCH  10  11
ATOM     11  C   UNL     1       7.449 -29.243 -18.409  1.00  0.00    -0.000 C 
BRANCH  11  12
ATOM     12  C   UNL     1       6.237 -28.719 -19.207  1.00  0.00    -0.000 C 
BRANCH  12  13
ATOM     13  C   UNL     1       6.575 -28.059 -20.558  1.00  0.00    -0.000 C 
BRANCH  13  14
ATOM     14  C   UNL     1       6.653 -29.072 -21.713  1.00  0.00    -0.000 C 
BRANCH  14  15
ATOM     15  C   UNL     1       6.545 -28.401 -23.091  1.00  0.00    -0.003 C 
ATOM     16  C   UNL     1       5.882 -27.025 -23.030  1.00  0.00     0.004 C 
ENDBRANCH  14  15
ENDBRANCH  13  14
ENDBRANCH  12  13
ENDBRANCH  11  12
ENDBRANCH  10  11
ENDBRANCH   1  10
TORSDOF 12
ENDMDL
MODEL 5
REMARK VINA RESULT:     5.672      1.098      2.759
REMARK INTER + INTRA:          10.184
REMARK INTER:                   9.820
REMARK INTRA:                   0.364
REMARK UNBOUND:                 0.533
REMARK SMILES CCCCCCCCCCCCCC(=O)[O-]
REMARK SMILES IDX 8 1 9 2 10 3 11 4 12 5 13 6 14 7 15 8 16 9 7 10 6 11 5 12
REMARK SMILES IDX 4 13 3 14 2 15 1 16
REMARK H PARENT
REMARK Flexibility Score: inf
ROOT
ATOM      1  C   UNL     1       6.634 -28.006 -17.974  1.00  0.00     0.000 C 
ENDROOT
BRANCH   1   2
ATOM      2  C   UNL     1       6.722 -28.822 -16.676  1.00  0.00     0.000 C 
BRANCH   2   3
ATOM      3  C   UNL     1       8.169 -29.017 -16.189  1.00  0.00     0.000 C 
BRANCH   3   4
ATOM      4  C   UNL     1       8.313 -29.401 -14.701  1.00  0.00     0.000 C 
BRANCH   4   5
ATOM      5  C   UNL     1       8.918 -30.792 -14.442  1.00  0.00     0.006 C 
BRANCH   5   6
ATOM      6  C   UNL     1       9.697 -31.337 -15.645  1.00  0.00     0.053 C 
BRANCH   6   7
ATOM      7  C   UNL     1       9.209 -32.704 -16.006  1.00  0.00     0.041 C 
ATOM      8  O   UNL     1       9.254 -33.097 -17.202  1.00  0.00    -0.550 OA
ATOM      9  O   UNL     1       8.751 -33.563 -15.016  1.00  0.00    -0.550 OA
ENDBRANCH   6   7
ENDBRANCH   5   6
ENDBRANCH   4   5
ENDBRANCH   3   4
ENDBRANCH   2   3
ENDBRANCH   1   2
BRANCH   1  10
ATOM     10  C   UNL     1       6.250 -28.902 -19.160  1.00  0.00     0.000 C 
BRANCH  10  11
ATOM     11  C   UNL     1       6.219 -28.144 -20.498  1.00  0.00    -0.000 C 
BRANCH  11  12
ATOM     12  C   UNL     1       6.996 -28.813 -21.651  1.00  0.00    -0.000 C 
BRANCH  12  13
ATOM     13  C   UNL     1       7.875 -30.010 -21.242  1.00  0.00    -0.000 C 
BRANCH  13  14
ATOM     14  C   UNL     1       9.129 -29.589 -20.457  1.00  0.00    -0.000 C 
BRANCH  14  15
ATOM     15  C   UNL     1       9.239 -30.300 -19.100  1.00  0.00    -0.003 C 
ATOM     16  C   UNL     1      10.137 -29.557 -18.111  1.00  0.00     0.004 C 
ENDBRANCH  14  15
ENDBRANCH  13  14
ENDBRANCH  12  13
ENDBRANCH  11  12
ENDBRANCH  10  11
ENDBRANCH   1  10
TORSDOF 12
ENDMDL
