MODEL 1
REMARK VINA RESULT:    -4.326      0.000      0.000
REMARK INTER + INTRA:          -5.917
REMARK INTER:                  -5.591
REMARK INTRA:                  -0.326
REMARK UNBOUND:                -0.326
REMARK SMILES CCCCCCC(=O)[O-]
REMARK SMILES IDX 5 1 6 2 7 3 8 4 9 5 4 6 3 7 2 8 1 9
REMARK H PARENT
REMARK Flexibility Score: inf
ROOT
ATOM      1  C   UNL     1      12.824  -0.534  26.716  1.00  0.00     0.006 C 
ENDROOT
BRANCH   1   2
ATOM      2  C   UNL     1      11.316  -0.363  26.470  1.00  0.00     0.053 C 
BRANCH   2   3
ATOM      3  C   UNL     1      11.036   0.417  25.222  1.00  0.00     0.041 C 
ATOM      4  O   UNL     1       9.896   0.377  24.691  1.00  0.00    -0.550 OA
ATOM      5  O   UNL     1      12.027   1.217  24.665  1.00  0.00    -0.550 OA
ENDBRANCH   2   3
ENDBRANCH   1   2
BRANCH   1   6
ATOM      6  C   UNL     1      13.390   0.368  27.828  1.00  0.00     0.000 C 
BRANCH   6   7
ATOM      7  C   UNL     1      14.435   1.367  27.308  1.00  0.00    -0.000 C 
BRANCH   7   8
ATOM      8  C   UNL     1      15.169   0.806  26.084  1.00  0.00    -0.003 C 
ATOM      9  C   UNL     1      15.569   1.922  25.122  1.00  0.00     0.004 C 
ENDBRANCH   7   8
ENDBRANCH   6   7
ENDBRANCH   1   6
TORSDOF 5
ENDMDL
MODEL 2
REMARK VINA RESULT:    -4.276      3.750      4.748
REMARK INTER + INTRA:          -5.852
REMARK INTER:                  -5.484
REMARK INTRA:                  -0.367
REMARK UNBOUND:                -0.326
REMARK SMILES CCCCCCC(=O)[O-]
REMARK SMILES IDX 5 1 6 2 7 3 8 4 9 5 4 6 3 7 2 8 1 9
REMARK H PARENT
REMARK Flexibility Score: inf
ROOT
ATOM      1  C   UNL     1      13.734   0.725  28.373  1.00  0.00     0.006 C 
ENDROOT
BRANCH   1   2
ATOM      2  C   UNL     1      13.573   0.252  29.827  1.00  0.00     0.053 C 
BRANCH   2   3
ATOM      3  C   UNL     1      14.680  -0.666  30.245  1.00  0.00     0.041 C 
ATOM      4  O   UNL     1      14.793  -1.804  29.719  1.00  0.00    -0.550 OA
ATOM      5  O   UNL     1      15.608  -0.249  31.192  1.00  0.00    -0.550 OA
ENDBRANCH   2   3
ENDBRANCH   1   2
BRANCH   1   6
ATOM      6  C   UNL     1      12.739   0.089  27.386  1.00  0.00     0.000 C 
BRANCH   6   7
ATOM      7  C   UNL     1      13.350  -1.076  26.593  1.00  0.00    -0.000 C 
BRANCH   7   8
ATOM      8  C   UNL     1      14.853  -0.863  26.377  1.00  0.00    -0.003 C 
ATOM      9  C   UNL     1      15.597  -2.195  26.329  1.00  0.00     0.004 C 
ENDBRANCH   7   8
ENDBRANCH   6   7
ENDBRANCH   1   6
TORSDOF 5
ENDMDL
MODEL 3
REMARK VINA RESULT:    -4.254      3.275      4.638
REMARK INTER + INTRA:          -5.823
REMARK INTER:                  -5.513
REMARK INTRA:                  -0.311
REMARK UNBOUND:                -0.326
REMARK SMILES CCCCCCC(=O)[O-]
REMARK SMILES IDX 5 1 6 2 7 3 8 4 9 5 4 6 3 7 2 8 1 9
REMARK H PARENT
REMARK Flexibility Score: inf
ROOT
ATOM      1  C   UNL     1      14.298   1.192  27.796  1.00  0.00     0.006 C 
ENDROOT
BRANCH   1   2
ATOM      2  C   UNL     1      13.349   0.656  28.880  1.00  0.00     0.053 C 
BRANCH   2   3
ATOM      3  C   UNL     1      14.061  -0.214  29.870  1.00  0.00     0.041 C 
ATOM      4  O   UNL     1      13.986   0.035  31.101  1.00  0.00    -0.550 OA
ATOM      5  O   UNL     1      14.780  -1.320  29.433  1.00  0.00    -0.550 OA
ENDBRANCH   2   3
ENDBRANCH   1   2
BRANCH   1   6
ATOM      6  C   UNL     1      14.132   0.521  26.420  1.00  0.00     0.000 C 
BRANCH   6   7
ATOM      7  C   UNL     1      12.912  -0.411  26.355  1.00  0.00    -0.000 C 
BRANCH   7   8
ATOM      8  C   UNL     1      11.846   0.148  25.405  1.00  0.00    -0.003 C 
ATOM      9  C   UNL     1      10.487   0.240  26.094  1.00  0.00     0.004 C 
ENDBRANCH   7   8
ENDBRANCH   6   7
ENDBRANCH   1   6
TORSDOF 5
ENDMDL
MODEL 4
REMARK VINA RESULT:    -4.246      2.723      4.140
REMARK INTER + INTRA:          -5.813
REMARK INTER:                  -5.429
REMARK INTRA:                  -0.384
REMARK UNBOUND:                -0.326
REMARK SMILES CCCCCCC(=O)[O-]
REMARK SMILES IDX 5 1 6 2 7 3 8 4 9 5 4 6 3 7 2 8 1 9
REMARK H PARENT
REMARK Flexibility Score: inf
ROOT
ATOM      1  C   UNL     1      14.128   1.105  26.669  1.00  0.00     0.006 C 
ENDROOT
BRANCH   1   2
ATOM      2  C   UNL     1      15.116   0.098  26.059  1.00  0.00     0.053 C 
BRANCH   2   3
ATOM      3  C   UNL     1      14.744  -1.317  26.378  1.00  0.00     0.041 C 
ATOM      4  O   UNL     1      15.638  -2.166  26.633  1.00  0.00    -0.550 OA
ATOM      5  O   UNL     1      13.406  -1.690  26.426  1.00  0.00    -0.550 OA
ENDBRANCH   2   3
ENDBRANCH   1   2
BRANCH   1   6
ATOM      6  C   UNL     1      14.285   1.307  28.187  1.00  0.00     0.000 C 
BRANCH   6   7
ATOM      7  C   UNL     1      13.100   0.749  28.989  1.00  0.00    -0.000 C 
BRANCH   7   8
ATOM      8  C   UNL     1      13.578   0.096  30.291  1.00  0.00    -0.003 C 
ATOM      9  C   UNL     1      14.706  -0.897  30.029  1.00  0.00     0.004 C 
ENDBRANCH   7   8
ENDBRANCH   6   7
ENDBRANCH   1   6
TORSDOF 5
ENDMDL
MODEL 5
REMARK VINA RESULT:    -4.225      1.872      3.600
REMARK INTER + INTRA:          -5.786
REMARK INTER:                  -5.562
REMARK INTRA:                  -0.224
REMARK UNBOUND:                -0.326
REMARK SMILES CCCCCCC(=O)[O-]
REMARK SMILES IDX 5 1 6 2 7 3 8 4 9 5 4 6 3 7 2 8 1 9
REMARK H PARENT
REMARK Flexibility Score: inf
ROOT
ATOM      1  C   UNL     1      14.961   0.854  26.302  1.00  0.00     0.006 C 
ENDROOT
BRANCH   1   2
ATOM      2  C   UNL     1      15.014   1.907  25.183  1.00  0.00     0.053 C 
BRANCH   2   3
ATOM      3  C   UNL     1      13.658   2.461  24.869  1.00  0.00     0.041 C 
ATOM      4  O   UNL     1      13.492   3.703  24.751  1.00  0.00    -0.550 OA
ATOM      5  O   UNL     1      12.584   1.601  24.672  1.00  0.00    -0.550 OA
ENDBRANCH   2   3
ENDBRANCH   1   2
BRANCH   1   6
ATOM      6  C   UNL     1      14.381   1.370  27.631  1.00  0.00     0.000 C 
BRANCH   6   7
ATOM      7  C   UNL     1      13.222   0.506  28.151  1.00  0.00    -0.000 C 
BRANCH   7   8
ATOM      8  C   UNL     1      13.253   0.412  29.681  1.00  0.00    -0.003 C 
ATOM      9  C   UNL     1      14.442  -0.418  30.159  1.00  0.00     0.004 C 
ENDBRANCH   7   8
ENDBRANCH   6   7
ENDBRANCH   1   6
TORSDOF 5
ENDMDL
MODEL 6
REMARK VINA RESULT:    -4.222      2.755      3.329
REMARK INTER + INTRA:          -5.783
REMARK INTER:                  -5.472
REMARK INTRA:                  -0.311
REMARK UNBOUND:                -0.326
REMARK SMILES CCCCCCC(=O)[O-]
REMARK SMILES IDX 5 1 6 2 7 3 8 4 9 5 4 6 3 7 2 8 1 9
REMARK H PARENT
REMARK Flexibility Score: inf
ROOT
ATOM      1  C   UNL     1      12.382  -0.019  26.445  1.00  0.00     0.006 C 
ENDROOT
BRANCH   1   2
ATOM      2  C   UNL     1      12.849  -1.468  26.235  1.00  0.00     0.053 C 
BRANCH   2   3
ATOM      3  C   UNL     1      14.256  -1.678  26.703  1.00  0.00     0.041 C 
ATOM      4  O   UNL     1      15.112  -2.185  25.932  1.00  0.00    -0.550 OA
ATOM      5  O   UNL     1      14.630  -1.282  27.982  1.00  0.00    -0.550 OA
ENDBRANCH   2   3
ENDBRANCH   1   2
BRANCH   1   6
ATOM      6  C   UNL     1      12.075   0.743  25.143  1.00  0.00     0.000 C 
BRANCH   6   7
ATOM      7  C   UNL     1      13.036   1.916  24.898  1.00  0.00    -0.000 C 
BRANCH   7   8
ATOM      8  C   UNL     1      14.204   1.883  25.892  1.00  0.00    -0.003 C 
ATOM      9  C   UNL     1      15.541   1.755  25.167  1.00  0.00     0.004 C 
ENDBRANCH   7   8
ENDBRANCH   6   7
ENDBRANCH   1   6
TORSDOF 5
ENDMDL
MODEL 7
REMARK VINA RESULT:    -4.212      1.902      3.817
REMARK INTER + INTRA:          -5.770
REMARK INTER:                  -5.399
REMARK INTRA:                  -0.371
REMARK UNBOUND:                -0.326
REMARK SMILES CCCCCCC(=O)[O-]
REMARK SMILES IDX 5 1 6 2 7 3 8 4 9 5 4 6 3 7 2 8 1 9
REMARK H PARENT
REMARK Flexibility Score: inf
ROOT
ATOM      1  C   UNL     1      14.386  -0.458  26.517  1.00  0.00     0.006 C 
ENDROOT
BRANCH   1   2
ATOM      2  C   UNL     1      14.511   1.032  26.876  1.00  0.00     0.053 C 
BRANCH   2   3
ATOM      3  C   UNL     1      14.828   1.874  25.679  1.00  0.00     0.041 C 
ATOM      4  O   UNL     1      15.990   1.876  25.194  1.00  0.00    -0.550 OA
ATOM      5  O   UNL     1      13.830   2.630  25.077  1.00  0.00    -0.550 OA
ENDBRANCH   2   3
ENDBRANCH   1   2
BRANCH   1   6
ATOM      6  C   UNL     1      12.943  -0.926  26.255  1.00  0.00     0.000 C 
BRANCH   6   7
ATOM      7  C   UNL     1      11.892  -0.010  26.901  1.00  0.00    -0.000 C 
BRANCH   7   8
ATOM      8  C   UNL     1      10.719   0.237  25.945  1.00  0.00    -0.003 C 
ATOM      9  C   UNL     1      11.210   0.460  24.517  1.00  0.00     0.004 C 
ENDBRANCH   7   8
ENDBRANCH   6   7
ENDBRANCH   1   6
TORSDOF 5
ENDMDL
MODEL 8
REMARK VINA RESULT:    -4.207      1.526      2.739
REMARK INTER + INTRA:          -5.763
REMARK INTER:                  -5.472
REMARK INTRA:                  -0.291
REMARK UNBOUND:                -0.326
REMARK SMILES CCCCCCC(=O)[O-]
REMARK SMILES IDX 5 1 6 2 7 3 8 4 9 5 4 6 3 7 2 8 1 9
REMARK H PARENT
REMARK Flexibility Score: inf
ROOT
ATOM      1  C   UNL     1      13.915   0.817  26.627  1.00  0.00     0.006 C 
ENDROOT
BRANCH   1   2
ATOM      2  C   UNL     1      12.775  -0.199  26.457  1.00  0.00     0.053 C 
BRANCH   2   3
ATOM      3  C   UNL     1      11.606   0.384  25.725  1.00  0.00     0.041 C 
ATOM      4  O   UNL     1      10.454   0.341  26.231  1.00  0.00    -0.550 OA
ATOM      5  O   UNL     1      11.796   1.006  24.496  1.00  0.00    -0.550 OA
ENDBRANCH   2   3
ENDBRANCH   1   2
BRANCH   1   6
ATOM      6  C   UNL     1      14.275   1.127  28.091  1.00  0.00     0.000 C 
BRANCH   6   7
ATOM      7  C   UNL     1      13.114   0.857  29.060  1.00  0.00    -0.000 C 
BRANCH   7   8
ATOM      8  C   UNL     1      13.594   0.063  30.282  1.00  0.00    -0.003 C 
ATOM      9  C   UNL     1      14.675  -0.943  29.896  1.00  0.00     0.004 C 
ENDBRANCH   7   8
ENDBRANCH   6   7
ENDBRANCH   1   6
TORSDOF 5
ENDMDL
MODEL 9
REMARK VINA RESULT:    -4.202      2.526      3.800
REMARK INTER + INTRA:          -5.757
REMARK INTER:                  -5.414
REMARK INTRA:                  -0.343
REMARK UNBOUND:                -0.326
REMARK SMILES CCCCCCC(=O)[O-]
REMARK SMILES IDX 5 1 6 2 7 3 8 4 9 5 4 6 3 7 2 8 1 9
REMARK H PARENT
REMARK Flexibility Score: inf
ROOT
ATOM      1  C   UNL     1      12.989  -0.947  26.214  1.00  0.00     0.006 C 
ENDROOT
BRANCH   1   2
ATOM      2  C   UNL     1      14.010  -0.682  27.332  1.00  0.00     0.053 C 
BRANCH   2   3
ATOM      3  C   UNL     1      13.963   0.737  27.811  1.00  0.00     0.041 C 
ATOM      4  O   UNL     1      13.522   1.005  28.958  1.00  0.00    -0.550 OA
ATOM      5  O   UNL     1      14.440   1.760  27.000  1.00  0.00    -0.550 OA
ENDBRANCH   2   3
ENDBRANCH   1   2
BRANCH   1   6
ATOM      6  C   UNL     1      11.525  -0.709  26.624  1.00  0.00     0.000 C 
BRANCH   6   7
ATOM      7  C   UNL     1      10.835   0.366  25.770  1.00  0.00    -0.000 C 
BRANCH   7   8
ATOM      8  C   UNL     1      11.721   0.780  24.589  1.00  0.00    -0.003 C 
ATOM      9  C   UNL     1      10.971   0.654  23.266  1.00  0.00     0.004 C 
ENDBRANCH   7   8
ENDBRANCH   6   7
ENDBRANCH   1   6
TORSDOF 5
ENDMDL
