MODEL 1
REMARK VINA RESULT:    -3.332      0.000      0.000
REMARK INTER + INTRA:          -4.485
REMARK INTER:                  -4.307
REMARK INTRA:                  -0.178
REMARK UNBOUND:                -0.178
REMARK SMILES CCCCCCC(=O)[O-]
REMARK SMILES IDX 5 1 6 2 7 3 8 4 9 5 4 6 3 7 2 8 1 9
REMARK H PARENT
REMARK Flexibility Score: inf
ROOT
ATOM      1  C   UNL     1      26.585 -16.451  25.362  1.00  0.00     0.006 C 
ENDROOT
BRANCH   1   2
ATOM      2  C   UNL     1      25.785 -16.242  26.655  1.00  0.00     0.053 C 
BRANCH   2   3
ATOM      3  C   UNL     1      24.716 -15.216  26.447  1.00  0.00     0.041 C 
ATOM      4  O   UNL     1      23.531 -15.573  26.217  1.00  0.00    -0.550 OA
ATOM      5  O   UNL     1      25.038 -13.865  26.458  1.00  0.00    -0.550 OA
ENDBRANCH   2   3
ENDBRANCH   1   2
BRANCH   1   6
ATOM      6  C   UNL     1      26.450 -17.878  24.808  1.00  0.00     0.000 C 
BRANCH   6   7
ATOM      7  C   UNL     1      27.810 -18.507  24.457  1.00  0.00    -0.000 C 
BRANCH   7   8
ATOM      8  C   UNL     1      28.870 -18.261  25.542  1.00  0.00    -0.003 C 
ATOM      9  C   UNL     1      30.239 -18.831  25.169  1.00  0.00     0.004 C 
ENDBRANCH   7   8
ENDBRANCH   6   7
ENDBRANCH   1   6
TORSDOF 5
ENDMDL
MODEL 2
REMARK VINA RESULT:    -3.302      0.850      1.743
REMARK INTER + INTRA:          -4.446
REMARK INTER:                  -4.257
REMARK INTRA:                  -0.189
REMARK UNBOUND:                -0.178
REMARK SMILES CCCCCCC(=O)[O-]
REMARK SMILES IDX 5 1 6 2 7 3 8 4 9 5 4 6 3 7 2 8 1 9
REMARK H PARENT
REMARK Flexibility Score: inf
ROOT
ATOM      1  C   UNL     1      25.838 -16.049  26.556  1.00  0.00     0.006 C 
ENDROOT
BRANCH   1   2
ATOM      2  C   UNL     1      24.317 -16.168  26.394  1.00  0.00     0.053 C 
BRANCH   2   3
ATOM      3  C   UNL     1      23.681 -14.814  26.431  1.00  0.00     0.041 C 
ATOM      4  O   UNL     1      24.323 -13.825  26.872  1.00  0.00    -0.550 OA
ATOM      5  O   UNL     1      22.362 -14.654  26.025  1.00  0.00    -0.550 OA
ENDBRANCH   2   3
ENDBRANCH   1   2
BRANCH   1   6
ATOM      6  C   UNL     1      26.597 -16.371  25.260  1.00  0.00     0.000 C 
BRANCH   6   7
ATOM      7  C   UNL     1      26.450 -17.843  24.839  1.00  0.00    -0.000 C 
BRANCH   7   8
ATOM      8  C   UNL     1      27.798 -18.497  24.500  1.00  0.00    -0.003 C 
ATOM      9  C   UNL     1      28.837 -18.315  25.608  1.00  0.00     0.004 C 
ENDBRANCH   7   8
ENDBRANCH   6   7
ENDBRANCH   1   6
TORSDOF 5
ENDMDL
MODEL 3
REMARK VINA RESULT:    -3.270      2.951      5.176
REMARK INTER + INTRA:          -4.404
REMARK INTER:                  -4.214
REMARK INTRA:                  -0.190
REMARK UNBOUND:                -0.178
REMARK SMILES CCCCCCC(=O)[O-]
REMARK SMILES IDX 5 1 6 2 7 3 8 4 9 5 4 6 3 7 2 8 1 9
REMARK H PARENT
REMARK Flexibility Score: inf
ROOT
ATOM      1  C   UNL     1      26.625 -16.358  25.444  1.00  0.00     0.006 C 
ENDROOT
BRANCH   1   2
ATOM      2  C   UNL     1      26.600 -17.545  24.472  1.00  0.00     0.053 C 
BRANCH   2   3
ATOM      3  C   UNL     1      27.707 -18.501  24.788  1.00  0.00     0.041 C 
ATOM      4  O   UNL     1      27.645 -19.695  24.392  1.00  0.00    -0.550 OA
ATOM      5  O   UNL     1      28.785 -18.086  25.560  1.00  0.00    -0.550 OA
ENDBRANCH   2   3
ENDBRANCH   1   2
BRANCH   1   6
ATOM      6  C   UNL     1      25.368 -16.290  26.325  1.00  0.00     0.000 C 
BRANCH   6   7
ATOM      7  C   UNL     1      24.795 -14.866  26.429  1.00  0.00    -0.000 C 
BRANCH   7   8
ATOM      8  C   UNL     1      23.259 -14.851  26.457  1.00  0.00    -0.003 C 
ATOM      9  C   UNL     1      22.647 -16.185  26.029  1.00  0.00     0.004 C 
ENDBRANCH   7   8
ENDBRANCH   6   7
ENDBRANCH   1   6
TORSDOF 5
ENDMDL
MODEL 4
REMARK VINA RESULT:    -3.268      1.092      1.803
REMARK INTER + INTRA:          -4.401
REMARK INTER:                  -4.127
REMARK INTRA:                  -0.274
REMARK UNBOUND:                -0.178
REMARK SMILES CCCCCCC(=O)[O-]
REMARK SMILES IDX 5 1 6 2 7 3 8 4 9 5 4 6 3 7 2 8 1 9
REMARK H PARENT
REMARK Flexibility Score: inf
ROOT
ATOM      1  C   UNL     1      26.654 -17.749  24.631  1.00  0.00     0.006 C 
ENDROOT
BRANCH   1   2
ATOM      2  C   UNL     1      26.757 -16.331  25.208  1.00  0.00     0.053 C 
BRANCH   2   3
ATOM      3  C   UNL     1      25.698 -16.111  26.242  1.00  0.00     0.041 C 
ATOM      4  O   UNL     1      25.039 -15.037  26.255  1.00  0.00    -0.550 OA
ATOM      5  O   UNL     1      25.471 -17.069  27.221  1.00  0.00    -0.550 OA
ENDBRANCH   2   3
ENDBRANCH   1   2
BRANCH   1   6
ATOM      6  C   UNL     1      27.990 -18.507  24.684  1.00  0.00     0.000 C 
BRANCH   6   7
ATOM      7  C   UNL     1      28.642 -18.458  26.077  1.00  0.00    -0.000 C 
BRANCH   7   8
ATOM      8  C   UNL     1      30.174 -18.360  26.007  1.00  0.00    -0.003 C 
ATOM      9  C   UNL     1      30.724 -18.694  24.620  1.00  0.00     0.004 C 
ENDBRANCH   7   8
ENDBRANCH   6   7
ENDBRANCH   1   6
TORSDOF 5
ENDMDL
MODEL 5
REMARK VINA RESULT:    -3.229      1.472      2.214
REMARK INTER + INTRA:          -4.350
REMARK INTER:                  -4.234
REMARK INTRA:                  -0.116
REMARK UNBOUND:                -0.178
REMARK SMILES CCCCCCC(=O)[O-]
REMARK SMILES IDX 5 1 6 2 7 3 8 4 9 5 4 6 3 7 2 8 1 9
REMARK H PARENT
REMARK Flexibility Score: inf
ROOT
ATOM      1  C   UNL     1      24.668 -16.423  26.556  1.00  0.00     0.006 C 
ENDROOT
BRANCH   1   2
ATOM      2  C   UNL     1      24.278 -14.938  26.564  1.00  0.00     0.053 C 
BRANCH   2   3
ATOM      3  C   UNL     1      22.791 -14.789  26.616  1.00  0.00     0.041 C 
ATOM      4  O   UNL     1      22.146 -14.506  25.572  1.00  0.00    -0.550 OA
ATOM      5  O   UNL     1      22.121 -14.915  27.826  1.00  0.00    -0.550 OA
ENDBRANCH   2   3
ENDBRANCH   1   2
BRANCH   1   6
ATOM      6  C   UNL     1      26.187 -16.634  26.475  1.00  0.00     0.000 C 
BRANCH   6   7
ATOM      7  C   UNL     1      26.694 -16.725  25.025  1.00  0.00    -0.000 C 
BRANCH   7   8
ATOM      8  C   UNL     1      27.343 -18.083  24.712  1.00  0.00    -0.003 C 
ATOM      9  C   UNL     1      28.366 -18.505  25.767  1.00  0.00     0.004 C 
ENDBRANCH   7   8
ENDBRANCH   6   7
ENDBRANCH   1   6
TORSDOF 5
ENDMDL
MODEL 6
REMARK VINA RESULT:    -3.179      5.597      6.791
REMARK INTER + INTRA:          -4.287
REMARK INTER:                  -4.143
REMARK INTRA:                  -0.143
REMARK UNBOUND:                -0.178
REMARK SMILES CCCCCCC(=O)[O-]
REMARK SMILES IDX 5 1 6 2 7 3 8 4 9 5 4 6 3 7 2 8 1 9
REMARK H PARENT
REMARK Flexibility Score: inf
ROOT
ATOM      1  C   UNL     1      21.078 -16.462  29.052  1.00  0.00     0.006 C 
ENDROOT
BRANCH   1   2
ATOM      2  C   UNL     1      20.567 -15.082  29.489  1.00  0.00     0.053 C 
BRANCH   2   3
ATOM      3  C   UNL     1      19.313 -15.221  30.293  1.00  0.00     0.041 C 
ATOM      4  O   UNL     1      18.195 -14.970  29.771  1.00  0.00    -0.550 OA
ATOM      5  O   UNL     1      19.382 -15.580  31.633  1.00  0.00    -0.550 OA
ENDBRANCH   2   3
ENDBRANCH   1   2
BRANCH   1   6
ATOM      6  C   UNL     1      22.110 -16.376  27.917  1.00  0.00     0.000 C 
BRANCH   6   7
ATOM      7  C   UNL     1      22.352 -14.932  27.446  1.00  0.00    -0.000 C 
BRANCH   7   8
ATOM      8  C   UNL     1      23.567 -14.813  26.512  1.00  0.00    -0.003 C 
ATOM      9  C   UNL     1      24.417 -13.577  26.805  1.00  0.00     0.004 C 
ENDBRANCH   7   8
ENDBRANCH   6   7
ENDBRANCH   1   6
TORSDOF 5
ENDMDL
MODEL 7
REMARK VINA RESULT:    -3.116      3.386      5.170
REMARK INTER + INTRA:          -4.204
REMARK INTER:                  -3.993
REMARK INTRA:                  -0.212
REMARK UNBOUND:                -0.178
REMARK SMILES CCCCCCC(=O)[O-]
REMARK SMILES IDX 5 1 6 2 7 3 8 4 9 5 4 6 3 7 2 8 1 9
REMARK H PARENT
REMARK Flexibility Score: inf
ROOT
ATOM      1  C   UNL     1      27.184 -18.630  24.951  1.00  0.00     0.006 C 
ENDROOT
BRANCH   1   2
ATOM      2  C   UNL     1      28.490 -19.089  24.287  1.00  0.00     0.053 C 
BRANCH   2   3
ATOM      3  C   UNL     1      29.668 -18.672  25.109  1.00  0.00     0.041 C 
ATOM      4  O   UNL     1      30.829 -18.729  24.626  1.00  0.00    -0.550 OA
ATOM      5  O   UNL     1      29.489 -18.265  26.425  1.00  0.00    -0.550 OA
ENDBRANCH   2   3
ENDBRANCH   1   2
BRANCH   1   6
ATOM      6  C   UNL     1      26.648 -17.320  24.355  1.00  0.00     0.000 C 
BRANCH   6   7
ATOM      7  C   UNL     1      26.455 -16.224  25.418  1.00  0.00    -0.000 C 
BRANCH   7   8
ATOM      8  C   UNL     1      25.475 -16.643  26.525  1.00  0.00    -0.003 C 
ATOM      9  C   UNL     1      24.163 -15.858  26.480  1.00  0.00     0.004 C 
ENDBRANCH   7   8
ENDBRANCH   6   7
ENDBRANCH   1   6
TORSDOF 5
ENDMDL
MODEL 8
REMARK VINA RESULT:    -3.092     16.684     17.378
REMARK INTER + INTRA:          -4.173
REMARK INTER:                  -4.031
REMARK INTRA:                  -0.142
REMARK UNBOUND:                -0.178
REMARK SMILES CCCCCCC(=O)[O-]
REMARK SMILES IDX 5 1 6 2 7 3 8 4 9 5 4 6 3 7 2 8 1 9
REMARK H PARENT
REMARK Flexibility Score: inf
ROOT
ATOM      1  C   UNL     1      13.931  -6.309  21.121  1.00  0.00     0.006 C 
ENDROOT
BRANCH   1   2
ATOM      2  C   UNL     1      14.475  -4.874  21.152  1.00  0.00     0.053 C 
BRANCH   2   3
ATOM      3  C   UNL     1      15.918  -4.854  20.758  1.00  0.00     0.041 C 
ATOM      4  O   UNL     1      16.539  -5.933  20.570  1.00  0.00    -0.550 OA
ATOM      5  O   UNL     1      16.591  -3.644  20.647  1.00  0.00    -0.550 OA
ENDBRANCH   2   3
ENDBRANCH   1   2
BRANCH   1   6
ATOM      6  C   UNL     1      12.883  -6.567  22.213  1.00  0.00     0.000 C 
BRANCH   6   7
ATOM      7  C   UNL     1      13.250  -5.905  23.553  1.00  0.00    -0.000 C 
BRANCH   7   8
ATOM      8  C   UNL     1      12.349  -6.373  24.707  1.00  0.00    -0.003 C 
ATOM      9  C   UNL     1      13.121  -6.580  26.011  1.00  0.00     0.004 C 
ENDBRANCH   7   8
ENDBRANCH   6   7
ENDBRANCH   1   6
TORSDOF 5
ENDMDL
MODEL 9
REMARK VINA RESULT:    -3.020      8.891     11.558
REMARK INTER + INTRA:          -4.081
REMARK INTER:                  -3.965
REMARK INTRA:                  -0.116
REMARK UNBOUND:                -0.178
REMARK SMILES CCCCCCC(=O)[O-]
REMARK SMILES IDX 5 1 6 2 7 3 8 4 9 5 4 6 3 7 2 8 1 9
REMARK H PARENT
REMARK Flexibility Score: inf
ROOT
ATOM      1  C   UNL     1      17.629 -16.344  29.898  1.00  0.00     0.006 C 
ENDROOT
BRANCH   1   2
ATOM      2  C   UNL     1      18.421 -15.064  30.198  1.00  0.00     0.053 C 
BRANCH   2   3
ATOM      3  C   UNL     1      19.872 -15.379  30.378  1.00  0.00     0.041 C 
ATOM      4  O   UNL     1      20.289 -15.844  31.471  1.00  0.00    -0.550 OA
ATOM      5  O   UNL     1      20.773 -15.112  29.355  1.00  0.00    -0.550 OA
ENDBRANCH   2   3
ENDBRANCH   1   2
BRANCH   1   6
ATOM      6  C   UNL     1      16.763 -16.794  31.085  1.00  0.00     0.000 C 
BRANCH   6   7
ATOM      7  C   UNL     1      15.303 -17.066  30.683  1.00  0.00    -0.000 C 
BRANCH   7   8
ATOM      8  C   UNL     1      14.309 -16.708  31.798  1.00  0.00    -0.003 C 
ATOM      9  C   UNL     1      12.936 -16.306  31.258  1.00  0.00     0.004 C 
ENDBRANCH   7   8
ENDBRANCH   6   7
ENDBRANCH   1   6
TORSDOF 5
ENDMDL
