MODEL 1
REMARK VINA RESULT:    -4.410      0.000      0.000
REMARK INTER + INTRA:         -10.381
REMARK INTER:                  -8.277
REMARK INTRA:                  -2.104
REMARK UNBOUND:                -2.104
REMARK SMILES CCCCCCCCC=CCCCCCCCC(=O)[O-]
REMARK SMILES IDX 10 1 9 2 11 3 12 4 13 5 14 6 15 7 16 8 17 9 18 10 19 11
REMARK SMILES IDX 20 12 8 13 7 14 6 15 5 16 4 17 3 18 2 19 1 20
REMARK H PARENT
REMARK Flexibility Score: inf
ROOT
ATOM      1  C   UNL     1     101.245  98.533 114.644  1.00  0.00    -0.031 C 
ATOM      2  C   UNL     1     100.609  99.683 114.930  1.00  0.00    -0.031 C 
ENDROOT
BRANCH   1   3
ATOM      3  C   UNL     1     101.768  97.568 115.682  1.00  0.00     0.027 C 
BRANCH   3   4
ATOM      4  C   UNL     1     101.371  96.117 115.373  1.00  0.00     0.004 C 
BRANCH   4   5
ATOM      5  C   UNL     1     102.538  95.313 114.775  1.00  0.00     0.000 C 
BRANCH   5   6
ATOM      6  C   UNL     1     103.882  95.622 115.453  1.00  0.00     0.000 C 
BRANCH   6   7
ATOM      7  C   UNL     1     104.647  94.351 115.863  1.00  0.00     0.000 C 
BRANCH   7   8
ATOM      8  C   UNL     1     104.119  93.090 115.148  1.00  0.00     0.006 C 
BRANCH   8   9
ATOM      9  C   UNL     1     103.782  91.936 116.106  1.00  0.00     0.053 C 
BRANCH   9  10
ATOM     10  C   UNL     1     102.450  91.321 115.810  1.00  0.00     0.041 C 
ATOM     11  O   UNL     1     101.478  91.506 116.589  1.00  0.00    -0.550 OA
ATOM     12  O   UNL     1     102.287  90.525 114.683  1.00  0.00    -0.550 OA
ENDBRANCH   9  10
ENDBRANCH   8   9
ENDBRANCH   7   8
ENDBRANCH   6   7
ENDBRANCH   5   6
ENDBRANCH   4   5
ENDBRANCH   3   4
ENDBRANCH   1   3
BRANCH   2  13
ATOM     13  C   UNL     1     100.378 100.185 116.334  1.00  0.00     0.027 C 
BRANCH  13  14
ATOM     14  C   UNL     1     101.272 101.394 116.643  1.00  0.00     0.004 C 
BRANCH  14  15
ATOM     15  C   UNL     1     101.384 102.373 115.461  1.00  0.00     0.000 C 
BRANCH  15  16
ATOM     16  C   UNL     1     102.825 102.692 115.015  1.00  0.00     0.000 C 
BRANCH  16  17
ATOM     17  C   UNL     1     103.924 101.870 115.718  1.00  0.00    -0.000 C 
BRANCH  17  18
ATOM     18  C   UNL     1     104.635 100.834 114.825  1.00  0.00    -0.000 C 
BRANCH  18  19
ATOM     19  C   UNL     1     104.857  99.460 115.478  1.00  0.00    -0.003 C 
ATOM     20  C   UNL     1     104.616  99.474 116.988  1.00  0.00     0.004 C 
ENDBRANCH  18  19
ENDBRANCH  17  18
ENDBRANCH  16  17
ENDBRANCH  15  16
ENDBRANCH  14  15
ENDBRANCH  13  14
ENDBRANCH   2  13
TORSDOF 15
ENDMDL
MODEL 2
REMARK VINA RESULT:    -4.361      5.527      8.388
REMARK INTER + INTRA:         -10.289
REMARK INTER:                  -8.178
REMARK INTRA:                  -2.111
REMARK UNBOUND:                -2.104
REMARK SMILES CCCCCCCCC=CCCCCCCCC(=O)[O-]
REMARK SMILES IDX 10 1 9 2 11 3 12 4 13 5 14 6 15 7 16 8 17 9 18 10 19 11
REMARK SMILES IDX 20 12 8 13 7 14 6 15 5 16 4 17 3 18 2 19 1 20
REMARK H PARENT
REMARK Flexibility Score: inf
ROOT
ATOM      1  C   UNL     1     107.734  95.802 114.430  1.00  0.00    -0.031 C 
ATOM      2  C   UNL     1     106.672  96.272 113.752  1.00  0.00    -0.031 C 
ENDROOT
BRANCH   1   3
ATOM      3  C   UNL     1     108.062  96.167 115.859  1.00  0.00     0.027 C 
BRANCH   3   4
ATOM      4  C   UNL     1     108.190  94.927 116.756  1.00  0.00     0.004 C 
BRANCH   4   5
ATOM      5  C   UNL     1     108.305  93.629 115.938  1.00  0.00     0.000 C 
BRANCH   5   6
ATOM      6  C   UNL     1     109.712  93.012 115.999  1.00  0.00     0.000 C 
BRANCH   6   7
ATOM      7  C   UNL     1     110.627  93.509 114.866  1.00  0.00     0.000 C 
BRANCH   7   8
ATOM      8  C   UNL     1     111.638  94.571 115.349  1.00  0.00     0.006 C 
BRANCH   8   9
ATOM      9  C   UNL     1     111.578  95.884 114.551  1.00  0.00     0.053 C 
BRANCH   9  10
ATOM     10  C   UNL     1     112.145  97.039 115.313  1.00  0.00     0.041 C 
ATOM     11  O   UNL     1     113.202  97.601 114.921  1.00  0.00    -0.550 OA
ATOM     12  O   UNL     1     111.520  97.483 116.472  1.00  0.00    -0.550 OA
ENDBRANCH   9  10
ENDBRANCH   8   9
ENDBRANCH   7   8
ENDBRANCH   6   7
ENDBRANCH   5   6
ENDBRANCH   4   5
ENDBRANCH   3   4
ENDBRANCH   1   3
BRANCH   2  13
ATOM     13  C   UNL     1     105.691  97.269 114.319  1.00  0.00     0.027 C 
BRANCH  13  14
ATOM     14  C   UNL     1     104.343  96.604 114.628  1.00  0.00     0.004 C 
BRANCH  14  15
ATOM     15  C   UNL     1     104.448  95.509 115.705  1.00  0.00     0.000 C 
BRANCH  15  16
ATOM     16  C   UNL     1     103.842  94.147 115.310  1.00  0.00     0.000 C 
BRANCH  16  17
ATOM     17  C   UNL     1     104.852  92.987 115.211  1.00  0.00    -0.000 C 
BRANCH  17  18
ATOM     18  C   UNL     1     104.353  91.639 115.768  1.00  0.00    -0.000 C 
BRANCH  18  19
ATOM     19  C   UNL     1     102.853  91.593 116.105  1.00  0.00    -0.003 C 
ATOM     20  C   UNL     1     102.002  91.048 114.957  1.00  0.00     0.004 C 
ENDBRANCH  18  19
ENDBRANCH  17  18
ENDBRANCH  16  17
ENDBRANCH  15  16
ENDBRANCH  14  15
ENDBRANCH  13  14
ENDBRANCH   2  13
TORSDOF 15
ENDMDL
MODEL 3
REMARK VINA RESULT:    -4.347      2.486      4.816
REMARK INTER + INTRA:         -10.263
REMARK INTER:                  -7.650
REMARK INTRA:                  -2.613
REMARK UNBOUND:                -2.104
REMARK SMILES CCCCCCCCC=CCCCCCCCC(=O)[O-]
REMARK SMILES IDX 10 1 9 2 11 3 12 4 13 5 14 6 15 7 16 8 17 9 18 10 19 11
REMARK SMILES IDX 20 12 8 13 7 14 6 15 5 16 4 17 3 18 2 19 1 20
REMARK H PARENT
REMARK Flexibility Score: inf
ROOT
ATOM      1  C   UNL     1     101.358 102.196 115.506  1.00  0.00    -0.031 C 
ATOM      2  C   UNL     1     102.520 102.659 115.013  1.00  0.00    -0.031 C 
ENDROOT
BRANCH   1   3
ATOM      3  C   UNL     1     101.248 101.197 116.633  1.00  0.00     0.027 C 
BRANCH   3   4
ATOM      4  C   UNL     1     100.107 100.195 116.408  1.00  0.00     0.004 C 
BRANCH   4   5
ATOM      5  C   UNL     1      99.307 100.506 115.130  1.00  0.00     0.000 C 
BRANCH   5   6
ATOM      6  C   UNL     1      99.072  99.261 114.260  1.00  0.00     0.000 C 
BRANCH   6   7
ATOM      7  C   UNL     1      98.409  98.111 115.037  1.00  0.00     0.000 C 
BRANCH   7   8
ATOM      8  C   UNL     1      98.285  96.824 114.193  1.00  0.00     0.006 C 
BRANCH   8   9
ATOM      9  C   UNL     1      98.492  95.535 115.005  1.00  0.00     0.053 C 
BRANCH   9  10
ATOM     10  C   UNL     1      99.659  94.736 114.516  1.00  0.00     0.041 C 
ATOM     11  O   UNL     1      99.893  94.646 113.282  1.00  0.00    -0.550 OA
ATOM     12  O   UNL     1     100.477  94.072 115.422  1.00  0.00    -0.550 OA
ENDBRANCH   9  10
ENDBRANCH   8   9
ENDBRANCH   7   8
ENDBRANCH   6   7
ENDBRANCH   5   6
ENDBRANCH   4   5
ENDBRANCH   3   4
ENDBRANCH   1   3
BRANCH   2  13
ATOM     13  C   UNL     1     103.875 102.199 115.492  1.00  0.00     0.027 C 
BRANCH  13  14
ATOM     14  C   UNL     1     104.491 101.185 114.519  1.00  0.00     0.004 C 
BRANCH  14  15
ATOM     15  C   UNL     1     104.973  99.901 115.218  1.00  0.00     0.000 C 
BRANCH  15  16
ATOM     16  C   UNL     1     104.616  99.801 116.714  1.00  0.00     0.000 C 
BRANCH  16  17
ATOM     17  C   UNL     1     103.712  98.611 117.093  1.00  0.00    -0.000 C 
BRANCH  17  18
ATOM     18  C   UNL     1     103.568  97.530 116.004  1.00  0.00    -0.000 C 
BRANCH  18  19
ATOM     19  C   UNL     1     102.164  97.420 115.384  1.00  0.00    -0.003 C 
ATOM     20  C   UNL     1     102.186  97.444 113.855  1.00  0.00     0.004 C 
ENDBRANCH  18  19
ENDBRANCH  17  18
ENDBRANCH  16  17
ENDBRANCH  15  16
ENDBRANCH  14  15
ENDBRANCH  13  14
ENDBRANCH   2  13
TORSDOF 15
ENDMDL
MODEL 4
REMARK VINA RESULT:    -4.320      5.213      7.432
REMARK INTER + INTRA:         -10.213
REMARK INTER:                  -7.794
REMARK INTRA:                  -2.419
REMARK UNBOUND:                -2.104
REMARK SMILES CCCCCCCCC=CCCCCCCCC(=O)[O-]
REMARK SMILES IDX 10 1 9 2 11 3 12 4 13 5 14 6 15 7 16 8 17 9 18 10 19 11
REMARK SMILES IDX 20 12 8 13 7 14 6 15 5 16 4 17 3 18 2 19 1 20
REMARK H PARENT
REMARK Flexibility Score: inf
ROOT
ATOM      1  C   UNL     1     107.661  95.595 113.852  1.00  0.00    -0.031 C 
ATOM      2  C   UNL     1     107.992  95.977 115.099  1.00  0.00    -0.031 C 
ENDROOT
BRANCH   1   3
ATOM      3  C   UNL     1     107.103  94.238 113.496  1.00  0.00     0.027 C 
BRANCH   3   4
ATOM      4  C   UNL     1     105.653  94.323 112.997  1.00  0.00     0.004 C 
BRANCH   4   5
ATOM      5  C   UNL     1     104.693  93.486 113.861  1.00  0.00     0.000 C 
BRANCH   5   6
ATOM      6  C   UNL     1     104.590  94.003 115.304  1.00  0.00     0.000 C 
BRANCH   6   7
ATOM      7  C   UNL     1     104.802  92.893 116.349  1.00  0.00     0.000 C 
BRANCH   7   8
ATOM      8  C   UNL     1     104.092  91.578 115.963  1.00  0.00     0.006 C 
BRANCH   8   9
ATOM      9  C   UNL     1     102.601  91.551 116.339  1.00  0.00     0.053 C 
BRANCH   9  10
ATOM     10  C   UNL     1     101.722  91.279 115.160  1.00  0.00     0.041 C 
ATOM     11  O   UNL     1     100.598  91.839 115.063  1.00  0.00    -0.550 OA
ATOM     12  O   UNL     1     102.134  90.388 114.175  1.00  0.00    -0.550 OA
ENDBRANCH   9  10
ENDBRANCH   8   9
ENDBRANCH   7   8
ENDBRANCH   6   7
ENDBRANCH   5   6
ENDBRANCH   4   5
ENDBRANCH   3   4
ENDBRANCH   1   3
BRANCH   2  13
ATOM     13  C   UNL     1     107.893  95.073 116.304  1.00  0.00     0.027 C 
BRANCH  13  14
ATOM     14  C   UNL     1     109.264  94.489 116.671  1.00  0.00     0.004 C 
BRANCH  14  15
ATOM     15  C   UNL     1     109.448  93.041 116.183  1.00  0.00     0.000 C 
BRANCH  15  16
ATOM     16  C   UNL     1     110.522  92.854 115.092  1.00  0.00     0.000 C 
BRANCH  16  17
ATOM     17  C   UNL     1     111.140  94.160 114.553  1.00  0.00    -0.000 C 
BRANCH  17  18
ATOM     18  C   UNL     1     111.176  94.279 113.017  1.00  0.00    -0.000 C 
BRANCH  18  19
ATOM     19  C   UNL     1     110.830  92.985 112.259  1.00  0.00    -0.003 C 
ATOM     20  C   UNL     1     109.696  93.172 111.251  1.00  0.00     0.004 C 
ENDBRANCH  18  19
ENDBRANCH  17  18
ENDBRANCH  16  17
ENDBRANCH  15  16
ENDBRANCH  14  15
ENDBRANCH  13  14
ENDBRANCH   2  13
TORSDOF 15
ENDMDL
MODEL 5
REMARK VINA RESULT:    -4.299      2.052      3.903
REMARK INTER + INTRA:         -10.172
REMARK INTER:                  -8.066
REMARK INTRA:                  -2.106
REMARK UNBOUND:                -2.104
REMARK SMILES CCCCCCCCC=CCCCCCCCC(=O)[O-]
REMARK SMILES IDX 10 1 9 2 11 3 12 4 13 5 14 6 15 7 16 8 17 9 18 10 19 11
REMARK SMILES IDX 20 12 8 13 7 14 6 15 5 16 4 17 3 18 2 19 1 20
REMARK H PARENT
REMARK Flexibility Score: inf
ROOT
ATOM      1  C   UNL     1     104.909  99.981 115.421  1.00  0.00    -0.031 C 
ATOM      2  C   UNL     1     104.607 101.186 114.907  1.00  0.00    -0.031 C 
ENDROOT
BRANCH   1   3
ATOM      3  C   UNL     1     104.595  99.555 116.836  1.00  0.00     0.027 C 
BRANCH   3   4
ATOM      4  C   UNL     1     103.525  98.456 116.884  1.00  0.00     0.004 C 
BRANCH   4   5
ATOM      5  C   UNL     1     103.263  97.841 115.498  1.00  0.00     0.000 C 
BRANCH   5   6
ATOM      6  C   UNL     1     102.406  96.567 115.566  1.00  0.00     0.000 C 
BRANCH   6   7
ATOM      7  C   UNL     1     103.154  95.321 115.060  1.00  0.00     0.000 C 
BRANCH   7   8
ATOM      8  C   UNL     1     104.619  95.278 115.541  1.00  0.00     0.006 C 
BRANCH   8   9
ATOM      9  C   UNL     1     104.960  94.021 116.360  1.00  0.00     0.053 C 
BRANCH   9  10
ATOM     10  C   UNL     1     106.217  93.360 115.890  1.00  0.00     0.041 C 
ATOM     11  O   UNL     1     106.602  92.283 116.416  1.00  0.00    -0.550 OA
ATOM     12  O   UNL     1     106.977  93.945 114.884  1.00  0.00    -0.550 OA
ENDBRANCH   9  10
ENDBRANCH   8   9
ENDBRANCH   7   8
ENDBRANCH   6   7
ENDBRANCH   5   6
ENDBRANCH   4   5
ENDBRANCH   3   4
ENDBRANCH   1   3
BRANCH   2  13
ATOM     13  C   UNL     1     103.955 102.294 115.698  1.00  0.00     0.027 C 
BRANCH  13  14
ATOM     14  C   UNL     1     102.843 102.973 114.887  1.00  0.00     0.004 C 
BRANCH  14  15
ATOM     15  C   UNL     1     101.439 102.451 115.241  1.00  0.00     0.000 C 
BRANCH  15  16
ATOM     16  C   UNL     1     101.370 101.586 116.516  1.00  0.00     0.000 C 
BRANCH  16  17
ATOM     17  C   UNL     1     100.418 100.376 116.433  1.00  0.00    -0.000 C 
BRANCH  17  18
ATOM     18  C   UNL     1      99.690 100.211 115.084  1.00  0.00    -0.000 C 
BRANCH  18  19
ATOM     19  C   UNL     1      99.272  98.769 114.747  1.00  0.00    -0.003 C 
ATOM     20  C   UNL     1      99.857  98.275 113.423  1.00  0.00     0.004 C 
ENDBRANCH  18  19
ENDBRANCH  17  18
ENDBRANCH  16  17
ENDBRANCH  15  16
ENDBRANCH  14  15
ENDBRANCH  13  14
ENDBRANCH   2  13
TORSDOF 15
ENDMDL
MODEL 6
REMARK VINA RESULT:    -4.286      3.978      6.348
REMARK INTER + INTRA:         -10.148
REMARK INTER:                  -7.654
REMARK INTRA:                  -2.494
REMARK UNBOUND:                -2.104
REMARK SMILES CCCCCCCCC=CCCCCCCCC(=O)[O-]
REMARK SMILES IDX 10 1 9 2 11 3 12 4 13 5 14 6 15 7 16 8 17 9 18 10 19 11
REMARK SMILES IDX 20 12 8 13 7 14 6 15 5 16 4 17 3 18 2 19 1 20
REMARK H PARENT
REMARK Flexibility Score: inf
ROOT
ATOM      1  C   UNL     1     101.236  91.992 116.035  1.00  0.00    -0.031 C 
ATOM      2  C   UNL     1     102.334  91.371 116.504  1.00  0.00    -0.031 C 
ENDROOT
BRANCH   1   3
ATOM      3  C   UNL     1     101.186  92.778 114.747  1.00  0.00     0.027 C 
BRANCH   3   4
ATOM      4  C   UNL     1     101.611  94.240 114.945  1.00  0.00     0.004 C 
BRANCH   4   5
ATOM      5  C   UNL     1     102.830  94.611 114.082  1.00  0.00     0.000 C 
BRANCH   5   6
ATOM      6  C   UNL     1     102.931  93.764 112.803  1.00  0.00     0.000 C 
BRANCH   6   7
ATOM      7  C   UNL     1     104.286  93.045 112.674  1.00  0.00     0.000 C 
BRANCH   7   8
ATOM      8  C   UNL     1     104.129  91.552 112.317  1.00  0.00     0.006 C 
BRANCH   8   9
ATOM      9  C   UNL     1     103.001  91.277 111.308  1.00  0.00     0.053 C 
BRANCH   9  10
ATOM     10  C   UNL     1     101.973  90.333 111.848  1.00  0.00     0.041 C 
ATOM     11  O   UNL     1     102.123  89.815 112.986  1.00  0.00    -0.550 OA
ATOM     12  O   UNL     1     100.859  90.007 111.084  1.00  0.00    -0.550 OA
ENDBRANCH   9  10
ENDBRANCH   8   9
ENDBRANCH   7   8
ENDBRANCH   6   7
ENDBRANCH   5   6
ENDBRANCH   4   5
ENDBRANCH   3   4
ENDBRANCH   1   3
BRANCH   2  13
ATOM     13  C   UNL     1     103.679  91.423 115.822  1.00  0.00     0.027 C 
BRANCH  13  14
ATOM     14  C   UNL     1     104.605  92.441 116.502  1.00  0.00     0.004 C 
BRANCH  14  15
ATOM     15  C   UNL     1     106.068  91.967 116.569  1.00  0.00     0.000 C 
BRANCH  15  16
ATOM     16  C   UNL     1     107.091  92.918 115.915  1.00  0.00     0.000 C 
BRANCH  16  17
ATOM     17  C   UNL     1     106.917  94.408 116.271  1.00  0.00    -0.000 C 
BRANCH  17  18
ATOM     18  C   UNL     1     107.387  95.397 115.185  1.00  0.00    -0.000 C 
BRANCH  18  19
ATOM     19  C   UNL     1     106.256  96.127 114.442  1.00  0.00    -0.003 C 
ATOM     20  C   UNL     1     105.300  96.860 115.384  1.00  0.00     0.004 C 
ENDBRANCH  18  19
ENDBRANCH  17  18
ENDBRANCH  16  17
ENDBRANCH  15  16
ENDBRANCH  14  15
ENDBRANCH  13  14
ENDBRANCH   2  13
TORSDOF 15
ENDMDL
MODEL 7
REMARK VINA RESULT:    -4.280      5.351      7.919
REMARK INTER + INTRA:         -10.138
REMARK INTER:                  -7.298
REMARK INTRA:                  -2.840
REMARK UNBOUND:                -2.104
REMARK SMILES CCCCCCCCC=CCCCCCCCC(=O)[O-]
REMARK SMILES IDX 10 1 9 2 11 3 12 4 13 5 14 6 15 7 16 8 17 9 18 10 19 11
REMARK SMILES IDX 20 12 8 13 7 14 6 15 5 16 4 17 3 18 2 19 1 20
REMARK H PARENT
REMARK Flexibility Score: inf
ROOT
ATOM      1  C   UNL     1     104.248  92.670 112.537  1.00  0.00    -0.031 C 
ATOM      2  C   UNL     1     103.936  91.367 112.427  1.00  0.00    -0.031 C 
ENDROOT
BRANCH   1   3
ATOM      3  C   UNL     1     103.234  93.784 112.649  1.00  0.00     0.027 C 
BRANCH   3   4
ATOM      4  C   UNL     1     103.505  94.692 113.857  1.00  0.00     0.004 C 
BRANCH   4   5
ATOM      5  C   UNL     1     105.004  94.997 114.028  1.00  0.00     0.000 C 
BRANCH   5   6
ATOM      6  C   UNL     1     105.343  95.546 115.422  1.00  0.00     0.000 C 
BRANCH   6   7
ATOM      7  C   UNL     1     106.852  95.516 115.721  1.00  0.00     0.000 C 
BRANCH   7   8
ATOM      8  C   UNL     1     107.652  94.764 114.638  1.00  0.00     0.006 C 
BRANCH   8   9
ATOM      9  C   UNL     1     109.136  95.164 114.580  1.00  0.00     0.053 C 
BRANCH   9  10
ATOM     10  C   UNL     1     110.016  94.189 115.298  1.00  0.00     0.041 C 
ATOM     11  O   UNL     1     110.223  94.313 116.534  1.00  0.00    -0.550 OA
ATOM     12  O   UNL     1     110.626  93.155 114.598  1.00  0.00    -0.550 OA
ENDBRANCH   9  10
ENDBRANCH   8   9
ENDBRANCH   7   8
ENDBRANCH   6   7
ENDBRANCH   5   6
ENDBRANCH   4   5
ENDBRANCH   3   4
ENDBRANCH   1   3
BRANCH   2  13
ATOM     13  C   UNL     1     102.520  90.850 112.350  1.00  0.00     0.027 C 
BRANCH  13  14
ATOM     14  C   UNL     1     102.021  90.398 113.730  1.00  0.00     0.004 C 
BRANCH  14  15
ATOM     15  C   UNL     1     101.018  91.383 114.356  1.00  0.00     0.000 C 
BRANCH  15  16
ATOM     16  C   UNL     1     101.556  92.183 115.560  1.00  0.00     0.000 C 
BRANCH  16  17
ATOM     17  C   UNL     1     102.575  91.432 116.440  1.00  0.00    -0.000 C 
BRANCH  17  18
ATOM     18  C   UNL     1     103.925  92.151 116.632  1.00  0.00    -0.000 C 
BRANCH  18  19
ATOM     19  C   UNL     1     105.096  91.553 115.835  1.00  0.00    -0.003 C 
ATOM     20  C   UNL     1     106.459  91.871 116.451  1.00  0.00     0.004 C 
ENDBRANCH  18  19
ENDBRANCH  17  18
ENDBRANCH  16  17
ENDBRANCH  15  16
ENDBRANCH  14  15
ENDBRANCH  13  14
ENDBRANCH   2  13
TORSDOF 15
ENDMDL
MODEL 8
REMARK VINA RESULT:    -4.259      1.766      2.923
REMARK INTER + INTRA:         -10.099
REMARK INTER:                  -7.730
REMARK INTRA:                  -2.368
REMARK UNBOUND:                -2.104
REMARK SMILES CCCCCCCCC=CCCCCCCCC(=O)[O-]
REMARK SMILES IDX 10 1 9 2 11 3 12 4 13 5 14 6 15 7 16 8 17 9 18 10 19 11
REMARK SMILES IDX 20 12 8 13 7 14 6 15 5 16 4 17 3 18 2 19 1 20
REMARK H PARENT
REMARK Flexibility Score: inf
ROOT
ATOM      1  C   UNL     1      98.849  98.739 116.002  1.00  0.00    -0.031 C 
ATOM      2  C   UNL     1      99.752  99.633 116.443  1.00  0.00    -0.031 C 
ENDROOT
BRANCH   1   3
ATOM      3  C   UNL     1      98.269  98.730 114.608  1.00  0.00     0.027 C 
BRANCH   3   4
ATOM      4  C   UNL     1      98.360  97.344 113.954  1.00  0.00     0.004 C 
BRANCH   4   5
ATOM      5  C   UNL     1      98.363  96.211 114.995  1.00  0.00     0.000 C 
BRANCH   5   6
ATOM      6  C   UNL     1      99.260  95.032 114.585  1.00  0.00     0.000 C 
BRANCH   6   7
ATOM      7  C   UNL     1     100.150  94.535 115.738  1.00  0.00     0.000 C 
BRANCH   7   8
ATOM      8  C   UNL     1     101.244  93.558 115.259  1.00  0.00     0.006 C 
BRANCH   8   9
ATOM      9  C   UNL     1     101.072  92.129 115.801  1.00  0.00     0.053 C 
BRANCH   9  10
ATOM     10  C   UNL     1     102.131  91.199 115.297  1.00  0.00     0.041 C 
ATOM     11  O   UNL     1     103.247  91.134 115.878  1.00  0.00    -0.550 OA
ATOM     12  O   UNL     1     101.895  90.419 114.172  1.00  0.00    -0.550 OA
ENDBRANCH   9  10
ENDBRANCH   8   9
ENDBRANCH   7   8
ENDBRANCH   6   7
ENDBRANCH   5   6
ENDBRANCH   4   5
ENDBRANCH   3   4
ENDBRANCH   1   3
BRANCH   2  13
ATOM     13  C   UNL     1     100.268 100.781 115.609  1.00  0.00     0.027 C 
BRANCH  13  14
ATOM     14  C   UNL     1     101.099 101.752 116.459  1.00  0.00     0.004 C 
BRANCH  14  15
ATOM     15  C   UNL     1     102.482 101.189 116.832  1.00  0.00     0.000 C 
BRANCH  15  16
ATOM     16  C   UNL     1     103.430 100.951 115.640  1.00  0.00     0.000 C 
BRANCH  16  17
ATOM     17  C   UNL     1     103.959  99.510 115.504  1.00  0.00    -0.000 C 
BRANCH  17  18
ATOM     18  C   UNL     1     103.293  98.480 116.437  1.00  0.00    -0.000 C 
BRANCH  18  19
ATOM     19  C   UNL     1     102.526  97.356 115.719  1.00  0.00    -0.003 C 
ATOM     20  C   UNL     1     102.129  97.726 114.290  1.00  0.00     0.004 C 
ENDBRANCH  18  19
ENDBRANCH  17  18
ENDBRANCH  16  17
ENDBRANCH  15  16
ENDBRANCH  14  15
ENDBRANCH  13  14
ENDBRANCH   2  13
TORSDOF 15
ENDMDL
MODEL 9
REMARK VINA RESULT:    -4.219      4.869      8.114
REMARK INTER + INTRA:         -10.023
REMARK INTER:                  -8.429
REMARK INTRA:                  -1.593
REMARK UNBOUND:                -2.104
REMARK SMILES CCCCCCCCC=CCCCCCCCC(=O)[O-]
REMARK SMILES IDX 10 1 9 2 11 3 12 4 13 5 14 6 15 7 16 8 17 9 18 10 19 11
REMARK SMILES IDX 20 12 8 13 7 14 6 15 5 16 4 17 3 18 2 19 1 20
REMARK H PARENT
REMARK Flexibility Score: inf
ROOT
ATOM      1  C   UNL     1     106.075  91.904 116.449  1.00  0.00    -0.031 C 
ATOM      2  C   UNL     1     107.097  92.710 116.110  1.00  0.00    -0.031 C 
ENDROOT
BRANCH   1   3
ATOM      3  C   UNL     1     104.676  92.383 116.756  1.00  0.00     0.027 C 
BRANCH   3   4
ATOM      4  C   UNL     1     103.611  91.574 116.003  1.00  0.00     0.004 C 
BRANCH   4   5
ATOM      5  C   UNL     1     102.612  92.481 115.262  1.00  0.00     0.000 C 
BRANCH   5   6
ATOM      6  C   UNL     1     103.305  93.564 114.421  1.00  0.00     0.000 C 
BRANCH   6   7
ATOM      7  C   UNL     1     102.794  94.980 114.740  1.00  0.00     0.000 C 
BRANCH   7   8
ATOM      8  C   UNL     1     103.845  95.833 115.481  1.00  0.00     0.006 C 
BRANCH   8   9
ATOM      9  C   UNL     1     103.334  97.228 115.880  1.00  0.00     0.053 C 
BRANCH   9  10
ATOM     10  C   UNL     1     104.444  98.146 116.284  1.00  0.00     0.041 C 
ATOM     11  O   UNL     1     104.199  99.177 116.964  1.00  0.00    -0.550 OA
ATOM     12  O   UNL     1     105.750  97.874 115.893  1.00  0.00    -0.550 OA
ENDBRANCH   9  10
ENDBRANCH   8   9
ENDBRANCH   7   8
ENDBRANCH   6   7
ENDBRANCH   5   6
ENDBRANCH   4   5
ENDBRANCH   3   4
ENDBRANCH   1   3
BRANCH   2  13
ATOM     13  C   UNL     1     106.987  94.214 116.041  1.00  0.00     0.027 C 
BRANCH  13  14
ATOM     14  C   UNL     1     108.118  94.812 115.193  1.00  0.00     0.004 C 
BRANCH  14  15
ATOM     15  C   UNL     1     109.275  95.366 116.044  1.00  0.00     0.000 C 
BRANCH  15  16
ATOM     16  C   UNL     1     110.524  94.464 116.110  1.00  0.00     0.000 C 
BRANCH  16  17
ATOM     17  C   UNL     1     110.532  93.286 115.117  1.00  0.00    -0.000 C 
BRANCH  17  18
ATOM     18  C   UNL     1     111.680  93.309 114.087  1.00  0.00    -0.000 C 
BRANCH  18  19
ATOM     19  C   UNL     1     112.720  94.421 114.302  1.00  0.00    -0.003 C 
ATOM     20  C   UNL     1     114.119  93.878 114.596  1.00  0.00     0.004 C 
ENDBRANCH  18  19
ENDBRANCH  17  18
ENDBRANCH  16  17
ENDBRANCH  15  16
ENDBRANCH  14  15
ENDBRANCH  13  14
ENDBRANCH   2  13
TORSDOF 15
ENDMDL
