MODEL 1
REMARK VINA RESULT:    -4.732      0.000      0.000
REMARK INTER + INTRA:          -5.538
REMARK INTER:                  -5.424
REMARK INTRA:                  -0.114
REMARK UNBOUND:                -0.114
REMARK SMILES COc1ccc(C(C)=O)cc1O
REMARK SMILES IDX 6 1 10 2 11 3 3 4 4 5 5 6 7 7 8 8 9 9 12 10 2 12 1 13
REMARK H PARENT 12 11
REMARK Flexibility Score: inf
ROOT
ATOM      1  C   UNL     1      10.531 -10.107 -44.263  1.00  0.00     0.021 A 
ATOM      2  C   UNL     1      11.043 -10.920 -43.235  1.00  0.00     0.062 A 
ATOM      3  C   UNL     1      10.801 -12.299 -43.223  1.00  0.00     0.158 A 
ATOM      4  C   UNL     1      10.038 -12.893 -44.243  1.00  0.00     0.160 A 
ATOM      5  C   UNL     1       9.526 -12.083 -45.272  1.00  0.00     0.051 A 
ATOM      6  C   UNL     1       9.770 -10.708 -45.281  1.00  0.00     0.016 A 
ENDROOT
BRANCH   1   7
ATOM      7  C   UNL     1      10.782  -8.641 -44.288  1.00  0.00     0.159 C 
ATOM      8  C   UNL     1       9.953  -7.680 -43.489  1.00  0.00     0.093 C 
ATOM      9  O   UNL     1      11.716  -8.178 -44.999  1.00  0.00    -0.295 OA
ENDBRANCH   1   7
BRANCH   3  10
ATOM     10  O   UNL     1      11.329 -13.064 -42.181  1.00  0.00    -0.504 OA
ATOM     11  H   UNL     1      11.159 -12.842 -41.208  1.00  0.00     0.293 HD
ENDBRANCH   3  10
BRANCH   4  12
ATOM     12  O   UNL     1       9.812 -14.279 -44.204  1.00  0.00    -0.493 OA
ATOM     13  C   UNL     1       8.572 -14.885 -43.854  1.00  0.00     0.278 C 
ENDBRANCH   4  12
TORSDOF 3
ENDMDL
MODEL 2
REMARK VINA RESULT:    -4.489      1.422      2.310
REMARK INTER + INTRA:          -5.259
REMARK INTER:                  -5.145
REMARK INTRA:                  -0.114
REMARK UNBOUND:                -0.114
REMARK SMILES COc1ccc(C(C)=O)cc1O
REMARK SMILES IDX 6 1 10 2 11 3 3 4 4 5 5 6 7 7 8 8 9 9 12 10 2 12 1 13
REMARK H PARENT 12 11
REMARK Flexibility Score: inf
ROOT
ATOM      1  C   UNL     1      10.167 -10.078 -44.620  1.00  0.00     0.021 A 
ATOM      2  C   UNL     1       9.000 -10.314 -45.371  1.00  0.00     0.062 A 
ATOM      3  C   UNL     1       8.540 -11.618 -45.591  1.00  0.00     0.158 A 
ATOM      4  C   UNL     1       9.242 -12.715 -45.062  1.00  0.00     0.160 A 
ATOM      5  C   UNL     1      10.408 -12.482 -44.311  1.00  0.00     0.051 A 
ATOM      6  C   UNL     1      10.863 -11.180 -44.094  1.00  0.00     0.016 A 
ENDROOT
BRANCH   1   7
ATOM      7  C   UNL     1      10.665  -8.697 -44.378  1.00  0.00     0.159 C 
ATOM      8  C   UNL     1       9.969  -7.754 -43.443  1.00  0.00     0.093 C 
ATOM      9  O   UNL     1      11.703  -8.294 -44.970  1.00  0.00    -0.295 OA
ENDBRANCH   1   7
BRANCH   3  10
ATOM     10  O   UNL     1       7.379 -11.802 -46.343  1.00  0.00    -0.504 OA
ATOM     11  H   UNL     1       6.838 -11.025 -46.701  1.00  0.00     0.293 HD
ENDBRANCH   3  10
BRANCH   4  12
ATOM     12  O   UNL     1       8.757 -14.011 -45.300  1.00  0.00    -0.493 OA
ATOM     13  C   UNL     1       8.041 -14.793 -44.350  1.00  0.00     0.278 C 
ENDBRANCH   4  12
TORSDOF 3
ENDMDL
MODEL 3
REMARK VINA RESULT:    -4.479      1.719      2.358
REMARK INTER + INTRA:          -5.248
REMARK INTER:                  -5.151
REMARK INTRA:                  -0.097
REMARK UNBOUND:                -0.114
REMARK SMILES COc1ccc(C(C)=O)cc1O
REMARK SMILES IDX 6 1 10 2 11 3 3 4 4 5 5 6 7 7 8 8 9 9 12 10 2 12 1 13
REMARK H PARENT 12 11
REMARK Flexibility Score: inf
ROOT
ATOM      1  C   UNL     1      11.685 -10.503 -44.011  1.00  0.00     0.021 A 
ATOM      2  C   UNL     1      10.503 -11.268 -44.009  1.00  0.00     0.062 A 
ATOM      3  C   UNL     1      10.540 -12.644 -43.754  1.00  0.00     0.158 A 
ATOM      4  C   UNL     1      11.765 -13.284 -43.495  1.00  0.00     0.160 A 
ATOM      5  C   UNL     1      12.946 -12.521 -43.495  1.00  0.00     0.051 A 
ATOM      6  C   UNL     1      12.906 -11.149 -43.750  1.00  0.00     0.016 A 
ENDROOT
BRANCH   1   7
ATOM      7  C   UNL     1      11.659  -9.040 -44.280  1.00  0.00     0.159 C 
ATOM      8  C   UNL     1      10.488  -8.183 -43.901  1.00  0.00     0.093 C 
ATOM      9  O   UNL     1      12.644  -8.490 -44.844  1.00  0.00    -0.295 OA
ENDBRANCH   1   7
BRANCH   3  10
ATOM     10  O   UNL     1       9.342 -13.361 -43.764  1.00  0.00    -0.504 OA
ATOM     11  H   UNL     1       8.638 -13.246 -43.045  1.00  0.00     0.293 HD
ENDBRANCH   3  10
BRANCH   4  12
ATOM     12  O   UNL     1      11.770 -14.665 -43.242  1.00  0.00    -0.493 OA
ATOM     13  C   UNL     1      12.817 -15.551 -43.621  1.00  0.00     0.278 C 
ENDBRANCH   4  12
TORSDOF 3
ENDMDL
MODEL 4
REMARK VINA RESULT:    -4.479      2.293      3.199
REMARK INTER + INTRA:          -5.247
REMARK INTER:                  -5.125
REMARK INTRA:                  -0.122
REMARK UNBOUND:                -0.114
REMARK SMILES COc1ccc(C(C)=O)cc1O
REMARK SMILES IDX 6 1 10 2 11 3 3 4 4 5 5 6 7 7 8 8 9 9 12 10 2 12 1 13
REMARK H PARENT 12 11
REMARK Flexibility Score: inf
ROOT
ATOM      1  C   UNL     1      10.804 -11.307 -44.706  1.00  0.00     0.021 A 
ATOM      2  C   UNL     1       9.726 -10.462 -45.035  1.00  0.00     0.062 A 
ATOM      3  C   UNL     1       8.522 -10.990 -45.517  1.00  0.00     0.158 A 
ATOM      4  C   UNL     1       8.372 -12.378 -45.680  1.00  0.00     0.160 A 
ATOM      5  C   UNL     1       9.447 -13.224 -45.352  1.00  0.00     0.051 A 
ATOM      6  C   UNL     1      10.646 -12.694 -44.872  1.00  0.00     0.016 A 
ENDROOT
BRANCH   1   7
ATOM      7  C   UNL     1      12.088 -10.759 -44.193  1.00  0.00     0.159 C 
ATOM      8  C   UNL     1      13.115 -11.629 -43.533  1.00  0.00     0.093 C 
ATOM      9  O   UNL     1      12.334  -9.527 -44.309  1.00  0.00    -0.295 OA
ENDBRANCH   1   7
BRANCH   3  10
ATOM     10  O   UNL     1       7.483 -10.112 -45.830  1.00  0.00    -0.504 OA
ATOM     11  H   UNL     1       7.634  -9.264 -46.362  1.00  0.00     0.293 HD
ENDBRANCH   3  10
BRANCH   4  12
ATOM     12  O   UNL     1       7.153 -12.877 -46.165  1.00  0.00    -0.493 OA
ATOM     13  C   UNL     1       6.537 -14.080 -45.717  1.00  0.00     0.278 C 
ENDBRANCH   4  12
TORSDOF 3
ENDMDL
MODEL 5
REMARK VINA RESULT:    -4.428      1.347      1.706
REMARK INTER + INTRA:          -5.189
REMARK INTER:                  -5.061
REMARK INTRA:                  -0.128
REMARK UNBOUND:                -0.114
REMARK SMILES COc1ccc(C(C)=O)cc1O
REMARK SMILES IDX 6 1 10 2 11 3 3 4 4 5 5 6 7 7 8 8 9 9 12 10 2 12 1 13
REMARK H PARENT 12 11
REMARK Flexibility Score: inf
ROOT
ATOM      1  C   UNL     1       9.949 -10.114 -44.785  1.00  0.00     0.021 A 
ATOM      2  C   UNL     1      10.572 -11.363 -44.601  1.00  0.00     0.062 A 
ATOM      3  C   UNL     1       9.929 -12.548 -44.978  1.00  0.00     0.158 A 
ATOM      4  C   UNL     1       8.645 -12.506 -45.548  1.00  0.00     0.160 A 
ATOM      5  C   UNL     1       8.021 -11.260 -45.734  1.00  0.00     0.051 A 
ATOM      6  C   UNL     1       8.665 -10.080 -45.357  1.00  0.00     0.016 A 
ENDROOT
BRANCH   1   7
ATOM      7  C   UNL     1      10.622  -8.848 -44.389  1.00  0.00     0.159 C 
ATOM      8  C   UNL     1       9.917  -7.787 -43.597  1.00  0.00     0.093 C 
ATOM      9  O   UNL     1      11.822  -8.646 -44.723  1.00  0.00    -0.295 OA
ENDBRANCH   1   7
BRANCH   3  10
ATOM     10  O   UNL     1      10.586 -13.763 -44.775  1.00  0.00    -0.504 OA
ATOM     11  H   UNL     1      10.742 -14.424 -45.525  1.00  0.00     0.293 HD
ENDBRANCH   3  10
BRANCH   4  12
ATOM     12  O   UNL     1       8.025 -13.711 -45.917  1.00  0.00    -0.493 OA
ATOM     13  C   UNL     1       6.930 -14.300 -45.224  1.00  0.00     0.278 C 
ENDBRANCH   4  12
TORSDOF 3
ENDMDL
MODEL 6
REMARK VINA RESULT:    -4.315      2.078      4.838
REMARK INTER + INTRA:          -5.060
REMARK INTER:                  -4.938
REMARK INTRA:                  -0.122
REMARK UNBOUND:                -0.114
REMARK SMILES COc1ccc(C(C)=O)cc1O
REMARK SMILES IDX 6 1 10 2 11 3 3 4 4 5 5 6 7 7 8 8 9 9 12 10 2 12 1 13
REMARK H PARENT 12 11
REMARK Flexibility Score: inf
ROOT
ATOM      1  C   UNL     1      11.431 -11.982 -44.684  1.00  0.00     0.021 A 
ATOM      2  C   UNL     1      10.115 -11.633 -45.040  1.00  0.00     0.062 A 
ATOM      3  C   UNL     1       9.651 -10.322 -44.878  1.00  0.00     0.158 A 
ATOM      4  C   UNL     1      10.500  -9.331 -44.354  1.00  0.00     0.160 A 
ATOM      5  C   UNL     1      11.815  -9.677 -43.998  1.00  0.00     0.051 A 
ATOM      6  C   UNL     1      12.274 -10.986 -44.161  1.00  0.00     0.016 A 
ENDROOT
BRANCH   1   7
ATOM      7  C   UNL     1      11.936 -13.372 -44.852  1.00  0.00     0.159 C 
ATOM      8  C   UNL     1      12.347 -14.214 -43.682  1.00  0.00     0.093 C 
ATOM      9  O   UNL     1      12.026 -13.869 -46.008  1.00  0.00    -0.295 OA
ENDBRANCH   1   7
BRANCH   3  10
ATOM     10  O   UNL     1       8.338 -10.024 -45.245  1.00  0.00    -0.504 OA
ATOM     11  H   UNL     1       7.918 -10.388 -46.090  1.00  0.00     0.293 HD
ENDBRANCH   3  10
BRANCH   4  12
ATOM     12  O   UNL     1      10.007  -8.025 -44.203  1.00  0.00    -0.493 OA
ATOM     13  C   UNL     1       9.707  -7.415 -42.952  1.00  0.00     0.278 C 
ENDBRANCH   4  12
TORSDOF 3
ENDMDL
MODEL 7
REMARK VINA RESULT:    -4.235      1.540      2.243
REMARK INTER + INTRA:          -4.968
REMARK INTER:                  -4.856
REMARK INTRA:                  -0.113
REMARK UNBOUND:                -0.114
REMARK SMILES COc1ccc(C(C)=O)cc1O
REMARK SMILES IDX 6 1 10 2 11 3 3 4 4 5 5 6 7 7 8 8 9 9 12 10 2 12 1 13
REMARK H PARENT 12 11
REMARK Flexibility Score: inf
ROOT
ATOM      1  C   UNL     1      10.877  -9.858 -44.412  1.00  0.00     0.021 A 
ATOM      2  C   UNL     1       9.801 -10.607 -44.925  1.00  0.00     0.062 A 
ATOM      3  C   UNL     1       9.896 -11.996 -45.064  1.00  0.00     0.158 A 
ATOM      4  C   UNL     1      11.074 -12.667 -44.690  1.00  0.00     0.160 A 
ATOM      5  C   UNL     1      12.150 -11.921 -44.177  1.00  0.00     0.051 A 
ATOM      6  C   UNL     1      12.052 -10.535 -44.040  1.00  0.00     0.016 A 
ENDROOT
BRANCH   1   7
ATOM      7  C   UNL     1      10.789  -8.381 -44.259  1.00  0.00     0.159 C 
ATOM      8  C   UNL     1       9.963  -7.741 -43.183  1.00  0.00     0.093 C 
ATOM      9  O   UNL     1      11.423  -7.631 -45.051  1.00  0.00    -0.295 OA
ENDBRANCH   1   7
BRANCH   3  10
ATOM     10  O   UNL     1       8.803 -12.696 -45.579  1.00  0.00    -0.504 OA
ATOM     11  H   UNL     1       8.764 -13.707 -45.585  1.00  0.00     0.293 HD
ENDBRANCH   3  10
BRANCH   4  12
ATOM     12  O   UNL     1      11.139 -14.061 -44.841  1.00  0.00    -0.493 OA
ATOM     13  C   UNL     1      11.709 -14.727 -45.963  1.00  0.00     0.278 C 
ENDBRANCH   4  12
TORSDOF 3
ENDMDL
MODEL 8
REMARK VINA RESULT:    -4.103      1.883      2.181
REMARK INTER + INTRA:          -4.817
REMARK INTER:                  -4.683
REMARK INTRA:                  -0.134
REMARK UNBOUND:                -0.114
REMARK SMILES COc1ccc(C(C)=O)cc1O
REMARK SMILES IDX 6 1 10 2 11 3 3 4 4 5 5 6 7 7 8 8 9 9 12 10 2 12 1 13
REMARK H PARENT 12 11
REMARK Flexibility Score: inf
ROOT
ATOM      1  C   UNL     1      11.541 -10.310 -44.058  1.00  0.00     0.021 A 
ATOM      2  C   UNL     1      12.862 -10.768 -43.897  1.00  0.00     0.062 A 
ATOM      3  C   UNL     1      13.128 -12.119 -43.642  1.00  0.00     0.158 A 
ATOM      4  C   UNL     1      12.072 -13.041 -43.542  1.00  0.00     0.160 A 
ATOM      5  C   UNL     1      10.751 -12.587 -43.704  1.00  0.00     0.051 A 
ATOM      6  C   UNL     1      10.490 -11.239 -43.958  1.00  0.00     0.016 A 
ENDROOT
BRANCH   1   7
ATOM      7  C   UNL     1      11.246  -8.878 -44.330  1.00  0.00     0.159 C 
ATOM      8  C   UNL     1      10.032  -8.197 -43.770  1.00  0.00     0.093 C 
ATOM      9  O   UNL     1      12.030  -8.203 -45.051  1.00  0.00    -0.295 OA
ENDBRANCH   1   7
BRANCH   3  10
ATOM     10  O   UNL     1      14.454 -12.525 -43.489  1.00  0.00    -0.504 OA
ATOM     11  H   UNL     1      15.071 -12.664 -44.279  1.00  0.00     0.293 HD
ENDBRANCH   3  10
BRANCH   4  12
ATOM     12  O   UNL     1      12.369 -14.390 -43.286  1.00  0.00    -0.493 OA
ATOM     13  C   UNL     1      12.421 -15.408 -44.279  1.00  0.00     0.278 C 
ENDBRANCH   4  12
TORSDOF 3
ENDMDL
MODEL 9
REMARK VINA RESULT:    -4.061      2.257      4.160
REMARK INTER + INTRA:          -4.768
REMARK INTER:                  -4.653
REMARK INTRA:                  -0.116
REMARK UNBOUND:                -0.114
REMARK SMILES COc1ccc(C(C)=O)cc1O
REMARK SMILES IDX 6 1 10 2 11 3 3 4 4 5 5 6 7 7 8 8 9 9 12 10 2 12 1 13
REMARK H PARENT 12 11
REMARK Flexibility Score: inf
ROOT
ATOM      1  C   UNL     1       9.430 -11.618 -45.459  1.00  0.00     0.021 A 
ATOM      2  C   UNL     1       9.840 -10.373 -44.947  1.00  0.00     0.062 A 
ATOM      3  C   UNL     1      11.121 -10.206 -44.407  1.00  0.00     0.158 A 
ATOM      4  C   UNL     1      12.019 -11.286 -44.368  1.00  0.00     0.160 A 
ATOM      5  C   UNL     1      11.612 -12.532 -44.879  1.00  0.00     0.051 A 
ATOM      6  C   UNL     1      10.334 -12.694 -45.417  1.00  0.00     0.016 A 
ENDROOT
BRANCH   1   7
ATOM      7  C   UNL     1       8.072 -11.809 -46.036  1.00  0.00     0.159 C 
ATOM      8  C   UNL     1       7.789 -12.853 -47.074  1.00  0.00     0.093 C 
ATOM      9  O   UNL     1       7.120 -11.076 -45.651  1.00  0.00    -0.295 OA
ENDBRANCH   1   7
BRANCH   3  10
ATOM     10  O   UNL     1      11.482  -8.952 -43.912  1.00  0.00    -0.504 OA
ATOM     11  H   UNL     1      12.163  -8.364 -44.376  1.00  0.00     0.293 HD
ENDBRANCH   3  10
BRANCH   4  12
ATOM     12  O   UNL     1      13.297 -11.088 -43.820  1.00  0.00    -0.493 OA
ATOM     13  C   UNL     1      14.222 -12.131 -43.531  1.00  0.00     0.278 C 
ENDBRANCH   4  12
TORSDOF 3
ENDMDL
