MODEL 1
REMARK VINA RESULT:    -5.497      0.000      0.000
REMARK INTER + INTRA:          -9.649
REMARK INTER:                  -8.389
REMARK INTRA:                  -1.260
REMARK UNBOUND:                -1.260
REMARK SMILES OC[C@H]1O[C@H](O[C@]2(CO)O[C@H](CO)[C@H](O)[C@@H]2O)[C@H](O)[C@@H](O)[C@H]1O
REMARK SMILES IDX 6 1 5 2 3 3 22 4 4 5 20 6 18 7 2 8 1 9 23 11 21 13 19 15
REMARK SMILES IDX 7 17 16 18 10 19 14 20 11 21 8 22 9 23 17 25 15 27 12 29
REMARK SMILES IDX 13 30
REMARK H PARENT 1 10 23 12 21 14 19 16 9 24 17 26 15 28 13 31
REMARK Flexibility Score: inf
ROOT
ATOM      1  O   UNL     1      13.546 -11.062 -16.174  1.00  0.00    -0.313 OA
ENDROOT
BRANCH   1   2
ATOM      2  C   UNL     1      13.285  -9.664 -16.284  1.00  0.00     0.285 C 
ATOM      3  C   UNL     1      11.440  -9.796 -14.831  1.00  0.00     0.178 C 
ATOM      4  C   UNL     1      12.141  -8.993 -13.710  1.00  0.00     0.177 C 
ATOM      5  O   UNL     1      11.903  -9.381 -16.107  1.00  0.00    -0.341 OA
ATOM      6  C   UNL     1      13.662  -9.195 -13.825  1.00  0.00     0.179 C 
ATOM      7  C   UNL     1      14.131  -8.882 -15.253  1.00  0.00     0.202 C 
BRANCH   3   8
ATOM      8  C   UNL     1       9.914  -9.628 -14.788  1.00  0.00     0.191 C 
BRANCH   8   9
ATOM      9  O   UNL     1       9.395  -9.396 -16.070  1.00  0.00    -0.394 OA
ATOM     10  H   UNL     1       8.940  -8.513 -16.037  1.00  0.00     0.210 HD
ENDBRANCH   8   9
ENDBRANCH   3   8
BRANCH   4  11
ATOM     11  O   UNL     1      11.839  -7.623 -13.824  1.00  0.00    -0.387 OA
ATOM     12  H   UNL     1      12.493  -7.231 -14.460  1.00  0.00     0.211 HD
ENDBRANCH   4  11
BRANCH   6  13
ATOM     13  O   UNL     1      14.335  -8.358 -12.918  1.00  0.00    -0.387 OA
ATOM     14  H   UNL     1      15.300  -8.581 -12.987  1.00  0.00     0.211 HD
ENDBRANCH   6  13
BRANCH   7  15
ATOM     15  O   UNL     1      15.489  -9.214 -15.381  1.00  0.00    -0.385 OA
ATOM     16  H   UNL     1      15.992  -8.358 -15.396  1.00  0.00     0.211 HD
ENDBRANCH   7  15
ENDBRANCH   1   2
BRANCH   1  17
ATOM     17  C   UNL     1      13.608 -11.760 -17.419  1.00  0.00     0.224 C 
ATOM     18  C   UNL     1      12.817 -13.089 -17.372  1.00  0.00     0.208 C 
ATOM     19  O   UNL     1      12.994 -10.920 -18.383  1.00  0.00    -0.337 OA
ATOM     20  C   UNL     1      12.136 -13.125 -18.716  1.00  0.00     0.180 C 
ATOM     21  C   UNL     1      11.984 -11.641 -19.058  1.00  0.00     0.179 C 
BRANCH  17  22
ATOM     22  C   UNL     1      15.077 -11.980 -17.884  1.00  0.00     0.225 C 
BRANCH  22  23
ATOM     23  O   UNL     1      15.905 -10.918 -17.493  1.00  0.00    -0.391 OA
ATOM     24  H   UNL     1      16.478 -10.695 -18.272  1.00  0.00     0.210 HD
ENDBRANCH  22  23
ENDBRANCH  17  22
BRANCH  18  25
ATOM     25  O   UNL     1      11.859 -13.057 -16.342  1.00  0.00    -0.385 OA
ATOM     26  H   UNL     1      11.952 -12.178 -15.887  1.00  0.00     0.211 HD
ENDBRANCH  18  25
BRANCH  20  27
ATOM     27  O   UNL     1      10.914 -13.819 -18.668  1.00  0.00    -0.387 OA
ATOM     28  H   UNL     1      10.304 -13.275 -18.104  1.00  0.00     0.211 HD
ENDBRANCH  20  27
BRANCH  21  29
ATOM     29  C   UNL     1      10.617 -11.040 -18.688  1.00  0.00     0.191 C 
BRANCH  29  30
ATOM     30  O   UNL     1      10.706  -9.643 -18.608  1.00  0.00    -0.394 OA
ATOM     31  H   UNL     1       9.772  -9.311 -18.566  1.00  0.00     0.210 HD
ENDBRANCH  29  30
ENDBRANCH  21  29
ENDBRANCH   1  17
TORSDOF 13
ENDMDL
MODEL 2
REMARK VINA RESULT:    -5.426      1.201      5.733
REMARK INTER + INTRA:          -9.541
REMARK INTER:                  -8.194
REMARK INTRA:                  -1.347
REMARK UNBOUND:                -1.260
REMARK SMILES OC[C@H]1O[C@H](O[C@]2(CO)O[C@H](CO)[C@H](O)[C@@H]2O)[C@H](O)[C@@H](O)[C@H]1O
REMARK SMILES IDX 6 1 5 2 3 3 22 4 4 5 20 6 18 7 2 8 1 9 23 11 21 13 19 15
REMARK SMILES IDX 7 17 16 18 10 19 14 20 11 21 8 22 9 23 17 25 15 27 12 29
REMARK SMILES IDX 13 30
REMARK H PARENT 1 10 23 12 21 14 19 16 9 24 17 26 15 28 13 31
REMARK Flexibility Score: inf
ROOT
ATOM      1  O   UNL     1      11.939 -10.934 -16.039  1.00  0.00    -0.313 OA
ENDROOT
BRANCH   1   2
ATOM      2  C   UNL     1      12.213 -10.425 -17.343  1.00  0.00     0.285 C 
ATOM      3  C   UNL     1      14.025 -11.894 -17.641  1.00  0.00     0.178 C 
ATOM      4  C   UNL     1      13.307 -12.713 -18.740  1.00  0.00     0.177 C 
ATOM      5  O   UNL     1      13.593 -10.542 -17.664  1.00  0.00    -0.341 OA
ATOM      6  C   UNL     1      11.787 -12.627 -18.515  1.00  0.00     0.179 C 
ATOM      7  C   UNL     1      11.351 -11.160 -18.394  1.00  0.00     0.202 C 
BRANCH   3   8
ATOM      8  C   UNL     1      15.551 -11.920 -17.813  1.00  0.00     0.191 C 
BRANCH   8   9
ATOM      9  O   UNL     1      16.125 -10.702 -17.421  1.00  0.00    -0.394 OA
ATOM     10  H   UNL     1      15.907 -10.042 -18.130  1.00  0.00     0.210 HD
ENDBRANCH   8   9
ENDBRANCH   3   8
BRANCH   4  11
ATOM     11  O   UNL     1      13.621 -12.209 -20.015  1.00  0.00    -0.387 OA
ATOM     12  H   UNL     1      13.812 -11.240 -19.908  1.00  0.00     0.211 HD
ENDBRANCH   4  11
BRANCH   6  13
ATOM     13  O   UNL     1      11.102 -13.233 -19.581  1.00  0.00    -0.387 OA
ATOM     14  H   UNL     1      10.133 -13.088 -19.417  1.00  0.00     0.211 HD
ENDBRANCH   6  13
BRANCH   7  15
ATOM     15  O   UNL     1       9.993 -11.105 -18.041  1.00  0.00    -0.385 OA
ATOM     16  H   UNL     1       9.958 -10.834 -17.087  1.00  0.00     0.211 HD
ENDBRANCH   7  15
ENDBRANCH   1   2
BRANCH   1  17
ATOM     17  C   UNL     1      11.853  -9.942 -15.014  1.00  0.00     0.224 C 
ATOM     18  C   UNL     1      12.629 -10.364 -13.743  1.00  0.00     0.208 C 
ATOM     19  O   UNL     1      12.465  -8.773 -15.531  1.00  0.00    -0.337 OA
ATOM     20  C   UNL     1      13.292  -9.081 -13.311  1.00  0.00     0.180 C 
ATOM     21  C   UNL     1      13.458  -8.325 -14.632  1.00  0.00     0.179 C 
BRANCH  17  22
ATOM     22  C   UNL     1      10.376  -9.573 -14.692  1.00  0.00     0.225 C 
BRANCH  22  23
ATOM     23  O   UNL     1       9.648  -9.300 -15.859  1.00  0.00    -0.391 OA
ATOM     24  H   UNL     1      10.192  -9.626 -16.622  1.00  0.00     0.210 HD
ENDBRANCH  22  23
ENDBRANCH  17  22
BRANCH  18  25
ATOM     25  O   UNL     1      13.600 -11.333 -14.055  1.00  0.00    -0.385 OA
ATOM     26  H   UNL     1      14.285 -11.298 -13.337  1.00  0.00     0.211 HD
ENDBRANCH  18  25
BRANCH  20  27
ATOM     27  O   UNL     1      14.506  -9.316 -12.642  1.00  0.00    -0.387 OA
ATOM     28  H   UNL     1      15.196  -9.437 -13.346  1.00  0.00     0.211 HD
ENDBRANCH  20  27
BRANCH  21  29
ATOM     29  C   UNL     1      14.836  -8.495 -15.293  1.00  0.00     0.191 C 
BRANCH  29  30
ATOM     30  O   UNL     1      14.781  -8.108 -16.639  1.00  0.00    -0.394 OA
ATOM     31  H   UNL     1      15.467  -8.649 -17.109  1.00  0.00     0.210 HD
ENDBRANCH  29  30
ENDBRANCH  21  29
ENDBRANCH   1  17
TORSDOF 13
ENDMDL
MODEL 3
REMARK VINA RESULT:    -5.283      7.055     10.467
REMARK INTER + INTRA:          -9.322
REMARK INTER:                  -8.028
REMARK INTRA:                  -1.294
REMARK UNBOUND:                -1.260
REMARK SMILES OC[C@H]1O[C@H](O[C@]2(CO)O[C@H](CO)[C@H](O)[C@@H]2O)[C@H](O)[C@@H](O)[C@H]1O
REMARK SMILES IDX 6 1 5 2 3 3 22 4 4 5 20 6 18 7 2 8 1 9 23 11 21 13 19 15
REMARK SMILES IDX 7 17 16 18 10 19 14 20 11 21 8 22 9 23 17 25 15 27 12 29
REMARK SMILES IDX 13 30
REMARK H PARENT 1 10 23 12 21 14 19 16 9 24 17 26 15 28 13 31
REMARK Flexibility Score: inf
ROOT
ATOM      1  O   UNL     1       4.989  -6.561 -13.891  1.00  0.00    -0.313 OA
ENDROOT
BRANCH   1   2
ATOM      2  C   UNL     1       4.155  -7.575 -14.449  1.00  0.00     0.285 C 
ATOM      3  C   UNL     1       4.713  -6.959 -16.649  1.00  0.00     0.178 C 
ATOM      4  C   UNL     1       5.499  -8.263 -16.919  1.00  0.00     0.177 C 
ATOM      5  O   UNL     1       3.660  -7.193 -15.726  1.00  0.00    -0.341 OA
ATOM      6  C   UNL     1       6.057  -8.797 -15.588  1.00  0.00     0.179 C 
ATOM      7  C   UNL     1       4.931  -8.908 -14.549  1.00  0.00     0.202 C 
BRANCH   3   8
ATOM      8  C   UNL     1       4.111  -6.376 -17.937  1.00  0.00     0.191 C 
BRANCH   8   9
ATOM      9  O   UNL     1       4.957  -6.593 -19.034  1.00  0.00    -0.394 OA
ATOM     10  H   UNL     1       5.825  -6.904 -18.666  1.00  0.00     0.210 HD
ENDBRANCH   8   9
ENDBRANCH   3   8
BRANCH   4  11
ATOM     11  O   UNL     1       4.660  -9.233 -17.499  1.00  0.00    -0.387 OA
ATOM     12  H   UNL     1       4.532  -8.978 -18.450  1.00  0.00     0.211 HD
ENDBRANCH   4  11
BRANCH   6  13
ATOM     13  O   UNL     1       6.645 -10.059 -15.776  1.00  0.00    -0.387 OA
ATOM     14  H   UNL     1       7.541 -10.022 -15.350  1.00  0.00     0.211 HD
ENDBRANCH   6  13
BRANCH   7  15
ATOM     15  O   UNL     1       5.480  -9.250 -13.303  1.00  0.00    -0.385 OA
ATOM     16  H   UNL     1       6.249  -8.641 -13.153  1.00  0.00     0.211 HD
ENDBRANCH   7  15
ENDBRANCH   1   2
BRANCH   1  17
ATOM     17  C   UNL     1       4.334  -5.686 -12.970  1.00  0.00     0.224 C 
ATOM     18  C   UNL     1       4.363  -6.247 -11.528  1.00  0.00     0.208 C 
ATOM     19  O   UNL     1       5.062  -4.470 -12.981  1.00  0.00    -0.337 OA
ATOM     20  C   UNL     1       4.639  -5.022 -10.695  1.00  0.00     0.180 C 
ATOM     21  C   UNL     1       5.422  -4.127 -11.659  1.00  0.00     0.179 C 
BRANCH  17  22
ATOM     22  C   UNL     1       2.885  -5.348 -13.428  1.00  0.00     0.225 C 
BRANCH  22  23
ATOM     23  O   UNL     1       2.882  -4.619 -14.626  1.00  0.00    -0.391 OA
ATOM     24  H   UNL     1       3.250  -3.721 -14.420  1.00  0.00     0.210 HD
ENDBRANCH  22  23
ENDBRANCH  17  22
BRANCH  18  25
ATOM     25  O   UNL     1       5.405  -7.180 -11.382  1.00  0.00    -0.385 OA
ATOM     26  H   UNL     1       5.447  -7.703 -12.225  1.00  0.00     0.211 HD
ENDBRANCH  18  25
BRANCH  20  27
ATOM     27  O   UNL     1       5.343  -5.333  -9.519  1.00  0.00    -0.387 OA
ATOM     28  H   UNL     1       4.664  -5.439  -8.803  1.00  0.00     0.211 HD
ENDBRANCH  20  27
BRANCH  21  29
ATOM     29  C   UNL     1       6.951  -4.230 -11.521  1.00  0.00     0.191 C 
BRANCH  29  30
ATOM     30  O   UNL     1       7.461  -5.154 -12.443  1.00  0.00    -0.394 OA
ATOM     31  H   UNL     1       6.711  -5.378 -13.052  1.00  0.00     0.210 HD
ENDBRANCH  29  30
ENDBRANCH  21  29
ENDBRANCH   1  17
TORSDOF 13
ENDMDL
MODEL 4
REMARK VINA RESULT:    -5.257      1.279      2.714
REMARK INTER + INTRA:          -9.283
REMARK INTER:                  -8.124
REMARK INTRA:                  -1.159
REMARK UNBOUND:                -1.260
REMARK SMILES OC[C@H]1O[C@H](O[C@]2(CO)O[C@H](CO)[C@H](O)[C@@H]2O)[C@H](O)[C@@H](O)[C@H]1O
REMARK SMILES IDX 6 1 5 2 3 3 22 4 4 5 20 6 18 7 2 8 1 9 23 11 21 13 19 15
REMARK SMILES IDX 7 17 16 18 10 19 14 20 11 21 8 22 9 23 17 25 15 27 12 29
REMARK SMILES IDX 13 30
REMARK H PARENT 1 10 23 12 21 14 19 16 9 24 17 26 15 28 13 31
REMARK Flexibility Score: inf
ROOT
ATOM      1  O   UNL     1      12.403 -10.672 -16.395  1.00  0.00    -0.313 OA
ENDROOT
BRANCH   1   2
ATOM      2  C   UNL     1      12.384  -9.248 -16.309  1.00  0.00     0.285 C 
ATOM      3  C   UNL     1      10.719  -9.274 -14.648  1.00  0.00     0.178 C 
ATOM      4  C   UNL     1      11.673  -8.754 -13.547  1.00  0.00     0.177 C 
ATOM      5  O   UNL     1      11.103  -8.771 -15.919  1.00  0.00    -0.341 OA
ATOM      6  C   UNL     1      13.111  -9.182 -13.886  1.00  0.00     0.179 C 
ATOM      7  C   UNL     1      13.465  -8.760 -15.319  1.00  0.00     0.202 C 
BRANCH   3   8
ATOM      8  C   UNL     1       9.262  -8.868 -14.383  1.00  0.00     0.191 C 
BRANCH   8   9
ATOM      9  O   UNL     1       8.448  -9.154 -15.488  1.00  0.00    -0.394 OA
ATOM     10  H   UNL     1       8.665  -8.480 -16.184  1.00  0.00     0.210 HD
ENDBRANCH   8   9
ENDBRANCH   3   8
BRANCH   4  11
ATOM     11  O   UNL     1      11.608  -7.351 -13.462  1.00  0.00    -0.387 OA
ATOM     12  H   UNL     1      11.612  -7.115 -12.498  1.00  0.00     0.211 HD
ENDBRANCH   4  11
BRANCH   6  13
ATOM     13  O   UNL     1      14.019  -8.597 -12.987  1.00  0.00    -0.387 OA
ATOM     14  H   UNL     1      14.373  -9.331 -12.421  1.00  0.00     0.211 HD
ENDBRANCH   6  13
BRANCH   7  15
ATOM     15  O   UNL     1      14.720  -9.287 -15.663  1.00  0.00    -0.385 OA
ATOM     16  H   UNL     1      14.981  -8.864 -16.522  1.00  0.00     0.211 HD
ENDBRANCH   7  15
ENDBRANCH   1   2
BRANCH   1  17
ATOM     17  C   UNL     1      12.175 -11.196 -17.705  1.00  0.00     0.224 C 
ATOM     18  C   UNL     1      13.420 -11.040 -18.610  1.00  0.00     0.208 C 
ATOM     19  O   UNL     1      11.920 -12.581 -17.547  1.00  0.00    -0.337 OA
ATOM     20  C   UNL     1      13.459 -12.347 -19.360  1.00  0.00     0.180 C 
ATOM     21  C   UNL     1      12.788 -13.317 -18.383  1.00  0.00     0.179 C 
BRANCH  17  22
ATOM     22  C   UNL     1      10.906 -10.575 -18.361  1.00  0.00     0.225 C 
BRANCH  22  23
ATOM     23  O   UNL     1       9.754 -10.845 -17.607  1.00  0.00    -0.391 OA
ATOM     24  H   UNL     1       9.490 -11.781 -17.807  1.00  0.00     0.210 HD
ENDBRANCH  22  23
ENDBRANCH  17  22
BRANCH  18  25
ATOM     25  O   UNL     1      14.582 -10.893 -17.830  1.00  0.00    -0.385 OA
ATOM     26  H   UNL     1      14.955 -11.803 -17.691  1.00  0.00     0.211 HD
ENDBRANCH  18  25
BRANCH  20  27
ATOM     27  O   UNL     1      14.770 -12.716 -19.707  1.00  0.00    -0.387 OA
ATOM     28  H   UNL     1      14.990 -13.518 -19.165  1.00  0.00     0.211 HD
ENDBRANCH  20  27
BRANCH  21  29
ATOM     29  C   UNL     1      13.769 -14.109 -17.501  1.00  0.00     0.191 C 
BRANCH  29  30
ATOM     30  O   UNL     1      13.742 -13.623 -16.187  1.00  0.00    -0.394 OA
ATOM     31  H   UNL     1      12.928 -13.060 -16.118  1.00  0.00     0.210 HD
ENDBRANCH  29  30
ENDBRANCH  21  29
ENDBRANCH   1  17
TORSDOF 13
ENDMDL
MODEL 5
REMARK VINA RESULT:    -5.232      7.332     10.666
REMARK INTER + INTRA:          -9.245
REMARK INTER:                  -7.723
REMARK INTRA:                  -1.523
REMARK UNBOUND:                -1.260
REMARK SMILES OC[C@H]1O[C@H](O[C@]2(CO)O[C@H](CO)[C@H](O)[C@@H]2O)[C@H](O)[C@@H](O)[C@H]1O
REMARK SMILES IDX 6 1 5 2 3 3 22 4 4 5 20 6 18 7 2 8 1 9 23 11 21 13 19 15
REMARK SMILES IDX 7 17 16 18 10 19 14 20 11 21 8 22 9 23 17 25 15 27 12 29
REMARK SMILES IDX 13 30
REMARK H PARENT 1 10 23 12 21 14 19 16 9 24 17 26 15 28 13 31
REMARK Flexibility Score: inf
ROOT
ATOM      1  O   UNL     1       4.570  -7.813 -13.404  1.00  0.00    -0.313 OA
ENDROOT
BRANCH   1   2
ATOM      2  C   UNL     1       3.783  -8.427 -14.422  1.00  0.00     0.285 C 
ATOM      3  C   UNL     1       4.310  -6.743 -15.978  1.00  0.00     0.178 C 
ATOM      4  C   UNL     1       5.155  -7.690 -16.863  1.00  0.00     0.177 C 
ATOM      5  O   UNL     1       3.270  -7.462 -15.331  1.00  0.00    -0.341 OA
ATOM      6  C   UNL     1       5.738  -8.810 -15.984  1.00  0.00     0.179 C 
ATOM      7  C   UNL     1       4.620  -9.485 -15.177  1.00  0.00     0.202 C 
BRANCH   3   8
ATOM      8  C   UNL     1       3.680  -5.605 -16.795  1.00  0.00     0.191 C 
BRANCH   8   9
ATOM      9  O   UNL     1       2.919  -4.757 -15.978  1.00  0.00    -0.394 OA
ATOM     10  H   UNL     1       2.212  -5.318 -15.565  1.00  0.00     0.210 HD
ENDBRANCH   8   9
ENDBRANCH   3   8
BRANCH   4  11
ATOM     11  O   UNL     1       4.361  -8.255 -17.878  1.00  0.00    -0.387 OA
ATOM     12  H   UNL     1       4.759  -9.135 -18.106  1.00  0.00     0.211 HD
ENDBRANCH   4  11
BRANCH   6  13
ATOM     13  O   UNL     1       6.384  -9.770 -16.782  1.00  0.00    -0.387 OA
ATOM     14  H   UNL     1       6.133 -10.659 -16.418  1.00  0.00     0.211 HD
ENDBRANCH   6  13
BRANCH   7  15
ATOM     15  O   UNL     1       5.185 -10.399 -14.273  1.00  0.00    -0.385 OA
ATOM     16  H   UNL     1       6.170 -10.304 -14.350  1.00  0.00     0.211 HD
ENDBRANCH   7  15
ENDBRANCH   1   2
BRANCH   1  17
ATOM     17  C   UNL     1       3.932  -7.719 -12.129  1.00  0.00     0.224 C 
ATOM     18  C   UNL     1       4.926  -7.301 -11.019  1.00  0.00     0.208 C 
ATOM     19  O   UNL     1       2.950  -6.702 -12.242  1.00  0.00    -0.337 OA
ATOM     20  C   UNL     1       4.121  -6.330 -10.193  1.00  0.00     0.180 C 
ATOM     21  C   UNL     1       3.136  -5.753 -11.213  1.00  0.00     0.179 C 
BRANCH  17  22
ATOM     22  C   UNL     1       3.180  -9.033 -11.763  1.00  0.00     0.225 C 
BRANCH  22  23
ATOM     23  O   UNL     1       4.074 -10.059 -11.423  1.00  0.00    -0.391 OA
ATOM     24  H   UNL     1       4.887  -9.624 -11.055  1.00  0.00     0.210 HD
ENDBRANCH  22  23
ENDBRANCH  17  22
BRANCH  18  25
ATOM     25  O   UNL     1       6.044  -6.654 -11.577  1.00  0.00    -0.385 OA
ATOM     26  H   UNL     1       6.086  -5.748 -11.172  1.00  0.00     0.211 HD
ENDBRANCH  18  25
BRANCH  20  27
ATOM     27  O   UNL     1       4.933  -5.358  -9.584  1.00  0.00    -0.387 OA
ATOM     28  H   UNL     1       4.663  -5.323  -8.630  1.00  0.00     0.211 HD
ENDBRANCH  20  27
BRANCH  21  29
ATOM     29  C   UNL     1       3.582  -4.423 -11.845  1.00  0.00     0.191 C 
BRANCH  29  30
ATOM     30  O   UNL     1       4.118  -4.645 -13.120  1.00  0.00    -0.394 OA
ATOM     31  H   UNL     1       3.347  -4.835 -13.714  1.00  0.00     0.210 HD
ENDBRANCH  29  30
ENDBRANCH  21  29
ENDBRANCH   1  17
TORSDOF 13
ENDMDL
MODEL 6
REMARK VINA RESULT:    -5.146      6.333      9.698
REMARK INTER + INTRA:          -9.114
REMARK INTER:                  -7.594
REMARK INTRA:                  -1.520
REMARK UNBOUND:                -1.260
REMARK SMILES OC[C@H]1O[C@H](O[C@]2(CO)O[C@H](CO)[C@H](O)[C@@H]2O)[C@H](O)[C@@H](O)[C@H]1O
REMARK SMILES IDX 6 1 5 2 3 3 22 4 4 5 20 6 18 7 2 8 1 9 23 11 21 13 19 15
REMARK SMILES IDX 7 17 16 18 10 19 14 20 11 21 8 22 9 23 17 25 15 27 12 29
REMARK SMILES IDX 13 30
REMARK H PARENT 1 10 23 12 21 14 19 16 9 24 17 26 15 28 13 31
REMARK Flexibility Score: inf
ROOT
ATOM      1  O   UNL     1       6.369  -7.301 -14.151  1.00  0.00    -0.313 OA
ENDROOT
BRANCH   1   2
ATOM      2  C   UNL     1       5.151  -8.030 -14.288  1.00  0.00     0.285 C 
ATOM      3  C   UNL     1       4.137  -6.293 -15.508  1.00  0.00     0.178 C 
ATOM      4  C   UNL     1       4.101  -7.107 -16.823  1.00  0.00     0.177 C 
ATOM      5  O   UNL     1       4.034  -7.155 -14.385  1.00  0.00    -0.341 OA
ATOM      6  C   UNL     1       5.255  -8.124 -16.815  1.00  0.00     0.179 C 
ATOM      7  C   UNL     1       5.219  -8.955 -15.524  1.00  0.00     0.202 C 
BRANCH   3   8
ATOM      8  C   UNL     1       2.998  -5.265 -15.439  1.00  0.00     0.191 C 
BRANCH   8   9
ATOM      9  O   UNL     1       2.961  -4.635 -14.187  1.00  0.00    -0.394 OA
ATOM     10  H   UNL     1       3.446  -5.228 -13.555  1.00  0.00     0.210 HD
ENDBRANCH   8   9
ENDBRANCH   3   8
BRANCH   4  11
ATOM     11  O   UNL     1       2.876  -7.788 -16.947  1.00  0.00    -0.387 OA
ATOM     12  H   UNL     1       3.074  -8.677 -17.343  1.00  0.00     0.211 HD
ENDBRANCH   4  11
BRANCH   6  13
ATOM     13  O   UNL     1       5.159  -8.980 -17.925  1.00  0.00    -0.387 OA
ATOM     14  H   UNL     1       5.331  -8.424 -18.730  1.00  0.00     0.211 HD
ENDBRANCH   6  13
BRANCH   7  15
ATOM     15  O   UNL     1       6.361  -9.770 -15.463  1.00  0.00    -0.385 OA
ATOM     16  H   UNL     1       6.863  -9.497 -14.652  1.00  0.00     0.211 HD
ENDBRANCH   7  15
ENDBRANCH   1   2
BRANCH   1  17
ATOM     17  C   UNL     1       6.915  -7.290 -12.830  1.00  0.00     0.224 C 
ATOM     18  C   UNL     1       6.912  -5.868 -12.220  1.00  0.00     0.208 C 
ATOM     19  O   UNL     1       6.071  -8.108 -12.037  1.00  0.00    -0.337 OA
ATOM     20  C   UNL     1       6.499  -6.115 -10.792  1.00  0.00     0.180 C 
ATOM     21  C   UNL     1       5.652  -7.385 -10.899  1.00  0.00     0.179 C 
BRANCH  17  22
ATOM     22  C   UNL     1       8.333  -7.932 -12.788  1.00  0.00     0.225 C 
BRANCH  22  23
ATOM     23  O   UNL     1       8.758  -8.323 -14.066  1.00  0.00    -0.391 OA
ATOM     24  H   UNL     1       8.838  -9.313 -14.054  1.00  0.00     0.210 HD
ENDBRANCH  22  23
ENDBRANCH  17  22
BRANCH  18  25
ATOM     25  O   UNL     1       5.963  -5.056 -12.867  1.00  0.00    -0.385 OA
ATOM     26  H   UNL     1       5.081  -5.261 -12.461  1.00  0.00     0.211 HD
ENDBRANCH  18  25
BRANCH  20  27
ATOM     27  O   UNL     1       5.804  -5.020 -10.248  1.00  0.00    -0.387 OA
ATOM     28  H   UNL     1       5.825  -5.135  -9.263  1.00  0.00     0.211 HD
ENDBRANCH  20  27
BRANCH  21  29
ATOM     29  C   UNL     1       4.138  -7.132 -11.005  1.00  0.00     0.191 C 
BRANCH  29  30
ATOM     30  O   UNL     1       3.885  -6.040 -11.847  1.00  0.00    -0.394 OA
ATOM     31  H   UNL     1       4.228  -5.241 -11.370  1.00  0.00     0.210 HD
ENDBRANCH  29  30
ENDBRANCH  21  29
ENDBRANCH   1  17
TORSDOF 13
ENDMDL
MODEL 7
REMARK VINA RESULT:    -5.063      7.308      9.960
REMARK INTER + INTRA:          -8.987
REMARK INTER:                  -7.703
REMARK INTRA:                  -1.285
REMARK UNBOUND:                -1.260
REMARK SMILES OC[C@H]1O[C@H](O[C@]2(CO)O[C@H](CO)[C@H](O)[C@@H]2O)[C@H](O)[C@@H](O)[C@H]1O
REMARK SMILES IDX 6 1 5 2 3 3 22 4 4 5 20 6 18 7 2 8 1 9 23 11 21 13 19 15
REMARK SMILES IDX 7 17 16 18 10 19 14 20 11 21 8 22 9 23 17 25 15 27 12 29
REMARK SMILES IDX 13 30
REMARK H PARENT 1 10 23 12 21 14 19 16 9 24 17 26 15 28 13 31
REMARK Flexibility Score: inf
ROOT
ATOM      1  O   UNL     1       5.691  -7.673 -13.790  1.00  0.00    -0.313 OA
ENDROOT
BRANCH   1   2
ATOM      2  C   UNL     1       4.421  -8.134 -14.249  1.00  0.00     0.285 C 
ATOM      3  C   UNL     1       4.123  -6.244 -15.618  1.00  0.00     0.178 C 
ATOM      4  C   UNL     1       4.248  -7.054 -16.930  1.00  0.00     0.177 C 
ATOM      5  O   UNL     1       3.569  -7.047 -14.586  1.00  0.00    -0.341 OA
ATOM      6  C   UNL     1       5.128  -8.290 -16.674  1.00  0.00     0.179 C 
ATOM      7  C   UNL     1       4.603  -9.073 -15.463  1.00  0.00     0.202 C 
BRANCH   3   8
ATOM      8  C   UNL     1       3.240  -5.000 -15.794  1.00  0.00     0.191 C 
BRANCH   8   9
ATOM      9  O   UNL     1       3.250  -4.558 -17.125  1.00  0.00    -0.394 OA
ATOM     10  H   UNL     1       2.317  -4.299 -17.346  1.00  0.00     0.210 HD
ENDBRANCH   8   9
ENDBRANCH   3   8
BRANCH   4  11
ATOM     11  O   UNL     1       2.979  -7.466 -17.376  1.00  0.00    -0.387 OA
ATOM     12  H   UNL     1       2.576  -8.010 -16.650  1.00  0.00     0.211 HD
ENDBRANCH   4  11
BRANCH   6  13
ATOM     13  O   UNL     1       5.136  -9.125 -17.804  1.00  0.00    -0.387 OA
ATOM     14  H   UNL     1       5.566  -8.610 -18.536  1.00  0.00     0.211 HD
ENDBRANCH   6  13
BRANCH   7  15
ATOM     15  O   UNL     1       5.500 -10.108 -15.153  1.00  0.00    -0.385 OA
ATOM     16  H   UNL     1       5.662 -10.060 -14.174  1.00  0.00     0.211 HD
ENDBRANCH   7  15
ENDBRANCH   1   2
BRANCH   1  17
ATOM     17  C   UNL     1       5.837  -7.640 -12.369  1.00  0.00     0.224 C 
ATOM     18  C   UNL     1       7.323  -7.541 -11.948  1.00  0.00     0.208 C 
ATOM     19  O   UNL     1       5.177  -6.467 -11.922  1.00  0.00    -0.337 OA
ATOM     20  C   UNL     1       7.285  -6.564 -10.800  1.00  0.00     0.180 C 
ATOM     21  C   UNL     1       6.062  -5.704 -11.129  1.00  0.00     0.179 C 
BRANCH  17  22
ATOM     22  C   UNL     1       5.125  -8.845 -11.688  1.00  0.00     0.225 C 
BRANCH  22  23
ATOM     23  O   UNL     1       4.164  -8.417 -10.760  1.00  0.00    -0.391 OA
ATOM     24  H   UNL     1       3.274  -8.587 -11.165  1.00  0.00     0.210 HD
ENDBRANCH  22  23
ENDBRANCH  17  22
BRANCH  18  25
ATOM     25  O   UNL     1       8.101  -7.024 -13.000  1.00  0.00    -0.385 OA
ATOM     26  H   UNL     1       8.257  -6.063 -12.800  1.00  0.00     0.211 HD
ENDBRANCH  18  25
BRANCH  20  27
ATOM     27  O   UNL     1       8.478  -5.829 -10.695  1.00  0.00    -0.387 OA
ATOM     28  H   UNL     1       8.706  -5.799  -9.729  1.00  0.00     0.211 HD
ENDBRANCH  20  27
BRANCH  21  29
ATOM     29  C   UNL     1       6.387  -4.396 -11.872  1.00  0.00     0.191 C 
BRANCH  29  30
ATOM     30  O   UNL     1       6.131  -4.539 -13.243  1.00  0.00    -0.394 OA
ATOM     31  H   UNL     1       6.973  -4.294 -13.707  1.00  0.00     0.210 HD
ENDBRANCH  29  30
ENDBRANCH  21  29
ENDBRANCH   1  17
TORSDOF 13
ENDMDL
MODEL 8
REMARK VINA RESULT:    -5.045     10.303     12.566
REMARK INTER + INTRA:          -8.959
REMARK INTER:                  -7.701
REMARK INTRA:                  -1.258
REMARK UNBOUND:                -1.260
REMARK SMILES OC[C@H]1O[C@H](O[C@]2(CO)O[C@H](CO)[C@H](O)[C@@H]2O)[C@H](O)[C@@H](O)[C@H]1O
REMARK SMILES IDX 6 1 5 2 3 3 22 4 4 5 20 6 18 7 2 8 1 9 23 11 21 13 19 15
REMARK SMILES IDX 7 17 16 18 10 19 14 20 11 21 8 22 9 23 17 25 15 27 12 29
REMARK SMILES IDX 13 30
REMARK H PARENT 1 10 23 12 21 14 19 16 9 24 17 26 15 28 13 31
REMARK Flexibility Score: inf
ROOT
ATOM      1  O   UNL     1      16.137 -14.078  -5.959  1.00  0.00    -0.313 OA
ENDROOT
BRANCH   1   2
ATOM      2  C   UNL     1      16.739 -15.328  -5.625  1.00  0.00     0.285 C 
ATOM      3  C   UNL     1      18.022 -15.346  -7.596  1.00  0.00     0.178 C 
ATOM      4  C   UNL     1      19.360 -15.154  -6.843  1.00  0.00     0.177 C 
ATOM      5  O   UNL     1      17.094 -16.058  -6.792  1.00  0.00    -0.341 OA
ATOM      6  C   UNL     1      19.091 -14.398  -5.530  1.00  0.00     0.179 C 
ATOM      7  C   UNL     1      17.981 -15.099  -4.734  1.00  0.00     0.202 C 
BRANCH   3   8
ATOM      8  C   UNL     1      18.212 -16.110  -8.915  1.00  0.00     0.191 C 
BRANCH   8   9
ATOM      9  O   UNL     1      19.252 -15.558  -9.675  1.00  0.00    -0.394 OA
ATOM     10  H   UNL     1      18.832 -14.935 -10.323  1.00  0.00     0.210 HD
ENDBRANCH   8   9
ENDBRANCH   3   8
BRANCH   4  11
ATOM     11  O   UNL     1      19.946 -16.400  -6.556  1.00  0.00    -0.387 OA
ATOM     12  H   UNL     1      20.902 -16.340  -6.818  1.00  0.00     0.211 HD
ENDBRANCH   4  11
BRANCH   6  13
ATOM     13  O   UNL     1      20.260 -14.342  -4.752  1.00  0.00    -0.387 OA
ATOM     14  H   UNL     1      19.980 -14.464  -3.807  1.00  0.00     0.211 HD
ENDBRANCH   6  13
BRANCH   7  15
ATOM     15  O   UNL     1      17.645 -14.318  -3.616  1.00  0.00    -0.385 OA
ATOM     16  H   UNL     1      16.655 -14.252  -3.601  1.00  0.00     0.211 HD
ENDBRANCH   7  15
ENDBRANCH   1   2
BRANCH   1  17
ATOM     17  C   UNL     1      14.710 -14.063  -5.884  1.00  0.00     0.224 C 
ATOM     18  C   UNL     1      14.214 -13.631  -4.483  1.00  0.00     0.208 C 
ATOM     19  O   UNL     1      14.267 -13.096  -6.822  1.00  0.00    -0.337 OA
ATOM     20  C   UNL     1      13.045 -12.734  -4.801  1.00  0.00     0.180 C 
ATOM     21  C   UNL     1      13.412 -12.174  -6.177  1.00  0.00     0.179 C 
BRANCH  17  22
ATOM     22  C   UNL     1      14.095 -15.426  -6.318  1.00  0.00     0.225 C 
BRANCH  22  23
ATOM     23  O   UNL     1      14.133 -15.587  -7.710  1.00  0.00    -0.391 OA
ATOM     24  H   UNL     1      13.530 -14.900  -8.097  1.00  0.00     0.210 HD
ENDBRANCH  22  23
ENDBRANCH  17  22
BRANCH  18  25
ATOM     25  O   UNL     1      15.213 -12.907  -3.807  1.00  0.00    -0.385 OA
ATOM     26  H   UNL     1      16.075 -13.120  -4.252  1.00  0.00     0.211 HD
ENDBRANCH  18  25
BRANCH  20  27
ATOM     27  O   UNL     1      12.863 -11.741  -3.822  1.00  0.00    -0.387 OA
ATOM     28  H   UNL     1      13.547 -11.907  -3.122  1.00  0.00     0.211 HD
ENDBRANCH  20  27
BRANCH  21  29
ATOM     29  C   UNL     1      14.105 -10.801  -6.142  1.00  0.00     0.191 C 
BRANCH  29  30
ATOM     30  O   UNL     1      15.479 -10.943  -6.378  1.00  0.00    -0.394 OA
ATOM     31  H   UNL     1      15.862 -10.029  -6.336  1.00  0.00     0.210 HD
ENDBRANCH  29  30
ENDBRANCH  21  29
ENDBRANCH   1  17
TORSDOF 13
ENDMDL
MODEL 9
REMARK VINA RESULT:    -4.787      6.409     10.610
REMARK INTER + INTRA:          -8.565
REMARK INTER:                  -6.912
REMARK INTRA:                  -1.653
REMARK UNBOUND:                -1.260
REMARK SMILES OC[C@H]1O[C@H](O[C@]2(CO)O[C@H](CO)[C@H](O)[C@@H]2O)[C@H](O)[C@@H](O)[C@H]1O
REMARK SMILES IDX 6 1 5 2 3 3 22 4 4 5 20 6 18 7 2 8 1 9 23 11 21 13 19 15
REMARK SMILES IDX 7 17 16 18 10 19 14 20 11 21 8 22 9 23 17 25 15 27 12 29
REMARK SMILES IDX 13 30
REMARK H PARENT 1 10 23 12 21 14 19 16 9 24 17 26 15 28 13 31
REMARK Flexibility Score: inf
ROOT
ATOM      1  O   UNL     1       6.220  -6.252 -10.422  1.00  0.00    -0.313 OA
ENDROOT
BRANCH   1   2
ATOM      2  C   UNL     1       6.008  -5.882 -11.783  1.00  0.00     0.285 C 
ATOM      3  C   UNL     1       7.295  -7.685 -12.574  1.00  0.00     0.178 C 
ATOM      4  C   UNL     1       6.075  -8.416 -13.183  1.00  0.00     0.177 C 
ATOM      5  O   UNL     1       7.100  -6.279 -12.602  1.00  0.00    -0.341 OA
ATOM      6  C   UNL     1       4.813  -8.029 -12.392  1.00  0.00     0.179 C 
ATOM      7  C   UNL     1       4.691  -6.501 -12.304  1.00  0.00     0.202 C 
BRANCH   3   8
ATOM      8  C   UNL     1       8.593  -8.013 -13.327  1.00  0.00     0.191 C 
BRANCH   8   9
ATOM      9  O   UNL     1       9.394  -6.871 -13.474  1.00  0.00    -0.394 OA
ATOM     10  H   UNL     1      10.031  -6.870 -12.712  1.00  0.00     0.210 HD
ENDBRANCH   8   9
ENDBRANCH   3   8
BRANCH   4  11
ATOM     11  O   UNL     1       5.910  -8.058 -14.533  1.00  0.00    -0.387 OA
ATOM     12  H   UNL     1       6.713  -7.537 -14.798  1.00  0.00     0.211 HD
ENDBRANCH   4  11
BRANCH   6  13
ATOM     13  O   UNL     1       3.667  -8.555 -13.013  1.00  0.00    -0.387 OA
ATOM     14  H   UNL     1       3.017  -7.808 -13.091  1.00  0.00     0.211 HD
ENDBRANCH   6  13
BRANCH   7  15
ATOM     15  O   UNL     1       3.623  -6.167 -11.456  1.00  0.00    -0.385 OA
ATOM     16  H   UNL     1       4.022  -5.902 -10.586  1.00  0.00     0.211 HD
ENDBRANCH   7  15
ENDBRANCH   1   2
BRANCH   1  17
ATOM     17  C   UNL     1       6.594  -5.175  -9.560  1.00  0.00     0.224 C 
ATOM     18  C   UNL     1       7.621  -5.625  -8.493  1.00  0.00     0.208 C 
ATOM     19  O   UNL     1       7.215  -4.199 -10.379  1.00  0.00    -0.337 OA
ATOM     20  C   UNL     1       8.580  -4.464  -8.437  1.00  0.00     0.180 C 
ATOM     21  C   UNL     1       8.482  -3.875  -9.847  1.00  0.00     0.179 C 
BRANCH  17  22
ATOM     22  C   UNL     1       5.351  -4.497  -8.913  1.00  0.00     0.225 C 
BRANCH  22  23
ATOM     23  O   UNL     1       4.306  -5.413  -8.722  1.00  0.00    -0.391 OA
ATOM     24  H   UNL     1       3.509  -4.889  -8.447  1.00  0.00     0.210 HD
ENDBRANCH  22  23
ENDBRANCH  17  22
BRANCH  18  25
ATOM     25  O   UNL     1       8.291  -6.789  -8.913  1.00  0.00    -0.385 OA
ATOM     26  H   UNL     1       7.930  -7.024  -9.808  1.00  0.00     0.211 HD
ENDBRANCH  18  25
BRANCH  20  27
ATOM     27  O   UNL     1       9.879  -4.871  -8.087  1.00  0.00    -0.387 OA
ATOM     28  H   UNL     1      10.492  -4.156  -8.400  1.00  0.00     0.211 HD
ENDBRANCH  20  27
BRANCH  21  29
ATOM     29  C   UNL     1       9.567  -4.370 -10.819  1.00  0.00     0.191 C 
BRANCH  29  30
ATOM     30  O   UNL     1       9.103  -4.305 -12.140  1.00  0.00    -0.394 OA
ATOM     31  H   UNL     1       8.236  -3.823 -12.103  1.00  0.00     0.210 HD
ENDBRANCH  29  30
ENDBRANCH  21  29
ENDBRANCH   1  17
TORSDOF 13
ENDMDL
