MODEL 1
REMARK VINA RESULT:    -3.862      0.000      0.000
REMARK INTER + INTRA:          -8.967
REMARK INTER:                  -6.797
REMARK INTRA:                  -2.169
REMARK UNBOUND:                -2.169
REMARK SMILES CCCCCCCCCCCCCCC(=O)[O-]
REMARK SMILES IDX 9 1 10 2 11 3 12 4 13 5 14 6 15 7 16 8 17 9 8 10 7 11 6 12
REMARK SMILES IDX 5 13 4 14 3 15 2 16 1 17
REMARK H PARENT
REMARK Flexibility Score: inf
ROOT
ATOM      1  C   UNL     1      41.819  15.740  22.461  1.00  0.00     0.000 C 
ENDROOT
BRANCH   1   2
ATOM      2  C   UNL     1      41.647  14.229  22.203  1.00  0.00     0.000 C 
BRANCH   2   3
ATOM      3  C   UNL     1      41.314  13.388  23.449  1.00  0.00     0.000 C 
BRANCH   3   4
ATOM      4  C   UNL     1      42.388  12.333  23.761  1.00  0.00     0.000 C 
BRANCH   4   5
ATOM      5  C   UNL     1      43.362  12.121  22.591  1.00  0.00     0.006 C 
BRANCH   5   6
ATOM      6  C   UNL     1      43.826  10.664  22.462  1.00  0.00     0.053 C 
BRANCH   6   7
ATOM      7  C   UNL     1      44.928  10.555  21.457  1.00  0.00     0.041 C 
ATOM      8  O   UNL     1      45.778  11.477  21.347  1.00  0.00    -0.550 OA
ATOM      9  O   UNL     1      45.046   9.412  20.676  1.00  0.00    -0.550 OA
ENDBRANCH   6   7
ENDBRANCH   5   6
ENDBRANCH   4   5
ENDBRANCH   3   4
ENDBRANCH   2   3
ENDBRANCH   1   2
BRANCH   1  10
ATOM     10  C   UNL     1      41.935  16.613  21.196  1.00  0.00     0.000 C 
BRANCH  10  11
ATOM     11  C   UNL     1      43.223  16.413  20.376  1.00  0.00    -0.000 C 
BRANCH  11  12
ATOM     12  C   UNL     1      44.499  16.552  21.225  1.00  0.00    -0.000 C 
BRANCH  12  13
ATOM     13  C   UNL     1      45.362  15.278  21.224  1.00  0.00    -0.000 C 
BRANCH  13  14
ATOM     14  C   UNL     1      45.821  14.799  22.613  1.00  0.00    -0.000 C 
BRANCH  14  15
ATOM     15  C   UNL     1      45.285  15.676  23.758  1.00  0.00    -0.000 C 
BRANCH  15  16
ATOM     16  C   UNL     1      44.819  14.849  24.965  1.00  0.00    -0.003 C 
ATOM     17  C   UNL     1      43.611  15.464  25.671  1.00  0.00     0.004 C 
ENDBRANCH  15  16
ENDBRANCH  14  15
ENDBRANCH  13  14
ENDBRANCH  12  13
ENDBRANCH  11  12
ENDBRANCH  10  11
ENDBRANCH   1  10
TORSDOF 13
ENDMDL
MODEL 2
REMARK VINA RESULT:    -3.824     15.379     18.249
REMARK INTER + INTRA:          -8.900
REMARK INTER:                  -7.430
REMARK INTRA:                  -1.470
REMARK UNBOUND:                -2.169
REMARK SMILES CCCCCCCCCCCCCCC(=O)[O-]
REMARK SMILES IDX 9 1 10 2 11 3 12 4 13 5 14 6 15 7 16 8 17 9 8 10 7 11 6 12
REMARK SMILES IDX 5 13 4 14 3 15 2 16 1 17
REMARK H PARENT
REMARK Flexibility Score: inf
ROOT
ATOM      1  C   UNL     1      32.276  18.757  12.407  1.00  0.00     0.000 C 
ENDROOT
BRANCH   1   2
ATOM      2  C   UNL     1      31.657  19.797  13.362  1.00  0.00     0.000 C 
BRANCH   2   3
ATOM      3  C   UNL     1      31.307  21.150  12.716  1.00  0.00     0.000 C 
BRANCH   3   4
ATOM      4  C   UNL     1      31.491  22.336  13.678  1.00  0.00     0.000 C 
BRANCH   4   5
ATOM      5  C   UNL     1      32.947  22.822  13.741  1.00  0.00     0.006 C 
BRANCH   5   6
ATOM      6  C   UNL     1      33.571  22.649  15.132  1.00  0.00     0.053 C 
BRANCH   6   7
ATOM      7  C   UNL     1      34.555  21.522  15.124  1.00  0.00     0.041 C 
ATOM      8  O   UNL     1      34.774  20.879  14.065  1.00  0.00    -0.550 OA
ATOM      9  O   UNL     1      35.266  21.213  16.278  1.00  0.00    -0.550 OA
ENDBRANCH   6   7
ENDBRANCH   5   6
ENDBRANCH   4   5
ENDBRANCH   3   4
ENDBRANCH   2   3
ENDBRANCH   1   2
BRANCH   1  10
ATOM     10  C   UNL     1      32.129  19.074  10.905  1.00  0.00     0.000 C 
BRANCH  10  11
ATOM     11  C   UNL     1      31.195  18.131  10.124  1.00  0.00    -0.000 C 
BRANCH  11  12
ATOM     12  C   UNL     1      29.761  18.676  10.004  1.00  0.00    -0.000 C 
BRANCH  12  13
ATOM     13  C   UNL     1      28.947  18.514  11.301  1.00  0.00    -0.000 C 
BRANCH  13  14
ATOM     14  C   UNL     1      27.690  19.396  11.399  1.00  0.00    -0.000 C 
BRANCH  14  15
ATOM     15  C   UNL     1      27.320  20.064  10.063  1.00  0.00    -0.000 C 
BRANCH  15  16
ATOM     16  C   UNL     1      27.286  21.596  10.161  1.00  0.00    -0.003 C 
ATOM     17  C   UNL     1      28.670  22.204  10.385  1.00  0.00     0.004 C 
ENDBRANCH  15  16
ENDBRANCH  14  15
ENDBRANCH  13  14
ENDBRANCH  12  13
ENDBRANCH  11  12
ENDBRANCH  10  11
ENDBRANCH   1  10
TORSDOF 13
ENDMDL
MODEL 3
REMARK VINA RESULT:    -3.683      2.566      4.122
REMARK INTER + INTRA:          -8.652
REMARK INTER:                  -6.677
REMARK INTRA:                  -1.975
REMARK UNBOUND:                -2.169
REMARK SMILES CCCCCCCCCCCCCCC(=O)[O-]
REMARK SMILES IDX 9 1 10 2 11 3 12 4 13 5 14 6 15 7 16 8 17 9 8 10 7 11 6 12
REMARK SMILES IDX 5 13 4 14 3 15 2 16 1 17
REMARK H PARENT
REMARK Flexibility Score: inf
ROOT
ATOM      1  C   UNL     1      43.512  16.366  20.599  1.00  0.00     0.000 C 
ENDROOT
BRANCH   1   2
ATOM      2  C   UNL     1      42.111  16.330  21.243  1.00  0.00     0.000 C 
BRANCH   2   3
ATOM      3  C   UNL     1      41.883  15.185  22.247  1.00  0.00     0.000 C 
BRANCH   3   4
ATOM      4  C   UNL     1      41.993  15.645  23.711  1.00  0.00     0.000 C 
BRANCH   4   5
ATOM      5  C   UNL     1      41.269  14.699  24.681  1.00  0.00     0.006 C 
BRANCH   5   6
ATOM      6  C   UNL     1      40.888  13.361  24.032  1.00  0.00     0.053 C 
BRANCH   6   7
ATOM      7  C   UNL     1      40.692  12.311  25.078  1.00  0.00     0.041 C 
ATOM      8  O   UNL     1      41.510  11.360  25.184  1.00  0.00    -0.550 OA
ATOM      9  O   UNL     1      39.631  12.410  25.970  1.00  0.00    -0.550 OA
ENDBRANCH   6   7
ENDBRANCH   5   6
ENDBRANCH   4   5
ENDBRANCH   3   4
ENDBRANCH   2   3
ENDBRANCH   1   2
BRANCH   1  10
ATOM     10  C   UNL     1      44.622  16.981  21.474  1.00  0.00     0.000 C 
BRANCH  10  11
ATOM     11  C   UNL     1      45.893  16.123  21.620  1.00  0.00    -0.000 C 
BRANCH  11  12
ATOM     12  C   UNL     1      45.856  14.849  20.757  1.00  0.00    -0.000 C 
BRANCH  12  13
ATOM     13  C   UNL     1      45.848  13.558  21.595  1.00  0.00    -0.000 C 
BRANCH  13  14
ATOM     14  C   UNL     1      45.252  13.698  23.007  1.00  0.00    -0.000 C 
BRANCH  14  15
ATOM     15  C   UNL     1      44.467  12.452  23.453  1.00  0.00    -0.000 C 
BRANCH  15  16
ATOM     16  C   UNL     1      43.607  11.863  22.325  1.00  0.00    -0.003 C 
ATOM     17  C   UNL     1      43.844  10.367  22.122  1.00  0.00     0.004 C 
ENDBRANCH  15  16
ENDBRANCH  14  15
ENDBRANCH  13  14
ENDBRANCH  12  13
ENDBRANCH  11  12
ENDBRANCH  10  11
ENDBRANCH   1  10
TORSDOF 13
ENDMDL
MODEL 4
REMARK VINA RESULT:    -3.640      2.437      5.259
REMARK INTER + INTRA:          -8.576
REMARK INTER:                  -7.031
REMARK INTRA:                  -1.545
REMARK UNBOUND:                -2.169
REMARK SMILES CCCCCCCCCCCCCCC(=O)[O-]
REMARK SMILES IDX 9 1 10 2 11 3 12 4 13 5 14 6 15 7 16 8 17 9 8 10 7 11 6 12
REMARK SMILES IDX 5 13 4 14 3 15 2 16 1 17
REMARK H PARENT
REMARK Flexibility Score: inf
ROOT
ATOM      1  C   UNL     1      42.149  15.230  22.734  1.00  0.00     0.000 C 
ENDROOT
BRANCH   1   2
ATOM      2  C   UNL     1      41.767  15.983  21.444  1.00  0.00     0.000 C 
BRANCH   2   3
ATOM      3  C   UNL     1      42.919  16.751  20.770  1.00  0.00     0.000 C 
BRANCH   3   4
ATOM      4  C   UNL     1      44.234  15.954  20.748  1.00  0.00     0.000 C 
BRANCH   4   5
ATOM      5  C   UNL     1      45.374  16.680  21.480  1.00  0.00     0.006 C 
BRANCH   5   6
ATOM      6  C   UNL     1      46.035  15.811  22.558  1.00  0.00     0.053 C 
BRANCH   6   7
ATOM      7  C   UNL     1      45.560  16.216  23.917  1.00  0.00     0.041 C 
ATOM      8  O   UNL     1      45.386  17.432  24.192  1.00  0.00    -0.550 OA
ATOM      9  O   UNL     1      45.264  15.246  24.867  1.00  0.00    -0.550 OA
ENDBRANCH   6   7
ENDBRANCH   5   6
ENDBRANCH   4   5
ENDBRANCH   3   4
ENDBRANCH   2   3
ENDBRANCH   1   2
BRANCH   1  10
ATOM     10  C   UNL     1      41.730  13.747  22.779  1.00  0.00     0.000 C 
BRANCH  10  11
ATOM     11  C   UNL     1      42.795  12.780  23.328  1.00  0.00    -0.000 C 
BRANCH  11  12
ATOM     12  C   UNL     1      43.928  12.507  22.323  1.00  0.00    -0.000 C 
BRANCH  12  13
ATOM     13  C   UNL     1      45.285  12.254  23.004  1.00  0.00    -0.000 C 
BRANCH  13  14
ATOM     14  C   UNL     1      46.098  11.082  22.427  1.00  0.00    -0.000 C 
BRANCH  14  15
ATOM     15  C   UNL     1      45.368  10.349  21.288  1.00  0.00    -0.000 C 
BRANCH  15  16
ATOM     16  C   UNL     1      45.287   8.833  21.520  1.00  0.00    -0.003 C 
ATOM     17  C   UNL     1      43.849   8.315  21.534  1.00  0.00     0.004 C 
ENDBRANCH  15  16
ENDBRANCH  14  15
ENDBRANCH  13  14
ENDBRANCH  12  13
ENDBRANCH  11  12
ENDBRANCH  10  11
ENDBRANCH   1  10
TORSDOF 13
ENDMDL
MODEL 5
REMARK VINA RESULT:    -3.625     15.537     18.275
REMARK INTER + INTRA:          -8.550
REMARK INTER:                  -6.647
REMARK INTRA:                  -1.903
REMARK UNBOUND:                -2.169
REMARK SMILES CCCCCCCCCCCCCCC(=O)[O-]
REMARK SMILES IDX 9 1 10 2 11 3 12 4 13 5 14 6 15 7 16 8 17 9 8 10 7 11 6 12
REMARK SMILES IDX 5 13 4 14 3 15 2 16 1 17
REMARK H PARENT
REMARK Flexibility Score: inf
ROOT
ATOM      1  C   UNL     1      31.295  21.778  12.435  1.00  0.00     0.000 C 
ENDROOT
BRANCH   1   2
ATOM      2  C   UNL     1      32.038  21.013  11.321  1.00  0.00     0.000 C 
BRANCH   2   3
ATOM      3  C   UNL     1      32.781  19.746  11.783  1.00  0.00     0.000 C 
BRANCH   3   4
ATOM      4  C   UNL     1      33.064  19.739  13.295  1.00  0.00     0.000 C 
BRANCH   4   5
ATOM      5  C   UNL     1      34.517  20.118  13.623  1.00  0.00     0.006 C 
BRANCH   5   6
ATOM      6  C   UNL     1      34.695  21.620  13.885  1.00  0.00     0.053 C 
BRANCH   6   7
ATOM      7  C   UNL     1      34.281  21.958  15.282  1.00  0.00     0.041 C 
ATOM      8  O   UNL     1      34.988  21.594  16.258  1.00  0.00    -0.550 OA
ATOM      9  O   UNL     1      33.139  22.718  15.503  1.00  0.00    -0.550 OA
ENDBRANCH   6   7
ENDBRANCH   5   6
ENDBRANCH   4   5
ENDBRANCH   3   4
ENDBRANCH   2   3
ENDBRANCH   1   2
BRANCH   1  10
ATOM     10  C   UNL     1      29.843  22.177  12.103  1.00  0.00     0.000 C 
BRANCH  10  11
ATOM     11  C   UNL     1      29.606  22.645  10.655  1.00  0.00    -0.000 C 
BRANCH  11  12
ATOM     12  C   UNL     1      28.345  22.025  10.026  1.00  0.00    -0.000 C 
BRANCH  12  13
ATOM     13  C   UNL     1      27.468  21.282  11.050  1.00  0.00    -0.000 C 
BRANCH  13  14
ATOM     14  C   UNL     1      27.345  19.764  10.827  1.00  0.00    -0.000 C 
BRANCH  14  15
ATOM     15  C   UNL     1      28.419  19.209   9.875  1.00  0.00    -0.000 C 
BRANCH  15  16
ATOM     16  C   UNL     1      29.414  18.280  10.588  1.00  0.00    -0.003 C 
ATOM     17  C   UNL     1      29.328  18.382  12.111  1.00  0.00     0.004 C 
ENDBRANCH  15  16
ENDBRANCH  14  15
ENDBRANCH  13  14
ENDBRANCH  12  13
ENDBRANCH  11  12
ENDBRANCH  10  11
ENDBRANCH   1  10
TORSDOF 13
ENDMDL
MODEL 6
REMARK VINA RESULT:    -3.616      2.499      5.419
REMARK INTER + INTRA:          -8.533
REMARK INTER:                  -6.705
REMARK INTRA:                  -1.829
REMARK UNBOUND:                -2.169
REMARK SMILES CCCCCCCCCCCCCCC(=O)[O-]
REMARK SMILES IDX 9 1 10 2 11 3 12 4 13 5 14 6 15 7 16 8 17 9 8 10 7 11 6 12
REMARK SMILES IDX 5 13 4 14 3 15 2 16 1 17
REMARK H PARENT
REMARK Flexibility Score: inf
ROOT
ATOM      1  C   UNL     1      43.323  11.541  22.274  1.00  0.00     0.000 C 
ENDROOT
BRANCH   1   2
ATOM      2  C   UNL     1      42.731  12.240  23.514  1.00  0.00     0.000 C 
BRANCH   2   3
ATOM      3  C   UNL     1      41.617  13.262  23.219  1.00  0.00     0.000 C 
BRANCH   3   4
ATOM      4  C   UNL     1      42.055  14.713  23.480  1.00  0.00     0.000 C 
BRANCH   4   5
ATOM      5  C   UNL     1      42.875  15.298  22.319  1.00  0.00     0.006 C 
BRANCH   5   6
ATOM      6  C   UNL     1      44.359  15.474  22.670  1.00  0.00     0.053 C 
BRANCH   6   7
ATOM      7  C   UNL     1      45.092  16.108  21.531  1.00  0.00     0.041 C 
ATOM      8  O   UNL     1      45.236  17.358  21.487  1.00  0.00    -0.550 OA
ATOM      9  O   UNL     1      45.659  15.314  20.541  1.00  0.00    -0.550 OA
ENDBRANCH   6   7
ENDBRANCH   5   6
ENDBRANCH   4   5
ENDBRANCH   3   4
ENDBRANCH   2   3
ENDBRANCH   1   2
BRANCH   1  10
ATOM     10  C   UNL     1      44.817  11.818  22.014  1.00  0.00     0.000 C 
BRANCH  10  11
ATOM     11  C   UNL     1      45.608  10.640  21.416  1.00  0.00    -0.000 C 
BRANCH  11  12
ATOM     12  C   UNL     1      44.733   9.398  21.169  1.00  0.00    -0.000 C 
BRANCH  12  13
ATOM     13  C   UNL     1      45.288   8.130  21.843  1.00  0.00    -0.000 C 
BRANCH  13  14
ATOM     14  C   UNL     1      45.508   8.241  23.362  1.00  0.00    -0.000 C 
BRANCH  14  15
ATOM     15  C   UNL     1      44.215   8.556  24.134  1.00  0.00    -0.000 C 
BRANCH  15  16
ATOM     16  C   UNL     1      44.479   9.345  25.426  1.00  0.00    -0.003 C 
ATOM     17  C   UNL     1      45.634  10.335  25.288  1.00  0.00     0.004 C 
ENDBRANCH  15  16
ENDBRANCH  14  15
ENDBRANCH  13  14
ENDBRANCH  12  13
ENDBRANCH  11  12
ENDBRANCH  10  11
ENDBRANCH   1  10
TORSDOF 13
ENDMDL
MODEL 7
REMARK VINA RESULT:    -3.598      1.281      2.711
REMARK INTER + INTRA:          -8.502
REMARK INTER:                  -7.006
REMARK INTRA:                  -1.496
REMARK UNBOUND:                -2.169
REMARK SMILES CCCCCCCCCCCCCCC(=O)[O-]
REMARK SMILES IDX 9 1 10 2 11 3 12 4 13 5 14 6 15 7 16 8 17 9 8 10 7 11 6 12
REMARK SMILES IDX 5 13 4 14 3 15 2 16 1 17
REMARK H PARENT
REMARK Flexibility Score: inf
ROOT
ATOM      1  C   UNL     1      41.439  13.262  23.563  1.00  0.00     0.000 C 
ENDROOT
BRANCH   1   2
ATOM      2  C   UNL     1      42.520  12.177  23.381  1.00  0.00     0.000 C 
BRANCH   2   3
ATOM      3  C   UNL     1      43.270  11.781  24.666  1.00  0.00     0.000 C 
BRANCH   3   4
ATOM      4  C   UNL     1      44.444  10.824  24.400  1.00  0.00     0.000 C 
BRANCH   4   5
ATOM      5  C   UNL     1      44.019   9.577  23.609  1.00  0.00     0.006 C 
BRANCH   5   6
ATOM      6  C   UNL     1      45.189   8.918  22.866  1.00  0.00     0.053 C 
BRANCH   6   7
ATOM      7  C   UNL     1      44.792   8.579  21.464  1.00  0.00     0.041 C 
ATOM      8  O   UNL     1      44.103   7.551  21.232  1.00  0.00    -0.550 OA
ATOM      9  O   UNL     1      45.141   9.426  20.420  1.00  0.00    -0.550 OA
ENDBRANCH   6   7
ENDBRANCH   5   6
ENDBRANCH   4   5
ENDBRANCH   3   4
ENDBRANCH   2   3
ENDBRANCH   1   2
BRANCH   1  10
ATOM     10  C   UNL     1      41.259  14.217  22.366  1.00  0.00     0.000 C 
BRANCH  10  11
ATOM     11  C   UNL     1      41.946  15.587  22.511  1.00  0.00    -0.000 C 
BRANCH  11  12
ATOM     12  C   UNL     1      41.866  16.434  21.229  1.00  0.00    -0.000 C 
BRANCH  12  13
ATOM     13  C   UNL     1      43.225  16.575  20.518  1.00  0.00    -0.000 C 
BRANCH  13  14
ATOM     14  C   UNL     1      44.456  16.302  21.401  1.00  0.00    -0.000 C 
BRANCH  14  15
ATOM     15  C   UNL     1      45.296  15.113  20.905  1.00  0.00    -0.000 C 
BRANCH  15  16
ATOM     16  C   UNL     1      45.519  14.054  21.996  1.00  0.00    -0.003 C 
ATOM     17  C   UNL     1      45.357  14.618  23.407  1.00  0.00     0.004 C 
ENDBRANCH  15  16
ENDBRANCH  14  15
ENDBRANCH  13  14
ENDBRANCH  12  13
ENDBRANCH  11  12
ENDBRANCH  10  11
ENDBRANCH   1  10
TORSDOF 13
ENDMDL
MODEL 8
REMARK VINA RESULT:    -3.578      1.590      3.553
REMARK INTER + INTRA:          -8.466
REMARK INTER:                  -7.202
REMARK INTRA:                  -1.264
REMARK UNBOUND:                -2.169
REMARK SMILES CCCCCCCCCCCCCCC(=O)[O-]
REMARK SMILES IDX 9 1 10 2 11 3 12 4 13 5 14 6 15 7 16 8 17 9 8 10 7 11 6 12
REMARK SMILES IDX 5 13 4 14 3 15 2 16 1 17
REMARK H PARENT
REMARK Flexibility Score: inf
ROOT
ATOM      1  C   UNL     1      44.774  16.733  21.710  1.00  0.00     0.000 C 
ENDROOT
BRANCH   1   2
ATOM      2  C   UNL     1      46.102  15.962  21.573  1.00  0.00     0.000 C 
BRANCH   2   3
ATOM      3  C   UNL     1      45.959  14.438  21.413  1.00  0.00     0.000 C 
BRANCH   3   4
ATOM      4  C   UNL     1      45.212  13.782  22.586  1.00  0.00     0.000 C 
BRANCH   4   5
ATOM      5  C   UNL     1      44.596  12.426  22.208  1.00  0.00     0.006 C 
BRANCH   5   6
ATOM      6  C   UNL     1      45.589  11.504  21.487  1.00  0.00     0.053 C 
BRANCH   6   7
ATOM      7  C   UNL     1      45.173  10.075  21.633  1.00  0.00     0.041 C 
ATOM      8  O   UNL     1      45.960   9.234  22.141  1.00  0.00    -0.550 OA
ATOM      9  O   UNL     1      43.896   9.681  21.252  1.00  0.00    -0.550 OA
ENDBRANCH   6   7
ENDBRANCH   5   6
ENDBRANCH   4   5
ENDBRANCH   3   4
ENDBRANCH   2   3
ENDBRANCH   1   2
BRANCH   1  10
ATOM     10  C   UNL     1      43.749  16.483  20.586  1.00  0.00     0.000 C 
BRANCH  10  11
ATOM     11  C   UNL     1      42.276  16.689  20.984  1.00  0.00    -0.000 C 
BRANCH  11  12
ATOM     12  C   UNL     1      41.578  15.378  21.388  1.00  0.00    -0.000 C 
BRANCH  12  13
ATOM     13  C   UNL     1      41.702  15.072  22.891  1.00  0.00    -0.000 C 
BRANCH  13  14
ATOM     14  C   UNL     1      41.251  13.661  23.310  1.00  0.00    -0.000 C 
BRANCH  14  15
ATOM     15  C   UNL     1      41.288  13.448  24.834  1.00  0.00    -0.000 C 
BRANCH  15  16
ATOM     16  C   UNL     1      40.879  12.024  25.239  1.00  0.00    -0.003 C 
ATOM     17  C   UNL     1      39.518  11.976  25.931  1.00  0.00     0.004 C 
ENDBRANCH  15  16
ENDBRANCH  14  15
ENDBRANCH  13  14
ENDBRANCH  12  13
ENDBRANCH  11  12
ENDBRANCH  10  11
ENDBRANCH   1  10
TORSDOF 13
ENDMDL
MODEL 9
REMARK VINA RESULT:    -3.424      1.294      2.906
REMARK INTER + INTRA:          -8.196
REMARK INTER:                  -6.409
REMARK INTRA:                  -1.787
REMARK UNBOUND:                -2.169
REMARK SMILES CCCCCCCCCCCCCCC(=O)[O-]
REMARK SMILES IDX 9 1 10 2 11 3 12 4 13 5 14 6 15 7 16 8 17 9 8 10 7 11 6 12
REMARK SMILES IDX 5 13 4 14 3 15 2 16 1 17
REMARK H PARENT
REMARK Flexibility Score: inf
ROOT
ATOM      1  C   UNL     1      40.864  13.014  23.844  1.00  0.00     0.000 C 
ENDROOT
BRANCH   1   2
ATOM      2  C   UNL     1      41.223  12.455  25.235  1.00  0.00     0.000 C 
BRANCH   2   3
ATOM      3  C   UNL     1      42.705  12.084  25.427  1.00  0.00     0.000 C 
BRANCH   3   4
ATOM      4  C   UNL     1      43.054  10.702  24.850  1.00  0.00     0.000 C 
BRANCH   4   5
ATOM      5  C   UNL     1      44.329  10.726  23.994  1.00  0.00     0.006 C 
BRANCH   5   6
ATOM      6  C   UNL     1      44.039  10.607  22.492  1.00  0.00     0.053 C 
BRANCH   6   7
ATOM      7  C   UNL     1      45.135   9.853  21.807  1.00  0.00     0.041 C 
ATOM      8  O   UNL     1      46.107   9.407  22.470  1.00  0.00    -0.550 OA
ATOM      9  O   UNL     1      45.057   9.602  20.443  1.00  0.00    -0.550 OA
ENDBRANCH   6   7
ENDBRANCH   5   6
ENDBRANCH   4   5
ENDBRANCH   3   4
ENDBRANCH   2   3
ENDBRANCH   1   2
BRANCH   1  10
ATOM     10  C   UNL     1      41.929  13.929  23.207  1.00  0.00     0.000 C 
BRANCH  10  11
ATOM     11  C   UNL     1      42.237  15.219  23.989  1.00  0.00    -0.000 C 
BRANCH  11  12
ATOM     12  C   UNL     1      43.746  15.463  24.169  1.00  0.00    -0.000 C 
BRANCH  12  13
ATOM     13  C   UNL     1      44.611  14.533  23.298  1.00  0.00    -0.000 C 
BRANCH  13  14
ATOM     14  C   UNL     1      45.445  15.240  22.215  1.00  0.00    -0.000 C 
BRANCH  14  15
ATOM     15  C   UNL     1      44.823  16.568  21.751  1.00  0.00    -0.000 C 
BRANCH  15  16
ATOM     16  C   UNL     1      43.910  16.395  20.527  1.00  0.00    -0.003 C 
ATOM     17  C   UNL     1      42.458  16.774  20.817  1.00  0.00     0.004 C 
ENDBRANCH  15  16
ENDBRANCH  14  15
ENDBRANCH  13  14
ENDBRANCH  12  13
ENDBRANCH  11  12
ENDBRANCH  10  11
ENDBRANCH   1  10
TORSDOF 13
ENDMDL
