MODEL 1
REMARK VINA RESULT:    -4.933      0.000      0.000
REMARK INTER + INTRA:          -6.269
REMARK INTER:                  -6.087
REMARK INTRA:                  -0.182
REMARK UNBOUND:                -0.182
REMARK SMILES Oc1cc(O)c2cc(O)c(-c3cc(O)c(O)c(O)c3)[o+]c2c1
REMARK SMILES IDX 10 1 20 2 21 3 22 4 2 5 3 6 4 7 6 8 7 9 8 10 11 11 12 12
REMARK SMILES IDX 13 13 19 14 15 15 17 16 14 17 16 19 18 21 9 23 1 25 5 27
REMARK H PARENT 14 18 16 20 18 22 9 24 1 26 5 28
REMARK Flexibility Score: inf
ROOT
ATOM      1  C   UNL     1      -7.967  32.297  36.299  1.00  0.00     0.402 A 
ATOM      2  O   UNL     1      -7.637  32.546  35.033  1.00  0.00    -0.202 OA
ATOM      3  C   UNL     1      -7.818  33.728  34.452  1.00  0.00     0.368 A 
ATOM      4  C   UNL     1      -7.450  33.906  33.115  1.00  0.00     0.162 A 
ATOM      5  C   UNL     1      -7.637  35.143  32.492  1.00  0.00     0.128 A 
ATOM      6  C   UNL     1      -8.197  36.209  33.209  1.00  0.00     0.093 A 
ATOM      7  C   UNL     1      -8.571  36.046  34.551  1.00  0.00     0.136 A 
ATOM      8  C   UNL     1      -8.381  34.800  35.178  1.00  0.00     0.125 A 
ATOM      9  C   UNL     1      -8.727  34.581  36.516  1.00  0.00     0.078 A 
ATOM     10  C   UNL     1      -8.512  33.327  37.093  1.00  0.00     0.223 A 
ENDROOT
BRANCH   1  11
ATOM     11  C   UNL     1      -7.726  30.936  36.832  1.00  0.00     0.091 A 
ATOM     12  C   UNL     1      -6.817  30.759  37.885  1.00  0.00     0.068 A 
ATOM     13  C   UNL     1      -6.549  29.485  38.400  1.00  0.00     0.162 A 
ATOM     14  C   UNL     1      -8.345  29.810  36.269  1.00  0.00     0.068 A 
ATOM     15  C   UNL     1      -7.195  28.357  37.841  1.00  0.00     0.200 A 
ATOM     16  C   UNL     1      -8.086  28.530  36.774  1.00  0.00     0.162 A 
BRANCH  13  17
ATOM     17  O   UNL     1      -5.642  29.390  39.458  1.00  0.00    -0.504 OA
ATOM     18  H   UNL     1      -5.817  29.745  40.387  1.00  0.00     0.293 HD
ENDBRANCH  13  17
BRANCH  15  19
ATOM     19  O   UNL     1      -6.978  27.059  38.312  1.00  0.00    -0.502 OA
ATOM     20  H   UNL     1      -7.715  26.392  38.491  1.00  0.00     0.293 HD
ENDBRANCH  15  19
BRANCH  16  21
ATOM     21  O   UNL     1      -8.711  27.417  36.213  1.00  0.00    -0.504 OA
ATOM     22  H   UNL     1      -9.052  27.423  35.258  1.00  0.00     0.293 HD
ENDBRANCH  16  21
ENDBRANCH   1  11
BRANCH  10  23
ATOM     23  O   UNL     1      -8.808  33.116  38.439  1.00  0.00    -0.500 OA
ATOM     24  H   UNL     1      -9.736  33.281  38.812  1.00  0.00     0.294 HD
ENDBRANCH  10  23
BRANCH   5  25
ATOM     25  O   UNL     1      -7.265  35.302  31.159  1.00  0.00    -0.507 OA
ATOM     26  H   UNL     1      -6.291  35.304  30.878  1.00  0.00     0.293 HD
ENDBRANCH   5  25
BRANCH   7  27
ATOM     27  O   UNL     1      -9.125  37.116  35.255  1.00  0.00    -0.507 OA
ATOM     28  H   UNL     1      -9.487  37.933  34.780  1.00  0.00     0.293 HD
ENDBRANCH   7  27
TORSDOF 7
ENDMDL
MODEL 2
REMARK VINA RESULT:    -4.827      2.063      7.690
REMARK INTER + INTRA:          -6.138
REMARK INTER:                  -5.914
REMARK INTRA:                  -0.223
REMARK UNBOUND:                -0.182
REMARK SMILES Oc1cc(O)c2cc(O)c(-c3cc(O)c(O)c(O)c3)[o+]c2c1
REMARK SMILES IDX 10 1 20 2 21 3 22 4 2 5 3 6 4 7 6 8 7 9 8 10 11 11 12 12
REMARK SMILES IDX 13 13 19 14 15 15 17 16 14 17 16 19 18 21 9 23 1 25 5 27
REMARK H PARENT 14 18 16 20 18 22 9 24 1 26 5 28
REMARK Flexibility Score: inf
ROOT
ATOM      1  C   UNL     1      -7.317  29.294  37.275  1.00  0.00     0.402 A 
ATOM      2  O   UNL     1      -7.974  28.299  36.682  1.00  0.00    -0.202 OA
ATOM      3  C   UNL     1      -7.807  27.020  37.007  1.00  0.00     0.368 A 
ATOM      4  C   UNL     1      -8.532  26.034  36.332  1.00  0.00     0.162 A 
ATOM      5  C   UNL     1      -8.364  24.686  36.662  1.00  0.00     0.128 A 
ATOM      6  C   UNL     1      -7.464  24.321  37.674  1.00  0.00     0.093 A 
ATOM      7  C   UNL     1      -6.731  25.300  38.361  1.00  0.00     0.136 A 
ATOM      8  C   UNL     1      -6.901  26.656  38.028  1.00  0.00     0.125 A 
ATOM      9  C   UNL     1      -6.203  27.676  38.684  1.00  0.00     0.078 A 
ATOM     10  C   UNL     1      -6.413  29.009  38.320  1.00  0.00     0.223 A 
ENDROOT
BRANCH   1  11
ATOM     11  C   UNL     1      -7.581  30.678  36.819  1.00  0.00     0.091 A 
ATOM     12  C   UNL     1      -8.216  31.580  37.684  1.00  0.00     0.068 A 
ATOM     13  C   UNL     1      -8.500  32.890  37.279  1.00  0.00     0.162 A 
ATOM     14  C   UNL     1      -7.259  31.093  35.518  1.00  0.00     0.068 A 
ATOM     15  C   UNL     1      -8.152  33.307  35.973  1.00  0.00     0.200 A 
ATOM     16  C   UNL     1      -7.537  32.400  35.099  1.00  0.00     0.162 A 
BRANCH  13  17
ATOM     17  O   UNL     1      -9.124  33.733  38.201  1.00  0.00    -0.504 OA
ATOM     18  H   UNL     1      -8.715  34.587  38.554  1.00  0.00     0.293 HD
ENDBRANCH  13  17
BRANCH  15  19
ATOM     19  O   UNL     1      -8.400  34.601  35.507  1.00  0.00    -0.502 OA
ATOM     20  H   UNL     1      -9.161  35.182  35.828  1.00  0.00     0.293 HD
ENDBRANCH  15  19
BRANCH  16  21
ATOM     21  O   UNL     1      -7.207  32.806  33.806  1.00  0.00    -0.504 OA
ATOM     22  H   UNL     1      -6.335  32.530  33.369  1.00  0.00     0.293 HD
ENDBRANCH  16  21
ENDBRANCH   1  11
BRANCH  10  23
ATOM     23  O   UNL     1      -5.758  30.033  39.003  1.00  0.00    -0.500 OA
ATOM     24  H   UNL     1      -6.217  30.561  39.736  1.00  0.00     0.294 HD
ENDBRANCH  10  23
BRANCH   5  25
ATOM     25  O   UNL     1      -9.094  23.717  35.979  1.00  0.00    -0.507 OA
ATOM     26  H   UNL     1      -8.913  23.507  35.004  1.00  0.00     0.293 HD
ENDBRANCH   5  25
BRANCH   7  27
ATOM     27  O   UNL     1      -5.841  24.924  39.367  1.00  0.00    -0.507 OA
ATOM     28  H   UNL     1      -4.839  25.000  39.246  1.00  0.00     0.293 HD
ENDBRANCH   7  27
TORSDOF 7
ENDMDL
MODEL 3
REMARK VINA RESULT:    -4.658      1.446      7.189
REMARK INTER + INTRA:          -5.929
REMARK INTER:                  -5.776
REMARK INTRA:                  -0.153
REMARK UNBOUND:                -0.182
REMARK SMILES Oc1cc(O)c2cc(O)c(-c3cc(O)c(O)c(O)c3)[o+]c2c1
REMARK SMILES IDX 10 1 20 2 21 3 22 4 2 5 3 6 4 7 6 8 7 9 8 10 11 11 12 12
REMARK SMILES IDX 13 13 19 14 15 15 17 16 14 17 16 19 18 21 9 23 1 25 5 27
REMARK H PARENT 14 18 16 20 18 22 9 24 1 26 5 28
REMARK Flexibility Score: inf
ROOT
ATOM      1  C   UNL     1      -7.559  31.295  36.474  1.00  0.00     0.402 A 
ATOM      2  O   UNL     1      -8.133  30.172  36.047  1.00  0.00    -0.202 OA
ATOM      3  C   UNL     1      -7.991  29.002  36.662  1.00  0.00     0.368 A 
ATOM      4  C   UNL     1      -8.624  27.867  36.145  1.00  0.00     0.162 A 
ATOM      5  C   UNL     1      -8.481  26.630  36.781  1.00  0.00     0.128 A 
ATOM      6  C   UNL     1      -7.699  26.526  37.940  1.00  0.00     0.093 A 
ATOM      7  C   UNL     1      -7.058  27.656  38.470  1.00  0.00     0.136 A 
ATOM      8  C   UNL     1      -7.204  28.901  37.830  1.00  0.00     0.125 A 
ATOM      9  C   UNL     1      -6.595  30.063  38.317  1.00  0.00     0.078 A 
ATOM     10  C   UNL     1      -6.777  31.276  37.647  1.00  0.00     0.223 A 
ENDROOT
BRANCH   1  11
ATOM     11  C   UNL     1      -7.783  32.536  35.697  1.00  0.00     0.091 A 
ATOM     12  C   UNL     1      -7.361  32.600  34.362  1.00  0.00     0.068 A 
ATOM     13  C   UNL     1      -7.539  33.764  33.604  1.00  0.00     0.162 A 
ATOM     14  C   UNL     1      -8.360  33.672  36.285  1.00  0.00     0.068 A 
ATOM     15  C   UNL     1      -8.142  34.897  34.198  1.00  0.00     0.200 A 
ATOM     16  C   UNL     1      -8.544  34.842  35.539  1.00  0.00     0.162 A 
BRANCH  13  17
ATOM     17  O   UNL     1      -7.103  33.747  32.277  1.00  0.00    -0.504 OA
ATOM     18  H   UNL     1      -7.716  33.840  31.479  1.00  0.00     0.293 HD
ENDBRANCH  13  17
BRANCH  15  19
ATOM     19  O   UNL     1      -8.355  36.087  33.497  1.00  0.00    -0.502 OA
ATOM     20  H   UNL     1      -8.018  36.990  33.799  1.00  0.00     0.293 HD
ENDBRANCH  15  19
BRANCH  16  21
ATOM     21  O   UNL     1      -9.125  35.965  36.129  1.00  0.00    -0.504 OA
ATOM     22  H   UNL     1     -10.100  35.975  36.406  1.00  0.00     0.293 HD
ENDBRANCH  16  21
ENDBRANCH   1  11
BRANCH  10  23
ATOM     23  O   UNL     1      -6.215  32.446  38.155  1.00  0.00    -0.500 OA
ATOM     24  H   UNL     1      -6.326  33.337  37.684  1.00  0.00     0.294 HD
ENDBRANCH  10  23
BRANCH   5  25
ATOM     25  O   UNL     1      -9.119  25.510  36.253  1.00  0.00    -0.507 OA
ATOM     26  H   UNL     1      -8.877  25.145  35.339  1.00  0.00     0.293 HD
ENDBRANCH   5  25
BRANCH   7  27
ATOM     27  O   UNL     1      -6.285  27.540  39.625  1.00  0.00    -0.507 OA
ATOM     28  H   UNL     1      -6.704  27.530  40.546  1.00  0.00     0.293 HD
ENDBRANCH   7  27
TORSDOF 7
ENDMDL
MODEL 4
REMARK VINA RESULT:    -4.359      2.569      4.520
REMARK INTER + INTRA:          -5.560
REMARK INTER:                  -5.195
REMARK INTRA:                  -0.365
REMARK UNBOUND:                -0.182
REMARK SMILES Oc1cc(O)c2cc(O)c(-c3cc(O)c(O)c(O)c3)[o+]c2c1
REMARK SMILES IDX 10 1 20 2 21 3 22 4 2 5 3 6 4 7 6 8 7 9 8 10 11 11 12 12
REMARK SMILES IDX 13 13 19 14 15 15 17 16 14 17 16 19 18 21 9 23 1 25 5 27
REMARK H PARENT 14 18 16 20 18 22 9 24 1 26 5 28
REMARK Flexibility Score: inf
ROOT
ATOM      1  C   UNL     1      -7.873  28.062  37.386  1.00  0.00     0.402 A 
ATOM      2  O   UNL     1      -7.520  28.829  36.356  1.00  0.00    -0.202 OA
ATOM      3  C   UNL     1      -7.708  30.145  36.329  1.00  0.00     0.368 A 
ATOM      4  C   UNL     1      -7.314  30.878  35.206  1.00  0.00     0.162 A 
ATOM      5  C   UNL     1      -7.508  32.262  35.164  1.00  0.00     0.128 A 
ATOM      6  C   UNL     1      -8.101  32.918  36.252  1.00  0.00     0.093 A 
ATOM      7  C   UNL     1      -8.501  32.195  37.386  1.00  0.00     0.136 A 
ATOM      8  C   UNL     1      -8.304  30.803  37.428  1.00  0.00     0.125 A 
ATOM      9  C   UNL     1      -8.676  30.032  38.535  1.00  0.00     0.078 A 
ATOM     10  C   UNL     1      -8.453  28.652  38.529  1.00  0.00     0.223 A 
ENDROOT
BRANCH   1  11
ATOM     11  C   UNL     1      -7.622  26.606  37.295  1.00  0.00     0.091 A 
ATOM     12  C   UNL     1      -6.448  26.073  37.847  1.00  0.00     0.068 A 
ATOM     13  C   UNL     1      -6.167  24.704  37.761  1.00  0.00     0.162 A 
ATOM     14  C   UNL     1      -8.505  25.752  36.618  1.00  0.00     0.068 A 
ATOM     15  C   UNL     1      -7.074  23.847  37.096  1.00  0.00     0.200 A 
ATOM     16  C   UNL     1      -8.237  24.381  36.524  1.00  0.00     0.162 A 
BRANCH  13  17
ATOM     17  O   UNL     1      -4.984  24.246  38.345  1.00  0.00    -0.504 OA
ATOM     18  H   UNL     1      -4.881  23.339  38.777  1.00  0.00     0.293 HD
ENDBRANCH  13  17
BRANCH  15  19
ATOM     19  O   UNL     1      -6.859  22.471  36.980  1.00  0.00    -0.502 OA
ATOM     20  H   UNL     1      -6.033  22.059  36.569  1.00  0.00     0.293 HD
ENDBRANCH  15  19
BRANCH  16  21
ATOM     21  O   UNL     1      -9.125  23.538  35.856  1.00  0.00    -0.504 OA
ATOM     22  H   UNL     1      -9.336  23.661  34.872  1.00  0.00     0.293 HD
ENDBRANCH  16  21
ENDBRANCH   1  11
BRANCH  10  23
ATOM     23  O   UNL     1      -8.775  27.886  39.648  1.00  0.00    -0.500 OA
ATOM     24  H   UNL     1      -8.996  26.900  39.571  1.00  0.00     0.294 HD
ENDBRANCH  10  23
BRANCH   5  25
ATOM     25  O   UNL     1      -7.109  32.976  34.037  1.00  0.00    -0.507 OA
ATOM     26  H   UNL     1      -7.409  33.932  33.883  1.00  0.00     0.293 HD
ENDBRANCH   5  25
BRANCH   7  27
ATOM     27  O   UNL     1      -9.088  32.860  38.463  1.00  0.00    -0.507 OA
ATOM     28  H   UNL     1      -8.582  33.027  39.324  1.00  0.00     0.293 HD
ENDBRANCH   7  27
TORSDOF 7
ENDMDL
MODEL 5
REMARK VINA RESULT:    -4.316      1.724      3.672
REMARK INTER + INTRA:          -5.507
REMARK INTER:                  -5.417
REMARK INTRA:                  -0.090
REMARK UNBOUND:                -0.182
REMARK SMILES Oc1cc(O)c2cc(O)c(-c3cc(O)c(O)c(O)c3)[o+]c2c1
REMARK SMILES IDX 10 1 20 2 21 3 22 4 2 5 3 6 4 7 6 8 7 9 8 10 11 11 12 12
REMARK SMILES IDX 13 13 19 14 15 15 17 16 14 17 16 19 18 21 9 23 1 25 5 27
REMARK H PARENT 14 18 16 20 18 22 9 24 1 26 5 28
REMARK Flexibility Score: inf
ROOT
ATOM      1  C   UNL     1      -7.586  31.111  36.903  1.00  0.00     0.402 A 
ATOM      2  O   UNL     1      -7.913  32.052  37.787  1.00  0.00    -0.202 OA
ATOM      3  C   UNL     1      -8.183  33.309  37.447  1.00  0.00     0.368 A 
ATOM      4  C   UNL     1      -8.514  34.238  38.437  1.00  0.00     0.162 A 
ATOM      5  C   UNL     1      -8.797  35.564  38.093  1.00  0.00     0.128 A 
ATOM      6  C   UNL     1      -8.749  35.963  36.750  1.00  0.00     0.093 A 
ATOM      7  C   UNL     1      -8.419  35.041  35.745  1.00  0.00     0.136 A 
ATOM      8  C   UNL     1      -8.135  33.707  36.093  1.00  0.00     0.125 A 
ATOM      9  C   UNL     1      -7.809  32.742  35.133  1.00  0.00     0.078 A 
ATOM     10  C   UNL     1      -7.541  31.429  35.530  1.00  0.00     0.223 A 
ENDROOT
BRANCH   1  11
ATOM     11  C   UNL     1      -7.297  29.748  37.405  1.00  0.00     0.091 A 
ATOM     12  C   UNL     1      -8.025  28.660  36.902  1.00  0.00     0.068 A 
ATOM     13  C   UNL     1      -7.793  27.360  37.368  1.00  0.00     0.162 A 
ATOM     14  C   UNL     1      -6.350  29.526  38.416  1.00  0.00     0.068 A 
ATOM     15  C   UNL     1      -6.820  27.142  38.372  1.00  0.00     0.200 A 
ATOM     16  C   UNL     1      -6.108  28.232  38.891  1.00  0.00     0.162 A 
BRANCH  13  17
ATOM     17  O   UNL     1      -8.548  26.326  36.811  1.00  0.00    -0.504 OA
ATOM     18  H   UNL     1      -8.154  25.550  36.299  1.00  0.00     0.293 HD
ENDBRANCH  13  17
BRANCH  15  19
ATOM     19  O   UNL     1      -6.534  25.871  38.876  1.00  0.00    -0.502 OA
ATOM     20  H   UNL     1      -5.777  25.288  38.548  1.00  0.00     0.293 HD
ENDBRANCH  15  19
BRANCH  16  21
ATOM     21  O   UNL     1      -5.159  28.019  39.891  1.00  0.00    -0.504 OA
ATOM     22  H   UNL     1      -4.245  27.634  39.683  1.00  0.00     0.293 HD
ENDBRANCH  16  21
ENDBRANCH   1  11
BRANCH  10  23
ATOM     23  O   UNL     1      -7.264  30.452  34.575  1.00  0.00    -0.500 OA
ATOM     24  H   UNL     1      -7.952  29.758  34.310  1.00  0.00     0.294 HD
ENDBRANCH  10  23
BRANCH   5  25
ATOM     25  O   UNL     1      -9.125  36.476  39.093  1.00  0.00    -0.507 OA
ATOM     26  H   UNL     1      -8.777  36.373  40.039  1.00  0.00     0.293 HD
ENDBRANCH   5  25
BRANCH   7  27
ATOM     27  O   UNL     1      -8.377  35.449  34.412  1.00  0.00    -0.507 OA
ATOM     28  H   UNL     1      -8.216  34.791  33.659  1.00  0.00     0.293 HD
ENDBRANCH   7  27
TORSDOF 7
ENDMDL
MODEL 6
REMARK VINA RESULT:    -4.282      2.552      4.825
REMARK INTER + INTRA:          -5.465
REMARK INTER:                  -5.117
REMARK INTRA:                  -0.348
REMARK UNBOUND:                -0.182
REMARK SMILES Oc1cc(O)c2cc(O)c(-c3cc(O)c(O)c(O)c3)[o+]c2c1
REMARK SMILES IDX 10 1 20 2 21 3 22 4 2 5 3 6 4 7 6 8 7 9 8 10 11 11 12 12
REMARK SMILES IDX 13 13 19 14 15 15 17 16 14 17 16 19 18 21 9 23 1 25 5 27
REMARK H PARENT 14 18 16 20 18 22 9 24 1 26 5 28
REMARK Flexibility Score: inf
ROOT
ATOM      1  C   UNL     1      -7.791  28.084  37.398  1.00  0.00     0.402 A 
ATOM      2  O   UNL     1      -7.466  28.853  36.360  1.00  0.00    -0.202 OA
ATOM      3  C   UNL     1      -7.689  30.164  36.327  1.00  0.00     0.368 A 
ATOM      4  C   UNL     1      -7.323  30.900  35.196  1.00  0.00     0.162 A 
ATOM      5  C   UNL     1      -7.554  32.278  35.147  1.00  0.00     0.128 A 
ATOM      6  C   UNL     1      -8.156  32.924  36.235  1.00  0.00     0.093 A 
ATOM      7  C   UNL     1      -8.529  32.199  37.377  1.00  0.00     0.136 A 
ATOM      8  C   UNL     1      -8.295  30.812  37.425  1.00  0.00     0.125 A 
ATOM      9  C   UNL     1      -8.637  30.039  38.540  1.00  0.00     0.078 A 
ATOM     10  C   UNL     1      -8.378  28.666  38.540  1.00  0.00     0.223 A 
ENDROOT
BRANCH   1  11
ATOM     11  C   UNL     1      -7.501  26.634  37.313  1.00  0.00     0.091 A 
ATOM     12  C   UNL     1      -8.399  25.790  36.644  1.00  0.00     0.068 A 
ATOM     13  C   UNL     1      -8.168  24.411  36.562  1.00  0.00     0.162 A 
ATOM     14  C   UNL     1      -6.375  26.076  37.936  1.00  0.00     0.068 A 
ATOM     15  C   UNL     1      -7.018  23.859  37.174  1.00  0.00     0.200 A 
ATOM     16  C   UNL     1      -6.132  24.699  37.862  1.00  0.00     0.162 A 
BRANCH  13  17
ATOM     17  O   UNL     1      -9.101  23.637  35.869  1.00  0.00    -0.504 OA
ATOM     18  H   UNL     1      -9.893  24.017  35.370  1.00  0.00     0.293 HD
ENDBRANCH  13  17
BRANCH  15  19
ATOM     19  O   UNL     1      -6.724  22.494  37.124  1.00  0.00    -0.502 OA
ATOM     20  H   UNL     1      -5.805  22.120  36.937  1.00  0.00     0.293 HD
ENDBRANCH  15  19
BRANCH  16  21
ATOM     21  O   UNL     1      -5.006  24.153  38.478  1.00  0.00    -0.504 OA
ATOM     22  H   UNL     1      -4.170  23.925  37.952  1.00  0.00     0.293 HD
ENDBRANCH  16  21
ENDBRANCH   1  11
BRANCH  10  23
ATOM     23  O   UNL     1      -8.671  27.898  39.667  1.00  0.00    -0.500 OA
ATOM     24  H   UNL     1      -7.940  27.504  40.246  1.00  0.00     0.294 HD
ENDBRANCH  10  23
BRANCH   5  25
ATOM     25  O   UNL     1      -7.182  32.995  34.013  1.00  0.00    -0.507 OA
ATOM     26  H   UNL     1      -7.842  33.185  33.267  1.00  0.00     0.293 HD
ENDBRANCH   5  25
BRANCH   7  27
ATOM     27  O   UNL     1      -9.125  32.854  38.454  1.00  0.00    -0.507 OA
ATOM     28  H   UNL     1     -10.014  33.330  38.361  1.00  0.00     0.293 HD
ENDBRANCH   7  27
TORSDOF 7
ENDMDL
MODEL 7
REMARK VINA RESULT:    -4.140      4.730      9.697
REMARK INTER + INTRA:          -5.289
REMARK INTER:                  -4.918
REMARK INTRA:                  -0.371
REMARK UNBOUND:                -0.182
REMARK SMILES Oc1cc(O)c2cc(O)c(-c3cc(O)c(O)c(O)c3)[o+]c2c1
REMARK SMILES IDX 10 1 20 2 21 3 22 4 2 5 3 6 4 7 6 8 7 9 8 10 11 11 12 12
REMARK SMILES IDX 13 13 19 14 15 15 17 16 14 17 16 19 18 21 9 23 1 25 5 27
REMARK H PARENT 14 18 16 20 18 22 9 24 1 26 5 28
REMARK Flexibility Score: inf
ROOT
ATOM      1  C   UNL     1      -7.256  25.490  38.051  1.00  0.00     0.402 A 
ATOM      2  O   UNL     1      -6.479  24.745  37.266  1.00  0.00    -0.202 OA
ATOM      3  C   UNL     1      -6.574  23.422  37.190  1.00  0.00     0.368 A 
ATOM      4  C   UNL     1      -5.716  22.713  36.344  1.00  0.00     0.162 A 
ATOM      5  C   UNL     1      -5.805  21.320  36.258  1.00  0.00     0.128 A 
ATOM      6  C   UNL     1      -6.756  20.631  37.023  1.00  0.00     0.093 A 
ATOM      7  C   UNL     1      -7.624  21.329  37.875  1.00  0.00     0.136 A 
ATOM      8  C   UNL     1      -7.535  22.731  37.961  1.00  0.00     0.125 A 
ATOM      9  C   UNL     1      -8.380  23.480  38.788  1.00  0.00     0.078 A 
ATOM     10  C   UNL     1      -8.254  24.871  38.832  1.00  0.00     0.223 A 
ENDROOT
BRANCH   1  11
ATOM     11  C   UNL     1      -7.048  26.956  38.056  1.00  0.00     0.091 A 
ATOM     12  C   UNL     1      -6.104  27.515  38.930  1.00  0.00     0.068 A 
ATOM     13  C   UNL     1      -5.895  28.898  38.977  1.00  0.00     0.162 A 
ATOM     14  C   UNL     1      -7.814  27.806  37.245  1.00  0.00     0.068 A 
ATOM     15  C   UNL     1      -6.656  29.747  38.140  1.00  0.00     0.200 A 
ATOM     16  C   UNL     1      -7.616  29.192  37.282  1.00  0.00     0.162 A 
BRANCH  13  17
ATOM     17  O   UNL     1      -4.929  29.379  39.864  1.00  0.00    -0.504 OA
ATOM     18  H   UNL     1      -3.963  29.083  39.863  1.00  0.00     0.293 HD
ENDBRANCH  13  17
BRANCH  15  19
ATOM     19  O   UNL     1      -6.494  31.135  38.131  1.00  0.00    -0.502 OA
ATOM     20  H   UNL     1      -6.412  31.691  37.292  1.00  0.00     0.293 HD
ENDBRANCH  15  19
BRANCH  16  21
ATOM     21  O   UNL     1      -8.377  30.030  36.467  1.00  0.00    -0.504 OA
ATOM     22  H   UNL     1      -7.979  30.855  36.035  1.00  0.00     0.293 HD
ENDBRANCH  16  21
ENDBRANCH   1  11
BRANCH  10  23
ATOM     23  O   UNL     1      -9.125  25.628  39.615  1.00  0.00    -0.500 OA
ATOM     24  H   UNL     1      -9.155  26.639  39.552  1.00  0.00     0.294 HD
ENDBRANCH  10  23
BRANCH   5  25
ATOM     25  O   UNL     1      -4.942  20.630  35.410  1.00  0.00    -0.507 OA
ATOM     26  H   UNL     1      -5.093  19.654  35.179  1.00  0.00     0.293 HD
ENDBRANCH   5  25
BRANCH   7  27
ATOM     27  O   UNL     1      -8.569  20.632  38.630  1.00  0.00    -0.507 OA
ATOM     28  H   UNL     1      -9.158  21.100  39.306  1.00  0.00     0.293 HD
ENDBRANCH   7  27
TORSDOF 7
ENDMDL
MODEL 8
REMARK VINA RESULT:    -2.544      4.965     10.173
REMARK INTER + INTRA:          -3.321
REMARK INTER:                  -2.994
REMARK INTRA:                  -0.327
REMARK UNBOUND:                -0.182
REMARK SMILES Oc1cc(O)c2cc(O)c(-c3cc(O)c(O)c(O)c3)[o+]c2c1
REMARK SMILES IDX 10 1 20 2 21 3 22 4 2 5 3 6 4 7 6 8 7 9 8 10 11 11 12 12
REMARK SMILES IDX 13 13 19 14 15 15 17 16 14 17 16 19 18 21 9 23 1 25 5 27
REMARK H PARENT 14 18 16 20 18 22 9 24 1 26 5 28
REMARK Flexibility Score: inf
ROOT
ATOM      1  C   UNL     1      -7.194  25.049  36.891  1.00  0.00     0.402 A 
ATOM      2  O   UNL     1      -7.704  24.189  37.771  1.00  0.00    -0.202 OA
ATOM      3  C   UNL     1      -7.857  22.893  37.519  1.00  0.00     0.368 A 
ATOM      4  C   UNL     1      -8.407  22.057  38.495  1.00  0.00     0.162 A 
ATOM      5  C   UNL     1      -8.575  20.693  38.242  1.00  0.00     0.128 A 
ATOM      6  C   UNL     1      -8.192  20.160  37.003  1.00  0.00     0.093 A 
ATOM      7  C   UNL     1      -7.638  20.986  36.014  1.00  0.00     0.136 A 
ATOM      8  C   UNL     1      -7.468  22.359  36.271  1.00  0.00     0.125 A 
ATOM      9  C   UNL     1      -6.914  23.229  35.325  1.00  0.00     0.078 A 
ATOM     10  C   UNL     1      -6.761  24.584  35.632  1.00  0.00     0.223 A 
ENDROOT
BRANCH   1  11
ATOM     11  C   UNL     1      -7.083  26.472  37.285  1.00  0.00     0.091 A 
ATOM     12  C   UNL     1      -6.148  26.846  38.261  1.00  0.00     0.068 A 
ATOM     13  C   UNL     1      -6.029  28.179  38.673  1.00  0.00     0.162 A 
ATOM     14  C   UNL     1      -7.932  27.449  36.744  1.00  0.00     0.068 A 
ATOM     15  C   UNL     1      -6.875  29.162  38.106  1.00  0.00     0.200 A 
ATOM     16  C   UNL     1      -7.825  28.785  37.147  1.00  0.00     0.162 A 
BRANCH  13  17
ATOM     17  O   UNL     1      -5.067  28.477  39.640  1.00  0.00    -0.504 OA
ATOM     18  H   UNL     1      -5.278  28.869  40.547  1.00  0.00     0.293 HD
ENDBRANCH  13  17
BRANCH  15  19
ATOM     19  O   UNL     1      -6.805  30.510  38.466  1.00  0.00    -0.502 OA
ATOM     20  H   UNL     1      -6.328  30.853  39.288  1.00  0.00     0.293 HD
ENDBRANCH  15  19
BRANCH  16  21
ATOM     21  O   UNL     1      -8.669  29.752  36.599  1.00  0.00    -0.504 OA
ATOM     22  H   UNL     1      -8.734  30.684  36.990  1.00  0.00     0.293 HD
ENDBRANCH  16  21
ENDBRANCH   1  11
BRANCH  10  23
ATOM     23  O   UNL     1      -6.164  25.446  34.714  1.00  0.00    -0.500 OA
ATOM     24  H   UNL     1      -6.157  25.244  33.721  1.00  0.00     0.294 HD
ENDBRANCH  10  23
BRANCH   5  25
ATOM     25  O   UNL     1      -9.125  19.875  39.226  1.00  0.00    -0.507 OA
ATOM     26  H   UNL     1      -8.809  19.920  40.189  1.00  0.00     0.293 HD
ENDBRANCH   5  25
BRANCH   7  27
ATOM     27  O   UNL     1      -7.258  20.443  34.786  1.00  0.00    -0.507 OA
ATOM     28  H   UNL     1      -6.766  19.560  34.725  1.00  0.00     0.293 HD
ENDBRANCH   7  27
TORSDOF 7
ENDMDL
