MODEL 1
REMARK VINA RESULT:    -4.084      0.000      0.000
REMARK INTER + INTRA:          -4.631
REMARK INTER:                  -4.561
REMARK INTRA:                  -0.070
REMARK UNBOUND:                -0.070
REMARK SMILES COc1cc2ccc(=O)oc2c(O)c1O
REMARK SMILES IDX 3 1 14 2 12 3 11 4 5 5 4 6 6 7 7 8 8 9 9 10 10 11 2 12 1 13
REMARK SMILES IDX 15 14 13 16
REMARK H PARENT 15 15 13 17
REMARK Flexibility Score: inf
ROOT
ATOM      1  C   UNL     1     129.358   3.802 140.614  1.00  0.00     0.165 A 
ATOM      2  C   UNL     1     128.615   4.898 141.080  1.00  0.00     0.204 A 
ATOM      3  C   UNL     1     129.261   5.992 141.687  1.00  0.00     0.205 A 
ATOM      4  C   UNL     1     130.659   5.986 141.827  1.00  0.00     0.184 A 
ATOM      5  C   UNL     1     131.407   4.885 141.359  1.00  0.00     0.025 A 
ATOM      6  C   UNL     1     130.759   3.800 140.756  1.00  0.00     0.062 A 
ATOM      7  C   UNL     1     132.798   4.908 141.512  1.00  0.00     0.020 A 
ATOM      8  C   UNL     1     133.403   6.008 142.118  1.00  0.00     0.094 A 
ATOM      9  C   UNL     1     132.600   7.063 142.559  1.00  0.00     0.336 A 
ATOM     10  O   UNL     1     133.126   8.067 143.108  1.00  0.00    -0.246 OA
ATOM     11  O   UNL     1     131.279   7.016 142.401  1.00  0.00    -0.419 OA
ENDROOT
BRANCH   1  12
ATOM     12  O   UNL     1     128.668   2.735 140.016  1.00  0.00    -0.493 OA
ATOM     13  C   UNL     1     128.643   2.474 138.616  1.00  0.00     0.278 C 
ENDBRANCH   1  12
BRANCH   2  14
ATOM     14  O   UNL     1     127.228   4.884 140.931  1.00  0.00    -0.502 OA
ATOM     15  H   UNL     1     126.645   5.660 141.223  1.00  0.00     0.293 HD
ENDBRANCH   2  14
BRANCH   3  16
ATOM     16  O   UNL     1     128.505   7.071 142.143  1.00  0.00    -0.502 OA
ATOM     17  H   UNL     1     128.640   8.013 141.794  1.00  0.00     0.293 HD
ENDBRANCH   3  16
TORSDOF 3
ENDMDL
MODEL 2
REMARK VINA RESULT:    -3.989     14.389     16.401
REMARK INTER + INTRA:          -4.525
REMARK INTER:                  -4.474
REMARK INTRA:                  -0.051
REMARK UNBOUND:                -0.070
REMARK SMILES COc1cc2ccc(=O)oc2c(O)c1O
REMARK SMILES IDX 3 1 14 2 12 3 11 4 5 5 4 6 6 7 7 8 8 9 9 10 10 11 2 12 1 13
REMARK SMILES IDX 15 14 13 16
REMARK H PARENT 15 15 13 17
REMARK Flexibility Score: inf
ROOT
ATOM      1  C   UNL     1     124.755  17.434 150.705  1.00  0.00     0.165 A 
ATOM      2  C   UNL     1     124.004  17.391 151.890  1.00  0.00     0.204 A 
ATOM      3  C   UNL     1     123.141  16.310 152.149  1.00  0.00     0.205 A 
ATOM      4  C   UNL     1     123.030  15.267 151.215  1.00  0.00     0.184 A 
ATOM      5  C   UNL     1     123.785  15.308 150.023  1.00  0.00     0.025 A 
ATOM      6  C   UNL     1     124.642  16.387 149.771  1.00  0.00     0.062 A 
ATOM      7  C   UNL     1     123.655  14.255 149.111  1.00  0.00     0.020 A 
ATOM      8  C   UNL     1     122.790  13.201 149.402  1.00  0.00     0.094 A 
ATOM      9  C   UNL     1     122.073  13.225 150.601  1.00  0.00     0.336 A 
ATOM     10  O   UNL     1     121.287  12.282 150.883  1.00  0.00    -0.246 OA
ATOM     11  O   UNL     1     122.216  14.239 151.451  1.00  0.00    -0.419 OA
ENDROOT
BRANCH   1  12
ATOM     12  O   UNL     1     125.602  18.534 150.493  1.00  0.00    -0.493 OA
ATOM     13  C   UNL     1     126.550  18.631 149.434  1.00  0.00     0.278 C 
ENDBRANCH   1  12
BRANCH   2  14
ATOM     14  O   UNL     1     124.128  18.437 152.805  1.00  0.00    -0.502 OA
ATOM     15  H   UNL     1     125.029  18.814 153.078  1.00  0.00     0.293 HD
ENDBRANCH   2  14
BRANCH   3  16
ATOM     16  O   UNL     1     122.403  16.286 153.333  1.00  0.00    -0.502 OA
ATOM     17  H   UNL     1     122.259  17.115 153.897  1.00  0.00     0.293 HD
ENDBRANCH   3  16
TORSDOF 3
ENDMDL
MODEL 3
REMARK VINA RESULT:    -3.920     10.448     12.643
REMARK INTER + INTRA:          -4.448
REMARK INTER:                  -4.396
REMARK INTRA:                  -0.052
REMARK UNBOUND:                -0.070
REMARK SMILES COc1cc2ccc(=O)oc2c(O)c1O
REMARK SMILES IDX 3 1 14 2 12 3 11 4 5 5 4 6 6 7 7 8 8 9 9 10 10 11 2 12 1 13
REMARK SMILES IDX 15 14 13 16
REMARK H PARENT 15 15 13 17
REMARK Flexibility Score: inf
ROOT
ATOM      1  C   UNL     1     129.473  12.498 152.583  1.00  0.00     0.165 A 
ATOM      2  C   UNL     1     130.487  12.976 151.739  1.00  0.00     0.204 A 
ATOM      3  C   UNL     1     131.383  12.081 151.124  1.00  0.00     0.205 A 
ATOM      4  C   UNL     1     131.263  10.702 151.358  1.00  0.00     0.184 A 
ATOM      5  C   UNL     1     130.244  10.220 152.206  1.00  0.00     0.025 A 
ATOM      6  C   UNL     1     129.355  11.114 152.815  1.00  0.00     0.062 A 
ATOM      7  C   UNL     1     130.148   8.840 152.420  1.00  0.00     0.020 A 
ATOM      8  C   UNL     1     131.053   7.985 151.794  1.00  0.00     0.094 A 
ATOM      9  C   UNL     1     132.038   8.532 150.967  1.00  0.00     0.336 A 
ATOM     10  O   UNL     1     132.866   7.777 150.392  1.00  0.00    -0.246 OA
ATOM     11  O   UNL     1     132.107   9.847 150.780  1.00  0.00    -0.419 OA
ENDROOT
BRANCH   1  12
ATOM     12  O   UNL     1     128.603  13.430 153.173  1.00  0.00    -0.493 OA
ATOM     13  C   UNL     1     127.310  13.118 153.681  1.00  0.00     0.278 C 
ENDBRANCH   1  12
BRANCH   2  14
ATOM     14  O   UNL     1     130.590  14.350 151.519  1.00  0.00    -0.502 OA
ATOM     15  H   UNL     1     131.382  14.763 151.039  1.00  0.00     0.293 HD
ENDBRANCH   2  14
BRANCH   3  16
ATOM     16  O   UNL     1     132.385  12.576 150.288  1.00  0.00    -0.502 OA
ATOM     17  H   UNL     1     132.187  13.214 149.526  1.00  0.00     0.293 HD
ENDBRANCH   3  16
TORSDOF 3
ENDMDL
MODEL 4
REMARK VINA RESULT:    -3.882     17.783     19.187
REMARK INTER + INTRA:          -4.405
REMARK INTER:                  -4.336
REMARK INTRA:                  -0.070
REMARK UNBOUND:                -0.070
REMARK SMILES COc1cc2ccc(=O)oc2c(O)c1O
REMARK SMILES IDX 3 1 14 2 12 3 11 4 5 5 4 6 6 7 7 8 8 9 9 10 10 11 2 12 1 13
REMARK SMILES IDX 15 14 13 16
REMARK H PARENT 15 15 13 17
REMARK Flexibility Score: inf
ROOT
ATOM      1  C   UNL     1     116.896  17.861 147.286  1.00  0.00     0.165 A 
ATOM      2  C   UNL     1     117.219  17.346 146.021  1.00  0.00     0.204 A 
ATOM      3  C   UNL     1     116.841  16.038 145.665  1.00  0.00     0.205 A 
ATOM      4  C   UNL     1     116.136  15.241 146.583  1.00  0.00     0.184 A 
ATOM      5  C   UNL     1     115.811  15.757 147.855  1.00  0.00     0.025 A 
ATOM      6  C   UNL     1     116.190  17.060 148.203  1.00  0.00     0.062 A 
ATOM      7  C   UNL     1     115.108  14.941 148.748  1.00  0.00     0.020 A 
ATOM      8  C   UNL     1     114.751  13.650 148.361  1.00  0.00     0.094 A 
ATOM      9  C   UNL     1     115.106  13.204 147.085  1.00  0.00     0.336 A 
ATOM     10  O   UNL     1     114.793  12.042 146.715  1.00  0.00    -0.246 OA
ATOM     11  O   UNL     1     115.774  14.001 146.255  1.00  0.00    -0.419 OA
ENDROOT
BRANCH   1  12
ATOM     12  O   UNL     1     117.295  19.172 147.594  1.00  0.00    -0.493 OA
ATOM     13  C   UNL     1     118.407  19.504 148.419  1.00  0.00     0.278 C 
ENDBRANCH   1  12
BRANCH   2  14
ATOM     14  O   UNL     1     117.919  18.153 145.123  1.00  0.00    -0.502 OA
ATOM     15  H   UNL     1     118.769  17.843 144.666  1.00  0.00     0.293 HD
ENDBRANCH   2  14
BRANCH   3  16
ATOM     16  O   UNL     1     117.171  15.545 144.402  1.00  0.00    -0.502 OA
ATOM     17  H   UNL     1     117.826  16.019 143.791  1.00  0.00     0.293 HD
ENDBRANCH   3  16
TORSDOF 3
ENDMDL
MODEL 5
REMARK VINA RESULT:    -3.853      2.101      2.366
REMARK INTER + INTRA:          -4.373
REMARK INTER:                  -4.304
REMARK INTRA:                  -0.069
REMARK UNBOUND:                -0.070
REMARK SMILES COc1cc2ccc(=O)oc2c(O)c1O
REMARK SMILES IDX 3 1 14 2 12 3 11 4 5 5 4 6 6 7 7 8 8 9 9 10 10 11 2 12 1 13
REMARK SMILES IDX 15 14 13 16
REMARK H PARENT 15 15 13 17
REMARK Flexibility Score: inf
ROOT
ATOM      1  C   UNL     1     129.011   6.269 139.090  1.00  0.00     0.165 A 
ATOM      2  C   UNL     1     128.483   6.068 140.375  1.00  0.00     0.204 A 
ATOM      3  C   UNL     1     129.261   6.338 141.516  1.00  0.00     0.205 A 
ATOM      4  C   UNL     1     130.576   6.810 141.368  1.00  0.00     0.184 A 
ATOM      5  C   UNL     1     131.108   7.012 140.077  1.00  0.00     0.025 A 
ATOM      6  C   UNL     1     130.329   6.743 138.945  1.00  0.00     0.062 A 
ATOM      7  C   UNL     1     132.420   7.484 139.961  1.00  0.00     0.020 A 
ATOM      8  C   UNL     1     133.161   7.740 141.113  1.00  0.00     0.094 A 
ATOM      9  C   UNL     1     132.571   7.516 142.360  1.00  0.00     0.336 A 
ATOM     10  O   UNL     1     133.222   7.741 143.414  1.00  0.00    -0.246 OA
ATOM     11  O   UNL     1     131.321   7.067 142.442  1.00  0.00    -0.419 OA
ENDROOT
BRANCH   1  12
ATOM     12  O   UNL     1     128.194   5.986 137.983  1.00  0.00    -0.493 OA
ATOM     13  C   UNL     1     127.599   6.973 137.146  1.00  0.00     0.278 C 
ENDBRANCH   1  12
BRANCH   2  14
ATOM     14  O   UNL     1     127.175   5.598 140.500  1.00  0.00    -0.502 OA
ATOM     15  H   UNL     1     126.463   5.784 139.802  1.00  0.00     0.293 HD
ENDBRANCH   2  14
BRANCH   3  16
ATOM     16  O   UNL     1     128.718   6.131 142.784  1.00  0.00    -0.502 OA
ATOM     17  H   UNL     1     129.148   5.514 143.463  1.00  0.00     0.293 HD
ENDBRANCH   3  16
TORSDOF 3
ENDMDL
MODEL 6
REMARK VINA RESULT:    -3.822     10.071     12.151
REMARK INTER + INTRA:          -4.339
REMARK INTER:                  -4.286
REMARK INTRA:                  -0.053
REMARK UNBOUND:                -0.070
REMARK SMILES COc1cc2ccc(=O)oc2c(O)c1O
REMARK SMILES IDX 3 1 14 2 12 3 11 4 5 5 4 6 6 7 7 8 8 9 9 10 10 11 2 12 1 13
REMARK SMILES IDX 15 14 13 16
REMARK H PARENT 15 15 13 17
REMARK Flexibility Score: inf
ROOT
ATOM      1  C   UNL     1     132.251   9.361 150.927  1.00  0.00     0.165 A 
ATOM      2  C   UNL     1     132.044  10.719 150.635  1.00  0.00     0.204 A 
ATOM      3  C   UNL     1     130.968  11.417 151.216  1.00  0.00     0.205 A 
ATOM      4  C   UNL     1     130.095  10.751 152.092  1.00  0.00     0.184 A 
ATOM      5  C   UNL     1     130.302   9.387 152.386  1.00  0.00     0.025 A 
ATOM      6  C   UNL     1     131.374   8.697 151.805  1.00  0.00     0.062 A 
ATOM      7  C   UNL     1     129.417   8.749 153.263  1.00  0.00     0.020 A 
ATOM      8  C   UNL     1     128.363   9.473 153.818  1.00  0.00     0.094 A 
ATOM      9  C   UNL     1     128.218  10.822 153.482  1.00  0.00     0.336 A 
ATOM     10  O   UNL     1     127.273  11.494 153.973  1.00  0.00    -0.246 OA
ATOM     11  O   UNL     1     129.074  11.403 152.646  1.00  0.00    -0.419 OA
ENDROOT
BRANCH   1  12
ATOM     12  O   UNL     1     133.338   8.709 150.323  1.00  0.00    -0.493 OA
ATOM     13  C   UNL     1     133.384   7.315 150.036  1.00  0.00     0.278 C 
ENDBRANCH   1  12
BRANCH   2  14
ATOM     14  O   UNL     1     132.921  11.363 149.762  1.00  0.00    -0.502 OA
ATOM     15  H   UNL     1     133.031  11.076 148.796  1.00  0.00     0.293 HD
ENDBRANCH   2  14
BRANCH   3  16
ATOM     16  O   UNL     1     130.779  12.766 150.913  1.00  0.00    -0.502 OA
ATOM     17  H   UNL     1     130.892  13.497 151.606  1.00  0.00     0.293 HD
ENDBRANCH   3  16
TORSDOF 3
ENDMDL
MODEL 7
REMARK VINA RESULT:    -3.788     10.761     11.979
REMARK INTER + INTRA:          -4.301
REMARK INTER:                  -4.240
REMARK INTRA:                  -0.061
REMARK UNBOUND:                -0.070
REMARK SMILES COc1cc2ccc(=O)oc2c(O)c1O
REMARK SMILES IDX 3 1 14 2 12 3 11 4 5 5 4 6 6 7 7 8 8 9 9 10 10 11 2 12 1 13
REMARK SMILES IDX 15 14 13 16
REMARK H PARENT 15 15 13 17
REMARK Flexibility Score: inf
ROOT
ATOM      1  C   UNL     1     129.520   9.497 153.160  1.00  0.00     0.165 A 
ATOM      2  C   UNL     1     130.157   8.488 152.421  1.00  0.00     0.204 A 
ATOM      3  C   UNL     1     131.154   8.812 151.482  1.00  0.00     0.205 A 
ATOM      4  C   UNL     1     131.513  10.156 151.282  1.00  0.00     0.184 A 
ATOM      5  C   UNL     1     130.873  11.171 152.023  1.00  0.00     0.025 A 
ATOM      6  C   UNL     1     129.882  10.842 152.957  1.00  0.00     0.062 A 
ATOM      7  C   UNL     1     131.252  12.500 151.803  1.00  0.00     0.020 A 
ATOM      8  C   UNL     1     132.243  12.784 150.865  1.00  0.00     0.094 A 
ATOM      9  C   UNL     1     132.834  11.728 150.166  1.00  0.00     0.336 A 
ATOM     10  O   UNL     1     133.732  11.962 149.314  1.00  0.00    -0.246 OA
ATOM     11  O   UNL     1     132.455  10.473 150.395  1.00  0.00    -0.419 OA
ENDROOT
BRANCH   1  12
ATOM     12  O   UNL     1     128.532   9.122 154.085  1.00  0.00    -0.493 OA
ATOM     13  C   UNL     1     127.133   9.123 153.816  1.00  0.00     0.278 C 
ENDBRANCH   1  12
BRANCH   2  14
ATOM     14  O   UNL     1     129.786   7.160 152.634  1.00  0.00    -0.502 OA
ATOM     15  H   UNL     1     130.204   6.591 153.363  1.00  0.00     0.293 HD
ENDBRANCH   2  14
BRANCH   3  16
ATOM     16  O   UNL     1     131.776   7.795 150.758  1.00  0.00    -0.502 OA
ATOM     17  H   UNL     1     132.724   7.494 150.952  1.00  0.00     0.293 HD
ENDBRANCH   3  16
TORSDOF 3
ENDMDL
MODEL 8
REMARK VINA RESULT:    -3.779     15.034     15.406
REMARK INTER + INTRA:          -4.290
REMARK INTER:                  -4.220
REMARK INTRA:                  -0.070
REMARK UNBOUND:                -0.070
REMARK SMILES COc1cc2ccc(=O)oc2c(O)c1O
REMARK SMILES IDX 3 1 14 2 12 3 11 4 5 5 4 6 6 7 7 8 8 9 9 10 10 11 2 12 1 13
REMARK SMILES IDX 15 14 13 16
REMARK H PARENT 15 15 13 17
REMARK Flexibility Score: inf
ROOT
ATOM      1  C   UNL     1     123.342  14.548 151.418  1.00  0.00     0.165 A 
ATOM      2  C   UNL     1     124.412  14.308 152.294  1.00  0.00     0.204 A 
ATOM      3  C   UNL     1     125.608  15.042 152.178  1.00  0.00     0.205 A 
ATOM      4  C   UNL     1     125.732  16.020 151.178  1.00  0.00     0.184 A 
ATOM      5  C   UNL     1     124.657  16.263 150.296  1.00  0.00     0.025 A 
ATOM      6  C   UNL     1     123.470  15.530 150.417  1.00  0.00     0.062 A 
ATOM      7  C   UNL     1     124.809  17.244 149.310  1.00  0.00     0.020 A 
ATOM      8  C   UNL     1     126.007  17.951 149.226  1.00  0.00     0.094 A 
ATOM      9  C   UNL     1     127.030  17.658 150.132  1.00  0.00     0.336 A 
ATOM     10  O   UNL     1     128.121  18.285 150.073  1.00  0.00    -0.246 OA
ATOM     11  O   UNL     1     126.859  16.720 151.060  1.00  0.00    -0.419 OA
ENDROOT
BRANCH   1  12
ATOM     12  O   UNL     1     122.170  13.790 151.574  1.00  0.00    -0.493 OA
ATOM     13  C   UNL     1     121.776  12.727 150.712  1.00  0.00     0.278 C 
ENDBRANCH   1  12
BRANCH   2  14
ATOM     14  O   UNL     1     124.269  13.332 153.281  1.00  0.00    -0.502 OA
ATOM     15  H   UNL     1     124.959  12.602 153.424  1.00  0.00     0.293 HD
ENDBRANCH   2  14
BRANCH   3  16
ATOM     16  O   UNL     1     126.659  14.788 153.059  1.00  0.00    -0.502 OA
ATOM     17  H   UNL     1     126.695  15.189 153.989  1.00  0.00     0.293 HD
ENDBRANCH   3  16
TORSDOF 3
ENDMDL
MODEL 9
REMARK VINA RESULT:    -3.668      1.292      4.787
REMARK INTER + INTRA:          -4.166
REMARK INTER:                  -4.099
REMARK INTRA:                  -0.067
REMARK UNBOUND:                -0.070
REMARK SMILES COc1cc2ccc(=O)oc2c(O)c1O
REMARK SMILES IDX 3 1 14 2 12 3 11 4 5 5 4 6 6 7 7 8 8 9 9 10 10 11 2 12 1 13
REMARK SMILES IDX 15 14 13 16
REMARK H PARENT 15 15 13 17
REMARK Flexibility Score: inf
ROOT
ATOM      1  C   UNL     1     131.937   5.098 141.331  1.00  0.00     0.165 A 
ATOM      2  C   UNL     1     131.017   6.026 141.844  1.00  0.00     0.204 A 
ATOM      3  C   UNL     1     129.633   5.811 141.702  1.00  0.00     0.205 A 
ATOM      4  C   UNL     1     129.170   4.661 141.042  1.00  0.00     0.184 A 
ATOM      5  C   UNL     1     130.094   3.728 140.526  1.00  0.00     0.025 A 
ATOM      6  C   UNL     1     131.469   3.946 140.670  1.00  0.00     0.062 A 
ATOM      7  C   UNL     1     129.603   2.591 139.874  1.00  0.00     0.020 A 
ATOM      8  C   UNL     1     128.226   2.411 139.752  1.00  0.00     0.094 A 
ATOM      9  C   UNL     1     127.369   3.377 140.287  1.00  0.00     0.336 A 
ATOM     10  O   UNL     1     126.122   3.234 140.188  1.00  0.00    -0.246 OA
ATOM     11  O   UNL     1     127.862   4.449 140.902  1.00  0.00    -0.419 OA
ENDROOT
BRANCH   1  12
ATOM     12  O   UNL     1     133.307   5.357 141.498  1.00  0.00    -0.493 OA
ATOM     13  C   UNL     1     134.121   4.774 142.511  1.00  0.00     0.278 C 
ENDBRANCH   1  12
BRANCH   2  14
ATOM     14  O   UNL     1     131.497   7.162 142.496  1.00  0.00    -0.502 OA
ATOM     15  H   UNL     1     132.060   7.860 142.023  1.00  0.00     0.293 HD
ENDBRANCH   2  14
BRANCH   3  16
ATOM     16  O   UNL     1     128.735   6.745 142.219  1.00  0.00    -0.502 OA
ATOM     17  H   UNL     1     128.763   7.724 141.959  1.00  0.00     0.293 HD
ENDBRANCH   3  16
TORSDOF 3
ENDMDL
