MODEL 1
REMARK VINA RESULT:    -2.112      0.000      0.000
REMARK INTER + INTRA:          -6.865
REMARK INTER:                  -4.088
REMARK INTRA:                  -2.777
REMARK UNBOUND:                -2.777
REMARK SMILES CCCCCCCCCCCCCCCCCC(=O)[O-]
REMARK SMILES IDX 10 1 11 2 12 3 13 4 14 5 15 6 16 7 17 8 18 9 19 10 20 11
REMARK SMILES IDX 9 12 8 13 7 14 6 15 5 16 4 17 3 18 2 19 1 20
REMARK H PARENT
REMARK Flexibility Score: inf
ROOT
ATOM      1  C   UNL     1     178.008 204.323 201.621  1.00  0.00     0.000 C 
ENDROOT
BRANCH   1   2
ATOM      2  C   UNL     1     179.003 205.046 202.552  1.00  0.00     0.000 C 
BRANCH   2   3
ATOM      3  C   UNL     1     180.432 205.194 201.999  1.00  0.00     0.000 C 
BRANCH   3   4
ATOM      4  C   UNL     1     180.456 205.586 200.511  1.00  0.00     0.000 C 
BRANCH   4   5
ATOM      5  C   UNL     1     180.287 207.100 200.296  1.00  0.00     0.000 C 
BRANCH   5   6
ATOM      6  C   UNL     1     179.284 207.428 199.177  1.00  0.00     0.000 C 
BRANCH   6   7
ATOM      7  C   UNL     1     178.834 206.184 198.390  1.00  0.00     0.006 C 
BRANCH   7   8
ATOM      8  C   UNL     1     177.399 206.277 197.839  1.00  0.00     0.053 C 
BRANCH   8   9
ATOM      9  C   UNL     1     177.253 207.338 196.792  1.00  0.00     0.041 C 
ATOM     10  O   UNL     1     176.267 208.122 196.817  1.00  0.00    -0.550 OA
ATOM     11  O   UNL     1     178.219 207.481 195.802  1.00  0.00    -0.550 OA
ENDBRANCH   8   9
ENDBRANCH   7   8
ENDBRANCH   6   7
ENDBRANCH   5   6
ENDBRANCH   4   5
ENDBRANCH   3   4
ENDBRANCH   2   3
ENDBRANCH   1   2
BRANCH   1  12
ATOM     12  C   UNL     1     176.769 205.145 201.223  1.00  0.00     0.000 C 
BRANCH  12  13
ATOM     13  C   UNL     1     176.475 206.294 202.199  1.00  0.00    -0.000 C 
BRANCH  13  14
ATOM     14  C   UNL     1     176.620 207.654 201.502  1.00  0.00    -0.000 C 
BRANCH  14  15
ATOM     15  C   UNL     1     175.464 207.956 200.532  1.00  0.00    -0.000 C 
BRANCH  15  16
ATOM     16  C   UNL     1     174.063 208.011 201.177  1.00  0.00    -0.000 C 
BRANCH  16  17
ATOM     17  C   UNL     1     172.959 207.254 200.414  1.00  0.00    -0.000 C 
BRANCH  17  18
ATOM     18  C   UNL     1     173.178 205.732 200.404  1.00  0.00    -0.000 C 
BRANCH  18  19
ATOM     19  C   UNL     1     172.253 204.998 201.387  1.00  0.00    -0.003 C 
ATOM     20  C   UNL     1     172.833 204.917 202.799  1.00  0.00     0.004 C 
ENDBRANCH  18  19
ENDBRANCH  17  18
ENDBRANCH  16  17
ENDBRANCH  15  16
ENDBRANCH  14  15
ENDBRANCH  13  14
ENDBRANCH  12  13
ENDBRANCH   1  12
TORSDOF 16
ENDMDL
MODEL 2
REMARK VINA RESULT:    -1.981      2.442      5.176
REMARK INTER + INTRA:          -6.612
REMARK INTER:                  -3.292
REMARK INTRA:                  -3.320
REMARK UNBOUND:                -2.777
REMARK SMILES CCCCCCCCCCCCCCCCCC(=O)[O-]
REMARK SMILES IDX 10 1 11 2 12 3 13 4 14 5 15 6 16 7 17 8 18 9 19 10 20 11
REMARK SMILES IDX 9 12 8 13 7 14 6 15 5 16 4 17 3 18 2 19 1 20
REMARK H PARENT
REMARK Flexibility Score: inf
ROOT
ATOM      1  C   UNL     1     175.440 206.829 201.630  1.00  0.00     0.000 C 
ENDROOT
BRANCH   1   2
ATOM      2  C   UNL     1     176.017 205.780 202.604  1.00  0.00     0.000 C 
BRANCH   2   3
ATOM      3  C   UNL     1     177.426 205.266 202.255  1.00  0.00     0.000 C 
BRANCH   3   4
ATOM      4  C   UNL     1     177.399 203.934 201.487  1.00  0.00     0.000 C 
BRANCH   4   5
ATOM      5  C   UNL     1     177.675 204.113 199.984  1.00  0.00     0.000 C 
BRANCH   5   6
ATOM      6  C   UNL     1     176.385 204.145 199.147  1.00  0.00     0.000 C 
BRANCH   6   7
ATOM      7  C   UNL     1     176.645 204.409 197.652  1.00  0.00     0.006 C 
BRANCH   7   8
ATOM      8  C   UNL     1     178.128 204.324 197.251  1.00  0.00     0.053 C 
BRANCH   8   9
ATOM      9  C   UNL     1     178.444 203.083 196.474  1.00  0.00     0.041 C 
ATOM     10  O   UNL     1     179.206 203.139 195.472  1.00  0.00    -0.550 OA
ATOM     11  O   UNL     1     177.920 201.858 196.871  1.00  0.00    -0.550 OA
ENDBRANCH   8   9
ENDBRANCH   7   8
ENDBRANCH   6   7
ENDBRANCH   5   6
ENDBRANCH   4   5
ENDBRANCH   3   4
ENDBRANCH   2   3
ENDBRANCH   1   2
BRANCH   1  12
ATOM     12  C   UNL     1     176.463 207.828 201.062  1.00  0.00     0.000 C 
BRANCH  12  13
ATOM     13  C   UNL     1     176.311 208.044 199.550  1.00  0.00    -0.000 C 
BRANCH  13  14
ATOM     14  C   UNL     1     177.623 207.729 198.817  1.00  0.00    -0.000 C 
BRANCH  14  15
ATOM     15  C   UNL     1     178.823 207.593 199.770  1.00  0.00    -0.000 C 
BRANCH  15  16
ATOM     16  C   UNL     1     180.113 207.039 199.128  1.00  0.00    -0.000 C 
BRANCH  16  17
ATOM     17  C   UNL     1     180.846 205.963 199.950  1.00  0.00    -0.000 C 
BRANCH  17  18
ATOM     18  C   UNL     1     180.931 206.310 201.446  1.00  0.00    -0.000 C 
BRANCH  18  19
ATOM     19  C   UNL     1     181.080 205.063 202.331  1.00  0.00    -0.003 C 
ATOM     20  C   UNL     1     181.125 203.765 201.526  1.00  0.00     0.004 C 
ENDBRANCH  18  19
ENDBRANCH  17  18
ENDBRANCH  16  17
ENDBRANCH  15  16
ENDBRANCH  14  15
ENDBRANCH  13  14
ENDBRANCH  12  13
ENDBRANCH   1  12
TORSDOF 16
ENDMDL
MODEL 3
REMARK VINA RESULT:    -1.981      2.459      5.251
REMARK INTER + INTRA:          -6.611
REMARK INTER:                  -3.811
REMARK INTRA:                  -2.800
REMARK UNBOUND:                -2.777
REMARK SMILES CCCCCCCCCCCCCCCCCC(=O)[O-]
REMARK SMILES IDX 10 1 11 2 12 3 13 4 14 5 15 6 16 7 17 8 18 9 19 10 20 11
REMARK SMILES IDX 9 12 8 13 7 14 6 15 5 16 4 17 3 18 2 19 1 20
REMARK H PARENT
REMARK Flexibility Score: inf
ROOT
ATOM      1  C   UNL     1     177.583 205.011 201.035  1.00  0.00     0.000 C 
ENDROOT
BRANCH   1   2
ATOM      2  C   UNL     1     177.403 205.756 202.374  1.00  0.00     0.000 C 
BRANCH   2   3
ATOM      3  C   UNL     1     176.489 206.994 202.319  1.00  0.00     0.000 C 
BRANCH   3   4
ATOM      4  C   UNL     1     176.654 207.798 201.018  1.00  0.00     0.000 C 
BRANCH   4   5
ATOM      5  C   UNL     1     175.307 208.125 200.351  1.00  0.00     0.000 C 
BRANCH   5   6
ATOM      6  C   UNL     1     174.105 207.767 201.242  1.00  0.00     0.000 C 
BRANCH   6   7
ATOM      7  C   UNL     1     173.039 206.933 200.507  1.00  0.00     0.006 C 
BRANCH   7   8
ATOM      8  C   UNL     1     173.134 205.420 200.776  1.00  0.00     0.053 C 
BRANCH   8   9
ATOM      9  C   UNL     1     172.318 204.613 199.813  1.00  0.00     0.041 C 
ATOM     10  O   UNL     1     171.374 205.152 199.175  1.00  0.00    -0.550 OA
ATOM     11  O   UNL     1     172.615 203.272 199.599  1.00  0.00    -0.550 OA
ENDBRANCH   8   9
ENDBRANCH   7   8
ENDBRANCH   6   7
ENDBRANCH   5   6
ENDBRANCH   4   5
ENDBRANCH   3   4
ENDBRANCH   2   3
ENDBRANCH   1   2
BRANCH   1  12
ATOM     12  C   UNL     1     179.042 204.832 200.576  1.00  0.00     0.000 C 
BRANCH  12  13
ATOM     13  C   UNL     1     179.977 205.921 201.123  1.00  0.00    -0.000 C 
BRANCH  13  14
ATOM     14  C   UNL     1     180.157 207.052 200.101  1.00  0.00    -0.000 C 
BRANCH  14  15
ATOM     15  C   UNL     1     180.661 206.551 198.736  1.00  0.00    -0.000 C 
BRANCH  15  16
ATOM     16  C   UNL     1     179.742 206.871 197.538  1.00  0.00    -0.000 C 
BRANCH  16  17
ATOM     17  C   UNL     1     178.330 207.364 197.907  1.00  0.00    -0.000 C 
BRANCH  17  18
ATOM     18  C   UNL     1     177.239 206.793 196.986  1.00  0.00    -0.000 C 
BRANCH  18  19
ATOM     19  C   UNL     1     176.387 205.719 197.679  1.00  0.00    -0.003 C 
ATOM     20  C   UNL     1     174.890 205.892 197.423  1.00  0.00     0.004 C 
ENDBRANCH  18  19
ENDBRANCH  17  18
ENDBRANCH  16  17
ENDBRANCH  15  16
ENDBRANCH  14  15
ENDBRANCH  13  14
ENDBRANCH  12  13
ENDBRANCH   1  12
TORSDOF 16
ENDMDL
MODEL 4
REMARK VINA RESULT:    -1.979      2.357      5.437
REMARK INTER + INTRA:          -6.607
REMARK INTER:                  -3.833
REMARK INTRA:                  -2.774
REMARK UNBOUND:                -2.777
REMARK SMILES CCCCCCCCCCCCCCCCCC(=O)[O-]
REMARK SMILES IDX 10 1 11 2 12 3 13 4 14 5 15 6 16 7 17 8 18 9 19 10 20 11
REMARK SMILES IDX 9 12 8 13 7 14 6 15 5 16 4 17 3 18 2 19 1 20
REMARK H PARENT
REMARK Flexibility Score: inf
ROOT
ATOM      1  C   UNL     1     177.280 204.312 200.357  1.00  0.00     0.000 C 
ENDROOT
BRANCH   1   2
ATOM      2  C   UNL     1     176.462 204.790 201.574  1.00  0.00     0.000 C 
BRANCH   2   3
ATOM      3  C   UNL     1     176.789 206.210 202.069  1.00  0.00     0.000 C 
BRANCH   3   4
ATOM      4  C   UNL     1     175.749 207.251 201.619  1.00  0.00     0.000 C 
BRANCH   4   5
ATOM      5  C   UNL     1     176.245 208.113 200.445  1.00  0.00     0.000 C 
BRANCH   5   6
ATOM      6  C   UNL     1     175.261 208.122 199.263  1.00  0.00     0.000 C 
BRANCH   6   7
ATOM      7  C   UNL     1     175.895 207.628 197.949  1.00  0.00     0.006 C 
BRANCH   7   8
ATOM      8  C   UNL     1     175.626 206.143 197.645  1.00  0.00     0.053 C 
BRANCH   8   9
ATOM      9  C   UNL     1     174.237 205.722 198.017  1.00  0.00     0.041 C 
ATOM     10  O   UNL     1     174.047 204.982 199.019  1.00  0.00    -0.550 OA
ATOM     11  O   UNL     1     173.149 206.168 197.276  1.00  0.00    -0.550 OA
ENDBRANCH   8   9
ENDBRANCH   7   8
ENDBRANCH   6   7
ENDBRANCH   5   6
ENDBRANCH   4   5
ENDBRANCH   3   4
ENDBRANCH   2   3
ENDBRANCH   1   2
BRANCH   1  12
ATOM     12  C   UNL     1     178.541 203.498 200.696  1.00  0.00     0.000 C 
BRANCH  12  13
ATOM     13  C   UNL     1     179.551 203.453 199.540  1.00  0.00    -0.000 C 
BRANCH  13  14
ATOM     14  C   UNL     1     180.912 204.013 199.979  1.00  0.00    -0.000 C 
BRANCH  14  15
ATOM     15  C   UNL     1     180.787 205.130 201.031  1.00  0.00    -0.000 C 
BRANCH  15  16
ATOM     16  C   UNL     1     181.002 206.562 200.498  1.00  0.00    -0.000 C 
BRANCH  16  17
ATOM     17  C   UNL     1     179.721 207.304 200.076  1.00  0.00    -0.000 C 
BRANCH  17  18
ATOM     18  C   UNL     1     179.340 207.050 198.608  1.00  0.00    -0.000 C 
BRANCH  18  19
ATOM     19  C   UNL     1     180.565 207.006 197.681  1.00  0.00    -0.003 C 
ATOM     20  C   UNL     1     180.203 207.199 196.209  1.00  0.00     0.004 C 
ENDBRANCH  18  19
ENDBRANCH  17  18
ENDBRANCH  16  17
ENDBRANCH  15  16
ENDBRANCH  14  15
ENDBRANCH  13  14
ENDBRANCH  12  13
ENDBRANCH   1  12
TORSDOF 16
ENDMDL
MODEL 5
REMARK VINA RESULT:    -1.964      2.057      2.943
REMARK INTER + INTRA:          -6.579
REMARK INTER:                  -3.877
REMARK INTRA:                  -2.702
REMARK UNBOUND:                -2.777
REMARK SMILES CCCCCCCCCCCCCCCCCC(=O)[O-]
REMARK SMILES IDX 10 1 11 2 12 3 13 4 14 5 15 6 16 7 17 8 18 9 19 10 20 11
REMARK SMILES IDX 9 12 8 13 7 14 6 15 5 16 4 17 3 18 2 19 1 20
REMARK H PARENT
REMARK Flexibility Score: inf
ROOT
ATOM      1  C   UNL     1     178.267 204.504 199.953  1.00  0.00     0.000 C 
ENDROOT
BRANCH   1   2
ATOM      2  C   UNL     1     179.776 204.708 200.197  1.00  0.00     0.000 C 
BRANCH   2   3
ATOM      3  C   UNL     1     180.151 205.989 200.964  1.00  0.00     0.000 C 
BRANCH   3   4
ATOM      4  C   UNL     1     180.220 207.228 200.055  1.00  0.00     0.000 C 
BRANCH   4   5
ATOM      5  C   UNL     1     180.973 206.955 198.741  1.00  0.00     0.000 C 
BRANCH   5   6
ATOM      6  C   UNL     1     180.075 207.117 197.503  1.00  0.00     0.000 C 
BRANCH   6   7
ATOM      7  C   UNL     1     180.821 206.851 196.181  1.00  0.00     0.006 C 
BRANCH   7   8
ATOM      8  C   UNL     1     180.321 205.610 195.421  1.00  0.00     0.053 C 
BRANCH   8   9
ATOM      9  C   UNL     1     178.829 205.482 195.447  1.00  0.00     0.041 C 
ATOM     10  O   UNL     1     178.284 204.548 196.095  1.00  0.00    -0.550 OA
ATOM     11  O   UNL     1     178.036 206.407 194.779  1.00  0.00    -0.550 OA
ENDBRANCH   8   9
ENDBRANCH   7   8
ENDBRANCH   6   7
ENDBRANCH   5   6
ENDBRANCH   4   5
ENDBRANCH   3   4
ENDBRANCH   2   3
ENDBRANCH   1   2
BRANCH   1  12
ATOM     12  C   UNL     1     177.446 204.135 201.202  1.00  0.00     0.000 C 
BRANCH  12  13
ATOM     13  C   UNL     1     176.278 205.099 201.455  1.00  0.00    -0.000 C 
BRANCH  13  14
ATOM     14  C   UNL     1     176.728 206.291 202.311  1.00  0.00    -0.000 C 
BRANCH  14  15
ATOM     15  C   UNL     1     176.220 207.640 201.773  1.00  0.00    -0.000 C 
BRANCH  15  16
ATOM     16  C   UNL     1     176.895 208.125 200.472  1.00  0.00    -0.000 C 
BRANCH  16  17
ATOM     17  C   UNL     1     176.008 208.076 199.214  1.00  0.00    -0.000 C 
BRANCH  17  18
ATOM     18  C   UNL     1     176.598 207.191 198.103  1.00  0.00    -0.000 C 
BRANCH  18  19
ATOM     19  C   UNL     1     175.516 206.433 197.318  1.00  0.00    -0.003 C 
ATOM     20  C   UNL     1     174.698 205.487 198.198  1.00  0.00     0.004 C 
ENDBRANCH  18  19
ENDBRANCH  17  18
ENDBRANCH  16  17
ENDBRANCH  15  16
ENDBRANCH  14  15
ENDBRANCH  13  14
ENDBRANCH  12  13
ENDBRANCH   1  12
TORSDOF 16
ENDMDL
MODEL 6
REMARK VINA RESULT:    -1.931      1.693      5.122
REMARK INTER + INTRA:          -6.514
REMARK INTER:                  -4.165
REMARK INTRA:                  -2.349
REMARK UNBOUND:                -2.777
REMARK SMILES CCCCCCCCCCCCCCCCCC(=O)[O-]
REMARK SMILES IDX 10 1 11 2 12 3 13 4 14 5 15 6 16 7 17 8 18 9 19 10 20 11
REMARK SMILES IDX 9 12 8 13 7 14 6 15 5 16 4 17 3 18 2 19 1 20
REMARK H PARENT
REMARK Flexibility Score: inf
ROOT
ATOM      1  C   UNL     1     176.876 205.324 201.666  1.00  0.00     0.000 C 
ENDROOT
BRANCH   1   2
ATOM      2  C   UNL     1     176.664 206.667 202.395  1.00  0.00     0.000 C 
BRANCH   2   3
ATOM      3  C   UNL     1     176.241 207.843 201.496  1.00  0.00     0.000 C 
BRANCH   3   4
ATOM      4  C   UNL     1     174.790 207.721 201.001  1.00  0.00     0.000 C 
BRANCH   4   5
ATOM      5  C   UNL     1     174.661 207.952 199.486  1.00  0.00     0.000 C 
BRANCH   5   6
ATOM      6  C   UNL     1     175.540 206.994 198.666  1.00  0.00     0.000 C 
BRANCH   6   7
ATOM      7  C   UNL     1     174.721 205.992 197.830  1.00  0.00     0.006 C 
BRANCH   7   8
ATOM      8  C   UNL     1     174.991 206.072 196.317  1.00  0.00     0.053 C 
BRANCH   8   9
ATOM      9  C   UNL     1     174.894 207.470 195.789  1.00  0.00     0.041 C 
ATOM     10  O   UNL     1     173.785 208.069 195.779  1.00  0.00    -0.550 OA
ATOM     11  O   UNL     1     176.032 208.125 195.332  1.00  0.00    -0.550 OA
ENDBRANCH   8   9
ENDBRANCH   7   8
ENDBRANCH   6   7
ENDBRANCH   5   6
ENDBRANCH   4   5
ENDBRANCH   3   4
ENDBRANCH   2   3
ENDBRANCH   1   2
BRANCH   1  12
ATOM     12  C   UNL     1     177.923 204.392 202.302  1.00  0.00     0.000 C 
BRANCH  12  13
ATOM     13  C   UNL     1     179.116 205.153 202.898  1.00  0.00    -0.000 C 
BRANCH  13  14
ATOM     14  C   UNL     1     180.433 204.703 202.248  1.00  0.00    -0.000 C 
BRANCH  14  15
ATOM     15  C   UNL     1     180.593 205.212 200.805  1.00  0.00    -0.000 C 
BRANCH  15  16
ATOM     16  C   UNL     1     180.562 206.747 200.642  1.00  0.00    -0.000 C 
BRANCH  16  17
ATOM     17  C   UNL     1     179.457 207.287 199.716  1.00  0.00    -0.000 C 
BRANCH  17  18
ATOM     18  C   UNL     1     179.211 206.385 198.494  1.00  0.00    -0.000 C 
BRANCH  18  19
ATOM     19  C   UNL     1     178.816 207.186 197.243  1.00  0.00    -0.003 C 
ATOM     20  C   UNL     1     179.847 207.076 196.119  1.00  0.00     0.004 C 
ENDBRANCH  18  19
ENDBRANCH  17  18
ENDBRANCH  16  17
ENDBRANCH  15  16
ENDBRANCH  14  15
ENDBRANCH  13  14
ENDBRANCH  12  13
ENDBRANCH   1  12
TORSDOF 16
ENDMDL
MODEL 7
REMARK VINA RESULT:    -1.928      2.559      6.150
REMARK INTER + INTRA:          -6.509
REMARK INTER:                  -3.937
REMARK INTRA:                  -2.572
REMARK UNBOUND:                -2.777
REMARK SMILES CCCCCCCCCCCCCCCCCC(=O)[O-]
REMARK SMILES IDX 10 1 11 2 12 3 13 4 14 5 15 6 16 7 17 8 18 9 19 10 20 11
REMARK SMILES IDX 9 12 8 13 7 14 6 15 5 16 4 17 3 18 2 19 1 20
REMARK H PARENT
REMARK Flexibility Score: inf
ROOT
ATOM      1  C   UNL     1     174.919 206.223 198.091  1.00  0.00     0.000 C 
ENDROOT
BRANCH   1   2
ATOM      2  C   UNL     1     174.327 207.636 198.277  1.00  0.00     0.000 C 
BRANCH   2   3
ATOM      3  C   UNL     1     173.028 207.701 199.100  1.00  0.00     0.000 C 
BRANCH   3   4
ATOM      4  C   UNL     1     173.270 208.123 200.560  1.00  0.00     0.000 C 
BRANCH   4   5
ATOM      5  C   UNL     1     172.278 207.467 201.537  1.00  0.00     0.000 C 
BRANCH   5   6
ATOM      6  C   UNL     1     172.862 206.219 202.220  1.00  0.00     0.000 C 
BRANCH   6   7
ATOM      7  C   UNL     1     171.821 205.102 202.422  1.00  0.00     0.006 C 
BRANCH   7   8
ATOM      8  C   UNL     1     171.039 204.738 201.147  1.00  0.00     0.053 C 
BRANCH   8   9
ATOM      9  C   UNL     1     171.853 203.929 200.184  1.00  0.00     0.041 C 
ATOM     10  O   UNL     1     172.081 204.367 199.024  1.00  0.00    -0.550 OA
ATOM     11  O   UNL     1     172.385 202.706 200.574  1.00  0.00    -0.550 OA
ENDBRANCH   8   9
ENDBRANCH   7   8
ENDBRANCH   6   7
ENDBRANCH   5   6
ENDBRANCH   4   5
ENDBRANCH   3   4
ENDBRANCH   2   3
ENDBRANCH   1   2
BRANCH   1  12
ATOM     12  C   UNL     1     176.317 206.178 197.448  1.00  0.00     0.000 C 
BRANCH  12  13
ATOM     13  C   UNL     1     177.149 207.436 197.740  1.00  0.00    -0.000 C 
BRANCH  13  14
ATOM     14  C   UNL     1     178.481 207.068 198.409  1.00  0.00    -0.000 C 
BRANCH  14  15
ATOM     15  C   UNL     1     178.484 207.336 199.925  1.00  0.00    -0.000 C 
BRANCH  15  16
ATOM     16  C   UNL     1     177.268 208.125 200.455  1.00  0.00    -0.000 C 
BRANCH  16  17
ATOM     17  C   UNL     1     176.530 207.476 201.640  1.00  0.00    -0.000 C 
BRANCH  17  18
ATOM     18  C   UNL     1     176.482 205.941 201.544  1.00  0.00    -0.000 C 
BRANCH  18  19
ATOM     19  C   UNL     1     176.763 205.259 202.892  1.00  0.00    -0.003 C 
ATOM     20  C   UNL     1     178.243 204.941 203.099  1.00  0.00     0.004 C 
ENDBRANCH  18  19
ENDBRANCH  17  18
ENDBRANCH  16  17
ENDBRANCH  15  16
ENDBRANCH  14  15
ENDBRANCH  13  14
ENDBRANCH  12  13
ENDBRANCH   1  12
TORSDOF 16
ENDMDL
MODEL 8
REMARK VINA RESULT:    -1.915      2.004      5.204
REMARK INTER + INTRA:          -6.483
REMARK INTER:                  -3.746
REMARK INTRA:                  -2.737
REMARK UNBOUND:                -2.777
REMARK SMILES CCCCCCCCCCCCCCCCCC(=O)[O-]
REMARK SMILES IDX 10 1 11 2 12 3 13 4 14 5 15 6 16 7 17 8 18 9 19 10 20 11
REMARK SMILES IDX 9 12 8 13 7 14 6 15 5 16 4 17 3 18 2 19 1 20
REMARK H PARENT
REMARK Flexibility Score: inf
ROOT
ATOM      1  C   UNL     1     177.706 203.169 199.721  1.00  0.00     0.000 C 
ENDROOT
BRANCH   1   2
ATOM      2  C   UNL     1     176.836 202.897 200.965  1.00  0.00     0.000 C 
BRANCH   2   3
ATOM      3  C   UNL     1     175.975 204.083 201.437  1.00  0.00     0.000 C 
BRANCH   3   4
ATOM      4  C   UNL     1     176.480 204.697 202.755  1.00  0.00     0.000 C 
BRANCH   4   5
ATOM      5  C   UNL     1     176.684 206.218 202.658  1.00  0.00     0.000 C 
BRANCH   5   6
ATOM      6  C   UNL     1     177.156 206.662 201.263  1.00  0.00     0.000 C 
BRANCH   6   7
ATOM      7  C   UNL     1     176.626 208.051 200.863  1.00  0.00     0.006 C 
BRANCH   7   8
ATOM      8  C   UNL     1     175.092 208.125 200.746  1.00  0.00     0.053 C 
BRANCH   8   9
ATOM      9  C   UNL     1     174.614 207.956 199.337  1.00  0.00     0.041 C 
ATOM     10  O   UNL     1     173.403 207.692 199.107  1.00  0.00    -0.550 OA
ATOM     11  O   UNL     1     175.496 208.115 198.275  1.00  0.00    -0.550 OA
ENDBRANCH   8   9
ENDBRANCH   7   8
ENDBRANCH   6   7
ENDBRANCH   5   6
ENDBRANCH   4   5
ENDBRANCH   3   4
ENDBRANCH   2   3
ENDBRANCH   1   2
BRANCH   1  12
ATOM     12  C   UNL     1     179.225 203.082 199.954  1.00  0.00     0.000 C 
BRANCH  12  13
ATOM     13  C   UNL     1     179.731 204.101 200.986  1.00  0.00    -0.000 C 
BRANCH  13  14
ATOM     14  C   UNL     1     180.985 204.823 200.474  1.00  0.00    -0.000 C 
BRANCH  14  15
ATOM     15  C   UNL     1     181.109 206.261 201.008  1.00  0.00    -0.000 C 
BRANCH  15  16
ATOM     16  C   UNL     1     180.479 207.350 200.115  1.00  0.00    -0.000 C 
BRANCH  16  17
ATOM     17  C   UNL     1     180.393 207.003 198.617  1.00  0.00    -0.000 C 
BRANCH  17  18
ATOM     18  C   UNL     1     178.948 206.987 198.090  1.00  0.00    -0.000 C 
BRANCH  18  19
ATOM     19  C   UNL     1     178.749 205.980 196.948  1.00  0.00    -0.003 C 
ATOM     20  C   UNL     1     179.831 204.901 196.913  1.00  0.00     0.004 C 
ENDBRANCH  18  19
ENDBRANCH  17  18
ENDBRANCH  16  17
ENDBRANCH  15  16
ENDBRANCH  14  15
ENDBRANCH  13  14
ENDBRANCH  12  13
ENDBRANCH   1  12
TORSDOF 16
ENDMDL
MODEL 9
REMARK VINA RESULT:    -1.895      2.358      3.846
REMARK INTER + INTRA:          -6.444
REMARK INTER:                  -3.321
REMARK INTRA:                  -3.123
REMARK UNBOUND:                -2.777
REMARK SMILES CCCCCCCCCCCCCCCCCC(=O)[O-]
REMARK SMILES IDX 10 1 11 2 12 3 13 4 14 5 15 6 16 7 17 8 18 9 19 10 20 11
REMARK SMILES IDX 9 12 8 13 7 14 6 15 5 16 4 17 3 18 2 19 1 20
REMARK H PARENT
REMARK Flexibility Score: inf
ROOT
ATOM      1  C   UNL     1     175.384 204.551 200.369  1.00  0.00     0.000 C 
ENDROOT
BRANCH   1   2
ATOM      2  C   UNL     1     176.420 204.631 201.509  1.00  0.00     0.000 C 
BRANCH   2   3
ATOM      3  C   UNL     1     176.371 205.919 202.351  1.00  0.00     0.000 C 
BRANCH   3   4
ATOM      4  C   UNL     1     175.668 207.079 201.624  1.00  0.00     0.000 C 
BRANCH   4   5
ATOM      5  C   UNL     1     176.658 208.125 201.084  1.00  0.00     0.000 C 
BRANCH   5   6
ATOM      6  C   UNL     1     176.777 208.088 199.551  1.00  0.00     0.000 C 
BRANCH   6   7
ATOM      7  C   UNL     1     178.056 207.382 199.064  1.00  0.00     0.006 C 
BRANCH   7   8
ATOM      8  C   UNL     1     179.200 207.379 200.095  1.00  0.00     0.053 C 
BRANCH   8   9
ATOM      9  C   UNL     1     179.660 205.996 200.439  1.00  0.00     0.041 C 
ATOM     10  O   UNL     1     179.437 205.039 199.650  1.00  0.00    -0.550 OA
ATOM     11  O   UNL     1     180.361 205.766 201.617  1.00  0.00    -0.550 OA
ENDBRANCH   8   9
ENDBRANCH   7   8
ENDBRANCH   6   7
ENDBRANCH   5   6
ENDBRANCH   4   5
ENDBRANCH   3   4
ENDBRANCH   2   3
ENDBRANCH   1   2
BRANCH   1  12
ATOM     12  C   UNL     1     175.976 204.376 198.958  1.00  0.00     0.000 C 
BRANCH  12  13
ATOM     13  C   UNL     1     175.244 205.208 197.896  1.00  0.00    -0.000 C 
BRANCH  13  14
ATOM     14  C   UNL     1     173.957 205.818 198.469  1.00  0.00    -0.000 C 
BRANCH  14  15
ATOM     15  C   UNL     1     172.682 205.216 197.852  1.00  0.00    -0.000 C 
BRANCH  15  16
ATOM     16  C   UNL     1     171.773 204.452 198.838  1.00  0.00    -0.000 C 
BRANCH  16  17
ATOM     17  C   UNL     1     171.298 205.264 200.057  1.00  0.00    -0.000 C 
BRANCH  17  18
ATOM     18  C   UNL     1     171.860 204.730 201.385  1.00  0.00    -0.000 C 
BRANCH  18  19
ATOM     19  C   UNL     1     172.274 205.857 202.344  1.00  0.00    -0.003 C 
ATOM     20  C   UNL     1     172.097 207.248 201.736  1.00  0.00     0.004 C 
ENDBRANCH  18  19
ENDBRANCH  17  18
ENDBRANCH  16  17
ENDBRANCH  15  16
ENDBRANCH  14  15
ENDBRANCH  13  14
ENDBRANCH  12  13
ENDBRANCH   1  12
TORSDOF 16
ENDMDL
