MODEL 1
REMARK VINA RESULT:    -5.518      0.000      0.000
REMARK INTER + INTRA:          -8.935
REMARK INTER:                  -8.098
REMARK INTRA:                  -0.837
REMARK UNBOUND:                -0.837
REMARK SMILES Cc1cc2c(C(C)C)c(O)c(O)c(C=O)c2c(O)c1-c1c(C)cc2c(C(C)C)c(O)c(O)c(C=O)c2c1O
REMARK SMILES IDX 1 1 2 2 3 3 4 4 16 5 13 6 11 7 9 8 5 9 17 10 19 11 20 12
REMARK SMILES IDX 37 13 21 14 36 15 23 16 22 17 24 18 33 19 25 20 31 21 29 22
REMARK SMILES IDX 38 23 34 25 35 26 26 27 27 28 28 29 32 30 30 32 18 34 6 36
REMARK SMILES IDX 7 37 8 38 14 39 15 40 10 41 12 43
REMARK H PARENT 38 24 32 31 30 33 18 35 10 42 12 44
REMARK Flexibility Score: inf
ROOT
ATOM      1  C   UNL     1      29.834  22.383  34.252  1.00  0.00     0.045 C 
ATOM      2  C   UNL     1      30.052  22.965  32.876  1.00  0.00    -0.039 A 
ATOM      3  C   UNL     1      31.348  23.302  32.486  1.00  0.00     0.013 A 
ATOM      4  C   UNL     1      31.633  23.858  31.224  1.00  0.00    -0.006 A 
ATOM      5  C   UNL     1      30.563  24.013  30.289  1.00  0.00     0.039 A 
ATOM      6  C   UNL     1      30.848  24.547  28.998  1.00  0.00     0.072 A 
ATOM      7  C   UNL     1      32.185  24.721  28.598  1.00  0.00     0.169 A 
ATOM      8  C   UNL     1      33.229  24.518  29.497  1.00  0.00     0.162 A 
ATOM      9  C   UNL     1      32.966  24.230  30.858  1.00  0.00     0.008 A 
ATOM     10  C   UNL     1      29.252  23.582  30.657  1.00  0.00     0.132 A 
ATOM     11  C   UNL     1      28.999  23.087  31.954  1.00  0.00     0.031 A 
ENDROOT
BRANCH  11  12
ATOM     12  C   UNL     1      27.626  22.661  32.332  1.00  0.00     0.031 A 
ATOM     13  C   UNL     1      27.335  21.294  32.521  1.00  0.00     0.132 A 
ATOM     14  C   UNL     1      26.611  23.621  32.472  1.00  0.00    -0.039 A 
ATOM     15  C   UNL     1      26.036  20.885  32.941  1.00  0.00     0.039 A 
ATOM     16  C   UNL     1      25.315  23.210  32.791  1.00  0.00     0.013 A 
ATOM     17  C   UNL     1      26.895  25.090  32.271  1.00  0.00     0.045 C 
ATOM     18  C   UNL     1      24.999  21.862  33.053  1.00  0.00    -0.006 A 
ATOM     19  C   UNL     1      25.723  19.520  33.201  1.00  0.00     0.072 A 
ATOM     20  C   UNL     1      23.667  21.458  33.389  1.00  0.00     0.008 A 
ATOM     21  C   UNL     1      24.385  19.124  33.317  1.00  0.00     0.169 A 
ATOM     22  C   UNL     1      23.361  20.075  33.355  1.00  0.00     0.162 A 
BRANCH  13  23
ATOM     23  O   UNL     1      28.317  20.338  32.238  1.00  0.00    -0.507 OA
ATOM     24  H   UNL     1      29.181  20.244  32.759  1.00  0.00     0.293 HD
ENDBRANCH  13  23
BRANCH  19  25
ATOM     25  C   UNL     1      26.750  18.477  33.425  1.00  0.00     0.264 C 
ATOM     26  O   UNL     1      27.038  17.653  32.517  1.00  0.00    -0.298 OA
ENDBRANCH  19  25
BRANCH  20  27
ATOM     27  C   UNL     1      22.570  22.431  33.864  1.00  0.00     0.017 C 
ATOM     28  C   UNL     1      22.968  23.297  35.077  1.00  0.00     0.012 C 
ATOM     29  C   UNL     1      21.964  23.250  32.718  1.00  0.00     0.012 C 
ENDBRANCH  20  27
BRANCH  21  30
ATOM     30  O   UNL     1      24.079  17.763  33.417  1.00  0.00    -0.504 OA
ATOM     31  H   UNL     1      23.312  17.412  33.978  1.00  0.00     0.293 HD
ENDBRANCH  21  30
BRANCH  22  32
ATOM     32  O   UNL     1      22.043  19.607  33.365  1.00  0.00    -0.504 OA
ATOM     33  H   UNL     1      21.786  18.645  33.192  1.00  0.00     0.293 HD
ENDBRANCH  22  32
ENDBRANCH  11  12
BRANCH  10  34
ATOM     34  O   UNL     1      28.214  23.604  29.719  1.00  0.00    -0.507 OA
ATOM     35  H   UNL     1      28.206  24.193  28.895  1.00  0.00     0.293 HD
ENDBRANCH  10  34
BRANCH   9  36
ATOM     36  C   UNL     1      34.111  24.415  31.873  1.00  0.00     0.017 C 
ATOM     37  C   UNL     1      33.697  25.124  33.178  1.00  0.00     0.012 C 
ATOM     38  C   UNL     1      34.896  23.119  32.119  1.00  0.00     0.012 C 
ENDBRANCH   9  36
BRANCH   6  39
ATOM     39  C   UNL     1      29.787  24.966  28.060  1.00  0.00     0.264 C 
ATOM     40  O   UNL     1      29.730  24.474  26.901  1.00  0.00    -0.298 OA
ENDBRANCH   6  39
BRANCH   8  41
ATOM     41  O   UNL     1      34.530  24.619  28.993  1.00  0.00    -0.504 OA
ATOM     42  H   UNL     1      34.846  24.156  28.149  1.00  0.00     0.293 HD
ENDBRANCH   8  41
BRANCH   7  43
ATOM     43  O   UNL     1      32.522  25.123  27.300  1.00  0.00    -0.504 OA
ATOM     44  H   UNL     1      31.894  25.617  26.679  1.00  0.00     0.293 HD
ENDBRANCH   7  43
TORSDOF 11
ENDMDL
MODEL 2
REMARK VINA RESULT:    -5.480      3.260      5.777
REMARK INTER + INTRA:          -8.881
REMARK INTER:                  -7.984
REMARK INTRA:                  -0.896
REMARK UNBOUND:                -0.837
REMARK SMILES Cc1cc2c(C(C)C)c(O)c(O)c(C=O)c2c(O)c1-c1c(C)cc2c(C(C)C)c(O)c(O)c(C=O)c2c1O
REMARK SMILES IDX 1 1 2 2 3 3 4 4 16 5 13 6 11 7 9 8 5 9 17 10 19 11 20 12
REMARK SMILES IDX 37 13 21 14 36 15 23 16 22 17 24 18 33 19 25 20 31 21 29 22
REMARK SMILES IDX 38 23 34 25 35 26 26 27 27 28 28 29 32 30 30 32 18 34 6 36
REMARK SMILES IDX 7 37 8 38 14 39 15 40 10 41 12 43
REMARK H PARENT 38 24 32 31 30 33 18 35 10 42 12 44
REMARK Flexibility Score: inf
ROOT
ATOM      1  C   UNL     1      24.298  19.373  33.055  1.00  0.00     0.045 C 
ATOM      2  C   UNL     1      25.490  20.297  32.994  1.00  0.00    -0.039 A 
ATOM      3  C   UNL     1      26.757  19.778  33.261  1.00  0.00     0.013 A 
ATOM      4  C   UNL     1      27.917  20.576  33.234  1.00  0.00    -0.006 A 
ATOM      5  C   UNL     1      27.795  21.947  32.847  1.00  0.00     0.039 A 
ATOM      6  C   UNL     1      28.969  22.753  32.786  1.00  0.00     0.072 A 
ATOM      7  C   UNL     1      30.234  22.151  32.909  1.00  0.00     0.169 A 
ATOM      8  C   UNL     1      30.349  20.801  33.235  1.00  0.00     0.162 A 
ATOM      9  C   UNL     1      29.203  20.031  33.548  1.00  0.00     0.008 A 
ATOM     10  C   UNL     1      26.510  22.453  32.482  1.00  0.00     0.132 A 
ATOM     11  C   UNL     1      25.364  21.635  32.583  1.00  0.00     0.031 A 
ENDROOT
BRANCH  11  12
ATOM     12  C   UNL     1      24.029  22.179  32.223  1.00  0.00     0.031 A 
ATOM     13  C   UNL     1      23.720  22.464  30.877  1.00  0.00     0.132 A 
ATOM     14  C   UNL     1      23.085  22.438  33.229  1.00  0.00    -0.039 A 
ATOM     15  C   UNL     1      22.422  22.931  30.517  1.00  0.00     0.039 A 
ATOM     16  C   UNL     1      21.847  22.985  32.887  1.00  0.00     0.013 A 
ATOM     17  C   UNL     1      23.392  22.146  34.679  1.00  0.00     0.045 C 
ATOM     18  C   UNL     1      21.476  23.221  31.549  1.00  0.00    -0.006 A 
ATOM     19  C   UNL     1      22.055  23.170  29.162  1.00  0.00     0.072 A 
ATOM     20  C   UNL     1      20.198  23.772  31.213  1.00  0.00     0.008 A 
ATOM     21  C   UNL     1      20.896  23.901  28.875  1.00  0.00     0.169 A 
ATOM     22  C   UNL     1      20.002  24.249  29.892  1.00  0.00     0.162 A 
BRANCH  13  23
ATOM     23  O   UNL     1      24.717  22.339  29.902  1.00  0.00    -0.507 OA
ATOM     24  H   UNL     1      24.909  21.482  29.397  1.00  0.00     0.293 HD
ENDBRANCH  13  23
BRANCH  19  25
ATOM     25  C   UNL     1      22.806  22.629  28.007  1.00  0.00     0.264 C 
ATOM     26  O   UNL     1      22.290  21.760  27.254  1.00  0.00    -0.298 OA
ENDBRANCH  19  25
BRANCH  20  27
ATOM     27  C   UNL     1      18.997  23.804  32.178  1.00  0.00     0.017 C 
ATOM     28  C   UNL     1      18.875  22.562  33.085  1.00  0.00     0.012 C 
ATOM     29  C   UNL     1      18.891  25.123  32.954  1.00  0.00     0.012 C 
ENDBRANCH  20  27
BRANCH  21  30
ATOM     30  O   UNL     1      20.625  24.265  27.552  1.00  0.00    -0.504 OA
ATOM     31  H   UNL     1      19.815  24.812  27.288  1.00  0.00     0.293 HD
ENDBRANCH  21  30
BRANCH  22  32
ATOM     32  O   UNL     1      18.921  25.068  29.552  1.00  0.00    -0.504 OA
ATOM     33  H   UNL     1      18.463  25.050  28.651  1.00  0.00     0.293 HD
ENDBRANCH  22  32
ENDBRANCH  11  12
BRANCH  10  34
ATOM     34  O   UNL     1      26.381  23.752  31.979  1.00  0.00    -0.507 OA
ATOM     35  H   UNL     1      25.576  24.346  32.140  1.00  0.00     0.293 HD
ENDBRANCH  10  34
BRANCH   9  36
ATOM     36  C   UNL     1      29.408  18.691  34.282  1.00  0.00     0.017 C 
ATOM     37  C   UNL     1      28.880  18.672  35.730  1.00  0.00     0.012 C 
ATOM     38  C   UNL     1      28.934  17.488  33.455  1.00  0.00     0.012 C 
ENDBRANCH   9  36
BRANCH   6  39
ATOM     39  C   UNL     1      28.917  24.222  32.634  1.00  0.00     0.264 C 
ATOM     40  O   UNL     1      29.294  24.765  31.561  1.00  0.00    -0.298 OA
ENDBRANCH   6  39
BRANCH   8  41
ATOM     41  O   UNL     1      31.640  20.259  33.244  1.00  0.00    -0.504 OA
ATOM     42  H   UNL     1      32.426  20.666  32.753  1.00  0.00     0.293 HD
ENDBRANCH   8  41
BRANCH   7  43
ATOM     43  O   UNL     1      31.419  22.875  32.733  1.00  0.00    -0.504 OA
ATOM     44  H   UNL     1      31.635  23.734  33.222  1.00  0.00     0.293 HD
ENDBRANCH   7  43
TORSDOF 11
ENDMDL
MODEL 3
REMARK VINA RESULT:    -5.264      3.326      8.761
REMARK INTER + INTRA:          -8.564
REMARK INTER:                  -7.934
REMARK INTRA:                  -0.630
REMARK UNBOUND:                -0.837
REMARK SMILES Cc1cc2c(C(C)C)c(O)c(O)c(C=O)c2c(O)c1-c1c(C)cc2c(C(C)C)c(O)c(O)c(C=O)c2c1O
REMARK SMILES IDX 1 1 2 2 3 3 4 4 16 5 13 6 11 7 9 8 5 9 17 10 19 11 20 12
REMARK SMILES IDX 37 13 21 14 36 15 23 16 22 17 24 18 33 19 25 20 31 21 29 22
REMARK SMILES IDX 38 23 34 25 35 26 26 27 27 28 28 29 32 30 30 32 18 34 6 36
REMARK SMILES IDX 7 37 8 38 14 39 15 40 10 41 12 43
REMARK H PARENT 38 24 32 31 30 33 18 35 10 42 12 44
REMARK Flexibility Score: inf
ROOT
ATOM      1  C   UNL     1      23.371  21.845  34.785  1.00  0.00     0.045 C 
ATOM      2  C   UNL     1      23.065  22.168  33.342  1.00  0.00    -0.039 A 
ATOM      3  C   UNL     1      21.834  22.745  33.029  1.00  0.00     0.013 A 
ATOM      4  C   UNL     1      21.470  23.067  31.708  1.00  0.00    -0.006 A 
ATOM      5  C   UNL     1      22.427  22.861  30.666  1.00  0.00     0.039 A 
ATOM      6  C   UNL     1      22.077  23.214  29.329  1.00  0.00     0.072 A 
ATOM      7  C   UNL     1      20.893  23.934  29.087  1.00  0.00     0.169 A 
ATOM      8  C   UNL     1      19.987  24.179  30.117  1.00  0.00     0.162 A 
ATOM      9  C   UNL     1      20.186  23.624  31.404  1.00  0.00     0.008 A 
ATOM     10  C   UNL     1      23.721  22.358  31.001  1.00  0.00     0.132 A 
ATOM     11  C   UNL     1      24.023  21.991  32.329  1.00  0.00     0.031 A 
ENDROOT
BRANCH  11  12
ATOM     12  C   UNL     1      25.365  21.447  32.663  1.00  0.00     0.031 A 
ATOM     13  C   UNL     1      26.508  22.265  32.550  1.00  0.00     0.132 A 
ATOM     14  C   UNL     1      25.498  20.107  33.061  1.00  0.00    -0.039 A 
ATOM     15  C   UNL     1      27.791  21.769  32.924  1.00  0.00     0.039 A 
ATOM     16  C   UNL     1      26.766  19.593  33.336  1.00  0.00     0.013 A 
ATOM     17  C   UNL     1      24.291  19.208  33.185  1.00  0.00     0.045 C 
ATOM     18  C   UNL     1      27.924  20.396  33.300  1.00  0.00    -0.006 A 
ATOM     19  C   UNL     1      28.957  22.584  32.883  1.00  0.00     0.072 A 
ATOM     20  C   UNL     1      29.217  19.856  33.595  1.00  0.00     0.008 A 
ATOM     21  C   UNL     1      30.223  21.992  32.965  1.00  0.00     0.169 A 
ATOM     22  C   UNL     1      30.356  20.632  33.263  1.00  0.00     0.162 A 
BRANCH  13  23
ATOM     23  O   UNL     1      26.382  23.552  32.015  1.00  0.00    -0.507 OA
ATOM     24  H   UNL     1      25.981  23.749  31.106  1.00  0.00     0.293 HD
ENDBRANCH  13  23
BRANCH  19  25
ATOM     25  C   UNL     1      28.915  24.063  32.819  1.00  0.00     0.264 C 
ATOM     26  O   UNL     1      29.235  24.671  31.763  1.00  0.00    -0.298 OA
ENDBRANCH  19  25
BRANCH  20  27
ATOM     27  C   UNL     1      29.442  18.518  34.326  1.00  0.00     0.017 C 
ATOM     28  C   UNL     1      28.896  18.480  35.768  1.00  0.00     0.012 C 
ATOM     29  C   UNL     1      29.012  17.305  33.492  1.00  0.00     0.012 C 
ENDBRANCH  20  27
BRANCH  21  30
ATOM     30  O   UNL     1      31.363  22.779  32.768  1.00  0.00    -0.504 OA
ATOM     31  H   UNL     1      31.773  23.344  33.501  1.00  0.00     0.293 HD
ENDBRANCH  21  30
BRANCH  22  32
ATOM     32  O   UNL     1      31.642  20.084  33.226  1.00  0.00    -0.504 OA
ATOM     33  H   UNL     1      32.270  20.175  32.439  1.00  0.00     0.293 HD
ENDBRANCH  22  32
ENDBRANCH  11  12
BRANCH  10  34
ATOM     34  O   UNL     1      24.716  22.267  30.022  1.00  0.00    -0.507 OA
ATOM     35  H   UNL     1      24.966  21.409  29.545  1.00  0.00     0.293 HD
ENDBRANCH  10  34
BRANCH   9  36
ATOM     36  C   UNL     1      18.985  23.580  32.369  1.00  0.00     0.017 C 
ATOM     37  C   UNL     1      18.877  22.281  33.191  1.00  0.00     0.012 C 
ATOM     38  C   UNL     1      18.875  24.845  33.231  1.00  0.00     0.012 C 
ENDBRANCH   9  36
BRANCH   6  39
ATOM     39  C   UNL     1      22.895  22.821  28.163  1.00  0.00     0.264 C 
ATOM     40  O   UNL     1      22.384  22.160  27.220  1.00  0.00    -0.298 OA
ENDBRANCH   6  39
BRANCH   8  41
ATOM     41  O   UNL     1      18.883  24.983  29.813  1.00  0.00    -0.504 OA
ATOM     42  H   UNL     1      18.770  25.478  28.937  1.00  0.00     0.293 HD
ENDBRANCH   8  41
BRANCH   7  43
ATOM     43  O   UNL     1      20.565  24.412  27.813  1.00  0.00    -0.504 OA
ATOM     44  H   UNL     1      21.116  24.236  26.983  1.00  0.00     0.293 HD
ENDBRANCH   7  43
TORSDOF 11
ENDMDL
MODEL 4
REMARK VINA RESULT:    -4.479      3.302      6.275
REMARK INTER + INTRA:          -7.411
REMARK INTER:                  -7.245
REMARK INTRA:                  -0.166
REMARK UNBOUND:                -0.837
REMARK SMILES Cc1cc2c(C(C)C)c(O)c(O)c(C=O)c2c(O)c1-c1c(C)cc2c(C(C)C)c(O)c(O)c(C=O)c2c1O
REMARK SMILES IDX 1 1 2 2 3 3 4 4 16 5 13 6 11 7 9 8 5 9 17 10 19 11 20 12
REMARK SMILES IDX 37 13 21 14 36 15 23 16 22 17 24 18 33 19 25 20 31 21 29 22
REMARK SMILES IDX 38 23 34 25 35 26 26 27 27 28 28 29 32 30 30 32 18 34 6 36
REMARK SMILES IDX 7 37 8 38 14 39 15 40 10 41 12 43
REMARK H PARENT 38 24 32 31 30 33 18 35 10 42 12 44
REMARK Flexibility Score: inf
ROOT
ATOM      1  C   UNL     1      26.411  24.270  32.353  1.00  0.00     0.045 C 
ATOM      2  C   UNL     1      26.660  22.801  32.601  1.00  0.00    -0.039 A 
ATOM      3  C   UNL     1      27.936  22.391  32.988  1.00  0.00     0.013 A 
ATOM      4  C   UNL     1      28.251  21.040  33.229  1.00  0.00    -0.006 A 
ATOM      5  C   UNL     1      27.205  20.069  33.142  1.00  0.00     0.039 A 
ATOM      6  C   UNL     1      27.508  18.703  33.415  1.00  0.00     0.072 A 
ATOM      7  C   UNL     1      28.763  18.364  33.953  1.00  0.00     0.169 A 
ATOM      8  C   UNL     1      29.763  19.324  34.085  1.00  0.00     0.162 A 
ATOM      9  C   UNL     1      29.576  20.637  33.590  1.00  0.00     0.008 A 
ATOM     10  C   UNL     1      25.879  20.503  32.837  1.00  0.00     0.132 A 
ATOM     11  C   UNL     1      25.620  21.859  32.543  1.00  0.00     0.031 A 
ENDROOT
BRANCH  11  12
ATOM     12  C   UNL     1      24.239  22.295  32.204  1.00  0.00     0.031 A 
ATOM     13  C   UNL     1      23.885  22.544  30.862  1.00  0.00     0.132 A 
ATOM     14  C   UNL     1      23.297  22.488  33.226  1.00  0.00    -0.039 A 
ATOM     15  C   UNL     1      22.549  22.905  30.524  1.00  0.00     0.039 A 
ATOM     16  C   UNL     1      22.014  22.935  32.904  1.00  0.00     0.013 A 
ATOM     17  C   UNL     1      23.652  22.234  34.672  1.00  0.00     0.045 C 
ATOM     18  C   UNL     1      21.602  23.130  31.571  1.00  0.00    -0.006 A 
ATOM     19  C   UNL     1      22.139  23.104  29.175  1.00  0.00     0.072 A 
ATOM     20  C   UNL     1      20.279  23.579  31.256  1.00  0.00     0.008 A 
ATOM     21  C   UNL     1      20.922  23.741  28.904  1.00  0.00     0.169 A 
ATOM     22  C   UNL     1      20.023  24.027  29.936  1.00  0.00     0.162 A 
BRANCH  13  23
ATOM     23  O   UNL     1      24.870  22.487  29.869  1.00  0.00    -0.507 OA
ATOM     24  H   UNL     1      24.737  22.819  28.922  1.00  0.00     0.293 HD
ENDBRANCH  13  23
BRANCH  19  25
ATOM     25  C   UNL     1      22.909  22.612  28.009  1.00  0.00     0.264 C 
ATOM     26  O   UNL     1      22.421  21.745  27.236  1.00  0.00    -0.298 OA
ENDBRANCH  19  25
BRANCH  20  27
ATOM     27  C   UNL     1      19.097  23.525  32.244  1.00  0.00     0.017 C 
ATOM     28  C   UNL     1      18.875  22.146  32.899  1.00  0.00     0.012 C 
ATOM     29  C   UNL     1      19.119  24.674  33.261  1.00  0.00     0.012 C 
ENDBRANCH  20  27
BRANCH  21  30
ATOM     30  O   UNL     1      20.600  24.071  27.584  1.00  0.00    -0.504 OA
ATOM     31  H   UNL     1      21.301  24.229  26.870  1.00  0.00     0.293 HD
ENDBRANCH  21  30
BRANCH  22  32
ATOM     32  O   UNL     1      18.875  24.757  29.611  1.00  0.00    -0.504 OA
ATOM     33  H   UNL     1      18.893  25.667  29.171  1.00  0.00     0.293 HD
ENDBRANCH  22  32
ENDBRANCH  11  12
BRANCH  10  34
ATOM     34  O   UNL     1      24.815  19.595  32.871  1.00  0.00    -0.507 OA
ATOM     35  H   UNL     1      23.850  19.857  33.033  1.00  0.00     0.293 HD
ENDBRANCH  10  34
BRANCH   9  36
ATOM     36  C   UNL     1      30.822  21.522  33.392  1.00  0.00     0.017 C 
ATOM     37  C   UNL     1      32.070  20.764  32.899  1.00  0.00     0.012 C 
ATOM     38  C   UNL     1      30.524  22.784  32.570  1.00  0.00     0.012 C 
ENDBRANCH   9  36
BRANCH   6  39
ATOM     39  C   UNL     1      26.564  17.605  33.121  1.00  0.00     0.264 C 
ATOM     40  O   UNL     1      25.942  17.033  34.055  1.00  0.00    -0.298 OA
ENDBRANCH   6  39
BRANCH   8  41
ATOM     41  O   UNL     1      30.947  18.925  34.716  1.00  0.00    -0.504 OA
ATOM     42  H   UNL     1      31.176  19.147  35.677  1.00  0.00     0.293 HD
ENDBRANCH   8  41
BRANCH   7  43
ATOM     43  O   UNL     1      29.066  17.057  34.354  1.00  0.00    -0.504 OA
ATOM     44  H   UNL     1      28.564  16.238  34.041  1.00  0.00     0.293 HD
ENDBRANCH   7  43
TORSDOF 11
ENDMDL
MODEL 5
REMARK VINA RESULT:    -3.548      2.558      9.807
REMARK INTER + INTRA:          -6.045
REMARK INTER:                  -6.416
REMARK INTRA:                   0.371
REMARK UNBOUND:                -0.837
REMARK SMILES Cc1cc2c(C(C)C)c(O)c(O)c(C=O)c2c(O)c1-c1c(C)cc2c(C(C)C)c(O)c(O)c(C=O)c2c1O
REMARK SMILES IDX 1 1 2 2 3 3 4 4 16 5 13 6 11 7 9 8 5 9 17 10 19 11 20 12
REMARK SMILES IDX 37 13 21 14 36 15 23 16 22 17 24 18 33 19 25 20 31 21 29 22
REMARK SMILES IDX 38 23 34 25 35 26 26 27 27 28 28 29 32 30 30 32 18 34 6 36
REMARK SMILES IDX 7 37 8 38 14 39 15 40 10 41 12 43
REMARK H PARENT 38 24 32 31 30 33 18 35 10 42 12 44
REMARK Flexibility Score: inf
ROOT
ATOM      1  C   UNL     1      25.234  18.672  32.543  1.00  0.00     0.045 C 
ATOM      2  C   UNL     1      24.277  19.678  33.136  1.00  0.00    -0.039 A 
ATOM      3  C   UNL     1      23.065  19.226  33.659  1.00  0.00     0.013 A 
ATOM      4  C   UNL     1      22.116  20.101  34.221  1.00  0.00    -0.006 A 
ATOM      5  C   UNL     1      22.443  21.489  34.323  1.00  0.00     0.039 A 
ATOM      6  C   UNL     1      21.500  22.377  34.919  1.00  0.00     0.072 A 
ATOM      7  C   UNL     1      20.369  21.854  35.570  1.00  0.00     0.169 A 
ATOM      8  C   UNL     1      20.081  20.492  35.513  1.00  0.00     0.162 A 
ATOM      9  C   UNL     1      20.863  19.620  34.718  1.00  0.00     0.008 A 
ATOM     10  C   UNL     1      23.723  21.935  33.873  1.00  0.00     0.132 A 
ATOM     11  C   UNL     1      24.619  21.035  33.260  1.00  0.00     0.031 A 
ENDROOT
BRANCH  11  12
ATOM     12  C   UNL     1      25.940  21.515  32.774  1.00  0.00     0.031 A 
ATOM     13  C   UNL     1      26.009  22.466  31.736  1.00  0.00     0.132 A 
ATOM     14  C   UNL     1      27.120  20.998  33.331  1.00  0.00    -0.039 A 
ATOM     15  C   UNL     1      27.269  22.975  31.305  1.00  0.00     0.039 A 
ATOM     16  C   UNL     1      28.356  21.426  32.844  1.00  0.00     0.013 A 
ATOM     17  C   UNL     1      27.074  19.975  34.442  1.00  0.00     0.045 C 
ATOM     18  C   UNL     1      28.467  22.423  31.855  1.00  0.00    -0.006 A 
ATOM     19  C   UNL     1      27.374  23.981  30.303  1.00  0.00     0.072 A 
ATOM     20  C   UNL     1      29.743  22.859  31.373  1.00  0.00     0.008 A 
ATOM     21  C   UNL     1      28.612  24.235  29.701  1.00  0.00     0.169 A 
ATOM     22  C   UNL     1      29.778  23.641  30.191  1.00  0.00     0.162 A 
BRANCH  13  23
ATOM     23  O   UNL     1      24.832  22.866  31.091  1.00  0.00    -0.507 OA
ATOM     24  H   UNL     1      24.534  23.831  31.008  1.00  0.00     0.293 HD
ENDBRANCH  13  23
BRANCH  19  25
ATOM     25  C   UNL     1      26.241  24.840  29.889  1.00  0.00     0.264 C 
ATOM     26  O   UNL     1      25.641  24.634  28.800  1.00  0.00    -0.298 OA
ENDBRANCH  19  25
BRANCH  20  27
ATOM     27  C   UNL     1      31.073  22.598  32.108  1.00  0.00     0.017 C 
ATOM     28  C   UNL     1      31.606  23.803  32.910  1.00  0.00     0.012 C 
ATOM     29  C   UNL     1      31.057  21.297  32.922  1.00  0.00     0.012 C 
ENDBRANCH  20  27
BRANCH  21  30
ATOM     30  O   UNL     1      28.678  25.111  28.612  1.00  0.00    -0.504 OA
ATOM     31  H   UNL     1      28.188  24.943  27.742  1.00  0.00     0.293 HD
ENDBRANCH  21  30
BRANCH  22  32
ATOM     32  O   UNL     1      30.963  23.856  29.480  1.00  0.00    -0.504 OA
ATOM     33  H   UNL     1      31.051  23.727  28.481  1.00  0.00     0.293 HD
ENDBRANCH  22  32
ENDBRANCH  11  12
BRANCH  10  34
ATOM     34  O   UNL     1      24.118  23.262  34.076  1.00  0.00    -0.507 OA
ATOM     35  H   UNL     1      23.568  23.947  34.580  1.00  0.00     0.293 HD
ENDBRANCH  10  34
BRANCH   9  36
ATOM     36  C   UNL     1      20.278  18.237  34.368  1.00  0.00     0.017 C 
ATOM     37  C   UNL     1      20.367  17.202  35.506  1.00  0.00     0.012 C 
ATOM     38  C   UNL     1      18.875  18.330  33.751  1.00  0.00     0.012 C 
ENDBRANCH   9  36
BRANCH   6  39
ATOM     39  C   UNL     1      21.641  23.846  34.853  1.00  0.00     0.264 C 
ATOM     40  O   UNL     1      20.854  24.530  34.145  1.00  0.00    -0.298 OA
ENDBRANCH   6  39
BRANCH   8  41
ATOM     41  O   UNL     1      18.991  20.041  36.266  1.00  0.00    -0.504 OA
ATOM     42  H   UNL     1      18.677  19.079  36.284  1.00  0.00     0.293 HD
ENDBRANCH   8  41
BRANCH   7  43
ATOM     43  O   UNL     1      19.479  22.671  36.278  1.00  0.00    -0.504 OA
ATOM     44  H   UNL     1      18.966  22.373  37.097  1.00  0.00     0.293 HD
ENDBRANCH   7  43
TORSDOF 11
ENDMDL
MODEL 6
REMARK VINA RESULT:    -3.417     11.516     15.278
REMARK INTER + INTRA:          -5.853
REMARK INTER:                  -8.525
REMARK INTRA:                   2.672
REMARK UNBOUND:                -0.837
REMARK SMILES Cc1cc2c(C(C)C)c(O)c(O)c(C=O)c2c(O)c1-c1c(C)cc2c(C(C)C)c(O)c(O)c(C=O)c2c1O
REMARK SMILES IDX 1 1 2 2 3 3 4 4 16 5 13 6 11 7 9 8 5 9 17 10 19 11 20 12
REMARK SMILES IDX 37 13 21 14 36 15 23 16 22 17 24 18 33 19 25 20 31 21 29 22
REMARK SMILES IDX 38 23 34 25 35 26 26 27 27 28 28 29 32 30 30 32 18 34 6 36
REMARK SMILES IDX 7 37 8 38 14 39 15 40 10 41 12 43
REMARK H PARENT 38 24 32 31 30 33 18 35 10 42 12 44
REMARK Flexibility Score: inf
ROOT
ATOM      1  C   UNL     1      22.369  11.650  41.133  1.00  0.00     0.045 C 
ATOM      2  C   UNL     1      23.401  12.746  41.020  1.00  0.00    -0.039 A 
ATOM      3  C   UNL     1      23.060  14.035  41.430  1.00  0.00     0.013 A 
ATOM      4  C   UNL     1      23.962  15.113  41.348  1.00  0.00    -0.006 A 
ATOM      5  C   UNL     1      25.294  14.856  40.897  1.00  0.00     0.039 A 
ATOM      6  C   UNL     1      26.223  15.936  40.841  1.00  0.00     0.072 A 
ATOM      7  C   UNL     1      25.883  17.176  41.410  1.00  0.00     0.169 A 
ATOM      8  C   UNL     1      24.598  17.407  41.897  1.00  0.00     0.162 A 
ATOM      9  C   UNL     1      23.580  16.436  41.739  1.00  0.00     0.008 A 
ATOM     10  C   UNL     1      25.669  13.518  40.567  1.00  0.00     0.132 A 
ATOM     11  C   UNL     1      24.716  12.478  40.605  1.00  0.00     0.031 A 
ENDROOT
BRANCH  11  12
ATOM     12  C   UNL     1      25.112  11.093  40.237  1.00  0.00     0.031 A 
ATOM     13  C   UNL     1      25.833  10.856  39.049  1.00  0.00     0.132 A 
ATOM     14  C   UNL     1      24.741  10.019  41.060  1.00  0.00    -0.039 A 
ATOM     15  C   UNL     1      26.267   9.538  38.719  1.00  0.00     0.039 A 
ATOM     16  C   UNL     1      25.083   8.717  40.689  1.00  0.00     0.013 A 
ATOM     17  C   UNL     1      23.965  10.246  42.336  1.00  0.00     0.045 C 
ATOM     18  C   UNL     1      25.860   8.444  39.545  1.00  0.00    -0.006 A 
ATOM     19  C   UNL     1      27.049   9.269  37.560  1.00  0.00     0.072 A 
ATOM     20  C   UNL     1      26.212   7.105  39.183  1.00  0.00     0.008 A 
ATOM     21  C   UNL     1      27.198   7.951  37.113  1.00  0.00     0.169 A 
ATOM     22  C   UNL     1      26.738   6.880  37.886  1.00  0.00     0.162 A 
BRANCH  13  23
ATOM     23  O   UNL     1      26.071  11.915  38.166  1.00  0.00    -0.507 OA
ATOM     24  H   UNL     1      26.332  11.793  37.194  1.00  0.00     0.293 HD
ENDBRANCH  13  23
BRANCH  19  25
ATOM     25  C   UNL     1      27.784  10.315  36.814  1.00  0.00     0.264 C 
ATOM     26  O   UNL     1      29.032  10.236  36.656  1.00  0.00    -0.298 OA
ENDBRANCH  19  25
BRANCH  20  27
ATOM     27  C   UNL     1      26.131   5.906  40.148  1.00  0.00     0.017 C 
ATOM     28  C   UNL     1      24.793   5.140  40.103  1.00  0.00     0.012 C 
ATOM     29  C   UNL     1      27.352   4.981  40.052  1.00  0.00     0.012 C 
ENDBRANCH  20  27
BRANCH  21  30
ATOM     30  O   UNL     1      27.835   7.709  35.892  1.00  0.00    -0.504 OA
ATOM     31  H   UNL     1      28.109   8.451  35.259  1.00  0.00     0.293 HD
ENDBRANCH  21  30
BRANCH  22  32
ATOM     32  O   UNL     1      26.825   5.598  37.333  1.00  0.00    -0.504 OA
ATOM     33  H   UNL     1      27.468   5.346  36.595  1.00  0.00     0.293 HD
ENDBRANCH  22  32
ENDBRANCH  11  12
BRANCH  10  34
ATOM     34  O   UNL     1      26.997  13.218  40.245  1.00  0.00    -0.507 OA
ATOM     35  H   UNL     1      27.557  12.528  40.733  1.00  0.00     0.293 HD
ENDBRANCH  10  34
BRANCH   9  36
ATOM     36  C   UNL     1      22.116  16.885  41.918  1.00  0.00     0.017 C 
ATOM     37  C   UNL     1      21.123  16.221  40.944  1.00  0.00     0.012 C 
ATOM     38  C   UNL     1      21.654  16.819  43.381  1.00  0.00     0.012 C 
ENDBRANCH   9  36
BRANCH   6  39
ATOM     39  C   UNL     1      27.534  15.823  40.169  1.00  0.00     0.264 C 
ATOM     40  O   UNL     1      28.100  16.845  39.698  1.00  0.00    -0.298 OA
ENDBRANCH   6  39
BRANCH   8  41
ATOM     41  O   UNL     1      24.370  18.632  42.533  1.00  0.00    -0.504 OA
ATOM     42  H   UNL     1      24.812  19.501  42.258  1.00  0.00     0.293 HD
ENDBRANCH   8  41
BRANCH   7  43
ATOM     43  O   UNL     1      26.801  18.230  41.493  1.00  0.00    -0.504 OA
ATOM     44  H   UNL     1      26.762  19.061  40.918  1.00  0.00     0.293 HD
ENDBRANCH   7  43
TORSDOF 11
ENDMDL
MODEL 7
REMARK VINA RESULT:    -3.115      2.824      9.697
REMARK INTER + INTRA:          -5.409
REMARK INTER:                  -5.922
REMARK INTRA:                   0.513
REMARK UNBOUND:                -0.837
REMARK SMILES Cc1cc2c(C(C)C)c(O)c(O)c(C=O)c2c(O)c1-c1c(C)cc2c(C(C)C)c(O)c(O)c(C=O)c2c1O
REMARK SMILES IDX 1 1 2 2 3 3 4 4 16 5 13 6 11 7 9 8 5 9 17 10 19 11 20 12
REMARK SMILES IDX 37 13 21 14 36 15 23 16 22 17 24 18 33 19 25 20 31 21 29 22
REMARK SMILES IDX 38 23 34 25 35 26 26 27 27 28 28 29 32 30 30 32 18 34 6 36
REMARK SMILES IDX 7 37 8 38 14 39 15 40 10 41 12 43
REMARK H PARENT 38 24 32 31 30 33 18 35 10 42 12 44
REMARK Flexibility Score: inf
ROOT
ATOM      1  C   UNL     1      24.066  19.778  32.052  1.00  0.00     0.045 C 
ATOM      2  C   UNL     1      23.319  20.699  32.986  1.00  0.00    -0.039 A 
ATOM      3  C   UNL     1      22.236  20.192  33.707  1.00  0.00     0.013 A 
ATOM      4  C   UNL     1      21.483  20.988  34.590  1.00  0.00    -0.006 A 
ATOM      5  C   UNL     1      21.890  22.341  34.807  1.00  0.00     0.039 A 
ATOM      6  C   UNL     1      21.151  23.145  35.724  1.00  0.00     0.072 A 
ATOM      7  C   UNL     1      20.172  22.548  36.539  1.00  0.00     0.169 A 
ATOM      8  C   UNL     1      19.815  21.213  36.360  1.00  0.00     0.162 A 
ATOM      9  C   UNL     1      20.353  20.457  35.291  1.00  0.00     0.008 A 
ATOM     10  C   UNL     1      23.054  22.831  34.140  1.00  0.00     0.132 A 
ATOM     11  C   UNL     1      23.744  22.018  33.216  1.00  0.00     0.031 A 
ENDROOT
BRANCH  11  12
ATOM     12  C   UNL     1      24.941  22.546  32.511  1.00  0.00     0.031 A 
ATOM     13  C   UNL     1      26.218  22.017  32.790  1.00  0.00     0.132 A 
ATOM     14  C   UNL     1      24.802  23.595  31.588  1.00  0.00    -0.039 A 
ATOM     15  C   UNL     1      27.362  22.477  32.075  1.00  0.00     0.039 A 
ATOM     16  C   UNL     1      25.936  24.111  30.957  1.00  0.00     0.013 A 
ATOM     17  C   UNL     1      23.447  24.183  31.274  1.00  0.00     0.045 C 
ATOM     18  C   UNL     1      27.220  23.565  31.159  1.00  0.00    -0.006 A 
ATOM     19  C   UNL     1      28.657  21.923  32.286  1.00  0.00     0.072 A 
ATOM     20  C   UNL     1      28.372  24.099  30.497  1.00  0.00     0.008 A 
ATOM     21  C   UNL     1      29.787  22.591  31.798  1.00  0.00     0.169 A 
ATOM     22  C   UNL     1      29.651  23.700  30.958  1.00  0.00     0.162 A 
BRANCH  13  23
ATOM     23  O   UNL     1      26.362  21.074  33.814  1.00  0.00    -0.507 OA
ATOM     24  H   UNL     1      25.943  20.152  33.797  1.00  0.00     0.293 HD
ENDBRANCH  13  23
BRANCH  19  25
ATOM     25  C   UNL     1      28.887  20.621  32.951  1.00  0.00     0.264 C 
ATOM     26  O   UNL     1      29.340  20.569  34.126  1.00  0.00    -0.298 OA
ENDBRANCH  19  25
BRANCH  20  27
ATOM     27  C   UNL     1      28.302  25.018  29.261  1.00  0.00     0.017 C 
ATOM     28  C   UNL     1      29.372  24.727  28.189  1.00  0.00     0.012 C 
ATOM     29  C   UNL     1      26.886  25.125  28.679  1.00  0.00     0.012 C 
ENDBRANCH  20  27
BRANCH  21  30
ATOM     30  O   UNL     1      31.060  22.125  32.141  1.00  0.00    -0.504 OA
ATOM     31  H   UNL     1      31.558  21.434  31.593  1.00  0.00     0.293 HD
ENDBRANCH  21  30
BRANCH  22  32
ATOM     32  O   UNL     1      30.816  24.382  30.592  1.00  0.00    -0.504 OA
ATOM     33  H   UNL     1      31.583  23.957  30.090  1.00  0.00     0.293 HD
ENDBRANCH  22  32
ENDBRANCH  11  12
BRANCH  10  34
ATOM     34  O   UNL     1      23.548  24.108  34.430  1.00  0.00    -0.507 OA
ATOM     35  H   UNL     1      24.500  24.296  34.718  1.00  0.00     0.293 HD
ENDBRANCH  10  34
BRANCH   9  36
ATOM     36  C   UNL     1      19.639  19.150  34.896  1.00  0.00     0.017 C 
ATOM     37  C   UNL     1      18.875  19.221  33.559  1.00  0.00     0.012 C 
ATOM     38  C   UNL     1      20.557  17.924  34.997  1.00  0.00     0.012 C 
ENDBRANCH   9  36
BRANCH   6  39
ATOM     39  C   UNL     1      21.342  24.606  35.833  1.00  0.00     0.264 C 
ATOM     40  O   UNL     1      21.698  25.121  36.927  1.00  0.00    -0.298 OA
ENDBRANCH   6  39
BRANCH   8  41
ATOM     41  O   UNL     1      18.904  20.672  37.274  1.00  0.00    -0.504 OA
ATOM     42  H   UNL     1      18.218  21.220  37.778  1.00  0.00     0.293 HD
ENDBRANCH   8  41
BRANCH   7  43
ATOM     43  O   UNL     1      19.507  23.265  37.541  1.00  0.00    -0.504 OA
ATOM     44  H   UNL     1      18.501  23.281  37.652  1.00  0.00     0.293 HD
ENDBRANCH   7  43
TORSDOF 11
ENDMDL
