MODEL 1
REMARK VINA RESULT:    -4.219      0.000      0.000
REMARK INTER + INTRA:          -4.466
REMARK INTER:                  -4.466
REMARK INTRA:                   0.000
REMARK UNBOUND:                 0.000
REMARK SMILES Cc1cc(O)c(C)c(C)c1O
REMARK SMILES IDX 1 1 2 2 3 3 4 4 6 5 8 6 10 7 9 8 7 9 11 10 5 12
REMARK H PARENT 11 11 5 13
REMARK Flexibility Score: inf
ROOT
ATOM      1  C   UNL     1     161.226 177.538 188.223  1.00  0.00     0.048 C 
ATOM      2  C   UNL     1     161.957 177.568 186.907  1.00  0.00    -0.005 A 
ATOM      3  C   UNL     1     163.185 178.234 186.822  1.00  0.00     0.053 A 
ATOM      4  C   UNL     1     163.901 178.270 185.622  1.00  0.00     0.119 A 
ATOM      5  C   UNL     1     163.393 177.629 184.475  1.00  0.00    -0.003 A 
ATOM      6  C   UNL     1     162.125 176.995 184.534  1.00  0.00    -0.002 A 
ATOM      7  C   UNL     1     161.425 176.941 185.760  1.00  0.00     0.121 A 
ATOM      8  C   UNL     1     161.542 176.326 183.309  1.00  0.00     0.049 C 
ATOM      9  C   UNL     1     164.181 177.669 183.185  1.00  0.00     0.049 C 
ENDROOT
BRANCH   7  10
ATOM     10  O   UNL     1     160.203 176.260 185.816  1.00  0.00    -0.507 OA
ATOM     11  H   UNL     1     160.004 175.525 186.482  1.00  0.00     0.293 HD
ENDBRANCH   7  10
BRANCH   4  12
ATOM     12  O   UNL     1     165.121 178.946 185.570  1.00  0.00    -0.508 OA
ATOM     13  H   UNL     1     165.363 179.663 186.245  1.00  0.00     0.293 HD
ENDBRANCH   4  12
TORSDOF 2
ENDMDL
MODEL 2
REMARK VINA RESULT:    -4.166      1.056      3.113
REMARK INTER + INTRA:          -4.410
REMARK INTER:                  -4.410
REMARK INTRA:                   0.000
REMARK UNBOUND:                 0.000
REMARK SMILES Cc1cc(O)c(C)c(C)c1O
REMARK SMILES IDX 1 1 2 2 3 3 4 4 6 5 8 6 10 7 9 8 7 9 11 10 5 12
REMARK H PARENT 11 11 5 13
REMARK Flexibility Score: inf
ROOT
ATOM      1  C   UNL     1     161.770 177.096 182.103  1.00  0.00     0.048 C 
ATOM      2  C   UNL     1     162.211 177.463 183.495  1.00  0.00    -0.005 A 
ATOM      3  C   UNL     1     163.550 177.802 183.722  1.00  0.00     0.053 A 
ATOM      4  C   UNL     1     163.993 178.163 184.996  1.00  0.00     0.119 A 
ATOM      5  C   UNL     1     163.091 178.196 186.078  1.00  0.00    -0.003 A 
ATOM      6  C   UNL     1     161.742 177.806 185.872  1.00  0.00    -0.002 A 
ATOM      7  C   UNL     1     161.300 177.470 184.573  1.00  0.00     0.121 A 
ATOM      8  C   UNL     1     160.760 177.802 187.022  1.00  0.00     0.049 C 
ATOM      9  C   UNL     1     163.582 178.596 187.450  1.00  0.00     0.049 C 
ENDROOT
BRANCH   7  10
ATOM     10  O   UNL     1     159.953 177.145 184.376  1.00  0.00    -0.507 OA
ATOM     11  H   UNL     1     159.644 176.312 183.894  1.00  0.00     0.293 HD
ENDBRANCH   7  10
BRANCH   4  12
ATOM     12  O   UNL     1     165.336 178.491 185.188  1.00  0.00    -0.508 OA
ATOM     13  H   UNL     1     165.849 179.056 184.521  1.00  0.00     0.293 HD
ENDBRANCH   4  12
TORSDOF 2
ENDMDL
MODEL 3
REMARK VINA RESULT:    -4.079     11.159     12.887
REMARK INTER + INTRA:          -4.318
REMARK INTER:                  -4.318
REMARK INTRA:                   0.000
REMARK UNBOUND:                 0.000
REMARK SMILES Cc1cc(O)c(C)c(C)c1O
REMARK SMILES IDX 1 1 2 2 3 3 4 4 6 5 8 6 10 7 9 8 7 9 11 10 5 12
REMARK H PARENT 11 11 5 13
REMARK Flexibility Score: inf
ROOT
ATOM      1  C   UNL     1     160.239 179.471 173.773  1.00  0.00     0.048 C 
ATOM      2  C   UNL     1     161.377 178.642 173.240  1.00  0.00    -0.005 A 
ATOM      3  C   UNL     1     161.628 178.628 171.863  1.00  0.00     0.053 A 
ATOM      4  C   UNL     1     162.684 177.884 171.332  1.00  0.00     0.119 A 
ATOM      5  C   UNL     1     163.521 177.135 172.183  1.00  0.00    -0.003 A 
ATOM      6  C   UNL     1     163.247 177.099 173.575  1.00  0.00    -0.002 A 
ATOM      7  C   UNL     1     162.193 177.878 174.102  1.00  0.00     0.121 A 
ATOM      8  C   UNL     1     164.110 176.277 174.507  1.00  0.00     0.049 C 
ATOM      9  C   UNL     1     164.665 176.340 171.596  1.00  0.00     0.049 C 
ENDROOT
BRANCH   7  10
ATOM     10  O   UNL     1     161.974 177.878 175.484  1.00  0.00    -0.507 OA
ATOM     11  H   UNL     1     162.682 177.630 176.162  1.00  0.00     0.293 HD
ENDBRANCH   7  10
BRANCH   4  12
ATOM     12  O   UNL     1     162.903 177.890 169.954  1.00  0.00    -0.508 OA
ATOM     13  H   UNL     1     163.823 178.056 169.560  1.00  0.00     0.293 HD
ENDBRANCH   4  12
TORSDOF 2
ENDMDL
MODEL 4
REMARK VINA RESULT:    -4.064     11.123     12.805
REMARK INTER + INTRA:          -4.301
REMARK INTER:                  -4.301
REMARK INTRA:                   0.000
REMARK UNBOUND:                 0.000
REMARK SMILES Cc1cc(O)c(C)c(C)c1O
REMARK SMILES IDX 1 1 2 2 3 3 4 4 6 5 8 6 10 7 9 8 7 9 11 10 5 12
REMARK H PARENT 11 11 5 13
REMARK Flexibility Score: inf
ROOT
ATOM      1  C   UNL     1     174.053 179.441 182.825  1.00  0.00     0.048 C 
ATOM      2  C   UNL     1     174.282 179.260 184.302  1.00  0.00    -0.005 A 
ATOM      3  C   UNL     1     173.343 179.766 185.208  1.00  0.00     0.053 A 
ATOM      4  C   UNL     1     173.513 179.603 186.585  1.00  0.00     0.119 A 
ATOM      5  C   UNL     1     174.638 178.919 187.085  1.00  0.00    -0.003 A 
ATOM      6  C   UNL     1     175.624 178.446 186.180  1.00  0.00    -0.002 A 
ATOM      7  C   UNL     1     175.427 178.591 184.789  1.00  0.00     0.121 A 
ATOM      8  C   UNL     1     176.857 177.735 186.691  1.00  0.00     0.049 C 
ATOM      9  C   UNL     1     174.806 178.743 188.576  1.00  0.00     0.049 C 
ENDROOT
BRANCH   7  10
ATOM     10  O   UNL     1     176.379 178.066 183.908  1.00  0.00    -0.507 OA
ATOM     11  H   UNL     1     176.141 177.553 183.069  1.00  0.00     0.293 HD
ENDBRANCH   7  10
BRANCH   4  12
ATOM     12  O   UNL     1     172.559 180.124 187.461  1.00  0.00    -0.508 OA
ATOM     13  H   UNL     1     172.729 180.969 187.996  1.00  0.00     0.293 HD
ENDBRANCH   4  12
TORSDOF 2
ENDMDL
MODEL 5
REMARK VINA RESULT:    -4.011      1.278      4.147
REMARK INTER + INTRA:          -4.246
REMARK INTER:                  -4.246
REMARK INTRA:                   0.000
REMARK UNBOUND:                 0.000
REMARK SMILES Cc1cc(O)c(C)c(C)c1O
REMARK SMILES IDX 1 1 2 2 3 3 4 4 6 5 8 6 10 7 9 8 7 9 11 10 5 12
REMARK H PARENT 11 11 5 13
REMARK Flexibility Score: inf
ROOT
ATOM      1  C   UNL     1     161.463 176.932 182.847  1.00  0.00     0.048 C 
ATOM      2  C   UNL     1     161.740 177.096 184.317  1.00  0.00    -0.005 A 
ATOM      3  C   UNL     1     160.901 176.469 185.246  1.00  0.00     0.053 A 
ATOM      4  C   UNL     1     161.135 176.586 186.619  1.00  0.00     0.119 A 
ATOM      5  C   UNL     1     162.229 177.338 187.090  1.00  0.00    -0.003 A 
ATOM      6  C   UNL     1     163.057 178.021 186.161  1.00  0.00    -0.002 A 
ATOM      7  C   UNL     1     162.826 177.873 184.775  1.00  0.00     0.121 A 
ATOM      8  C   UNL     1     164.219 178.862 186.641  1.00  0.00     0.049 C 
ATOM      9  C   UNL     1     162.476 177.449 188.577  1.00  0.00     0.049 C 
ENDROOT
BRANCH   7  10
ATOM     10  O   UNL     1     163.688 178.505 183.871  1.00  0.00    -0.507 OA
ATOM     11  H   UNL     1     164.266 179.299 184.112  1.00  0.00     0.293 HD
ENDBRANCH   7  10
BRANCH   4  12
ATOM     12  O   UNL     1     160.277 175.950 187.518  1.00  0.00    -0.508 OA
ATOM     13  H   UNL     1     159.640 176.473 188.108  1.00  0.00     0.293 HD
ENDBRANCH   4  12
TORSDOF 2
ENDMDL
MODEL 6
REMARK VINA RESULT:    -3.981     10.203     12.120
REMARK INTER + INTRA:          -4.214
REMARK INTER:                  -4.214
REMARK INTRA:                   0.000
REMARK UNBOUND:                 0.000
REMARK SMILES Cc1cc(O)c(C)c(C)c1O
REMARK SMILES IDX 1 1 2 2 3 3 4 4 6 5 8 6 10 7 9 8 7 9 11 10 5 12
REMARK H PARENT 11 11 5 13
REMARK Flexibility Score: inf
ROOT
ATOM      1  C   UNL     1     172.077 179.689 183.155  1.00  0.00     0.048 C 
ATOM      2  C   UNL     1     173.165 179.297 184.119  1.00  0.00    -0.005 A 
ATOM      3  C   UNL     1     174.345 178.728 183.626  1.00  0.00     0.053 A 
ATOM      4  C   UNL     1     175.383 178.366 184.488  1.00  0.00     0.119 A 
ATOM      5  C   UNL     1     175.257 178.573 185.875  1.00  0.00    -0.003 A 
ATOM      6  C   UNL     1     174.046 179.100 186.394  1.00  0.00    -0.002 A 
ATOM      7  C   UNL     1     173.015 179.489 185.510  1.00  0.00     0.121 A 
ATOM      8  C   UNL     1     173.872 179.303 187.883  1.00  0.00     0.049 C 
ATOM      9  C   UNL     1     176.391 178.183 186.796  1.00  0.00     0.049 C 
ENDROOT
BRANCH   7  10
ATOM     10  O   UNL     1     171.851 180.063 186.033  1.00  0.00    -0.507 OA
ATOM     11  H   UNL     1     171.005 179.540 186.219  1.00  0.00     0.293 HD
ENDBRANCH   7  10
BRANCH   4  12
ATOM     12  O   UNL     1     176.545 177.798 183.962  1.00  0.00    -0.508 OA
ATOM     13  H   UNL     1     177.132 177.180 184.511  1.00  0.00     0.293 HD
ENDBRANCH   4  12
TORSDOF 2
ENDMDL
MODEL 7
REMARK VINA RESULT:    -3.966     11.523     12.721
REMARK INTER + INTRA:          -4.197
REMARK INTER:                  -4.197
REMARK INTRA:                   0.000
REMARK UNBOUND:                 0.000
REMARK SMILES Cc1cc(O)c(C)c(C)c1O
REMARK SMILES IDX 1 1 2 2 3 3 4 4 6 5 8 6 10 7 9 8 7 9 11 10 5 12
REMARK H PARENT 11 11 5 13
REMARK Flexibility Score: inf
ROOT
ATOM      1  C   UNL     1     174.580 179.256 188.674  1.00  0.00     0.048 C 
ATOM      2  C   UNL     1     174.923 178.821 187.274  1.00  0.00    -0.005 A 
ATOM      3  C   UNL     1     176.006 177.959 187.071  1.00  0.00     0.053 A 
ATOM      4  C   UNL     1     176.346 177.522 185.788  1.00  0.00     0.119 A 
ATOM      5  C   UNL     1     175.593 177.943 184.674  1.00  0.00    -0.003 A 
ATOM      6  C   UNL     1     174.524 178.857 184.860  1.00  0.00    -0.002 A 
ATOM      7  C   UNL     1     174.174 179.270 186.165  1.00  0.00     0.121 A 
ATOM      8  C   UNL     1     173.720 179.350 183.677  1.00  0.00     0.049 C 
ATOM      9  C   UNL     1     175.966 177.456 183.293  1.00  0.00     0.049 C 
ENDROOT
BRANCH   7  10
ATOM     10  O   UNL     1     173.079 180.125 186.337  1.00  0.00    -0.507 OA
ATOM     11  H   UNL     1     172.824 180.845 185.674  1.00  0.00     0.293 HD
ENDBRANCH   7  10
BRANCH   4  12
ATOM     12  O   UNL     1     177.435 176.665 185.620  1.00  0.00    -0.508 OA
ATOM     13  H   UNL     1     177.573 176.138 184.766  1.00  0.00     0.293 HD
ENDBRANCH   4  12
TORSDOF 2
ENDMDL
MODEL 8
REMARK VINA RESULT:    -3.963     13.779     14.720
REMARK INTER + INTRA:          -4.194
REMARK INTER:                  -4.194
REMARK INTRA:                   0.000
REMARK UNBOUND:                 0.000
REMARK SMILES Cc1cc(O)c(C)c(C)c1O
REMARK SMILES IDX 1 1 2 2 3 3 4 4 6 5 8 6 10 7 9 8 7 9 11 10 5 12
REMARK H PARENT 11 11 5 13
REMARK Flexibility Score: inf
ROOT
ATOM      1  C   UNL     1     166.052 163.102 188.163  1.00  0.00     0.048 C 
ATOM      2  C   UNL     1     164.571 163.172 187.904  1.00  0.00    -0.005 A 
ATOM      3  C   UNL     1     163.850 161.985 187.726  1.00  0.00     0.053 A 
ATOM      4  C   UNL     1     162.472 162.009 187.499  1.00  0.00     0.119 A 
ATOM      5  C   UNL     1     161.783 163.236 187.449  1.00  0.00    -0.003 A 
ATOM      6  C   UNL     1     162.509 164.449 187.576  1.00  0.00    -0.002 A 
ATOM      7  C   UNL     1     163.898 164.411 187.833  1.00  0.00     0.121 A 
ATOM      8  C   UNL     1     161.799 165.782 187.495  1.00  0.00     0.049 C 
ATOM      9  C   UNL     1     160.290 163.247 187.210  1.00  0.00     0.049 C 
ENDROOT
BRANCH   7  10
ATOM     10  O   UNL     1     164.589 165.614 188.015  1.00  0.00    -0.507 OA
ATOM     11  H   UNL     1     164.666 166.327 187.302  1.00  0.00     0.293 HD
ENDBRANCH   7  10
BRANCH   4  12
ATOM     12  O   UNL     1     161.785 160.807 187.323  1.00  0.00    -0.508 OA
ATOM     13  H   UNL     1     161.393 160.296 188.106  1.00  0.00     0.293 HD
ENDBRANCH   4  12
TORSDOF 2
ENDMDL
MODEL 9
REMARK VINA RESULT:    -3.925      2.588      3.727
REMARK INTER + INTRA:          -4.155
REMARK INTER:                  -4.155
REMARK INTRA:                   0.000
REMARK UNBOUND:                 0.000
REMARK SMILES Cc1cc(O)c(C)c(C)c1O
REMARK SMILES IDX 1 1 2 2 3 3 4 4 6 5 8 6 10 7 9 8 7 9 11 10 5 12
REMARK H PARENT 11 11 5 13
REMARK Flexibility Score: inf
ROOT
ATOM      1  C   UNL     1     160.678 178.246 187.726  1.00  0.00     0.048 C 
ATOM      2  C   UNL     1     160.734 176.986 186.905  1.00  0.00    -0.005 A 
ATOM      3  C   UNL     1     160.768 175.746 187.555  1.00  0.00     0.053 A 
ATOM      4  C   UNL     1     160.805 174.554 186.828  1.00  0.00     0.119 A 
ATOM      5  C   UNL     1     160.804 174.583 185.419  1.00  0.00    -0.003 A 
ATOM      6  C   UNL     1     160.822 175.833 184.748  1.00  0.00    -0.002 A 
ATOM      7  C   UNL     1     160.757 177.031 185.494  1.00  0.00     0.121 A 
ATOM      8  C   UNL     1     160.854 175.894 183.237  1.00  0.00     0.049 C 
ATOM      9  C   UNL     1     160.836 173.286 184.645  1.00  0.00     0.049 C 
ENDROOT
BRANCH   7  10
ATOM     10  O   UNL     1     160.715 178.254 184.815  1.00  0.00    -0.507 OA
ATOM     11  H   UNL     1     160.881 178.347 183.822  1.00  0.00     0.293 HD
ENDBRANCH   7  10
BRANCH   4  12
ATOM     12  O   UNL     1     160.842 173.336 187.508  1.00  0.00    -0.508 OA
ATOM     13  H   UNL     1     160.744 172.451 187.023  1.00  0.00     0.293 HD
ENDBRANCH   4  12
TORSDOF 2
ENDMDL
