MODEL 1
REMARK VINA RESULT:    -4.433      0.000      0.000
REMARK INTER + INTRA:          -4.563
REMARK INTER:                  -4.563
REMARK INTRA:                   0.000
REMARK UNBOUND:                 0.000
REMARK SMILES CC1(C)[C@@H]2CC[C@@]1(C)[C@@H](O)C2
REMARK SMILES IDX 1 1 2 2 4 3 5 4 6 5 7 6 9 7 11 8 8 9 3 10 10 11
REMARK H PARENT 10 12
REMARK Flexibility Score: inf
ROOT
ATOM      1  C   UNL     1     186.631 189.831 187.158  1.00  0.00     0.012 C 
ATOM      2  C   UNL     1     186.563 191.051 188.129  1.00  0.00    -0.025 C 
ATOM      3  C   UNL     1     185.542 192.122 187.711  1.00  0.00    -0.002 C 
ATOM      4  C   UNL     1     185.578 193.127 188.888  1.00  0.00     0.005 C 
ATOM      5  C   UNL     1     185.798 192.216 190.111  1.00  0.00     0.010 C 
ATOM      6  C   UNL     1     185.840 190.798 189.473  1.00  0.00    -0.001 C 
ATOM      7  C   UNL     1     184.389 190.443 189.021  1.00  0.00     0.121 C 
ATOM      8  C   UNL     1     184.184 191.385 187.814  1.00  0.00     0.036 C 
ATOM      9  C   UNL     1     186.479 189.739 190.382  1.00  0.00     0.015 C 
ATOM     10  C   UNL     1     188.026 191.585 188.240  1.00  0.00     0.012 C 
ENDROOT
BRANCH   7  11
ATOM     11  O   UNL     1     183.429 190.694 190.017  1.00  0.00    -0.393 OA
ATOM     12  H   UNL     1     182.843 191.414 189.669  1.00  0.00     0.210 HD
ENDBRANCH   7  11
TORSDOF 1
ENDMDL
MODEL 2
REMARK VINA RESULT:    -4.430      1.162      2.425
REMARK INTER + INTRA:          -4.560
REMARK INTER:                  -4.560
REMARK INTRA:                   0.000
REMARK UNBOUND:                 0.000
REMARK SMILES CC1(C)[C@@H]2CC[C@@]1(C)[C@@H](O)C2
REMARK SMILES IDX 1 1 2 2 4 3 5 4 6 5 7 6 9 7 11 8 8 9 3 10 10 11
REMARK H PARENT 10 12
REMARK Flexibility Score: inf
ROOT
ATOM      1  C   UNL     1     187.567 190.330 189.425  1.00  0.00     0.012 C 
ATOM      2  C   UNL     1     186.435 190.539 188.370  1.00  0.00    -0.025 C 
ATOM      3  C   UNL     1     185.634 189.264 188.059  1.00  0.00    -0.002 C 
ATOM      4  C   UNL     1     184.516 189.768 187.113  1.00  0.00     0.005 C 
ATOM      5  C   UNL     1     184.204 191.171 187.668  1.00  0.00     0.010 C 
ATOM      6  C   UNL     1     185.175 191.281 188.878  1.00  0.00    -0.001 C 
ATOM      7  C   UNL     1     184.643 190.329 189.995  1.00  0.00     0.121 C 
ATOM      8  C   UNL     1     184.943 188.933 189.405  1.00  0.00     0.036 C 
ATOM      9  C   UNL     1     185.399 192.723 189.352  1.00  0.00     0.015 C 
ATOM     10  C   UNL     1     187.130 191.167 187.122  1.00  0.00     0.012 C 
ENDROOT
BRANCH   7  11
ATOM     11  O   UNL     1     183.266 190.483 190.234  1.00  0.00    -0.393 OA
ATOM     12  H   UNL     1     183.165 190.645 191.207  1.00  0.00     0.210 HD
ENDBRANCH   7  11
TORSDOF 1
ENDMDL
MODEL 3
REMARK VINA RESULT:    -4.327     13.104     14.429
REMARK INTER + INTRA:          -4.453
REMARK INTER:                  -4.453
REMARK INTRA:                   0.000
REMARK UNBOUND:                 0.000
REMARK SMILES CC1(C)[C@@H]2CC[C@@]1(C)[C@@H](O)C2
REMARK SMILES IDX 1 1 2 2 4 3 5 4 6 5 7 6 9 7 11 8 8 9 3 10 10 11
REMARK H PARENT 10 12
REMARK Flexibility Score: inf
ROOT
ATOM      1  C   UNL     1     182.031 191.452 201.637  1.00  0.00     0.012 C 
ATOM      2  C   UNL     1     180.572 191.020 201.987  1.00  0.00    -0.025 C 
ATOM      3  C   UNL     1     179.910 191.890 203.068  1.00  0.00    -0.002 C 
ATOM      4  C   UNL     1     178.461 191.347 203.125  1.00  0.00     0.005 C 
ATOM      5  C   UNL     1     178.173 190.985 201.655  1.00  0.00     0.010 C 
ATOM      6  C   UNL     1     179.494 191.390 200.941  1.00  0.00    -0.001 C 
ATOM      7  C   UNL     1     179.558 192.949 200.919  1.00  0.00     0.121 C 
ATOM      8  C   UNL     1     179.822 193.286 202.404  1.00  0.00     0.036 C 
ATOM      9  C   UNL     1     179.663 190.746 199.559  1.00  0.00     0.015 C 
ATOM     10  C   UNL     1     180.658 189.507 202.362  1.00  0.00     0.012 C 
ENDROOT
BRANCH   7  11
ATOM     11  O   UNL     1     178.360 193.539 200.480  1.00  0.00    -0.393 OA
ATOM     12  H   UNL     1     178.368 193.491 199.490  1.00  0.00     0.210 HD
ENDBRANCH   7  11
TORSDOF 1
ENDMDL
MODEL 4
REMARK VINA RESULT:    -4.213      8.858     10.258
REMARK INTER + INTRA:          -4.336
REMARK INTER:                  -4.336
REMARK INTRA:                   0.000
REMARK UNBOUND:                 0.000
REMARK SMILES CC1(C)[C@@H]2CC[C@@]1(C)[C@@H](O)C2
REMARK SMILES IDX 1 1 2 2 4 3 5 4 6 5 7 6 9 7 11 8 8 9 3 10 10 11
REMARK H PARENT 10 12
REMARK Flexibility Score: inf
ROOT
ATOM      1  C   UNL     1     188.770 183.266 192.795  1.00  0.00     0.012 C 
ATOM      2  C   UNL     1     187.771 182.157 193.250  1.00  0.00    -0.025 C 
ATOM      3  C   UNL     1     186.754 182.631 194.302  1.00  0.00    -0.002 C 
ATOM      4  C   UNL     1     185.821 181.407 194.472  1.00  0.00     0.005 C 
ATOM      5  C   UNL     1     185.759 180.822 193.047  1.00  0.00     0.010 C 
ATOM      6  C   UNL     1     186.654 181.804 192.239  1.00  0.00    -0.001 C 
ATOM      7  C   UNL     1     185.874 183.149 192.106  1.00  0.00     0.121 C 
ATOM      8  C   UNL     1     185.928 183.702 193.547  1.00  0.00     0.036 C 
ATOM      9  C   UNL     1     187.130 181.232 190.897  1.00  0.00     0.015 C 
ATOM     10  C   UNL     1     188.655 180.960 193.724  1.00  0.00     0.012 C 
ENDROOT
BRANCH   7  11
ATOM     11  O   UNL     1     184.543 182.971 191.690  1.00  0.00    -0.393 OA
ATOM     12  H   UNL     1     184.412 181.996 191.571  1.00  0.00     0.210 HD
ENDBRANCH   7  11
TORSDOF 1
ENDMDL
MODEL 5
REMARK VINA RESULT:    -4.182      2.442      4.188
REMARK INTER + INTRA:          -4.304
REMARK INTER:                  -4.304
REMARK INTRA:                   0.000
REMARK UNBOUND:                 0.000
REMARK SMILES CC1(C)[C@@H]2CC[C@@]1(C)[C@@H](O)C2
REMARK SMILES IDX 1 1 2 2 4 3 5 4 6 5 7 6 9 7 11 8 8 9 3 10 10 11
REMARK H PARENT 10 12
REMARK Flexibility Score: inf
ROOT
ATOM      1  C   UNL     1     185.940 187.699 191.888  1.00  0.00     0.012 C 
ATOM      2  C   UNL     1     185.339 187.634 190.449  1.00  0.00    -0.025 C 
ATOM      3  C   UNL     1     183.843 187.283 190.417  1.00  0.00    -0.002 C 
ATOM      4  C   UNL     1     183.477 187.417 188.919  1.00  0.00     0.005 C 
ATOM      5  C   UNL     1     184.353 188.597 188.457  1.00  0.00     0.010 C 
ATOM      6  C   UNL     1     185.096 188.999 189.762  1.00  0.00    -0.001 C 
ATOM      7  C   UNL     1     184.054 189.678 190.705  1.00  0.00     0.121 C 
ATOM      8  C   UNL     1     183.174 188.482 191.134  1.00  0.00     0.036 C 
ATOM      9  C   UNL     1     186.349 189.850 189.514  1.00  0.00     0.015 C 
ATOM     10  C   UNL     1     186.238 186.632 189.659  1.00  0.00     0.012 C 
ENDROOT
BRANCH   7  11
ATOM     11  O   UNL     1     183.282 190.655 190.054  1.00  0.00    -0.393 OA
ATOM     12  H   UNL     1     183.104 191.366 190.722  1.00  0.00     0.210 HD
ENDBRANCH   7  11
TORSDOF 1
ENDMDL
MODEL 6
REMARK VINA RESULT:    -4.173      1.270      2.316
REMARK INTER + INTRA:          -4.295
REMARK INTER:                  -4.295
REMARK INTRA:                   0.000
REMARK UNBOUND:                 0.000
REMARK SMILES CC1(C)[C@@H]2CC[C@@]1(C)[C@@H](O)C2
REMARK SMILES IDX 1 1 2 2 4 3 5 4 6 5 7 6 9 7 11 8 8 9 3 10 10 11
REMARK H PARENT 10 12
REMARK Flexibility Score: inf
ROOT
ATOM      1  C   UNL     1     188.000 192.435 189.255  1.00  0.00     0.012 C 
ATOM      2  C   UNL     1     186.484 192.412 188.887  1.00  0.00    -0.025 C 
ATOM      3  C   UNL     1     186.194 191.853 187.484  1.00  0.00    -0.002 C 
ATOM      4  C   UNL     1     184.647 191.814 187.428  1.00  0.00     0.005 C 
ATOM      5  C   UNL     1     184.261 191.448 188.874  1.00  0.00     0.010 C 
ATOM      6  C   UNL     1     185.645 191.305 189.568  1.00  0.00    -0.001 C 
ATOM      7  C   UNL     1     186.305 189.995 189.034  1.00  0.00     0.121 C 
ATOM      8  C   UNL     1     186.660 190.379 187.580  1.00  0.00     0.036 C 
ATOM      9  C   UNL     1     185.570 191.376 191.100  1.00  0.00     0.015 C 
ATOM     10  C   UNL     1     185.974 193.872 189.100  1.00  0.00     0.012 C 
ENDROOT
BRANCH   7  11
ATOM     11  O   UNL     1     185.434 188.893 189.060  1.00  0.00    -0.393 OA
ATOM     12  H   UNL     1     185.432 188.513 188.144  1.00  0.00     0.210 HD
ENDBRANCH   7  11
TORSDOF 1
ENDMDL
MODEL 7
REMARK VINA RESULT:    -4.159      1.939      3.155
REMARK INTER + INTRA:          -4.280
REMARK INTER:                  -4.280
REMARK INTRA:                   0.000
REMARK UNBOUND:                 0.000
REMARK SMILES CC1(C)[C@@H]2CC[C@@]1(C)[C@@H](O)C2
REMARK SMILES IDX 1 1 2 2 4 3 5 4 6 5 7 6 9 7 11 8 8 9 3 10 10 11
REMARK H PARENT 10 12
REMARK Flexibility Score: inf
ROOT
ATOM      1  C   UNL     1     186.248 189.189 189.480  1.00  0.00     0.012 C 
ATOM      2  C   UNL     1     185.685 190.600 189.120  1.00  0.00    -0.025 C 
ATOM      3  C   UNL     1     186.733 191.723 189.195  1.00  0.00    -0.002 C 
ATOM      4  C   UNL     1     185.966 192.962 188.670  1.00  0.00     0.005 C 
ATOM      5  C   UNL     1     185.051 192.363 187.584  1.00  0.00     0.010 C 
ATOM      6  C   UNL     1     185.430 190.856 187.615  1.00  0.00    -0.001 C 
ATOM      7  C   UNL     1     186.855 190.717 186.995  1.00  0.00     0.121 C 
ATOM      8  C   UNL     1     187.749 191.344 188.089  1.00  0.00     0.036 C 
ATOM      9  C   UNL     1     184.380 189.949 186.957  1.00  0.00     0.015 C 
ATOM     10  C   UNL     1     184.459 190.820 190.060  1.00  0.00     0.012 C 
ENDROOT
BRANCH   7  11
ATOM     11  O   UNL     1     186.994 191.410 185.781  1.00  0.00    -0.393 OA
ATOM     12  H   UNL     1     186.343 192.157 185.806  1.00  0.00     0.210 HD
ENDBRANCH   7  11
TORSDOF 1
ENDMDL
MODEL 8
REMARK VINA RESULT:    -4.044      9.249     10.406
REMARK INTER + INTRA:          -4.162
REMARK INTER:                  -4.162
REMARK INTRA:                   0.000
REMARK UNBOUND:                 0.000
REMARK SMILES CC1(C)[C@@H]2CC[C@@]1(C)[C@@H](O)C2
REMARK SMILES IDX 1 1 2 2 4 3 5 4 6 5 7 6 9 7 11 8 8 9 3 10 10 11
REMARK H PARENT 10 12
REMARK Flexibility Score: inf
ROOT
ATOM      1  C   UNL     1     189.102 181.375 193.074  1.00  0.00     0.012 C 
ATOM      2  C   UNL     1     187.838 181.951 192.362  1.00  0.00    -0.025 C 
ATOM      3  C   UNL     1     186.884 180.871 191.823  1.00  0.00    -0.002 C 
ATOM      4  C   UNL     1     185.678 181.690 191.301  1.00  0.00     0.005 C 
ATOM      5  C   UNL     1     185.590 182.851 192.310  1.00  0.00     0.010 C 
ATOM      6  C   UNL     1     186.750 182.534 193.295  1.00  0.00    -0.001 C 
ATOM      7  C   UNL     1     186.322 181.294 194.141  1.00  0.00     0.121 C 
ATOM      8  C   UNL     1     186.394 180.150 193.104  1.00  0.00     0.036 C 
ATOM      9  C   UNL     1     187.178 183.739 194.142  1.00  0.00     0.015 C 
ATOM     10  C   UNL     1     188.375 182.921 191.263  1.00  0.00     0.012 C 
ENDROOT
BRANCH   7  11
ATOM     11  O   UNL     1     185.022 181.410 194.663  1.00  0.00    -0.393 OA
ATOM     12  H   UNL     1     184.927 180.697 195.345  1.00  0.00     0.210 HD
ENDBRANCH   7  11
TORSDOF 1
ENDMDL
MODEL 9
REMARK VINA RESULT:    -4.023      2.938      4.491
REMARK INTER + INTRA:          -4.140
REMARK INTER:                  -4.140
REMARK INTRA:                   0.000
REMARK UNBOUND:                 0.000
REMARK SMILES CC1(C)[C@@H]2CC[C@@]1(C)[C@@H](O)C2
REMARK SMILES IDX 1 1 2 2 4 3 5 4 6 5 7 6 9 7 11 8 8 9 3 10 10 11
REMARK H PARENT 10 12
REMARK Flexibility Score: inf
ROOT
ATOM      1  C   UNL     1     186.407 189.118 191.492  1.00  0.00     0.012 C 
ATOM      2  C   UNL     1     185.176 188.177 191.298  1.00  0.00    -0.025 C 
ATOM      3  C   UNL     1     183.821 188.887 191.455  1.00  0.00    -0.002 C 
ATOM      4  C   UNL     1     182.798 187.785 191.087  1.00  0.00     0.005 C 
ATOM      5  C   UNL     1     183.522 187.001 189.976  1.00  0.00     0.010 C 
ATOM      6  C   UNL     1     184.865 187.772 189.838  1.00  0.00    -0.001 C 
ATOM      7  C   UNL     1     184.553 189.143 189.160  1.00  0.00     0.121 C 
ATOM      8  C   UNL     1     183.807 189.899 190.282  1.00  0.00     0.036 C 
ATOM      9  C   UNL     1     185.960 186.968 189.125  1.00  0.00     0.015 C 
ATOM     10  C   UNL     1     185.387 186.995 192.296  1.00  0.00     0.012 C 
ENDROOT
BRANCH   7  11
ATOM     11  O   UNL     1     183.741 189.017 188.020  1.00  0.00    -0.393 OA
ATOM     12  H   UNL     1     184.295 189.298 187.247  1.00  0.00     0.210 HD
ENDBRANCH   7  11
TORSDOF 1
ENDMDL
