MODEL 1
REMARK VINA RESULT:    -4.246      0.000      0.000
REMARK INTER + INTRA:          -7.259
REMARK INTER:                  -6.728
REMARK INTRA:                  -0.531
REMARK UNBOUND:                -0.531
REMARK SMILES CCCCCCCCCCCC(=O)[O-]
REMARK SMILES IDX 7 1 8 2 9 3 10 4 11 5 12 6 13 7 14 8 6 9 5 10 4 11 3 12 2 13
REMARK SMILES IDX 1 14
REMARK H PARENT
REMARK Flexibility Score: inf
ROOT
ATOM      1  C   UNL     1      36.138  28.109  29.615  1.00  0.00     0.000 C 
ENDROOT
BRANCH   1   2
ATOM      2  C   UNL     1      34.821  27.324  29.667  1.00  0.00     0.000 C 
BRANCH   2   3
ATOM      3  C   UNL     1      33.690  28.102  28.986  1.00  0.00     0.000 C 
BRANCH   3   4
ATOM      4  C   UNL     1      32.367  27.324  29.058  1.00  0.00     0.006 C 
BRANCH   4   5
ATOM      5  C   UNL     1      31.562  27.427  27.756  1.00  0.00     0.053 C 
BRANCH   5   6
ATOM      6  C   UNL     1      32.214  26.671  26.640  1.00  0.00     0.041 C 
ATOM      7  O   UNL     1      32.270  25.413  26.674  1.00  0.00    -0.550 OA
ATOM      8  O   UNL     1      32.732  27.353  25.546  1.00  0.00    -0.550 OA
ENDBRANCH   5   6
ENDBRANCH   4   5
ENDBRANCH   3   4
ENDBRANCH   2   3
ENDBRANCH   1   2
BRANCH   1   9
ATOM      9  C   UNL     1      35.891  29.611  29.804  1.00  0.00     0.000 C 
BRANCH   9  10
ATOM     10  C   UNL     1      37.202  30.400  29.715  1.00  0.00    -0.000 C 
BRANCH  10  11
ATOM     11  C   UNL     1      37.498  30.817  28.267  1.00  0.00    -0.000 C 
BRANCH  11  12
ATOM     12  C   UNL     1      37.737  32.336  28.133  1.00  0.00    -0.000 C 
BRANCH  12  13
ATOM     13  C   UNL     1      38.623  32.920  29.246  1.00  0.00    -0.003 C 
ATOM     14  C   UNL     1      40.110  32.645  29.034  1.00  0.00     0.004 C 
ENDBRANCH  12  13
ENDBRANCH  11  12
ENDBRANCH  10  11
ENDBRANCH   9  10
ENDBRANCH   1   9
TORSDOF 10
ENDMDL
MODEL 2
REMARK VINA RESULT:    -4.147     11.414     13.449
REMARK INTER + INTRA:          -7.103
REMARK INTER:                  -6.682
REMARK INTRA:                  -0.420
REMARK UNBOUND:                -0.531
REMARK SMILES CCCCCCCCCCCC(=O)[O-]
REMARK SMILES IDX 7 1 8 2 9 3 10 4 11 5 12 6 13 7 14 8 6 9 5 10 4 11 3 12 2 13
REMARK SMILES IDX 1 14
REMARK H PARENT
REMARK Flexibility Score: inf
ROOT
ATOM      1  C   UNL     1      37.876  26.251  16.150  1.00  0.00     0.000 C 
ENDROOT
BRANCH   1   2
ATOM      2  C   UNL     1      38.955  26.218  17.240  1.00  0.00     0.000 C 
BRANCH   2   3
ATOM      3  C   UNL     1      40.322  26.615  16.673  1.00  0.00     0.000 C 
BRANCH   3   4
ATOM      4  C   UNL     1      41.413  26.519  17.750  1.00  0.00     0.006 C 
BRANCH   4   5
ATOM      5  C   UNL     1      41.392  27.719  18.707  1.00  0.00     0.053 C 
BRANCH   5   6
ATOM      6  C   UNL     1      40.892  27.336  20.065  1.00  0.00     0.041 C 
ATOM      7  O   UNL     1      41.190  26.216  20.559  1.00  0.00    -0.550 OA
ATOM      8  O   UNL     1      40.121  28.228  20.800  1.00  0.00    -0.550 OA
ENDBRANCH   5   6
ENDBRANCH   4   5
ENDBRANCH   3   4
ENDBRANCH   2   3
ENDBRANCH   1   2
BRANCH   1   9
ATOM      9  C   UNL     1      36.591  25.561  16.624  1.00  0.00     0.000 C 
BRANCH   9  10
ATOM     10  C   UNL     1      35.393  25.978  15.765  1.00  0.00    -0.000 C 
BRANCH  10  11
ATOM     11  C   UNL     1      35.001  27.438  16.035  1.00  0.00    -0.000 C 
BRANCH  11  12
ATOM     12  C   UNL     1      35.002  28.292  14.750  1.00  0.00    -0.000 C 
BRANCH  12  13
ATOM     13  C   UNL     1      34.986  29.806  15.017  1.00  0.00    -0.003 C 
ATOM     14  C   UNL     1      34.544  30.623  13.805  1.00  0.00     0.004 C 
ENDBRANCH  12  13
ENDBRANCH  11  12
ENDBRANCH  10  11
ENDBRANCH   9  10
ENDBRANCH   1   9
TORSDOF 10
ENDMDL
MODEL 3
REMARK VINA RESULT:    -4.110      4.948      8.435
REMARK INTER + INTRA:          -7.044
REMARK INTER:                  -6.539
REMARK INTRA:                  -0.505
REMARK UNBOUND:                -0.531
REMARK SMILES CCCCCCCCCCCC(=O)[O-]
REMARK SMILES IDX 7 1 8 2 9 3 10 4 11 5 12 6 13 7 14 8 6 9 5 10 4 11 3 12 2 13
REMARK SMILES IDX 1 14
REMARK H PARENT
REMARK Flexibility Score: inf
ROOT
ATOM      1  C   UNL     1      37.575  32.249  28.187  1.00  0.00     0.000 C 
ENDROOT
BRANCH   1   2
ATOM      2  C   UNL     1      38.881  33.047  28.290  1.00  0.00     0.000 C 
BRANCH   2   3
ATOM      3  C   UNL     1      39.575  32.795  29.633  1.00  0.00     0.000 C 
BRANCH   3   4
ATOM      4  C   UNL     1      41.102  32.824  29.478  1.00  0.00     0.006 C 
BRANCH   4   5
ATOM      5  C   UNL     1      41.734  31.443  29.698  1.00  0.00     0.053 C 
BRANCH   5   6
ATOM      6  C   UNL     1      43.183  31.430  29.317  1.00  0.00     0.041 C 
ATOM      7  O   UNL     1      43.746  32.487  28.927  1.00  0.00    -0.550 OA
ATOM      8  O   UNL     1      43.919  30.257  29.421  1.00  0.00    -0.550 OA
ENDBRANCH   5   6
ENDBRANCH   4   5
ENDBRANCH   3   4
ENDBRANCH   2   3
ENDBRANCH   1   2
BRANCH   1   9
ATOM      9  C   UNL     1      37.817  30.759  28.461  1.00  0.00     0.000 C 
BRANCH   9  10
ATOM     10  C   UNL     1      36.491  30.007  28.618  1.00  0.00    -0.000 C 
BRANCH  10  11
ATOM     11  C   UNL     1      36.658  28.776  29.522  1.00  0.00    -0.000 C 
BRANCH  11  12
ATOM     12  C   UNL     1      35.345  27.981  29.676  1.00  0.00    -0.000 C 
BRANCH  12  13
ATOM     13  C   UNL     1      34.185  28.538  28.835  1.00  0.00    -0.003 C 
ATOM     14  C   UNL     1      32.856  28.561  29.587  1.00  0.00     0.004 C 
ENDBRANCH  12  13
ENDBRANCH  11  12
ENDBRANCH  10  11
ENDBRANCH   9  10
ENDBRANCH   1   9
TORSDOF 10
ENDMDL
MODEL 4
REMARK VINA RESULT:    -4.088      2.700      4.783
REMARK INTER + INTRA:          -7.008
REMARK INTER:                  -6.553
REMARK INTRA:                  -0.455
REMARK UNBOUND:                -0.531
REMARK SMILES CCCCCCCCCCCC(=O)[O-]
REMARK SMILES IDX 7 1 8 2 9 3 10 4 11 5 12 6 13 7 14 8 6 9 5 10 4 11 3 12 2 13
REMARK SMILES IDX 1 14
REMARK H PARENT
REMARK Flexibility Score: inf
ROOT
ATOM      1  C   UNL     1      38.707  32.232  28.064  1.00  0.00     0.000 C 
ENDROOT
BRANCH   1   2
ATOM      2  C   UNL     1      37.401  31.449  28.242  1.00  0.00     0.000 C 
BRANCH   2   3
ATOM      3  C   UNL     1      37.386  30.701  29.581  1.00  0.00     0.000 C 
BRANCH   3   4
ATOM      4  C   UNL     1      36.774  29.302  29.423  1.00  0.00     0.006 C 
BRANCH   4   5
ATOM      5  C   UNL     1      35.402  29.343  28.737  1.00  0.00     0.053 C 
BRANCH   5   6
ATOM      6  C   UNL     1      34.498  28.259  29.241  1.00  0.00     0.041 C 
ATOM      7  O   UNL     1      33.248  28.377  29.139  1.00  0.00    -0.550 OA
ATOM      8  O   UNL     1      35.038  27.105  29.795  1.00  0.00    -0.550 OA
ENDBRANCH   5   6
ENDBRANCH   4   5
ENDBRANCH   3   4
ENDBRANCH   2   3
ENDBRANCH   1   2
BRANCH   1   9
ATOM      9  C   UNL     1      39.277  32.669  29.419  1.00  0.00     0.000 C 
BRANCH   9  10
ATOM     10  C   UNL     1      40.803  32.797  29.359  1.00  0.00    -0.000 C 
BRANCH  10  11
ATOM     11  C   UNL     1      41.484  31.578  29.997  1.00  0.00    -0.000 C 
BRANCH  11  12
ATOM     12  C   UNL     1      42.967  31.454  29.586  1.00  0.00    -0.000 C 
BRANCH  12  13
ATOM     13  C   UNL     1      43.649  30.182  30.118  1.00  0.00    -0.003 C 
ATOM     14  C   UNL     1      44.225  29.304  29.010  1.00  0.00     0.004 C 
ENDBRANCH  12  13
ENDBRANCH  11  12
ENDBRANCH  10  11
ENDBRANCH   9  10
ENDBRANCH   1   9
TORSDOF 10
ENDMDL
MODEL 5
REMARK VINA RESULT:    -4.069      3.764      7.501
REMARK INTER + INTRA:          -6.979
REMARK INTER:                  -6.525
REMARK INTRA:                  -0.454
REMARK UNBOUND:                -0.531
REMARK SMILES CCCCCCCCCCCC(=O)[O-]
REMARK SMILES IDX 7 1 8 2 9 3 10 4 11 5 12 6 13 7 14 8 6 9 5 10 4 11 3 12 2 13
REMARK SMILES IDX 1 14
REMARK H PARENT
REMARK Flexibility Score: inf
ROOT
ATOM      1  C   UNL     1      35.728  28.654  29.659  1.00  0.00     0.000 C 
ENDROOT
BRANCH   1   2
ATOM      2  C   UNL     1      36.572  29.934  29.698  1.00  0.00     0.000 C 
BRANCH   2   3
ATOM      3  C   UNL     1      36.951  30.386  28.283  1.00  0.00     0.000 C 
BRANCH   3   4
ATOM      4  C   UNL     1      37.275  31.887  28.254  1.00  0.00     0.006 C 
BRANCH   4   5
ATOM      5  C   UNL     1      38.754  32.156  27.949  1.00  0.00     0.053 C 
BRANCH   5   6
ATOM      6  C   UNL     1      39.580  32.192  29.199  1.00  0.00     0.041 C 
ATOM      7  O   UNL     1      39.732  33.272  29.828  1.00  0.00    -0.550 OA
ATOM      8  O   UNL     1      40.156  31.025  29.685  1.00  0.00    -0.550 OA
ENDBRANCH   5   6
ENDBRANCH   4   5
ENDBRANCH   3   4
ENDBRANCH   2   3
ENDBRANCH   1   2
BRANCH   1   9
ATOM      9  C   UNL     1      34.303  28.949  29.172  1.00  0.00     0.000 C 
BRANCH   9  10
ATOM     10  C   UNL     1      33.340  27.829  29.581  1.00  0.00    -0.000 C 
BRANCH  10  11
ATOM     11  C   UNL     1      32.020  27.925  28.802  1.00  0.00    -0.000 C 
BRANCH  11  12
ATOM     12  C   UNL     1      31.406  26.538  28.518  1.00  0.00    -0.000 C 
BRANCH  12  13
ATOM     13  C   UNL     1      31.546  26.091  27.053  1.00  0.00    -0.003 C 
ATOM     14  C   UNL     1      32.488  26.980  26.244  1.00  0.00     0.004 C 
ENDBRANCH  12  13
ENDBRANCH  11  12
ENDBRANCH  10  11
ENDBRANCH   9  10
ENDBRANCH   1   9
TORSDOF 10
ENDMDL
MODEL 6
REMARK VINA RESULT:    -4.027     12.766     14.070
REMARK INTER + INTRA:          -6.912
REMARK INTER:                  -6.489
REMARK INTRA:                  -0.423
REMARK UNBOUND:                -0.531
REMARK SMILES CCCCCCCCCCCC(=O)[O-]
REMARK SMILES IDX 7 1 8 2 9 3 10 4 11 5 12 6 13 7 14 8 6 9 5 10 4 11 3 12 2 13
REMARK SMILES IDX 1 14
REMARK H PARENT
REMARK Flexibility Score: inf
ROOT
ATOM      1  C   UNL     1      42.483  29.580  16.030  1.00  0.00     0.000 C 
ENDROOT
BRANCH   1   2
ATOM      2  C   UNL     1      41.747  28.785  17.116  1.00  0.00     0.000 C 
BRANCH   2   3
ATOM      3  C   UNL     1      41.400  27.375  16.625  1.00  0.00     0.000 C 
BRANCH   3   4
ATOM      4  C   UNL     1      40.594  26.608  17.684  1.00  0.00     0.006 C 
BRANCH   4   5
ATOM      5  C   UNL     1      41.448  26.229  18.901  1.00  0.00     0.053 C 
BRANCH   5   6
ATOM      6  C   UNL     1      40.911  26.830  20.163  1.00  0.00     0.041 C 
ATOM      7  O   UNL     1      40.988  28.072  20.357  1.00  0.00    -0.550 OA
ATOM      8  O   UNL     1      40.298  26.022  21.112  1.00  0.00    -0.550 OA
ENDBRANCH   5   6
ENDBRANCH   4   5
ENDBRANCH   3   4
ENDBRANCH   2   3
ENDBRANCH   1   2
BRANCH   1   9
ATOM      9  C   UNL     1      42.408  31.087  16.304  1.00  0.00     0.000 C 
BRANCH   9  10
ATOM     10  C   UNL     1      43.552  31.832  15.606  1.00  0.00    -0.000 C 
BRANCH  10  11
ATOM     11  C   UNL     1      44.901  31.513  16.267  1.00  0.00    -0.000 C 
BRANCH  11  12
ATOM     12  C   UNL     1      45.893  30.856  15.285  1.00  0.00    -0.000 C 
BRANCH  12  13
ATOM     13  C   UNL     1      47.183  30.354  15.956  1.00  0.00    -0.003 C 
ATOM     14  C   UNL     1      48.330  30.149  14.970  1.00  0.00     0.004 C 
ENDBRANCH  12  13
ENDBRANCH  11  12
ENDBRANCH  10  11
ENDBRANCH   9  10
ENDBRANCH   1   9
TORSDOF 10
ENDMDL
MODEL 7
REMARK VINA RESULT:    -4.026      4.956      8.512
REMARK INTER + INTRA:          -6.910
REMARK INTER:                  -6.470
REMARK INTRA:                  -0.439
REMARK UNBOUND:                -0.531
REMARK SMILES CCCCCCCCCCCC(=O)[O-]
REMARK SMILES IDX 7 1 8 2 9 3 10 4 11 5 12 6 13 7 14 8 6 9 5 10 4 11 3 12 2 13
REMARK SMILES IDX 1 14
REMARK H PARENT
REMARK Flexibility Score: inf
ROOT
ATOM      1  C   UNL     1      39.477  32.641  28.255  1.00  0.00     0.000 C 
ENDROOT
BRANCH   1   2
ATOM      2  C   UNL     1      40.201  32.819  29.595  1.00  0.00     0.000 C 
BRANCH   2   3
ATOM      3  C   UNL     1      41.722  32.810  29.403  1.00  0.00     0.000 C 
BRANCH   3   4
ATOM      4  C   UNL     1      42.336  31.510  29.945  1.00  0.00     0.006 C 
BRANCH   4   5
ATOM      5  C   UNL     1      43.563  31.067  29.137  1.00  0.00     0.053 C 
BRANCH   5   6
ATOM      6  C   UNL     1      43.820  29.598  29.280  1.00  0.00     0.041 C 
ATOM      7  O   UNL     1      42.876  28.814  29.566  1.00  0.00    -0.550 OA
ATOM      8  O   UNL     1      45.095  29.091  29.067  1.00  0.00    -0.550 OA
ENDBRANCH   5   6
ENDBRANCH   4   5
ENDBRANCH   3   4
ENDBRANCH   2   3
ENDBRANCH   1   2
BRANCH   1   9
ATOM      9  C   UNL     1      37.955  32.634  28.448  1.00  0.00     0.000 C 
BRANCH   9  10
ATOM     10  C   UNL     1      37.531  31.538  29.432  1.00  0.00    -0.000 C 
BRANCH  10  11
ATOM     11  C   UNL     1      36.890  30.353  28.696  1.00  0.00    -0.000 C 
BRANCH  11  12
ATOM     12  C   UNL     1      36.877  29.069  29.553  1.00  0.00    -0.000 C 
BRANCH  12  13
ATOM     13  C   UNL     1      35.465  28.608  29.950  1.00  0.00    -0.003 C 
ATOM     14  C   UNL     1      34.438  28.798  28.836  1.00  0.00     0.004 C 
ENDBRANCH  12  13
ENDBRANCH  11  12
ENDBRANCH  10  11
ENDBRANCH   9  10
ENDBRANCH   1   9
TORSDOF 10
ENDMDL
MODEL 8
REMARK VINA RESULT:    -3.974      3.677      6.548
REMARK INTER + INTRA:          -6.827
REMARK INTER:                  -6.380
REMARK INTRA:                  -0.447
REMARK UNBOUND:                -0.531
REMARK SMILES CCCCCCCCCCCC(=O)[O-]
REMARK SMILES IDX 7 1 8 2 9 3 10 4 11 5 12 6 13 7 14 8 6 9 5 10 4 11 3 12 2 13
REMARK SMILES IDX 1 14
REMARK H PARENT
REMARK Flexibility Score: inf
ROOT
ATOM      1  C   UNL     1      41.102  32.835  29.260  1.00  0.00     0.000 C 
ENDROOT
BRANCH   1   2
ATOM      2  C   UNL     1      39.824  32.649  30.089  1.00  0.00     0.000 C 
BRANCH   2   3
ATOM      3  C   UNL     1      38.598  32.494  29.181  1.00  0.00     0.000 C 
BRANCH   3   4
ATOM      4  C   UNL     1      38.379  31.023  28.800  1.00  0.00     0.006 C 
BRANCH   4   5
ATOM      5  C   UNL     1      36.971  30.769  28.247  1.00  0.00     0.053 C 
BRANCH   5   6
ATOM      6  C   UNL     1      36.272  29.673  28.992  1.00  0.00     0.041 C 
ATOM      7  O   UNL     1      36.833  29.115  29.972  1.00  0.00    -0.550 OA
ATOM      8  O   UNL     1      34.990  29.288  28.621  1.00  0.00    -0.550 OA
ENDBRANCH   5   6
ENDBRANCH   4   5
ENDBRANCH   3   4
ENDBRANCH   2   3
ENDBRANCH   1   2
BRANCH   1   9
ATOM      9  C   UNL     1      42.244  33.383  30.125  1.00  0.00     0.000 C 
BRANCH   9  10
ATOM     10  C   UNL     1      43.544  32.612  29.872  1.00  0.00    -0.000 C 
BRANCH  10  11
ATOM     11  C   UNL     1      43.284  31.349  29.038  1.00  0.00    -0.000 C 
BRANCH  11  12
ATOM     12  C   UNL     1      44.284  30.218  29.360  1.00  0.00    -0.000 C 
BRANCH  12  13
ATOM     13  C   UNL     1      43.670  28.811  29.274  1.00  0.00    -0.003 C 
ATOM     14  C   UNL     1      44.709  27.719  29.029  1.00  0.00     0.004 C 
ENDBRANCH  12  13
ENDBRANCH  11  12
ENDBRANCH  10  11
ENDBRANCH   9  10
ENDBRANCH   1   9
TORSDOF 10
ENDMDL
