MODEL 1
REMARK VINA RESULT:    -4.783      0.000      0.000
REMARK INTER + INTRA:          -5.715
REMARK INTER:                  -5.622
REMARK INTRA:                  -0.094
REMARK UNBOUND:                -0.094
REMARK SMILES O=c1c(O)c(-c2ccc(O)cc2)oc2cc(O)cc(O)c12
REMARK SMILES IDX 5 1 3 2 2 3 1 4 21 5 19 6 18 7 16 8 15 9 14 10 13 11 6 12
REMARK SMILES IDX 7 13 8 14 9 15 12 16 11 17 10 18 4 20 20 22 17 24
REMARK H PARENT 10 19 4 21 20 23 17 25
REMARK Flexibility Score: inf
ROOT
ATOM      1  C   UNL     1     -13.974 -41.180   8.217  1.00  0.00     0.180 A 
ATOM      2  C   UNL     1     -12.919 -40.761   9.051  1.00  0.00     0.208 A 
ATOM      3  C   UNL     1     -12.397 -39.468   8.887  1.00  0.00     0.238 A 
ATOM      4  O   UNL     1     -11.443 -39.088   9.620  1.00  0.00    -0.285 OA
ATOM      5  C   UNL     1     -12.949 -38.612   7.912  1.00  0.00     0.111 A 
ATOM      6  C   UNL     1     -12.484 -37.295   7.687  1.00  0.00     0.134 A 
ATOM      7  C   UNL     1     -13.092 -36.501   6.703  1.00  0.00     0.093 A 
ATOM      8  C   UNL     1     -14.154 -36.997   5.945  1.00  0.00     0.123 A 
ATOM      9  C   UNL     1     -14.618 -38.298   6.162  1.00  0.00     0.094 A 
ATOM     10  C   UNL     1     -14.024 -39.105   7.137  1.00  0.00     0.146 A 
ATOM     11  O   UNL     1     -14.480 -40.338   7.320  1.00  0.00    -0.452 OA
ENDROOT
BRANCH   1  12
ATOM     12  C   UNL     1     -14.566 -42.533   8.316  1.00  0.00     0.021 A 
ATOM     13  C   UNL     1     -13.782 -43.690   8.147  1.00  0.00     0.016 A 
ATOM     14  C   UNL     1     -14.368 -44.957   8.221  1.00  0.00     0.047 A 
ATOM     15  C   UNL     1     -15.741 -45.086   8.450  1.00  0.00     0.115 A 
ATOM     16  C   UNL     1     -15.948 -42.670   8.525  1.00  0.00     0.016 A 
ATOM     17  C   UNL     1     -16.531 -43.939   8.599  1.00  0.00     0.047 A 
BRANCH  15  18
ATOM     18  O   UNL     1     -16.311 -46.355   8.522  1.00  0.00    -0.508 OA
ATOM     19  H   UNL     1     -15.743 -47.194   8.498  1.00  0.00     0.293 HD
ENDBRANCH  15  18
ENDBRANCH   1  12
BRANCH   2  20
ATOM     20  O   UNL     1     -12.422 -41.612  10.042  1.00  0.00    -0.502 OA
ATOM     21  H   UNL     1     -11.479 -41.532  10.401  1.00  0.00     0.293 HD
ENDBRANCH   2  20
BRANCH   6  22
ATOM     22  O   UNL     1     -11.425 -36.769   8.429  1.00  0.00    -0.507 OA
ATOM     23  H   UNL     1     -10.466 -37.051   8.265  1.00  0.00     0.293 HD
ENDBRANCH   6  22
BRANCH   8  24
ATOM     24  O   UNL     1     -14.742 -36.187   4.975  1.00  0.00    -0.508 OA
ATOM     25  H   UNL     1     -14.198 -35.516   4.444  1.00  0.00     0.293 HD
ENDBRANCH   8  24
TORSDOF 5
ENDMDL
MODEL 2
REMARK VINA RESULT:    -4.768      0.057      1.058
REMARK INTER + INTRA:          -5.698
REMARK INTER:                  -5.654
REMARK INTRA:                  -0.045
REMARK UNBOUND:                -0.094
REMARK SMILES O=c1c(O)c(-c2ccc(O)cc2)oc2cc(O)cc(O)c12
REMARK SMILES IDX 5 1 3 2 2 3 1 4 21 5 19 6 18 7 16 8 15 9 14 10 13 11 6 12
REMARK SMILES IDX 7 13 8 14 9 15 12 16 11 17 10 18 4 20 20 22 17 24
REMARK H PARENT 10 19 4 21 20 23 17 25
REMARK Flexibility Score: inf
ROOT
ATOM      1  C   UNL     1     -13.991 -41.186   8.170  1.00  0.00     0.180 A 
ATOM      2  C   UNL     1     -12.944 -40.785   9.024  1.00  0.00     0.208 A 
ATOM      3  C   UNL     1     -12.413 -39.493   8.886  1.00  0.00     0.238 A 
ATOM      4  O   UNL     1     -11.468 -39.128   9.638  1.00  0.00    -0.285 OA
ATOM      5  C   UNL     1     -12.947 -38.619   7.917  1.00  0.00     0.111 A 
ATOM      6  C   UNL     1     -12.472 -37.302   7.717  1.00  0.00     0.134 A 
ATOM      7  C   UNL     1     -13.062 -36.490   6.737  1.00  0.00     0.093 A 
ATOM      8  C   UNL     1     -14.116 -36.969   5.956  1.00  0.00     0.123 A 
ATOM      9  C   UNL     1     -14.591 -38.270   6.148  1.00  0.00     0.094 A 
ATOM     10  C   UNL     1     -14.014 -39.095   7.119  1.00  0.00     0.146 A 
ATOM     11  O   UNL     1     -14.480 -40.328   7.277  1.00  0.00    -0.452 OA
ENDROOT
BRANCH   1  12
ATOM     12  C   UNL     1     -14.591 -42.537   8.240  1.00  0.00     0.021 A 
ATOM     13  C   UNL     1     -15.961 -42.718   8.506  1.00  0.00     0.016 A 
ATOM     14  C   UNL     1     -16.499 -44.006   8.592  1.00  0.00     0.047 A 
ATOM     15  C   UNL     1     -15.679 -45.125   8.427  1.00  0.00     0.115 A 
ATOM     16  C   UNL     1     -13.768 -43.667   8.096  1.00  0.00     0.016 A 
ATOM     17  C   UNL     1     -14.310 -44.953   8.182  1.00  0.00     0.047 A 
BRANCH  15  18
ATOM     18  O   UNL     1     -16.229 -46.402   8.514  1.00  0.00    -0.508 OA
ATOM     19  H   UNL     1     -16.410 -46.841   9.409  1.00  0.00     0.293 HD
ENDBRANCH  15  18
ENDBRANCH   1  12
BRANCH   2  20
ATOM     20  O   UNL     1     -12.467 -41.653  10.009  1.00  0.00    -0.502 OA
ATOM     21  H   UNL     1     -12.100 -42.572   9.790  1.00  0.00     0.293 HD
ENDBRANCH   2  20
BRANCH   6  22
ATOM     22  O   UNL     1     -11.421 -36.793   8.482  1.00  0.00    -0.507 OA
ATOM     23  H   UNL     1     -10.967 -37.345   9.200  1.00  0.00     0.293 HD
ENDBRANCH   6  22
BRANCH   8  24
ATOM     24  O   UNL     1     -14.686 -36.141   4.990  1.00  0.00    -0.508 OA
ATOM     25  H   UNL     1     -14.245 -35.273   4.711  1.00  0.00     0.293 HD
ENDBRANCH   8  24
TORSDOF 5
ENDMDL
MODEL 3
REMARK VINA RESULT:    -4.702     19.089     20.973
REMARK INTER + INTRA:          -5.620
REMARK INTER:                  -5.674
REMARK INTRA:                   0.054
REMARK UNBOUND:                -0.094
REMARK SMILES O=c1c(O)c(-c2ccc(O)cc2)oc2cc(O)cc(O)c12
REMARK SMILES IDX 5 1 3 2 2 3 1 4 21 5 19 6 18 7 16 8 15 9 14 10 13 11 6 12
REMARK SMILES IDX 7 13 8 14 9 15 12 16 11 17 10 18 4 20 20 22 17 24
REMARK H PARENT 10 19 4 21 20 23 17 25
REMARK Flexibility Score: inf
ROOT
ATOM      1  C   UNL     1     -10.127 -51.877  -8.305  1.00  0.00     0.180 A 
ATOM      2  C   UNL     1      -9.986 -53.230  -7.938  1.00  0.00     0.208 A 
ATOM      3  C   UNL     1      -8.699 -53.791  -7.900  1.00  0.00     0.238 A 
ATOM      4  O   UNL     1      -8.562 -55.005  -7.584  1.00  0.00    -0.285 OA
ATOM      5  C   UNL     1      -7.580 -52.991  -8.207  1.00  0.00     0.111 A 
ATOM      6  C   UNL     1      -6.252 -53.478  -8.188  1.00  0.00     0.134 A 
ATOM      7  C   UNL     1      -5.189 -52.616  -8.497  1.00  0.00     0.093 A 
ATOM      8  C   UNL     1      -5.429 -51.280  -8.823  1.00  0.00     0.123 A 
ATOM      9  C   UNL     1      -6.739 -50.791  -8.844  1.00  0.00     0.094 A 
ATOM     10  C   UNL     1      -7.811 -51.636  -8.540  1.00  0.00     0.146 A 
ATOM     11  O   UNL     1      -9.046 -51.149  -8.573  1.00  0.00    -0.452 OA
ENDROOT
BRANCH   1  12
ATOM     12  C   UNL     1     -11.450 -51.217  -8.387  1.00  0.00     0.021 A 
ATOM     13  C   UNL     1     -12.535 -51.831  -9.039  1.00  0.00     0.016 A 
ATOM     14  C   UNL     1     -13.769 -51.178  -9.125  1.00  0.00     0.047 A 
ATOM     15  C   UNL     1     -13.931 -49.903  -8.574  1.00  0.00     0.115 A 
ATOM     16  C   UNL     1     -11.614 -49.928  -7.854  1.00  0.00     0.016 A 
ATOM     17  C   UNL     1     -12.848 -49.277  -7.941  1.00  0.00     0.047 A 
BRANCH  15  18
ATOM     18  O   UNL     1     -15.165 -49.265  -8.666  1.00  0.00    -0.508 OA
ATOM     19  H   UNL     1     -15.893 -49.417  -7.977  1.00  0.00     0.293 HD
ENDBRANCH  15  18
ENDBRANCH   1  12
BRANCH   2  20
ATOM     20  O   UNL     1     -11.107 -53.987  -7.591  1.00  0.00    -0.502 OA
ATOM     21  H   UNL     1     -11.063 -54.743  -6.918  1.00  0.00     0.293 HD
ENDBRANCH   2  20
BRANCH   6  22
ATOM     22  O   UNL     1      -5.979 -54.809  -7.865  1.00  0.00    -0.507 OA
ATOM     23  H   UNL     1      -6.081 -55.161  -6.920  1.00  0.00     0.293 HD
ENDBRANCH   6  22
BRANCH   8  24
ATOM     24  O   UNL     1      -4.355 -50.444  -9.125  1.00  0.00    -0.508 OA
ATOM     25  H   UNL     1      -4.477 -49.444  -9.233  1.00  0.00     0.293 HD
ENDBRANCH   8  24
TORSDOF 5
ENDMDL
MODEL 4
REMARK VINA RESULT:    -4.619      2.029      3.653
REMARK INTER + INTRA:          -5.523
REMARK INTER:                  -5.233
REMARK INTRA:                  -0.290
REMARK UNBOUND:                -0.094
REMARK SMILES O=c1c(O)c(-c2ccc(O)cc2)oc2cc(O)cc(O)c12
REMARK SMILES IDX 5 1 3 2 2 3 1 4 21 5 19 6 18 7 16 8 15 9 14 10 13 11 6 12
REMARK SMILES IDX 7 13 8 14 9 15 12 16 11 17 10 18 4 20 20 22 17 24
REMARK H PARENT 10 19 4 21 20 23 17 25
REMARK Flexibility Score: inf
ROOT
ATOM      1  C   UNL     1     -13.180 -41.230   9.390  1.00  0.00     0.180 A 
ATOM      2  C   UNL     1     -13.883 -40.102   8.922  1.00  0.00     0.208 A 
ATOM      3  C   UNL     1     -13.273 -38.840   9.005  1.00  0.00     0.238 A 
ATOM      4  O   UNL     1     -13.898 -37.822   8.600  1.00  0.00    -0.285 OA
ATOM      5  C   UNL     1     -11.970 -38.729   9.531  1.00  0.00     0.111 A 
ATOM      6  C   UNL     1     -11.284 -37.497   9.645  1.00  0.00     0.134 A 
ATOM      7  C   UNL     1      -9.984 -37.470  10.171  1.00  0.00     0.093 A 
ATOM      8  C   UNL     1      -9.359 -38.648  10.584  1.00  0.00     0.123 A 
ATOM      9  C   UNL     1     -10.031 -39.869  10.474  1.00  0.00     0.094 A 
ATOM     10  C   UNL     1     -11.328 -39.916   9.954  1.00  0.00     0.146 A 
ATOM     11  O   UNL     1     -11.946 -41.088   9.865  1.00  0.00    -0.452 OA
ENDROOT
BRANCH   1  12
ATOM     12  C   UNL     1     -13.762 -42.591   9.354  1.00  0.00     0.021 A 
ATOM     13  C   UNL     1     -13.589 -43.433   8.241  1.00  0.00     0.016 A 
ATOM     14  C   UNL     1     -14.169 -44.705   8.221  1.00  0.00     0.047 A 
ATOM     15  C   UNL     1     -14.938 -45.146   9.301  1.00  0.00     0.115 A 
ATOM     16  C   UNL     1     -14.553 -43.033  10.428  1.00  0.00     0.016 A 
ATOM     17  C   UNL     1     -15.131 -44.305  10.405  1.00  0.00     0.047 A 
BRANCH  15  18
ATOM     18  O   UNL     1     -15.509 -46.416   9.268  1.00  0.00    -0.508 OA
ATOM     19  H   UNL     1     -16.512 -46.545   9.207  1.00  0.00     0.293 HD
ENDBRANCH  15  18
ENDBRANCH   1  12
BRANCH   2  20
ATOM     20  O   UNL     1     -15.154 -40.246   8.360  1.00  0.00    -0.502 OA
ATOM     21  H   UNL     1     -15.849 -40.873   8.747  1.00  0.00     0.293 HD
ENDBRANCH   2  20
BRANCH   6  22
ATOM     22  O   UNL     1     -11.881 -36.302   9.240  1.00  0.00    -0.507 OA
ATOM     23  H   UNL     1     -12.688 -36.288   8.628  1.00  0.00     0.293 HD
ENDBRANCH   6  22
BRANCH   8  24
ATOM     24  O   UNL     1      -8.066 -38.594  11.102  1.00  0.00    -0.508 OA
ATOM     25  H   UNL     1      -7.886 -38.257  12.041  1.00  0.00     0.293 HD
ENDBRANCH   8  24
TORSDOF 5
ENDMDL
MODEL 5
REMARK VINA RESULT:    -4.568      2.033      2.541
REMARK INTER + INTRA:          -5.462
REMARK INTER:                  -5.307
REMARK INTRA:                  -0.155
REMARK UNBOUND:                -0.094
REMARK SMILES O=c1c(O)c(-c2ccc(O)cc2)oc2cc(O)cc(O)c12
REMARK SMILES IDX 5 1 3 2 2 3 1 4 21 5 19 6 18 7 16 8 15 9 14 10 13 11 6 12
REMARK SMILES IDX 7 13 8 14 9 15 12 16 11 17 10 18 4 20 20 22 17 24
REMARK H PARENT 10 19 4 21 20 23 17 25
REMARK Flexibility Score: inf
ROOT
ATOM      1  C   UNL     1     -15.106 -41.816   8.665  1.00  0.00     0.180 A 
ATOM      2  C   UNL     1     -15.633 -41.219   9.827  1.00  0.00     0.208 A 
ATOM      3  C   UNL     1     -15.354 -39.867  10.081  1.00  0.00     0.238 A 
ATOM      4  O   UNL     1     -15.812 -39.325  11.125  1.00  0.00    -0.285 OA
ATOM      5  C   UNL     1     -14.576 -39.131   9.164  1.00  0.00     0.111 A 
ATOM      6  C   UNL     1     -14.254 -37.765   9.344  1.00  0.00     0.134 A 
ATOM      7  C   UNL     1     -13.481 -37.099   8.382  1.00  0.00     0.093 A 
ATOM      8  C   UNL     1     -13.026 -37.771   7.245  1.00  0.00     0.123 A 
ATOM      9  C   UNL     1     -13.341 -39.122   7.061  1.00  0.00     0.094 A 
ATOM     10  C   UNL     1     -14.109 -39.802   8.011  1.00  0.00     0.146 A 
ATOM     11  O   UNL     1     -14.389 -41.086   7.815  1.00  0.00    -0.452 OA
ENDROOT
BRANCH   1  12
ATOM     12  C   UNL     1     -15.339 -43.240   8.337  1.00  0.00     0.021 A 
ATOM     13  C   UNL     1     -16.622 -43.718   8.015  1.00  0.00     0.016 A 
ATOM     14  C   UNL     1     -16.821 -45.073   7.733  1.00  0.00     0.047 A 
ATOM     15  C   UNL     1     -15.748 -45.968   7.780  1.00  0.00     0.115 A 
ATOM     16  C   UNL     1     -14.269 -44.149   8.402  1.00  0.00     0.016 A 
ATOM     17  C   UNL     1     -14.471 -45.503   8.119  1.00  0.00     0.047 A 
BRANCH  15  18
ATOM     18  O   UNL     1     -15.961 -47.314   7.495  1.00  0.00    -0.508 OA
ATOM     19  H   UNL     1     -16.824 -47.780   7.750  1.00  0.00     0.293 HD
ENDBRANCH  15  18
ENDBRANCH   1  12
BRANCH   2  20
ATOM     20  O   UNL     1     -16.442 -41.957  10.694  1.00  0.00    -0.502 OA
ATOM     21  H   UNL     1     -17.401 -42.194  10.470  1.00  0.00     0.293 HD
ENDBRANCH   2  20
BRANCH   6  22
ATOM     22  O   UNL     1     -14.694 -37.064  10.468  1.00  0.00    -0.507 OA
ATOM     23  H   UNL     1     -15.249 -36.220  10.388  1.00  0.00     0.293 HD
ENDBRANCH   6  22
BRANCH   8  24
ATOM     24  O   UNL     1     -12.261 -37.087   6.303  1.00  0.00    -0.508 OA
ATOM     25  H   UNL     1     -11.620 -36.350   6.575  1.00  0.00     0.293 HD
ENDBRANCH   8  24
TORSDOF 5
ENDMDL
MODEL 6
REMARK VINA RESULT:    -4.525      1.312      1.894
REMARK INTER + INTRA:          -5.412
REMARK INTER:                  -5.116
REMARK INTRA:                  -0.296
REMARK UNBOUND:                -0.094
REMARK SMILES O=c1c(O)c(-c2ccc(O)cc2)oc2cc(O)cc(O)c12
REMARK SMILES IDX 5 1 3 2 2 3 1 4 21 5 19 6 18 7 16 8 15 9 14 10 13 11 6 12
REMARK SMILES IDX 7 13 8 14 9 15 12 16 11 17 10 18 4 20 20 22 17 24
REMARK H PARENT 10 19 4 21 20 23 17 25
REMARK Flexibility Score: inf
ROOT
ATOM      1  C   UNL     1     -13.777 -39.676   7.957  1.00  0.00     0.180 A 
ATOM      2  C   UNL     1     -12.773 -38.879   8.542  1.00  0.00     0.208 A 
ATOM      3  C   UNL     1     -12.588 -37.570   8.071  1.00  0.00     0.238 A 
ATOM      4  O   UNL     1     -11.684 -36.851   8.579  1.00  0.00    -0.285 OA
ATOM      5  C   UNL     1     -13.417 -37.073   7.045  1.00  0.00     0.111 A 
ATOM      6  C   UNL     1     -13.298 -35.765   6.518  1.00  0.00     0.134 A 
ATOM      7  C   UNL     1     -14.168 -35.342   5.503  1.00  0.00     0.093 A 
ATOM      8  C   UNL     1     -15.152 -36.198   5.006  1.00  0.00     0.123 A 
ATOM      9  C   UNL     1     -15.275 -37.493   5.522  1.00  0.00     0.094 A 
ATOM     10  C   UNL     1     -14.416 -37.933   6.533  1.00  0.00     0.146 A 
ATOM     11  O   UNL     1     -14.551 -39.168   7.002  1.00  0.00    -0.452 OA
ENDROOT
BRANCH   1  12
ATOM     12  C   UNL     1     -14.022 -41.072   8.385  1.00  0.00     0.021 A 
ATOM     13  C   UNL     1     -13.378 -42.155   7.757  1.00  0.00     0.016 A 
ATOM     14  C   UNL     1     -13.645 -43.466   8.163  1.00  0.00     0.047 A 
ATOM     15  C   UNL     1     -14.563 -43.714   9.187  1.00  0.00     0.115 A 
ATOM     16  C   UNL     1     -14.959 -41.330   9.399  1.00  0.00     0.016 A 
ATOM     17  C   UNL     1     -15.223 -42.642   9.803  1.00  0.00     0.047 A 
BRANCH  15  18
ATOM     18  O   UNL     1     -14.817 -45.026   9.581  1.00  0.00    -0.508 OA
ATOM     19  H   UNL     1     -15.608 -45.258  10.171  1.00  0.00     0.293 HD
ENDBRANCH  15  18
ENDBRANCH   1  12
BRANCH   2  20
ATOM     20  O   UNL     1     -11.998 -39.379   9.591  1.00  0.00    -0.502 OA
ATOM     21  H   UNL     1     -11.884 -40.372   9.755  1.00  0.00     0.293 HD
ENDBRANCH   2  20
BRANCH   6  22
ATOM     22  O   UNL     1     -12.325 -34.884   6.994  1.00  0.00    -0.507 OA
ATOM     23  H   UNL     1     -11.859 -35.033   7.881  1.00  0.00     0.293 HD
ENDBRANCH   6  22
BRANCH   8  24
ATOM     24  O   UNL     1     -16.005 -35.753   3.998  1.00  0.00    -0.508 OA
ATOM     25  H   UNL     1     -16.257 -36.347   3.216  1.00  0.00     0.293 HD
ENDBRANCH   8  24
TORSDOF 5
ENDMDL
MODEL 7
REMARK VINA RESULT:    -3.963      2.148      2.922
REMARK INTER + INTRA:          -4.752
REMARK INTER:                  -4.839
REMARK INTRA:                   0.088
REMARK UNBOUND:                -0.094
REMARK SMILES O=c1c(O)c(-c2ccc(O)cc2)oc2cc(O)cc(O)c12
REMARK SMILES IDX 5 1 3 2 2 3 1 4 21 5 19 6 18 7 16 8 15 9 14 10 13 11 6 12
REMARK SMILES IDX 7 13 8 14 9 15 12 16 11 17 10 18 4 20 20 22 17 24
REMARK H PARENT 10 19 4 21 20 23 17 25
REMARK Flexibility Score: inf
ROOT
ATOM      1  C   UNL     1     -14.792 -40.274   8.507  1.00  0.00     0.180 A 
ATOM      2  C   UNL     1     -15.948 -39.600   8.950  1.00  0.00     0.208 A 
ATOM      3  C   UNL     1     -16.100 -38.240   8.639  1.00  0.00     0.238 A 
ATOM      4  O   UNL     1     -17.125 -37.624   9.040  1.00  0.00    -0.285 OA
ATOM      5  C   UNL     1     -15.112 -37.584   7.876  1.00  0.00     0.111 A 
ATOM      6  C   UNL     1     -15.193 -36.217   7.517  1.00  0.00     0.134 A 
ATOM      7  C   UNL     1     -14.172 -35.639   6.748  1.00  0.00     0.093 A 
ATOM      8  C   UNL     1     -13.077 -36.398   6.332  1.00  0.00     0.123 A 
ATOM      9  C   UNL     1     -12.991 -37.749   6.684  1.00  0.00     0.094 A 
ATOM     10  C   UNL     1     -13.997 -38.343   7.451  1.00  0.00     0.146 A 
ATOM     11  O   UNL     1     -13.889 -39.626   7.776  1.00  0.00    -0.452 OA
ENDROOT
BRANCH   1  12
ATOM     12  C   UNL     1     -14.549 -41.702   8.810  1.00  0.00     0.021 A 
ATOM     13  C   UNL     1     -14.782 -42.229  10.094  1.00  0.00     0.016 A 
ATOM     14  C   UNL     1     -14.522 -43.577  10.363  1.00  0.00     0.047 A 
ATOM     15  C   UNL     1     -14.015 -44.409   9.361  1.00  0.00     0.115 A 
ATOM     16  C   UNL     1     -14.021 -42.541   7.814  1.00  0.00     0.016 A 
ATOM     17  C   UNL     1     -13.762 -43.887   8.086  1.00  0.00     0.047 A 
BRANCH  15  18
ATOM     18  O   UNL     1     -13.762 -45.750   9.643  1.00  0.00    -0.508 OA
ATOM     19  H   UNL     1     -14.080 -46.490   9.028  1.00  0.00     0.293 HD
ENDBRANCH  15  18
ENDBRANCH   1  12
BRANCH   2  20
ATOM     20  O   UNL     1     -16.935 -40.286   9.662  1.00  0.00    -0.502 OA
ATOM     21  H   UNL     1     -16.720 -40.860  10.468  1.00  0.00     0.293 HD
ENDBRANCH   2  20
BRANCH   6  22
ATOM     22  O   UNL     1     -16.275 -35.431   7.916  1.00  0.00    -0.507 OA
ATOM     23  H   UNL     1     -16.156 -34.624   8.516  1.00  0.00     0.293 HD
ENDBRANCH   6  22
BRANCH   8  24
ATOM     24  O   UNL     1     -12.077 -35.799   5.568  1.00  0.00    -0.508 OA
ATOM     25  H   UNL     1     -11.698 -34.891   5.810  1.00  0.00     0.293 HD
ENDBRANCH   8  24
TORSDOF 5
ENDMDL
MODEL 8
REMARK VINA RESULT:    -3.941      2.212      6.966
REMARK INTER + INTRA:          -4.726
REMARK INTER:                  -4.430
REMARK INTRA:                  -0.296
REMARK UNBOUND:                -0.094
REMARK SMILES O=c1c(O)c(-c2ccc(O)cc2)oc2cc(O)cc(O)c12
REMARK SMILES IDX 5 1 3 2 2 3 1 4 21 5 19 6 18 7 16 8 15 9 14 10 13 11 6 12
REMARK SMILES IDX 7 13 8 14 9 15 12 16 11 17 10 18 4 20 20 22 17 24
REMARK H PARENT 10 19 4 21 20 23 17 25
REMARK Flexibility Score: inf
ROOT
ATOM      1  C   UNL     1     -13.994 -39.458   8.806  1.00  0.00     0.180 A 
ATOM      2  C   UNL     1     -15.249 -39.345   9.437  1.00  0.00     0.208 A 
ATOM      3  C   UNL     1     -15.888 -40.510   9.888  1.00  0.00     0.238 A 
ATOM      4  O   UNL     1     -17.018 -40.422  10.444  1.00  0.00    -0.285 OA
ATOM      5  C   UNL     1     -15.257 -41.760   9.724  1.00  0.00     0.111 A 
ATOM      6  C   UNL     1     -15.832 -42.980  10.154  1.00  0.00     0.134 A 
ATOM      7  C   UNL     1     -15.137 -44.183   9.961  1.00  0.00     0.093 A 
ATOM      8  C   UNL     1     -13.882 -44.190   9.349  1.00  0.00     0.123 A 
ATOM      9  C   UNL     1     -13.309 -42.988   8.921  1.00  0.00     0.094 A 
ATOM     10  C   UNL     1     -13.987 -41.779   9.103  1.00  0.00     0.146 A 
ATOM     11  O   UNL     1     -13.423 -40.653   8.682  1.00  0.00    -0.452 OA
ENDROOT
BRANCH   1  12
ATOM     12  C   UNL     1     -13.266 -38.279   8.286  1.00  0.00     0.021 A 
ATOM     13  C   UNL     1     -13.422 -37.850   6.954  1.00  0.00     0.016 A 
ATOM     14  C   UNL     1     -12.704 -36.748   6.479  1.00  0.00     0.047 A 
ATOM     15  C   UNL     1     -11.816 -36.070   7.319  1.00  0.00     0.115 A 
ATOM     16  C   UNL     1     -12.356 -37.605   9.118  1.00  0.00     0.016 A 
ATOM     17  C   UNL     1     -11.641 -36.504   8.640  1.00  0.00     0.047 A 
BRANCH  15  18
ATOM     18  O   UNL     1     -11.109 -34.973   6.832  1.00  0.00    -0.508 OA
ATOM     19  H   UNL     1     -11.219 -34.050   7.236  1.00  0.00     0.293 HD
ENDBRANCH  15  18
ENDBRANCH   1  12
BRANCH   2  20
ATOM     20  O   UNL     1     -15.830 -38.089   9.632  1.00  0.00    -0.502 OA
ATOM     21  H   UNL     1     -15.372 -37.357  10.162  1.00  0.00     0.293 HD
ENDBRANCH   2  20
BRANCH   6  22
ATOM     22  O   UNL     1     -17.084 -43.007  10.771  1.00  0.00    -0.507 OA
ATOM     23  H   UNL     1     -17.565 -43.877  10.965  1.00  0.00     0.293 HD
ENDBRANCH   6  22
BRANCH   8  24
ATOM     24  O   UNL     1     -13.212 -45.398   9.171  1.00  0.00    -0.508 OA
ATOM     25  H   UNL     1     -12.290 -45.436   8.752  1.00  0.00     0.293 HD
ENDBRANCH   8  24
TORSDOF 5
ENDMDL
MODEL 9
REMARK VINA RESULT:    -3.890      2.860      6.973
REMARK INTER + INTRA:          -4.666
REMARK INTER:                  -4.624
REMARK INTRA:                  -0.041
REMARK UNBOUND:                -0.094
REMARK SMILES O=c1c(O)c(-c2ccc(O)cc2)oc2cc(O)cc(O)c12
REMARK SMILES IDX 5 1 3 2 2 3 1 4 21 5 19 6 18 7 16 8 15 9 14 10 13 11 6 12
REMARK SMILES IDX 7 13 8 14 9 15 12 16 11 17 10 18 4 20 20 22 17 24
REMARK H PARENT 10 19 4 21 20 23 17 25
REMARK Flexibility Score: inf
ROOT
ATOM      1  C   UNL     1     -12.629 -40.073  10.039  1.00  0.00     0.180 A 
ATOM      2  C   UNL     1     -13.894 -39.667  10.509  1.00  0.00     0.208 A 
ATOM      3  C   UNL     1     -14.979 -40.548  10.382  1.00  0.00     0.238 A 
ATOM      4  O   UNL     1     -16.118 -40.189  10.789  1.00  0.00    -0.285 OA
ATOM      5  C   UNL     1     -14.781 -41.822   9.812  1.00  0.00     0.111 A 
ATOM      6  C   UNL     1     -15.820 -42.769   9.652  1.00  0.00     0.134 A 
ATOM      7  C   UNL     1     -15.541 -44.019   9.083  1.00  0.00     0.093 A 
ATOM      8  C   UNL     1     -14.246 -44.341   8.672  1.00  0.00     0.123 A 
ATOM      9  C   UNL     1     -13.214 -43.410   8.826  1.00  0.00     0.094 A 
ATOM     10  C   UNL     1     -13.473 -42.157   9.390  1.00  0.00     0.146 A 
ATOM     11  O   UNL     1     -12.477 -41.289   9.520  1.00  0.00    -0.452 OA
ENDROOT
BRANCH   1  12
ATOM     12  C   UNL     1     -11.440 -39.195  10.119  1.00  0.00     0.021 A 
ATOM     13  C   UNL     1     -11.451 -37.896   9.578  1.00  0.00     0.016 A 
ATOM     14  C   UNL     1     -10.307 -37.094   9.645  1.00  0.00     0.047 A 
ATOM     15  C   UNL     1      -9.139 -37.581  10.237  1.00  0.00     0.115 A 
ATOM     16  C   UNL     1     -10.256 -39.685  10.694  1.00  0.00     0.016 A 
ATOM     17  C   UNL     1      -9.114 -38.881  10.760  1.00  0.00     0.047 A 
BRANCH  15  18
ATOM     18  O   UNL     1      -8.007 -36.770  10.297  1.00  0.00    -0.508 OA
ATOM     19  H   UNL     1      -7.519 -36.606  11.170  1.00  0.00     0.293 HD
ENDBRANCH  15  18
ENDBRANCH   1  12
BRANCH   2  20
ATOM     20  O   UNL     1     -14.053 -38.418  11.115  1.00  0.00    -0.502 OA
ATOM     21  H   UNL     1     -13.476 -37.621  10.873  1.00  0.00     0.293 HD
ENDBRANCH   2  20
BRANCH   6  22
ATOM     22  O   UNL     1     -17.125 -42.478  10.054  1.00  0.00    -0.507 OA
ATOM     23  H   UNL     1     -17.855 -43.181  10.047  1.00  0.00     0.293 HD
ENDBRANCH   6  22
BRANCH   8  24
ATOM     24  O   UNL     1     -13.994 -45.591   8.110  1.00  0.00    -0.508 OA
ATOM     25  H   UNL     1     -14.623 -46.002   7.430  1.00  0.00     0.293 HD
ENDBRANCH   8  24
TORSDOF 5
ENDMDL
