MODEL 1
REMARK VINA RESULT:    -5.445      0.000      0.000
REMARK INTER + INTRA:          -5.764
REMARK INTER:                  -5.764
REMARK INTRA:                   0.000
REMARK UNBOUND:                 0.000
REMARK SMILES Cc1cc(O)c(C)c(C)c1O
REMARK SMILES IDX 1 1 2 2 3 3 4 4 6 5 8 6 10 7 9 8 7 9 11 10 5 12
REMARK H PARENT 11 11 5 13
REMARK Flexibility Score: inf
ROOT
ATOM      1  C   UNL     1      -6.066   2.081  12.098  1.00  0.00     0.048 C 
ATOM      2  C   UNL     1      -6.034   0.988  11.064  1.00  0.00    -0.005 A 
ATOM      3  C   UNL     1      -5.577   1.280   9.775  1.00  0.00     0.053 A 
ATOM      4  C   UNL     1      -5.520   0.297   8.790  1.00  0.00     0.119 A 
ATOM      5  C   UNL     1      -5.905  -1.032   9.087  1.00  0.00    -0.003 A 
ATOM      6  C   UNL     1      -6.431  -1.328  10.376  1.00  0.00    -0.002 A 
ATOM      7  C   UNL     1      -6.468  -0.320  11.368  1.00  0.00     0.121 A 
ATOM      8  C   UNL     1      -6.929  -2.717  10.709  1.00  0.00     0.049 C 
ATOM      9  C   UNL     1      -5.775  -2.096   8.020  1.00  0.00     0.049 C 
ENDROOT
BRANCH   7  10
ATOM     10  O   UNL     1      -6.938  -0.640  12.647  1.00  0.00    -0.507 OA
ATOM     11  H   UNL     1      -6.393  -0.512  13.490  1.00  0.00     0.293 HD
ENDBRANCH   7  10
BRANCH   4  12
ATOM     12  O   UNL     1      -5.080   0.679   7.518  1.00  0.00    -0.508 OA
ATOM     13  H   UNL     1      -4.191   0.401   7.126  1.00  0.00     0.293 HD
ENDBRANCH   4  12
TORSDOF 2
ENDMDL
MODEL 2
REMARK VINA RESULT:    -5.428      4.420      5.275
REMARK INTER + INTRA:          -5.745
REMARK INTER:                  -5.745
REMARK INTRA:                   0.000
REMARK UNBOUND:                 0.000
REMARK SMILES Cc1cc(O)c(C)c(C)c1O
REMARK SMILES IDX 1 1 2 2 3 3 4 4 6 5 8 6 10 7 9 8 7 9 11 10 5 12
REMARK H PARENT 11 11 5 13
REMARK Flexibility Score: inf
ROOT
ATOM      1  C   UNL     1      -0.046  -1.222  12.521  1.00  0.00     0.048 C 
ATOM      2  C   UNL     1      -1.268  -0.352  12.646  1.00  0.00    -0.005 A 
ATOM      3  C   UNL     1      -1.321   0.856  11.943  1.00  0.00     0.053 A 
ATOM      4  C   UNL     1      -2.437   1.687  12.020  1.00  0.00     0.119 A 
ATOM      5  C   UNL     1      -3.554   1.307  12.801  1.00  0.00    -0.003 A 
ATOM      6  C   UNL     1      -3.487   0.112  13.570  1.00  0.00    -0.002 A 
ATOM      7  C   UNL     1      -2.353  -0.726  13.467  1.00  0.00     0.121 A 
ATOM      8  C   UNL     1      -4.627  -0.288  14.479  1.00  0.00     0.049 C 
ATOM      9  C   UNL     1      -4.778   2.196  12.820  1.00  0.00     0.049 C 
ENDROOT
BRANCH   7  10
ATOM     10  O   UNL     1      -2.324  -1.925  14.189  1.00  0.00    -0.507 OA
ATOM     11  H   UNL     1      -2.322  -1.968  15.200  1.00  0.00     0.293 HD
ENDBRANCH   7  10
BRANCH   4  12
ATOM     12  O   UNL     1      -2.397   2.892  11.312  1.00  0.00    -0.508 OA
ATOM     13  H   UNL     1      -1.670   3.128  10.649  1.00  0.00     0.293 HD
ENDBRANCH   4  12
TORSDOF 2
ENDMDL
MODEL 3
REMARK VINA RESULT:    -5.416      4.326      5.154
REMARK INTER + INTRA:          -5.733
REMARK INTER:                  -5.733
REMARK INTRA:                   0.000
REMARK UNBOUND:                 0.000
REMARK SMILES Cc1cc(O)c(C)c(C)c1O
REMARK SMILES IDX 1 1 2 2 3 3 4 4 6 5 8 6 10 7 9 8 7 9 11 10 5 12
REMARK H PARENT 11 11 5 13
REMARK Flexibility Score: inf
ROOT
ATOM      1  C   UNL     1      -4.840  -2.962   7.922  1.00  0.00     0.048 C 
ATOM      2  C   UNL     1      -3.642  -2.786   8.815  1.00  0.00    -0.005 A 
ATOM      3  C   UNL     1      -2.595  -1.959   8.397  1.00  0.00     0.053 A 
ATOM      4  C   UNL     1      -1.471  -1.758   9.196  1.00  0.00     0.119 A 
ATOM      5  C   UNL     1      -1.382  -2.375  10.466  1.00  0.00    -0.003 A 
ATOM      6  C   UNL     1      -2.411  -3.269  10.875  1.00  0.00    -0.002 A 
ATOM      7  C   UNL     1      -3.551  -3.448  10.057  1.00  0.00     0.121 A 
ATOM      8  C   UNL     1      -2.315  -4.011  12.189  1.00  0.00     0.049 C 
ATOM      9  C   UNL     1      -0.181  -2.093  11.342  1.00  0.00     0.049 C 
ENDROOT
BRANCH   7  10
ATOM     10  O   UNL     1      -4.579  -4.289  10.497  1.00  0.00    -0.507 OA
ATOM     11  H   UNL     1      -5.000  -4.223  11.416  1.00  0.00     0.293 HD
ENDBRANCH   7  10
BRANCH   4  12
ATOM     12  O   UNL     1      -0.455  -0.941   8.691  1.00  0.00    -0.508 OA
ATOM     13  H   UNL     1       0.529  -1.103   8.857  1.00  0.00     0.293 HD
ENDBRANCH   4  12
TORSDOF 2
ENDMDL
MODEL 4
REMARK VINA RESULT:    -5.178      4.688      5.056
REMARK INTER + INTRA:          -5.481
REMARK INTER:                  -5.481
REMARK INTRA:                   0.000
REMARK UNBOUND:                 0.000
REMARK SMILES Cc1cc(O)c(C)c(C)c1O
REMARK SMILES IDX 1 1 2 2 3 3 4 4 6 5 8 6 10 7 9 8 7 9 11 10 5 12
REMARK H PARENT 11 11 5 13
REMARK Flexibility Score: inf
ROOT
ATOM      1  C   UNL     1      -5.487  -1.490  12.442  1.00  0.00     0.048 C 
ATOM      2  C   UNL     1      -4.024  -1.758  12.214  1.00  0.00    -0.005 A 
ATOM      3  C   UNL     1      -3.596  -2.177  10.950  1.00  0.00     0.053 A 
ATOM      4  C   UNL     1      -2.250  -2.427  10.690  1.00  0.00     0.119 A 
ATOM      5  C   UNL     1      -1.283  -2.236  11.705  1.00  0.00    -0.003 A 
ATOM      6  C   UNL     1      -1.713  -1.872  13.012  1.00  0.00    -0.002 A 
ATOM      7  C   UNL     1      -3.081  -1.608  13.252  1.00  0.00     0.121 A 
ATOM      8  C   UNL     1      -0.719  -1.736  14.144  1.00  0.00     0.049 C 
ATOM      9  C   UNL     1       0.180  -2.453  11.383  1.00  0.00     0.049 C 
ENDROOT
BRANCH   7  10
ATOM     10  O   UNL     1      -3.482  -1.199  14.529  1.00  0.00    -0.507 OA
ATOM     11  H   UNL     1      -2.891  -0.668  15.157  1.00  0.00     0.293 HD
ENDBRANCH   7  10
BRANCH   4  12
ATOM     12  O   UNL     1      -1.909  -2.872   9.409  1.00  0.00    -0.508 OA
ATOM     13  H   UNL     1      -1.900  -2.275   8.593  1.00  0.00     0.293 HD
ENDBRANCH   4  12
TORSDOF 2
ENDMDL
MODEL 5
REMARK VINA RESULT:    -5.176      4.222      5.432
REMARK INTER + INTRA:          -5.478
REMARK INTER:                  -5.478
REMARK INTRA:                   0.000
REMARK UNBOUND:                 0.000
REMARK SMILES Cc1cc(O)c(C)c(C)c1O
REMARK SMILES IDX 1 1 2 2 3 3 4 4 6 5 8 6 10 7 9 8 7 9 11 10 5 12
REMARK H PARENT 11 11 5 13
REMARK Flexibility Score: inf
ROOT
ATOM      1  C   UNL     1      -6.437  -2.712  11.971  1.00  0.00     0.048 C 
ATOM      2  C   UNL     1      -5.041  -2.421  12.451  1.00  0.00    -0.005 A 
ATOM      3  C   UNL     1      -4.830  -1.356  13.332  1.00  0.00     0.053 A 
ATOM      4  C   UNL     1      -3.556  -1.056  13.811  1.00  0.00     0.119 A 
ATOM      5  C   UNL     1      -2.448  -1.848  13.427  1.00  0.00    -0.003 A 
ATOM      6  C   UNL     1      -2.639  -2.894  12.481  1.00  0.00    -0.002 A 
ATOM      7  C   UNL     1      -3.942  -3.193  12.018  1.00  0.00     0.121 A 
ATOM      8  C   UNL     1      -1.468  -3.711  11.984  1.00  0.00     0.049 C 
ATOM      9  C   UNL     1      -1.085  -1.543  14.008  1.00  0.00     0.049 C 
ENDROOT
BRANCH   7  10
ATOM     10  O   UNL     1      -4.121  -4.259  11.130  1.00  0.00    -0.507 OA
ATOM     11  H   UNL     1      -4.538  -5.142  11.394  1.00  0.00     0.293 HD
ENDBRANCH   7  10
BRANCH   4  12
ATOM     12  O   UNL     1      -3.427   0.044  14.664  1.00  0.00    -0.508 OA
ATOM     13  H   UNL     1      -3.521  -0.013  15.670  1.00  0.00     0.293 HD
ENDBRANCH   4  12
TORSDOF 2
ENDMDL
MODEL 6
REMARK VINA RESULT:    -5.144      2.522      3.024
REMARK INTER + INTRA:          -5.444
REMARK INTER:                  -5.444
REMARK INTRA:                   0.000
REMARK UNBOUND:                 0.000
REMARK SMILES Cc1cc(O)c(C)c(C)c1O
REMARK SMILES IDX 1 1 2 2 3 3 4 4 6 5 8 6 10 7 9 8 7 9 11 10 5 12
REMARK H PARENT 11 11 5 13
REMARK Flexibility Score: inf
ROOT
ATOM      1  C   UNL     1      -3.978  -1.841  13.198  1.00  0.00     0.048 C 
ATOM      2  C   UNL     1      -4.553  -1.935  11.810  1.00  0.00    -0.005 A 
ATOM      3  C   UNL     1      -5.194  -0.821  11.260  1.00  0.00     0.053 A 
ATOM      4  C   UNL     1      -5.732  -0.860   9.975  1.00  0.00     0.119 A 
ATOM      5  C   UNL     1      -5.615  -2.032   9.190  1.00  0.00    -0.003 A 
ATOM      6  C   UNL     1      -5.020  -3.192   9.762  1.00  0.00    -0.002 A 
ATOM      7  C   UNL     1      -4.467  -3.128  11.062  1.00  0.00     0.121 A 
ATOM      8  C   UNL     1      -4.948  -4.487   8.985  1.00  0.00     0.049 C 
ATOM      9  C   UNL     1      -6.150  -2.030   7.775  1.00  0.00     0.049 C 
ENDROOT
BRANCH   7  10
ATOM     10  O   UNL     1      -3.839  -4.261  11.591  1.00  0.00    -0.507 OA
ATOM     11  H   UNL     1      -3.139  -4.222  12.321  1.00  0.00     0.293 HD
ENDBRANCH   7  10
BRANCH   4  12
ATOM     12  O   UNL     1      -6.384   0.286   9.511  1.00  0.00    -0.508 OA
ATOM     13  H   UNL     1      -6.579   1.093  10.089  1.00  0.00     0.293 HD
ENDBRANCH   4  12
TORSDOF 2
ENDMDL
MODEL 7
REMARK VINA RESULT:    -4.976      4.743      5.593
REMARK INTER + INTRA:          -5.267
REMARK INTER:                  -5.267
REMARK INTRA:                   0.000
REMARK UNBOUND:                 0.000
REMARK SMILES Cc1cc(O)c(C)c(C)c1O
REMARK SMILES IDX 1 1 2 2 3 3 4 4 6 5 8 6 10 7 9 8 7 9 11 10 5 12
REMARK H PARENT 11 11 5 13
REMARK Flexibility Score: inf
ROOT
ATOM      1  C   UNL     1      -0.005  -1.292  12.392  1.00  0.00     0.048 C 
ATOM      2  C   UNL     1      -1.423  -1.716  12.666  1.00  0.00    -0.005 A 
ATOM      3  C   UNL     1      -1.877  -2.942  12.169  1.00  0.00     0.053 A 
ATOM      4  C   UNL     1      -3.178  -3.380  12.406  1.00  0.00     0.119 A 
ATOM      5  C   UNL     1      -4.063  -2.593  13.182  1.00  0.00    -0.003 A 
ATOM      6  C   UNL     1      -3.634  -1.316  13.639  1.00  0.00    -0.002 A 
ATOM      7  C   UNL     1      -2.304  -0.895  13.401  1.00  0.00     0.121 A 
ATOM      8  C   UNL     1      -4.575  -0.410  14.402  1.00  0.00     0.049 C 
ATOM      9  C   UNL     1      -5.450  -3.118  13.479  1.00  0.00     0.049 C 
ENDROOT
BRANCH   7  10
ATOM     10  O   UNL     1      -1.881   0.341  13.903  1.00  0.00    -0.507 OA
ATOM     11  H   UNL     1      -1.011   0.784  13.635  1.00  0.00     0.293 HD
ENDBRANCH   7  10
BRANCH   4  12
ATOM     12  O   UNL     1      -3.562  -4.603  11.848  1.00  0.00    -0.508 OA
ATOM     13  H   UNL     1      -4.033  -5.332  12.367  1.00  0.00     0.293 HD
ENDBRANCH   4  12
TORSDOF 2
ENDMDL
MODEL 8
REMARK VINA RESULT:    -4.957      4.173      5.659
REMARK INTER + INTRA:          -5.247
REMARK INTER:                  -5.247
REMARK INTRA:                   0.000
REMARK UNBOUND:                 0.000
REMARK SMILES Cc1cc(O)c(C)c(C)c1O
REMARK SMILES IDX 1 1 2 2 3 3 4 4 6 5 8 6 10 7 9 8 7 9 11 10 5 12
REMARK H PARENT 11 11 5 13
REMARK Flexibility Score: inf
ROOT
ATOM      1  C   UNL     1       0.002  -1.619  12.273  1.00  0.00     0.048 C 
ATOM      2  C   UNL     1      -1.312  -0.893  12.375  1.00  0.00    -0.005 A 
ATOM      3  C   UNL     1      -1.956  -0.817  13.614  1.00  0.00     0.053 A 
ATOM      4  C   UNL     1      -3.169  -0.146  13.757  1.00  0.00     0.119 A 
ATOM      5  C   UNL     1      -3.763   0.495  12.644  1.00  0.00    -0.003 A 
ATOM      6  C   UNL     1      -3.150   0.371  11.365  1.00  0.00    -0.002 A 
ATOM      7  C   UNL     1      -1.912  -0.301  11.243  1.00  0.00     0.121 A 
ATOM      8  C   UNL     1      -3.794   0.973  10.137  1.00  0.00     0.049 C 
ATOM      9  C   UNL     1      -5.048   1.270  12.836  1.00  0.00     0.049 C 
ENDROOT
BRANCH   7  10
ATOM     10  O   UNL     1      -1.295  -0.369   9.989  1.00  0.00    -0.507 OA
ATOM     11  H   UNL     1      -0.441  -0.884   9.813  1.00  0.00     0.293 HD
ENDBRANCH   7  10
BRANCH   4  12
ATOM     12  O   UNL     1      -3.762  -0.144  15.023  1.00  0.00    -0.508 OA
ATOM     13  H   UNL     1      -4.741  -0.344  15.184  1.00  0.00     0.293 HD
ENDBRANCH   4  12
TORSDOF 2
ENDMDL
MODEL 9
REMARK VINA RESULT:    -4.947      3.620      5.225
REMARK INTER + INTRA:          -5.236
REMARK INTER:                  -5.236
REMARK INTRA:                   0.000
REMARK UNBOUND:                 0.000
REMARK SMILES Cc1cc(O)c(C)c(C)c1O
REMARK SMILES IDX 1 1 2 2 3 3 4 4 6 5 8 6 10 7 9 8 7 9 11 10 5 12
REMARK H PARENT 11 11 5 13
REMARK Flexibility Score: inf
ROOT
ATOM      1  C   UNL     1      -5.559  -2.675   7.884  1.00  0.00     0.048 C 
ATOM      2  C   UNL     1      -4.409  -2.504   8.839  1.00  0.00    -0.005 A 
ATOM      3  C   UNL     1      -3.993  -3.595   9.610  1.00  0.00     0.053 A 
ATOM      4  C   UNL     1      -2.926  -3.485  10.499  1.00  0.00     0.119 A 
ATOM      5  C   UNL     1      -2.225  -2.262  10.621  1.00  0.00    -0.003 A 
ATOM      6  C   UNL     1      -2.678  -1.128   9.890  1.00  0.00    -0.002 A 
ATOM      7  C   UNL     1      -3.753  -1.263   8.981  1.00  0.00     0.121 A 
ATOM      8  C   UNL     1      -2.006   0.217  10.053  1.00  0.00     0.049 C 
ATOM      9  C   UNL     1      -1.031  -2.184  11.547  1.00  0.00     0.049 C 
ENDROOT
BRANCH   7  10
ATOM     10  O   UNL     1      -4.153  -0.152   8.230  1.00  0.00    -0.507 OA
ATOM     11  H   UNL     1      -4.217  -0.154   7.219  1.00  0.00     0.293 HD
ENDBRANCH   7  10
BRANCH   4  12
ATOM     12  O   UNL     1      -2.594  -4.614  11.254  1.00  0.00    -0.508 OA
ATOM     13  H   UNL     1      -1.981  -4.590  12.058  1.00  0.00     0.293 HD
ENDBRANCH   4  12
TORSDOF 2
ENDMDL
