MODEL 1
REMARK VINA RESULT:    -3.525      0.000      0.000
REMARK INTER + INTRA:          -4.620
REMARK INTER:                  -4.349
REMARK INTRA:                  -0.271
REMARK UNBOUND:                -0.271
REMARK SMILES C=CCc1ccc(OC)c(OC)c1
REMARK SMILES IDX 7 1 10 2 13 3 4 4 5 5 6 6 8 7 9 8 11 9 12 10 3 11 2 12 1 13
REMARK H PARENT
REMARK Flexibility Score: inf
ROOT
ATOM      1  C   UNL     1      -8.263 -35.841  11.987  1.00  0.00     0.160 A 
ATOM      2  C   UNL     1      -9.601 -35.688  12.382  1.00  0.00     0.160 A 
ATOM      3  C   UNL     1     -10.303 -34.518  12.031  1.00  0.00     0.054 A 
ATOM      4  C   UNL     1      -9.677 -33.508  11.284  1.00  0.00    -0.040 A 
ATOM      5  C   UNL     1      -8.338 -33.665  10.902  1.00  0.00     0.008 A 
ATOM      6  C   UNL     1      -7.637 -34.822  11.245  1.00  0.00     0.051 A 
ENDROOT
BRANCH   1   7
ATOM      7  O   UNL     1      -7.591 -37.018  12.350  1.00  0.00    -0.493 OA
ATOM      8  C   UNL     1      -6.354 -37.057  13.055  1.00  0.00     0.278 C 
ENDBRANCH   1   7
BRANCH   2   9
ATOM      9  O   UNL     1     -10.198 -36.720  13.125  1.00  0.00    -0.493 OA
ATOM     10  C   UNL     1     -11.576 -37.074  13.052  1.00  0.00     0.278 C 
ENDBRANCH   2   9
BRANCH   4  11
ATOM     11  C   UNL     1     -10.426 -32.248  10.939  1.00  0.00     0.062 C 
BRANCH  11  12
ATOM     12  C   UNL     1      -9.493 -31.071  10.884  1.00  0.00    -0.030 C 
ATOM     13  C   UNL     1      -9.678 -30.068  10.020  1.00  0.00     0.004 C 
ENDBRANCH  11  12
ENDBRANCH   4  11
TORSDOF 4
ENDMDL
MODEL 2
REMARK VINA RESULT:    -2.755      2.441      4.981
REMARK INTER + INTRA:          -3.670
REMARK INTER:                  -3.397
REMARK INTRA:                  -0.273
REMARK UNBOUND:                -0.271
REMARK SMILES C=CCc1ccc(OC)c(OC)c1
REMARK SMILES IDX 7 1 10 2 13 3 4 4 5 5 6 6 8 7 9 8 11 9 12 10 3 11 2 12 1 13
REMARK H PARENT
REMARK Flexibility Score: inf
ROOT
ATOM      1  C   UNL     1      -9.970 -32.584  11.365  1.00  0.00     0.160 A 
ATOM      2  C   UNL     1      -9.130 -33.642  11.746  1.00  0.00     0.160 A 
ATOM      3  C   UNL     1      -9.665 -34.937  11.896  1.00  0.00     0.054 A 
ATOM      4  C   UNL     1     -11.027 -35.178  11.660  1.00  0.00    -0.040 A 
ATOM      5  C   UNL     1     -11.860 -34.114  11.289  1.00  0.00     0.008 A 
ATOM      6  C   UNL     1     -11.337 -32.829  11.138  1.00  0.00     0.051 A 
ENDROOT
BRANCH   1   7
ATOM      7  O   UNL     1      -9.409 -31.305  11.222  1.00  0.00    -0.493 OA
ATOM      8  C   UNL     1      -9.720 -30.401  10.168  1.00  0.00     0.278 C 
ENDBRANCH   1   7
BRANCH   2   9
ATOM      9  O   UNL     1      -7.772 -33.367  11.971  1.00  0.00    -0.493 OA
ATOM     10  C   UNL     1      -6.775 -34.358  12.200  1.00  0.00     0.278 C 
ENDBRANCH   2   9
BRANCH   4  11
ATOM     11  C   UNL     1     -11.595 -36.559  11.851  1.00  0.00     0.062 C 
BRANCH  11  12
ATOM     12  C   UNL     1     -12.124 -37.103  10.553  1.00  0.00    -0.030 C 
ATOM     13  C   UNL     1     -11.378 -37.125   9.445  1.00  0.00     0.004 C 
ENDBRANCH  11  12
ENDBRANCH   4  11
TORSDOF 4
ENDMDL
MODEL 3
REMARK VINA RESULT:    -2.569      2.384      4.201
REMARK INTER + INTRA:          -3.440
REMARK INTER:                  -3.145
REMARK INTRA:                  -0.296
REMARK UNBOUND:                -0.271
REMARK SMILES C=CCc1ccc(OC)c(OC)c1
REMARK SMILES IDX 7 1 10 2 13 3 4 4 5 5 6 6 8 7 9 8 11 9 12 10 3 11 2 12 1 13
REMARK H PARENT
REMARK Flexibility Score: inf
ROOT
ATOM      1  C   UNL     1      -8.345 -34.198  12.604  1.00  0.00     0.160 A 
ATOM      2  C   UNL     1      -9.354 -33.451  11.977  1.00  0.00     0.160 A 
ATOM      3  C   UNL     1     -10.586 -34.063  11.670  1.00  0.00     0.054 A 
ATOM      4  C   UNL     1     -10.814 -35.409  11.992  1.00  0.00    -0.040 A 
ATOM      5  C   UNL     1      -9.797 -36.150  12.610  1.00  0.00     0.008 A 
ATOM      6  C   UNL     1      -8.575 -35.550  12.918  1.00  0.00     0.051 A 
ENDROOT
BRANCH   1   7
ATOM      7  O   UNL     1      -7.130 -33.561  12.900  1.00  0.00    -0.493 OA
ATOM      8  C   UNL     1      -5.868 -34.218  12.957  1.00  0.00     0.278 C 
ENDBRANCH   1   7
BRANCH   2   9
ATOM      9  O   UNL     1      -9.095 -32.105  11.671  1.00  0.00    -0.493 OA
ATOM     10  C   UNL     1      -9.908 -31.298  10.826  1.00  0.00     0.278 C 
ENDBRANCH   2   9
BRANCH   4  11
ATOM     11  C   UNL     1     -12.122 -36.062  11.633  1.00  0.00     0.062 C 
BRANCH  11  12
ATOM     12  C   UNL     1     -11.919 -37.125  10.589  1.00  0.00    -0.030 C 
ATOM     13  C   UNL     1     -12.114 -36.879   9.290  1.00  0.00     0.004 C 
ENDBRANCH  11  12
ENDBRANCH   4  11
TORSDOF 4
ENDMDL
MODEL 4
REMARK VINA RESULT:    -2.341      1.823      4.567
REMARK INTER + INTRA:          -3.160
REMARK INTER:                  -2.927
REMARK INTRA:                  -0.233
REMARK UNBOUND:                -0.271
REMARK SMILES C=CCc1ccc(OC)c(OC)c1
REMARK SMILES IDX 7 1 10 2 13 3 4 4 5 5 6 6 8 7 9 8 11 9 12 10 3 11 2 12 1 13
REMARK H PARENT
REMARK Flexibility Score: inf
ROOT
ATOM      1  C   UNL     1      -9.465 -33.596  12.051  1.00  0.00     0.160 A 
ATOM      2  C   UNL     1     -10.020 -34.884  12.019  1.00  0.00     0.160 A 
ATOM      3  C   UNL     1      -9.229 -35.994  12.378  1.00  0.00     0.054 A 
ATOM      4  C   UNL     1      -7.893 -35.820  12.772  1.00  0.00    -0.040 A 
ATOM      5  C   UNL     1      -7.344 -34.531  12.791  1.00  0.00     0.008 A 
ATOM      6  C   UNL     1      -8.122 -33.427  12.439  1.00  0.00     0.051 A 
ENDROOT
BRANCH   1   7
ATOM      7  O   UNL     1     -10.277 -32.510  11.690  1.00  0.00    -0.493 OA
ATOM      8  C   UNL     1      -9.868 -31.441  10.844  1.00  0.00     0.278 C 
ENDBRANCH   1   7
BRANCH   2   9
ATOM      9  O   UNL     1     -11.360 -35.023  11.623  1.00  0.00    -0.493 OA
ATOM     10  C   UNL     1     -12.023 -36.269  11.439  1.00  0.00     0.278 C 
ENDBRANCH   2   9
BRANCH   4  11
ATOM     11  C   UNL     1      -7.047 -37.014  13.125  1.00  0.00     0.062 C 
BRANCH  11  12
ATOM     12  C   UNL     1      -5.868 -37.125  12.199  1.00  0.00    -0.030 C 
ATOM     13  C   UNL     1      -6.013 -37.090  10.871  1.00  0.00     0.004 C 
ENDBRANCH  11  12
ENDBRANCH   4  11
TORSDOF 4
ENDMDL
MODEL 5
REMARK VINA RESULT:    -2.040      1.243      2.592
REMARK INTER + INTRA:          -2.789
REMARK INTER:                  -3.558
REMARK INTRA:                   0.770
REMARK UNBOUND:                -0.271
REMARK SMILES C=CCc1ccc(OC)c(OC)c1
REMARK SMILES IDX 7 1 10 2 13 3 4 4 5 5 6 6 8 7 9 8 11 9 12 10 3 11 2 12 1 13
REMARK H PARENT
REMARK Flexibility Score: inf
ROOT
ATOM      1  C   UNL     1      -8.561 -35.672  12.268  1.00  0.00     0.160 A 
ATOM      2  C   UNL     1      -7.877 -34.464  12.478  1.00  0.00     0.160 A 
ATOM      3  C   UNL     1      -8.503 -33.244  12.155  1.00  0.00     0.054 A 
ATOM      4  C   UNL     1      -9.805 -33.226  11.632  1.00  0.00    -0.040 A 
ATOM      5  C   UNL     1     -10.476 -34.437  11.415  1.00  0.00     0.008 A 
ATOM      6  C   UNL     1      -9.863 -35.649  11.735  1.00  0.00     0.051 A 
ENDROOT
BRANCH   1   7
ATOM      7  O   UNL     1      -7.914 -36.872  12.601  1.00  0.00    -0.493 OA
ATOM      8  C   UNL     1      -6.528 -37.125  12.395  1.00  0.00     0.278 C 
ENDBRANCH   1   7
BRANCH   2   9
ATOM      9  O   UNL     1      -6.578 -34.517  13.007  1.00  0.00    -0.493 OA
ATOM     10  C   UNL     1      -5.404 -34.125  12.304  1.00  0.00     0.278 C 
ENDBRANCH   2   9
BRANCH   4  11
ATOM     11  C   UNL     1     -10.454 -31.918  11.262  1.00  0.00     0.062 C 
BRANCH  11  12
ATOM     12  C   UNL     1      -9.433 -30.942  10.747  1.00  0.00    -0.030 C 
ATOM     13  C   UNL     1      -9.729 -30.055   9.793  1.00  0.00     0.004 C 
ENDBRANCH  11  12
ENDBRANCH   4  11
TORSDOF 4
ENDMDL
MODEL 6
REMARK VINA RESULT:    -1.865      1.861      3.743
REMARK INTER + INTRA:          -2.572
REMARK INTER:                  -3.260
REMARK INTRA:                   0.687
REMARK UNBOUND:                -0.271
REMARK SMILES C=CCc1ccc(OC)c(OC)c1
REMARK SMILES IDX 7 1 10 2 13 3 4 4 5 5 6 6 8 7 9 8 11 9 12 10 3 11 2 12 1 13
REMARK H PARENT
REMARK Flexibility Score: inf
ROOT
ATOM      1  C   UNL     1      -8.009 -34.196  12.526  1.00  0.00     0.160 A 
ATOM      2  C   UNL     1      -8.333 -35.559  12.619  1.00  0.00     0.160 A 
ATOM      3  C   UNL     1      -9.627 -35.993  12.267  1.00  0.00     0.054 A 
ATOM      4  C   UNL     1     -10.591 -35.076  11.820  1.00  0.00    -0.040 A 
ATOM      5  C   UNL     1     -10.261 -33.716  11.740  1.00  0.00     0.008 A 
ATOM      6  C   UNL     1      -8.981 -33.279  12.085  1.00  0.00     0.051 A 
ENDROOT
BRANCH   1   7
ATOM      7  O   UNL     1      -6.712 -33.794  12.881  1.00  0.00    -0.493 OA
ATOM      8  C   UNL     1      -5.537 -34.123  12.148  1.00  0.00     0.278 C 
ENDBRANCH   1   7
BRANCH   2   9
ATOM      9  O   UNL     1      -7.345 -36.450  13.066  1.00  0.00    -0.493 OA
ATOM     10  C   UNL     1      -6.423 -37.125  12.217  1.00  0.00     0.278 C 
ENDBRANCH   2   9
BRANCH   4  11
ATOM     11  C   UNL     1     -11.979 -35.545  11.475  1.00  0.00     0.062 C 
BRANCH  11  12
ATOM     12  C   UNL     1     -11.935 -36.876  10.778  1.00  0.00    -0.030 C 
ATOM     13  C   UNL     1     -11.145 -37.089   9.722  1.00  0.00     0.004 C 
ENDBRANCH  11  12
ENDBRANCH   4  11
TORSDOF 4
ENDMDL
MODEL 7
REMARK VINA RESULT:    -0.740     18.830     21.442
REMARK INTER + INTRA:          -1.184
REMARK INTER:                  -1.118
REMARK INTRA:                  -0.066
REMARK UNBOUND:                -0.271
REMARK SMILES C=CCc1ccc(OC)c(OC)c1
REMARK SMILES IDX 7 1 10 2 13 3 4 4 5 5 6 6 8 7 9 8 11 9 12 10 3 11 2 12 1 13
REMARK H PARENT
REMARK Flexibility Score: inf
ROOT
ATOM      1  C   UNL     1     -12.120 -21.920  -5.342  1.00  0.00     0.160 A 
ATOM      2  C   UNL     1     -12.118 -20.517  -5.284  1.00  0.00     0.160 A 
ATOM      3  C   UNL     1     -12.111 -19.871  -4.032  1.00  0.00     0.054 A 
ATOM      4  C   UNL     1     -12.100 -20.618  -2.844  1.00  0.00    -0.040 A 
ATOM      5  C   UNL     1     -12.113 -22.018  -2.912  1.00  0.00     0.008 A 
ATOM      6  C   UNL     1     -12.118 -22.665  -4.148  1.00  0.00     0.051 A 
ENDROOT
BRANCH   1   7
ATOM      7  O   UNL     1     -12.125 -22.535  -6.604  1.00  0.00    -0.493 OA
ATOM      8  C   UNL     1     -11.519 -23.791  -6.891  1.00  0.00     0.278 C 
ENDBRANCH   1   7
BRANCH   2   9
ATOM      9  O   UNL     1     -12.125 -19.800  -6.492  1.00  0.00    -0.493 OA
ATOM     10  C   UNL     1     -12.112 -18.380  -6.587  1.00  0.00     0.278 C 
ENDBRANCH   2   9
BRANCH   4  11
ATOM     11  C   UNL     1     -12.124 -19.920  -1.511  1.00  0.00     0.062 C 
BRANCH  11  12
ATOM     12  C   UNL     1     -11.872 -20.893  -0.393  1.00  0.00    -0.030 C 
ATOM     13  C   UNL     1     -10.638 -21.297  -0.079  1.00  0.00     0.004 C 
ENDBRANCH  11  12
ENDBRANCH   4  11
TORSDOF 4
ENDMDL
