MODEL 1
REMARK VINA RESULT:    -3.902      0.000      0.000
REMARK INTER + INTRA:          -5.921
REMARK INTER:                  -5.385
REMARK INTRA:                  -0.536
REMARK UNBOUND:                -0.536
REMARK SMILES OC[C@H](O)C(O)[C@@H](O)CO
REMARK SMILES IDX 5 1 7 2 9 3 10 4 8 6 3 8 2 9 1 10 4 12 6 14
REMARK H PARENT 10 5 8 7 1 11 4 13 6 15
REMARK Flexibility Score: inf
ROOT
ATOM      1  C   UNL     1     -25.621  20.050 -24.728  1.00  0.00     0.176 C 
ENDROOT
BRANCH   1   2
ATOM      2  C   UNL     1     -25.306  20.563 -23.298  1.00  0.00     0.171 C 
BRANCH   2   3
ATOM      3  C   UNL     1     -24.120  21.549 -23.298  1.00  0.00     0.190 C 
BRANCH   3   4
ATOM      4  O   UNL     1     -23.159  21.166 -22.352  1.00  0.00    -0.394 OA
ATOM      5  H   UNL     1     -23.539  20.393 -21.857  1.00  0.00     0.210 HD
ENDBRANCH   3   4
ENDBRANCH   2   3
BRANCH   2   6
ATOM      6  O   UNL     1     -24.982  19.475 -22.471  1.00  0.00    -0.388 OA
ATOM      7  H   UNL     1     -24.190  19.029 -22.872  1.00  0.00     0.211 HD
ENDBRANCH   2   6
ENDBRANCH   1   2
BRANCH   1   8
ATOM      8  C   UNL     1     -24.369  19.504 -25.468  1.00  0.00     0.171 C 
BRANCH   8   9
ATOM      9  C   UNL     1     -24.660  19.084 -26.919  1.00  0.00     0.190 C 
BRANCH   9  10
ATOM     10  O   UNL     1     -25.240  17.808 -26.940  1.00  0.00    -0.394 OA
ATOM     11  H   UNL     1     -25.003  17.383 -26.074  1.00  0.00     0.210 HD
ENDBRANCH   9  10
ENDBRANCH   8   9
BRANCH   8  12
ATOM     12  O   UNL     1     -23.883  18.391 -24.759  1.00  0.00    -0.388 OA
ATOM     13  H   UNL     1     -22.953  18.600 -24.482  1.00  0.00     0.211 HD
ENDBRANCH   8  12
ENDBRANCH   1   8
BRANCH   1  14
ATOM     14  O   UNL     1     -26.570  19.013 -24.648  1.00  0.00    -0.388 OA
ATOM     15  H   UNL     1     -26.951  19.033 -23.732  1.00  0.00     0.211 HD
ENDBRANCH   1  14
TORSDOF 9
ENDMDL
MODEL 2
REMARK VINA RESULT:    -3.668      1.382      3.904
REMARK INTER + INTRA:          -5.598
REMARK INTER:                  -4.943
REMARK INTRA:                  -0.655
REMARK UNBOUND:                -0.536
REMARK SMILES OC[C@H](O)C(O)[C@@H](O)CO
REMARK SMILES IDX 5 1 7 2 9 3 10 4 8 6 3 8 2 9 1 10 4 12 6 14
REMARK H PARENT 10 5 8 7 1 11 4 13 6 15
REMARK Flexibility Score: inf
ROOT
ATOM      1  C   UNL     1     -24.323  19.632 -25.541  1.00  0.00     0.176 C 
ENDROOT
BRANCH   1   2
ATOM      2  C   UNL     1     -24.631  19.343 -27.034  1.00  0.00     0.171 C 
BRANCH   2   3
ATOM      3  C   UNL     1     -23.356  19.414 -27.900  1.00  0.00     0.190 C 
BRANCH   3   4
ATOM      4  O   UNL     1     -22.217  19.544 -27.094  1.00  0.00    -0.394 OA
ATOM      5  H   UNL     1     -21.760  20.378 -27.381  1.00  0.00     0.210 HD
ENDBRANCH   3   4
ENDBRANCH   2   3
BRANCH   2   6
ATOM      6  O   UNL     1     -25.549  20.291 -27.516  1.00  0.00    -0.388 OA
ATOM      7  H   UNL     1     -26.459  19.951 -27.304  1.00  0.00     0.211 HD
ENDBRANCH   2   6
ENDBRANCH   1   2
BRANCH   1   8
ATOM      8  C   UNL     1     -25.564  20.128 -24.750  1.00  0.00     0.171 C 
BRANCH   8   9
ATOM      9  C   UNL     1     -25.230  20.554 -23.310  1.00  0.00     0.190 C 
BRANCH   9  10
ATOM     10  O   UNL     1     -25.024  19.420 -22.512  1.00  0.00    -0.394 OA
ATOM     11  H   UNL     1     -25.903  19.207 -22.103  1.00  0.00     0.210 HD
ENDBRANCH   9  10
ENDBRANCH   8   9
BRANCH   8  12
ATOM     12  O   UNL     1     -26.511  19.090 -24.711  1.00  0.00    -0.388 OA
ATOM     13  H   UNL     1     -26.269  18.442 -25.423  1.00  0.00     0.211 HD
ENDBRANCH   8  12
ENDBRANCH   1   8
BRANCH   1  14
ATOM     14  O   UNL     1     -23.855  18.454 -24.930  1.00  0.00    -0.388 OA
ATOM     15  H   UNL     1     -23.165  18.719 -24.267  1.00  0.00     0.211 HD
ENDBRANCH   1  14
TORSDOF 9
ENDMDL
MODEL 3
REMARK VINA RESULT:    -3.655      5.818      6.694
REMARK INTER + INTRA:          -5.579
REMARK INTER:                  -4.558
REMARK INTRA:                  -1.022
REMARK UNBOUND:                -0.536
REMARK SMILES OC[C@H](O)C(O)[C@@H](O)CO
REMARK SMILES IDX 5 1 7 2 9 3 10 4 8 6 3 8 2 9 1 10 4 12 6 14
REMARK H PARENT 10 5 8 7 1 11 4 13 6 15
REMARK Flexibility Score: inf
ROOT
ATOM      1  C   UNL     1     -27.346  25.344 -25.996  1.00  0.00     0.176 C 
ENDROOT
BRANCH   1   2
ATOM      2  C   UNL     1     -27.014  25.377 -27.511  1.00  0.00     0.171 C 
BRANCH   2   3
ATOM      3  C   UNL     1     -25.752  26.216 -27.797  1.00  0.00     0.190 C 
BRANCH   3   4
ATOM      4  O   UNL     1     -24.613  25.597 -27.261  1.00  0.00    -0.394 OA
ATOM      5  H   UNL     1     -24.179  26.266 -26.670  1.00  0.00     0.210 HD
ENDBRANCH   3   4
ENDBRANCH   2   3
BRANCH   2   6
ATOM      6  O   UNL     1     -28.092  25.940 -28.216  1.00  0.00    -0.388 OA
ATOM      7  H   UNL     1     -27.779  26.809 -28.583  1.00  0.00     0.211 HD
ENDBRANCH   2   6
ENDBRANCH   1   2
BRANCH   1   8
ATOM      8  C   UNL     1     -26.963  24.001 -25.318  1.00  0.00     0.171 C 
BRANCH   8   9
ATOM      9  C   UNL     1     -25.972  24.173 -24.154  1.00  0.00     0.190 C 
BRANCH   9  10
ATOM     10  O   UNL     1     -24.674  24.345 -24.652  1.00  0.00    -0.394 OA
ATOM     11  H   UNL     1     -24.129  24.678 -23.893  1.00  0.00     0.210 HD
ENDBRANCH   9  10
ENDBRANCH   8   9
BRANCH   8  12
ATOM     12  O   UNL     1     -26.386  23.162 -26.288  1.00  0.00    -0.388 OA
ATOM     13  H   UNL     1     -25.415  23.105 -26.090  1.00  0.00     0.211 HD
ENDBRANCH   8  12
ENDBRANCH   1   8
BRANCH   1  14
ATOM     14  O   UNL     1     -26.645  26.379 -25.348  1.00  0.00    -0.388 OA
ATOM     15  H   UNL     1     -27.315  26.940 -24.877  1.00  0.00     0.211 HD
ENDBRANCH   1  14
TORSDOF 9
ENDMDL
MODEL 4
REMARK VINA RESULT:    -3.621      1.534      3.668
REMARK INTER + INTRA:          -5.532
REMARK INTER:                  -4.516
REMARK INTRA:                  -1.016
REMARK UNBOUND:                -0.536
REMARK SMILES OC[C@H](O)C(O)[C@@H](O)CO
REMARK SMILES IDX 5 1 7 2 9 3 10 4 8 6 3 8 2 9 1 10 4 12 6 14
REMARK H PARENT 10 5 8 7 1 11 4 13 6 15
REMARK Flexibility Score: inf
ROOT
ATOM      1  C   UNL     1     -25.379  21.316 -24.782  1.00  0.00     0.176 C 
ENDROOT
BRANCH   1   2
ATOM      2  C   UNL     1     -24.999  20.463 -26.021  1.00  0.00     0.171 C 
BRANCH   2   3
ATOM      3  C   UNL     1     -23.633  19.772 -25.836  1.00  0.00     0.190 C 
BRANCH   3   4
ATOM      4  O   UNL     1     -23.730  18.722 -24.912  1.00  0.00    -0.394 OA
ATOM      5  H   UNL     1     -22.977  18.836 -24.274  1.00  0.00     0.210 HD
ENDBRANCH   3   4
ENDBRANCH   2   3
BRANCH   2   6
ATOM      6  O   UNL     1     -24.931  21.290 -27.155  1.00  0.00    -0.388 OA
ATOM      7  H   UNL     1     -24.088  21.064 -27.631  1.00  0.00     0.211 HD
ENDBRANCH   2   6
ENDBRANCH   1   2
BRANCH   1   8
ATOM      8  C   UNL     1     -26.425  20.625 -23.865  1.00  0.00     0.171 C 
BRANCH   8   9
ATOM      9  C   UNL     1     -25.946  20.472 -22.411  1.00  0.00     0.190 C 
BRANCH   9  10
ATOM     10  O   UNL     1     -24.966  19.473 -22.333  1.00  0.00    -0.394 OA
ATOM     11  H   UNL     1     -24.730  19.245 -23.270  1.00  0.00     0.210 HD
ENDBRANCH   9  10
ENDBRANCH   8   9
BRANCH   8  12
ATOM     12  O   UNL     1     -26.704  19.351 -24.391  1.00  0.00    -0.388 OA
ATOM     13  H   UNL     1     -27.132  18.821 -23.668  1.00  0.00     0.211 HD
ENDBRANCH   8  12
ENDBRANCH   1   8
BRANCH   1  14
ATOM     14  O   UNL     1     -24.222  21.562 -24.019  1.00  0.00    -0.388 OA
ATOM     15  H   UNL     1     -23.650  22.183 -24.542  1.00  0.00     0.211 HD
ENDBRANCH   1  14
TORSDOF 9
ENDMDL
MODEL 5
REMARK VINA RESULT:    -3.596      1.404      2.245
REMARK INTER + INTRA:          -5.498
REMARK INTER:                  -4.990
REMARK INTRA:                  -0.508
REMARK UNBOUND:                -0.536
REMARK SMILES OC[C@H](O)C(O)[C@@H](O)CO
REMARK SMILES IDX 5 1 7 2 9 3 10 4 8 6 3 8 2 9 1 10 4 12 6 14
REMARK H PARENT 10 5 8 7 1 11 4 13 6 15
REMARK Flexibility Score: inf
ROOT
ATOM      1  C   UNL     1     -25.445  20.592 -23.097  1.00  0.00     0.176 C 
ENDROOT
BRANCH   1   2
ATOM      2  C   UNL     1     -24.411  21.659 -22.651  1.00  0.00     0.171 C 
BRANCH   2   3
ATOM      3  C   UNL     1     -24.371  22.853 -23.627  1.00  0.00     0.190 C 
BRANCH   3   4
ATOM      4  O   UNL     1     -23.500  23.847 -23.158  1.00  0.00    -0.394 OA
ATOM      5  H   UNL     1     -22.715  23.377 -22.773  1.00  0.00     0.210 HD
ENDBRANCH   3   4
ENDBRANCH   2   3
BRANCH   2   6
ATOM      6  O   UNL     1     -23.131  21.080 -22.604  1.00  0.00    -0.388 OA
ATOM      7  H   UNL     1     -22.488  21.765 -22.928  1.00  0.00     0.211 HD
ENDBRANCH   2   6
ENDBRANCH   1   2
BRANCH   1   8
ATOM      8  C   UNL     1     -25.082  19.922 -24.450  1.00  0.00     0.171 C 
BRANCH   8   9
ATOM      9  C   UNL     1     -26.317  19.510 -25.270  1.00  0.00     0.190 C 
BRANCH   9  10
ATOM     10  O   UNL     1     -27.409  19.298 -24.417  1.00  0.00    -0.394 OA
ATOM     11  H   UNL     1     -27.098  19.538 -23.506  1.00  0.00     0.210 HD
ENDBRANCH   9  10
ENDBRANCH   8   9
BRANCH   8  12
ATOM     12  O   UNL     1     -24.308  18.778 -24.187  1.00  0.00    -0.388 OA
ATOM     13  H   UNL     1     -23.829  18.936 -23.332  1.00  0.00     0.211 HD
ENDBRANCH   8  12
ENDBRANCH   1   8
BRANCH   1  14
ATOM     14  O   UNL     1     -25.522  19.586 -22.116  1.00  0.00    -0.388 OA
ATOM     15  H   UNL     1     -25.242  18.735 -22.543  1.00  0.00     0.211 HD
ENDBRANCH   1  14
TORSDOF 9
ENDMDL
MODEL 6
REMARK VINA RESULT:    -3.579      5.324      5.893
REMARK INTER + INTRA:          -5.474
REMARK INTER:                  -4.441
REMARK INTRA:                  -1.033
REMARK UNBOUND:                -0.536
REMARK SMILES OC[C@H](O)C(O)[C@@H](O)CO
REMARK SMILES IDX 5 1 7 2 9 3 10 4 8 6 3 8 2 9 1 10 4 12 6 14
REMARK H PARENT 10 5 8 7 1 11 4 13 6 15
REMARK Flexibility Score: inf
ROOT
ATOM      1  C   UNL     1     -27.343  24.346 -25.953  1.00  0.00     0.176 C 
ENDROOT
BRANCH   1   2
ATOM      2  C   UNL     1     -27.063  24.237 -24.431  1.00  0.00     0.171 C 
BRANCH   2   3
ATOM      3  C   UNL     1     -25.715  23.542 -24.151  1.00  0.00     0.190 C 
BRANCH   3   4
ATOM      4  O   UNL     1     -24.645  24.393 -24.460  1.00  0.00    -0.394 OA
ATOM      5  H   UNL     1     -24.599  25.067 -23.732  1.00  0.00     0.210 HD
ENDBRANCH   3   4
ENDBRANCH   2   3
BRANCH   2   6
ATOM      6  O   UNL     1     -28.085  23.490 -23.820  1.00  0.00    -0.388 OA
ATOM      7  H   UNL     1     -28.354  22.781 -24.463  1.00  0.00     0.211 HD
ENDBRANCH   2   6
ENDBRANCH   1   2
BRANCH   1   8
ATOM      8  C   UNL     1     -27.055  25.762 -26.524  1.00  0.00     0.171 C 
BRANCH   8   9
ATOM      9  C   UNL     1     -25.989  25.760 -27.634  1.00  0.00     0.190 C 
BRANCH   9  10
ATOM     10  O   UNL     1     -24.711  25.648 -27.070  1.00  0.00    -0.394 OA
ATOM     11  H   UNL     1     -24.851  25.484 -26.101  1.00  0.00     0.210 HD
ENDBRANCH   9  10
ENDBRANCH   8   9
BRANCH   8  12
ATOM     12  O   UNL     1     -26.616  26.585 -25.472  1.00  0.00    -0.388 OA
ATOM     13  H   UNL     1     -25.878  27.147 -25.825  1.00  0.00     0.211 HD
ENDBRANCH   8  12
ENDBRANCH   1   8
BRANCH   1  14
ATOM     14  O   UNL     1     -26.531  23.423 -26.639  1.00  0.00    -0.388 OA
ATOM     15  H   UNL     1     -27.067  23.060 -27.392  1.00  0.00     0.211 HD
ENDBRANCH   1  14
TORSDOF 9
ENDMDL
MODEL 7
REMARK VINA RESULT:    -3.525      3.642      4.432
REMARK INTER + INTRA:          -5.401
REMARK INTER:                  -4.918
REMARK INTRA:                  -0.483
REMARK UNBOUND:                -0.536
REMARK SMILES OC[C@H](O)C(O)[C@@H](O)CO
REMARK SMILES IDX 5 1 7 2 9 3 10 4 8 6 3 8 2 9 1 10 4 12 6 14
REMARK H PARENT 10 5 8 7 1 11 4 13 6 15
REMARK Flexibility Score: inf
ROOT
ATOM      1  C   UNL     1     -25.470  22.368 -25.767  1.00  0.00     0.176 C 
ENDROOT
BRANCH   1   2
ATOM      2  C   UNL     1     -24.703  21.592 -24.664  1.00  0.00     0.171 C 
BRANCH   2   3
ATOM      3  C   UNL     1     -24.685  20.076 -24.946  1.00  0.00     0.190 C 
BRANCH   3   4
ATOM      4  O   UNL     1     -24.725  19.348 -23.748  1.00  0.00    -0.394 OA
ATOM      5  H   UNL     1     -23.829  19.441 -23.329  1.00  0.00     0.210 HD
ENDBRANCH   3   4
ENDBRANCH   2   3
BRANCH   2   6
ATOM      6  O   UNL     1     -25.324  21.806 -23.422  1.00  0.00    -0.388 OA
ATOM      7  H   UNL     1     -24.800  22.507 -22.950  1.00  0.00     0.211 HD
ENDBRANCH   2   6
ENDBRANCH   1   2
BRANCH   1   8
ATOM      8  C   UNL     1     -25.719  23.856 -25.402  1.00  0.00     0.171 C 
BRANCH   8   9
ATOM      9  C   UNL     1     -25.902  24.758 -26.635  1.00  0.00     0.190 C 
BRANCH   9  10
ATOM     10  O   UNL     1     -24.681  25.356 -26.976  1.00  0.00    -0.394 OA
ATOM     11  H   UNL     1     -24.883  26.001 -27.703  1.00  0.00     0.210 HD
ENDBRANCH   9  10
ENDBRANCH   8   9
BRANCH   8  12
ATOM     12  O   UNL     1     -24.621  24.321 -24.656  1.00  0.00    -0.388 OA
ATOM     13  H   UNL     1     -24.771  25.287 -24.480  1.00  0.00     0.211 HD
ENDBRANCH   8  12
ENDBRANCH   1   8
BRANCH   1  14
ATOM     14  O   UNL     1     -24.726  22.327 -26.961  1.00  0.00    -0.388 OA
ATOM     15  H   UNL     1     -24.132  21.533 -26.913  1.00  0.00     0.211 HD
ENDBRANCH   1  14
TORSDOF 9
ENDMDL
MODEL 8
REMARK VINA RESULT:    -3.518      2.845      4.029
REMARK INTER + INTRA:          -5.391
REMARK INTER:                  -4.906
REMARK INTRA:                  -0.485
REMARK UNBOUND:                -0.536
REMARK SMILES OC[C@H](O)C(O)[C@@H](O)CO
REMARK SMILES IDX 5 1 7 2 9 3 10 4 8 6 3 8 2 9 1 10 4 12 6 14
REMARK H PARENT 10 5 8 7 1 11 4 13 6 15
REMARK Flexibility Score: inf
ROOT
ATOM      1  C   UNL     1     -25.723  22.413 -23.648  1.00  0.00     0.176 C 
ENDROOT
BRANCH   1   2
ATOM      2  C   UNL     1     -25.494  23.793 -24.319  1.00  0.00     0.171 C 
BRANCH   2   3
ATOM      3  C   UNL     1     -25.345  23.662 -25.848  1.00  0.00     0.190 C 
BRANCH   3   4
ATOM      4  O   UNL     1     -24.721  24.797 -26.384  1.00  0.00    -0.394 OA
ATOM      5  H   UNL     1     -23.801  24.522 -26.640  1.00  0.00     0.210 HD
ENDBRANCH   3   4
ENDBRANCH   2   3
BRANCH   2   6
ATOM      6  O   UNL     1     -24.323  24.376 -23.805  1.00  0.00    -0.388 OA
ATOM      7  H   UNL     1     -24.591  25.215 -23.346  1.00  0.00     0.211 HD
ENDBRANCH   2   6
ENDBRANCH   1   2
BRANCH   1   8
ATOM      8  C   UNL     1     -24.554  21.419 -23.887  1.00  0.00     0.171 C 
BRANCH   8   9
ATOM      9  C   UNL     1     -24.984  19.946 -23.783  1.00  0.00     0.190 C 
BRANCH   9  10
ATOM     10  O   UNL     1     -25.058  19.563 -22.437  1.00  0.00    -0.394 OA
ATOM     11  H   UNL     1     -25.310  18.603 -22.437  1.00  0.00     0.210 HD
ENDBRANCH   9  10
ENDBRANCH   8   9
BRANCH   8  12
ATOM     12  O   UNL     1     -23.553  21.671 -22.931  1.00  0.00    -0.388 OA
ATOM     13  H   UNL     1     -23.506  22.655 -22.806  1.00  0.00     0.211 HD
ENDBRANCH   8  12
ENDBRANCH   1   8
BRANCH   1  14
ATOM     14  O   UNL     1     -25.869  22.594 -22.260  1.00  0.00    -0.388 OA
ATOM     15  H   UNL     1     -26.100  23.548 -22.109  1.00  0.00     0.211 HD
ENDBRANCH   1  14
TORSDOF 9
ENDMDL
MODEL 9
REMARK VINA RESULT:    -3.511      1.214      2.311
REMARK INTER + INTRA:          -5.381
REMARK INTER:                  -4.614
REMARK INTRA:                  -0.767
REMARK UNBOUND:                -0.536
REMARK SMILES OC[C@H](O)C(O)[C@@H](O)CO
REMARK SMILES IDX 5 1 7 2 9 3 10 4 8 6 3 8 2 9 1 10 4 12 6 14
REMARK H PARENT 10 5 8 7 1 11 4 13 6 15
REMARK Flexibility Score: inf
ROOT
ATOM      1  C   UNL     1     -25.379  20.518 -23.233  1.00  0.00     0.176 C 
ENDROOT
BRANCH   1   2
ATOM      2  C   UNL     1     -24.262  21.594 -23.261  1.00  0.00     0.171 C 
BRANCH   2   3
ATOM      3  C   UNL     1     -23.721  21.886 -21.847  1.00  0.00     0.190 C 
BRANCH   3   4
ATOM      4  O   UNL     1     -22.574  21.122 -21.587  1.00  0.00    -0.394 OA
ATOM      5  H   UNL     1     -21.909  21.738 -21.183  1.00  0.00     0.210 HD
ENDBRANCH   3   4
ENDBRANCH   2   3
BRANCH   2   6
ATOM      6  O   UNL     1     -24.775  22.788 -23.797  1.00  0.00    -0.388 OA
ATOM      7  H   UNL     1     -23.998  23.337 -24.084  1.00  0.00     0.211 HD
ENDBRANCH   2   6
ENDBRANCH   1   2
BRANCH   1   8
ATOM      8  C   UNL     1     -25.679  19.917 -24.633  1.00  0.00     0.171 C 
BRANCH   8   9
ATOM      9  C   UNL     1     -24.408  19.523 -25.406  1.00  0.00     0.190 C 
BRANCH   9  10
ATOM     10  O   UNL     1     -23.822  18.393 -24.819  1.00  0.00    -0.394 OA
ATOM     11  H   UNL     1     -23.683  17.741 -25.554  1.00  0.00     0.210 HD
ENDBRANCH   9  10
ENDBRANCH   8   9
BRANCH   8  12
ATOM     12  O   UNL     1     -26.392  20.869 -25.383  1.00  0.00    -0.388 OA
ATOM     13  H   UNL     1     -26.901  20.376 -26.079  1.00  0.00     0.211 HD
ENDBRANCH   8  12
ENDBRANCH   1   8
BRANCH   1  14
ATOM     14  O   UNL     1     -24.988  19.469 -22.380  1.00  0.00    -0.388 OA
ATOM     15  H   UNL     1     -24.396  19.860 -21.684  1.00  0.00     0.211 HD
ENDBRANCH   1  14
TORSDOF 9
ENDMDL
