MODEL 1
REMARK VINA RESULT:    -2.784      0.000      0.000
REMARK INTER + INTRA:          -2.784
REMARK INTER:                  -2.784
REMARK INTRA:                   0.000
REMARK UNBOUND:                 0.000
REMARK SMILES c1cc[nH]c1
REMARK SMILES IDX 1 1 5 2 4 3 3 4 2 5
REMARK H PARENT 4 6
REMARK Flexibility Score: inf
ROOT
ATOM      1  C   UNL     1     -51.780 -44.737  39.974  1.00  0.00     0.019 A 
ATOM      2  C   UNL     1     -50.424 -44.938  40.133  1.00  0.00     0.082 A 
ATOM      3  N   UNL     1     -50.043 -44.542  41.361  1.00  0.00    -0.368 N 
ATOM      4  C   UNL     1     -51.142 -44.088  41.989  1.00  0.00     0.082 A 
ATOM      5  C   UNL     1     -52.238 -44.196  41.158  1.00  0.00     0.019 A 
ATOM      6  H   UNL     1     -49.075 -44.579  41.751  1.00  0.00     0.165 HD
ENDROOT
TORSDOF 0
ENDMDL
MODEL 2
REMARK VINA RESULT:    -2.759      0.669      1.730
REMARK INTER + INTRA:          -2.759
REMARK INTER:                  -2.759
REMARK INTRA:                   0.000
REMARK UNBOUND:                 0.000
REMARK SMILES c1cc[nH]c1
REMARK SMILES IDX 1 1 5 2 4 3 3 4 2 5
REMARK H PARENT 4 6
REMARK Flexibility Score: inf
ROOT
ATOM      1  C   UNL     1     -52.149 -44.811  40.857  1.00  0.00     0.019 A 
ATOM      2  C   UNL     1     -51.064 -44.246  41.495  1.00  0.00     0.082 A 
ATOM      3  N   UNL     1     -49.923 -44.699  40.946  1.00  0.00    -0.368 N 
ATOM      4  C   UNL     1     -50.267 -45.550  39.963  1.00  0.00     0.082 A 
ATOM      5  C   UNL     1     -51.641 -45.642  39.879  1.00  0.00     0.019 A 
ATOM      6  H   UNL     1     -48.952 -44.440  41.230  1.00  0.00     0.165 HD
ENDROOT
TORSDOF 0
ENDMDL
MODEL 3
REMARK VINA RESULT:    -2.724     17.492     18.156
REMARK INTER + INTRA:          -2.724
REMARK INTER:                  -2.724
REMARK INTRA:                   0.000
REMARK UNBOUND:                 0.000
REMARK SMILES c1cc[nH]c1
REMARK SMILES IDX 1 1 5 2 4 3 3 4 2 5
REMARK H PARENT 4 6
REMARK Flexibility Score: inf
ROOT
ATOM      1  C   UNL     1     -53.451 -44.044  58.095  1.00  0.00     0.019 A 
ATOM      2  C   UNL     1     -52.343 -44.867  58.093  1.00  0.00     0.082 A 
ATOM      3  N   UNL     1     -52.259 -45.524  59.263  1.00  0.00    -0.368 N 
ATOM      4  C   UNL     1     -53.301 -45.129  60.015  1.00  0.00     0.082 A 
ATOM      5  C   UNL     1     -54.063 -44.211  59.321  1.00  0.00     0.019 A 
ATOM      6  H   UNL     1     -51.522 -46.211  59.536  1.00  0.00     0.165 HD
ENDROOT
TORSDOF 0
ENDMDL
MODEL 4
REMARK VINA RESULT:    -2.694     17.430     18.137
REMARK INTER + INTRA:          -2.694
REMARK INTER:                  -2.694
REMARK INTRA:                   0.000
REMARK UNBOUND:                 0.000
REMARK SMILES c1cc[nH]c1
REMARK SMILES IDX 1 1 5 2 4 3 3 4 2 5
REMARK H PARENT 4 6
REMARK Flexibility Score: inf
ROOT
ATOM      1  C   UNL     1     -53.965 -44.140  59.070  1.00  0.00     0.019 A 
ATOM      2  C   UNL     1     -53.353 -45.023  59.936  1.00  0.00     0.082 A 
ATOM      3  N   UNL     1     -52.255 -45.544  59.360  1.00  0.00    -0.368 N 
ATOM      4  C   UNL     1     -52.158 -45.003  58.133  1.00  0.00     0.082 A 
ATOM      5  C   UNL     1     -53.202 -44.126  57.920  1.00  0.00     0.019 A 
ATOM      6  H   UNL     1     -51.602 -46.238  59.785  1.00  0.00     0.165 HD
ENDROOT
TORSDOF 0
ENDMDL
MODEL 5
REMARK VINA RESULT:    -2.557     16.791     17.705
REMARK INTER + INTRA:          -2.557
REMARK INTER:                  -2.557
REMARK INTRA:                   0.000
REMARK UNBOUND:                 0.000
REMARK SMILES c1cc[nH]c1
REMARK SMILES IDX 1 1 5 2 4 3 3 4 2 5
REMARK H PARENT 4 6
REMARK Flexibility Score: inf
ROOT
ATOM      1  C   UNL     1     -52.332 -45.177  58.121  1.00  0.00     0.019 A 
ATOM      2  C   UNL     1     -53.217 -44.534  57.280  1.00  0.00     0.082 A 
ATOM      3  N   UNL     1     -54.174 -43.924  58.002  1.00  0.00    -0.368 N 
ATOM      4  C   UNL     1     -53.911 -44.172  59.297  1.00  0.00     0.082 A 
ATOM      5  C   UNL     1     -52.774 -44.946  59.408  1.00  0.00     0.019 A 
ATOM      6  H   UNL     1     -54.972 -43.365  57.627  1.00  0.00     0.165 HD
ENDROOT
TORSDOF 0
ENDMDL
MODEL 6
REMARK VINA RESULT:    -2.464      1.894      2.420
REMARK INTER + INTRA:          -2.464
REMARK INTER:                  -2.464
REMARK INTRA:                   0.000
REMARK UNBOUND:                 0.000
REMARK SMILES c1cc[nH]c1
REMARK SMILES IDX 1 1 5 2 4 3 3 4 2 5
REMARK H PARENT 4 6
REMARK Flexibility Score: inf
ROOT
ATOM      1  C   UNL     1     -52.649 -45.415  41.818  1.00  0.00     0.019 A 
ATOM      2  C   UNL     1     -52.650 -46.625  41.154  1.00  0.00     0.082 A 
ATOM      3  N   UNL     1     -52.017 -46.500  39.974  1.00  0.00    -0.368 N 
ATOM      4  C   UNL     1     -51.612 -45.222  39.875  1.00  0.00     0.082 A 
ATOM      5  C   UNL     1     -51.986 -44.520  41.002  1.00  0.00     0.019 A 
ATOM      6  H   UNL     1     -51.870 -47.255  39.268  1.00  0.00     0.165 HD
ENDROOT
TORSDOF 0
ENDMDL
MODEL 7
REMARK VINA RESULT:    -2.373      2.994      3.278
REMARK INTER + INTRA:          -2.373
REMARK INTER:                  -2.373
REMARK INTRA:                   0.000
REMARK UNBOUND:                 0.000
REMARK SMILES c1cc[nH]c1
REMARK SMILES IDX 1 1 5 2 4 3 3 4 2 5
REMARK H PARENT 4 6
REMARK Flexibility Score: inf
ROOT
ATOM      1  C   UNL     1     -53.408 -45.505  41.944  1.00  0.00     0.019 A 
ATOM      2  C   UNL     1     -52.271 -46.022  41.358  1.00  0.00     0.082 A 
ATOM      3  N   UNL     1     -52.169 -47.335  41.634  1.00  0.00    -0.368 N 
ATOM      4  C   UNL     1     -53.229 -47.663  42.393  1.00  0.00     0.082 A 
ATOM      5  C   UNL     1     -54.020 -46.552  42.605  1.00  0.00     0.019 A 
ATOM      6  H   UNL     1     -51.409 -47.977  41.319  1.00  0.00     0.165 HD
ENDROOT
TORSDOF 0
ENDMDL
MODEL 8
REMARK VINA RESULT:    -2.233     18.312     18.664
REMARK INTER + INTRA:          -2.233
REMARK INTER:                  -2.233
REMARK INTRA:                   0.000
REMARK UNBOUND:                 0.000
REMARK SMILES c1cc[nH]c1
REMARK SMILES IDX 1 1 5 2 4 3 3 4 2 5
REMARK H PARENT 4 6
REMARK Flexibility Score: inf
ROOT
ATOM      1  C   UNL     1     -51.109 -62.910  39.940  1.00  0.00     0.019 A 
ATOM      2  C   UNL     1     -51.745 -61.953  40.705  1.00  0.00     0.082 A 
ATOM      3  N   UNL     1     -52.361 -62.536  41.749  1.00  0.00    -0.368 N 
ATOM      4  C   UNL     1     -52.126 -63.857  41.659  1.00  0.00     0.082 A 
ATOM      5  C   UNL     1     -51.352 -64.124  40.549  1.00  0.00     0.019 A 
ATOM      6  H   UNL     1     -52.917 -62.053  42.488  1.00  0.00     0.165 HD
ENDROOT
TORSDOF 0
ENDMDL
MODEL 9
REMARK VINA RESULT:    -1.972     22.367     22.958
REMARK INTER + INTRA:          -1.972
REMARK INTER:                  -1.972
REMARK INTRA:                   0.000
REMARK UNBOUND:                 0.000
REMARK SMILES c1cc[nH]c1
REMARK SMILES IDX 1 1 5 2 4 3 3 4 2 5
REMARK H PARENT 4 6
REMARK Flexibility Score: inf
ROOT
ATOM      1  C   UNL     1     -49.691 -58.525  60.125  1.00  0.00     0.019 A 
ATOM      2  C   UNL     1     -50.385 -59.458  59.382  1.00  0.00     0.082 A 
ATOM      3  N   UNL     1     -50.876 -58.885  58.269  1.00  0.00    -0.368 N 
ATOM      4  C   UNL     1     -50.504 -57.593  58.293  1.00  0.00     0.082 A 
ATOM      5  C   UNL     1     -49.766 -57.335  59.430  1.00  0.00     0.019 A 
ATOM      6  H   UNL     1     -51.441 -59.355  57.528  1.00  0.00     0.165 HD
ENDROOT
TORSDOF 0
ENDMDL
