MODEL 1
REMARK VINA RESULT:    -7.446      0.000      0.000
REMARK INTER + INTRA:          -8.894
REMARK INTER:                  -8.969
REMARK INTRA:                   0.075
REMARK UNBOUND:                 0.075
REMARK SMILES O=c1c(O)c(-c2ccc(O)c(O)c2)oc2cc(O)cc(O)c12
REMARK SMILES IDX 5 1 3 2 2 3 1 4 22 5 20 6 19 7 17 8 16 9 15 10 14 11 6 12
REMARK SMILES IDX 7 13 8 14 9 15 13 16 11 17 10 18 12 20 4 22 21 24 18 26
REMARK H PARENT 10 19 12 21 4 23 21 25 18 27
REMARK Flexibility Score: inf
ROOT
ATOM      1  C   UNL     1      29.256  23.309  48.839  1.00  0.00     0.180 A 
ATOM      2  C   UNL     1      30.529  22.726  48.951  1.00  0.00     0.208 A 
ATOM      3  C   UNL     1      30.957  22.258  50.203  1.00  0.00     0.238 A 
ATOM      4  O   UNL     1      32.076  21.687  50.286  1.00  0.00    -0.285 OA
ATOM      5  C   UNL     1      30.113  22.393  51.331  1.00  0.00     0.111 A 
ATOM      6  C   UNL     1      30.461  21.992  52.657  1.00  0.00     0.134 A 
ATOM      7  C   UNL     1      29.499  22.054  53.672  1.00  0.00     0.093 A 
ATOM      8  C   UNL     1      28.224  22.563  53.426  1.00  0.00     0.123 A 
ATOM      9  C   UNL     1      27.893  23.016  52.148  1.00  0.00     0.094 A 
ATOM     10  C   UNL     1      28.820  22.932  51.106  1.00  0.00     0.146 A 
ATOM     11  O   UNL     1      28.461  23.363  49.903  1.00  0.00    -0.452 OA
ENDROOT
BRANCH   1  12
ATOM     12  C   UNL     1      28.745  23.848  47.558  1.00  0.00     0.025 A 
ATOM     13  C   UNL     1      29.575  24.661  46.771  1.00  0.00     0.016 A 
ATOM     14  C   UNL     1      29.120  25.164  45.549  1.00  0.00     0.051 A 
ATOM     15  C   UNL     1      27.838  24.850  45.089  1.00  0.00     0.157 A 
ATOM     16  C   UNL     1      27.462  23.517  47.084  1.00  0.00     0.062 A 
ATOM     17  C   UNL     1      27.005  24.019  45.856  1.00  0.00     0.158 A 
BRANCH  15  18
ATOM     18  O   UNL     1      27.411  25.368  43.866  1.00  0.00    -0.504 OA
ATOM     19  H   UNL     1      26.939  24.798  43.175  1.00  0.00     0.293 HD
ENDBRANCH  15  18
BRANCH  17  20
ATOM     20  O   UNL     1      25.731  23.691  45.396  1.00  0.00    -0.504 OA
ATOM     21  H   UNL     1      25.315  22.787  45.585  1.00  0.00     0.293 HD
ENDBRANCH  17  20
ENDBRANCH   1  12
BRANCH   2  22
ATOM     22  O   UNL     1      31.337  22.582  47.819  1.00  0.00    -0.502 OA
ATOM     23  H   UNL     1      32.221  22.087  47.842  1.00  0.00     0.293 HD
ENDBRANCH   2  22
BRANCH   6  24
ATOM     24  O   UNL     1      31.735  21.554  53.030  1.00  0.00    -0.507 OA
ATOM     25  H   UNL     1      32.548  21.578  52.435  1.00  0.00     0.293 HD
ENDBRANCH   6  24
BRANCH   8  26
ATOM     26  O   UNL     1      27.297  22.626  54.464  1.00  0.00    -0.508 OA
ATOM     27  H   UNL     1      26.300  22.557  54.290  1.00  0.00     0.293 HD
ENDBRANCH   8  26
TORSDOF 6
ENDMDL
MODEL 2
REMARK VINA RESULT:    -7.277     12.579     13.939
REMARK INTER + INTRA:          -8.691
REMARK INTER:                  -8.407
REMARK INTRA:                  -0.284
REMARK UNBOUND:                 0.075
REMARK SMILES O=c1c(O)c(-c2ccc(O)c(O)c2)oc2cc(O)cc(O)c12
REMARK SMILES IDX 5 1 3 2 2 3 1 4 22 5 20 6 19 7 17 8 16 9 15 10 14 11 6 12
REMARK SMILES IDX 7 13 8 14 9 15 13 16 11 17 10 18 12 20 4 22 21 24 18 26
REMARK H PARENT 10 19 12 21 4 23 21 25 18 27
REMARK Flexibility Score: inf
ROOT
ATOM      1  C   UNL     1      18.036  24.746  41.562  1.00  0.00     0.180 A 
ATOM      2  C   UNL     1      16.792  24.353  42.086  1.00  0.00     0.208 A 
ATOM      3  C   UNL     1      16.312  24.982  43.246  1.00  0.00     0.238 A 
ATOM      4  O   UNL     1      15.174  24.666  43.679  1.00  0.00    -0.285 OA
ATOM      5  C   UNL     1      17.090  25.982  43.878  1.00  0.00     0.111 A 
ATOM      6  C   UNL     1      16.720  26.657  45.081  1.00  0.00     0.134 A 
ATOM      7  C   UNL     1      17.504  27.720  45.545  1.00  0.00     0.093 A 
ATOM      8  C   UNL     1      18.676  28.091  44.887  1.00  0.00     0.123 A 
ATOM      9  C   UNL     1      19.080  27.399  43.744  1.00  0.00     0.094 A 
ATOM     10  C   UNL     1      18.298  26.358  43.236  1.00  0.00     0.146 A 
ATOM     11  O   UNL     1      18.712  25.733  42.140  1.00  0.00    -0.452 OA
ENDROOT
BRANCH   1  12
ATOM     12  C   UNL     1      18.619  24.113  40.358  1.00  0.00     0.025 A 
ATOM     13  C   UNL     1      18.175  24.507  39.086  1.00  0.00     0.016 A 
ATOM     14  C   UNL     1      18.725  23.938  37.935  1.00  0.00     0.051 A 
ATOM     15  C   UNL     1      19.737  22.978  38.036  1.00  0.00     0.157 A 
ATOM     16  C   UNL     1      19.651  23.162  40.456  1.00  0.00     0.062 A 
ATOM     17  C   UNL     1      20.207  22.590  39.302  1.00  0.00     0.158 A 
BRANCH  15  18
ATOM     18  O   UNL     1      20.267  22.425  36.870  1.00  0.00    -0.504 OA
ATOM     19  H   UNL     1      20.271  21.427  36.702  1.00  0.00     0.293 HD
ENDBRANCH  15  18
BRANCH  17  20
ATOM     20  O   UNL     1      21.225  21.644  39.409  1.00  0.00    -0.504 OA
ATOM     21  H   UNL     1      21.823  21.417  38.624  1.00  0.00     0.293 HD
ENDBRANCH  17  20
ENDBRANCH   1  12
BRANCH   2  22
ATOM     22  O   UNL     1      16.031  23.380  41.433  1.00  0.00    -0.502 OA
ATOM     23  H   UNL     1      15.651  23.518  40.504  1.00  0.00     0.293 HD
ENDBRANCH   2  22
BRANCH   6  24
ATOM     24  O   UNL     1      15.618  26.305  45.865  1.00  0.00    -0.507 OA
ATOM     25  H   UNL     1      14.906  26.947  46.176  1.00  0.00     0.293 HD
ENDBRANCH   6  24
BRANCH   8  26
ATOM     26  O   UNL     1      19.441  29.144  45.386  1.00  0.00    -0.508 OA
ATOM     27  H   UNL     1      19.845  29.843  44.774  1.00  0.00     0.293 HD
ENDBRANCH   8  26
TORSDOF 6
ENDMDL
MODEL 3
REMARK VINA RESULT:    -7.007     12.567     13.693
REMARK INTER + INTRA:          -8.366
REMARK INTER:                  -8.056
REMARK INTRA:                  -0.310
REMARK UNBOUND:                 0.075
REMARK SMILES O=c1c(O)c(-c2ccc(O)c(O)c2)oc2cc(O)cc(O)c12
REMARK SMILES IDX 5 1 3 2 2 3 1 4 22 5 20 6 19 7 17 8 16 9 15 10 14 11 6 12
REMARK SMILES IDX 7 13 8 14 9 15 13 16 11 17 10 18 12 20 4 22 21 24 18 26
REMARK H PARENT 10 19 12 21 4 23 21 25 18 27
REMARK Flexibility Score: inf
ROOT
ATOM      1  C   UNL     1      18.841  25.441  40.963  1.00  0.00     0.180 A 
ATOM      2  C   UNL     1      19.794  26.415  41.308  1.00  0.00     0.208 A 
ATOM      3  C   UNL     1      19.645  27.116  42.515  1.00  0.00     0.238 A 
ATOM      4  O   UNL     1      20.530  27.948  42.844  1.00  0.00    -0.285 OA
ATOM      5  C   UNL     1      18.536  26.848  43.353  1.00  0.00     0.111 A 
ATOM      6  C   UNL     1      18.263  27.528  44.579  1.00  0.00     0.134 A 
ATOM      7  C   UNL     1      17.210  27.091  45.391  1.00  0.00     0.093 A 
ATOM      8  C   UNL     1      16.381  26.043  44.993  1.00  0.00     0.123 A 
ATOM      9  C   UNL     1      16.600  25.411  43.768  1.00  0.00     0.094 A 
ATOM     10  C   UNL     1      17.666  25.800  42.953  1.00  0.00     0.146 A 
ATOM     11  O   UNL     1      17.848  25.166  41.801  1.00  0.00    -0.452 OA
ENDROOT
BRANCH   1  12
ATOM     12  C   UNL     1      18.917  24.678  39.696  1.00  0.00     0.025 A 
ATOM     13  C   UNL     1      18.214  25.136  38.570  1.00  0.00     0.016 A 
ATOM     14  C   UNL     1      18.287  24.443  37.360  1.00  0.00     0.051 A 
ATOM     15  C   UNL     1      19.074  23.292  37.251  1.00  0.00     0.157 A 
ATOM     16  C   UNL     1      19.723  23.532  39.579  1.00  0.00     0.062 A 
ATOM     17  C   UNL     1      19.800  22.835  38.363  1.00  0.00     0.158 A 
BRANCH  15  18
ATOM     18  O   UNL     1      19.126  22.620  36.030  1.00  0.00    -0.504 OA
ATOM     19  H   UNL     1      18.409  21.964  35.746  1.00  0.00     0.293 HD
ENDBRANCH  15  18
BRANCH  17  20
ATOM     20  O   UNL     1      20.597  21.697  38.257  1.00  0.00    -0.504 OA
ATOM     21  H   UNL     1      20.209  20.801  37.987  1.00  0.00     0.293 HD
ENDBRANCH  17  20
ENDBRANCH   1  12
BRANCH   2  22
ATOM     22  O   UNL     1      20.893  26.647  40.476  1.00  0.00    -0.502 OA
ATOM     23  H   UNL     1      21.792  26.946  40.834  1.00  0.00     0.293 HD
ENDBRANCH   2  22
BRANCH   6  24
ATOM     24  O   UNL     1      18.974  28.646  45.026  1.00  0.00    -0.507 OA
ATOM     25  H   UNL     1      19.952  28.644  45.273  1.00  0.00     0.293 HD
ENDBRANCH   6  24
BRANCH   8  26
ATOM     26  O   UNL     1      15.331  25.645  45.819  1.00  0.00    -0.508 OA
ATOM     27  H   UNL     1      14.612  26.296  46.113  1.00  0.00     0.293 HD
ENDBRANCH   8  26
TORSDOF 6
ENDMDL
MODEL 4
REMARK VINA RESULT:    -6.922      1.516      2.703
REMARK INTER + INTRA:          -8.263
REMARK INTER:                  -8.738
REMARK INTRA:                   0.475
REMARK UNBOUND:                 0.075
REMARK SMILES O=c1c(O)c(-c2ccc(O)c(O)c2)oc2cc(O)cc(O)c12
REMARK SMILES IDX 5 1 3 2 2 3 1 4 22 5 20 6 19 7 17 8 16 9 15 10 14 11 6 12
REMARK SMILES IDX 7 13 8 14 9 15 13 16 11 17 10 18 12 20 4 22 21 24 18 26
REMARK H PARENT 10 19 12 21 4 23 21 25 18 27
REMARK Flexibility Score: inf
ROOT
ATOM      1  C   UNL     1      28.226  23.511  49.246  1.00  0.00     0.180 A 
ATOM      2  C   UNL     1      27.167  22.831  49.871  1.00  0.00     0.208 A 
ATOM      3  C   UNL     1      27.320  22.406  51.200  1.00  0.00     0.238 A 
ATOM      4  O   UNL     1      26.348  21.846  51.772  1.00  0.00    -0.285 OA
ATOM      5  C   UNL     1      28.536  22.651  51.883  1.00  0.00     0.111 A 
ATOM      6  C   UNL     1      28.816  22.228  53.217  1.00  0.00     0.134 A 
ATOM      7  C   UNL     1      30.002  22.638  53.837  1.00  0.00     0.093 A 
ATOM      8  C   UNL     1      30.947  23.400  53.151  1.00  0.00     0.123 A 
ATOM      9  C   UNL     1      30.711  23.768  51.825  1.00  0.00     0.094 A 
ATOM     10  C   UNL     1      29.520  23.404  51.192  1.00  0.00     0.146 A 
ATOM     11  O   UNL     1      29.330  23.784  49.934  1.00  0.00    -0.452 OA
ENDROOT
BRANCH   1  12
ATOM     12  C   UNL     1      28.149  23.969  47.841  1.00  0.00     0.025 A 
ATOM     13  C   UNL     1      29.289  24.509  47.226  1.00  0.00     0.016 A 
ATOM     14  C   UNL     1      29.245  24.928  45.894  1.00  0.00     0.051 A 
ATOM     15  C   UNL     1      28.067  24.800  45.152  1.00  0.00     0.157 A 
ATOM     16  C   UNL     1      26.971  23.822  47.086  1.00  0.00     0.062 A 
ATOM     17  C   UNL     1      26.924  24.240  45.748  1.00  0.00     0.158 A 
BRANCH  15  18
ATOM     18  O   UNL     1      28.051  25.229  43.824  1.00  0.00    -0.504 OA
ATOM     19  H   UNL     1      28.727  25.893  43.466  1.00  0.00     0.293 HD
ENDBRANCH  15  18
BRANCH  17  20
ATOM     20  O   UNL     1      25.751  24.096  45.009  1.00  0.00    -0.504 OA
ATOM     21  H   UNL     1      25.770  23.916  44.012  1.00  0.00     0.293 HD
ENDBRANCH  17  20
ENDBRANCH   1  12
BRANCH   2  22
ATOM     22  O   UNL     1      25.967  22.620  49.186  1.00  0.00    -0.502 OA
ATOM     23  H   UNL     1      25.517  23.345  48.640  1.00  0.00     0.293 HD
ENDBRANCH   2  22
BRANCH   6  24
ATOM     24  O   UNL     1      27.981  21.389  53.961  1.00  0.00    -0.507 OA
ATOM     25  H   UNL     1      27.855  20.403  53.788  1.00  0.00     0.293 HD
ENDBRANCH   6  24
BRANCH   8  26
ATOM     26  O   UNL     1      32.125  23.777  53.793  1.00  0.00    -0.508 OA
ATOM     27  H   UNL     1      32.120  24.131  54.743  1.00  0.00     0.293 HD
ENDBRANCH   8  26
TORSDOF 6
ENDMDL
MODEL 5
REMARK VINA RESULT:    -6.858     12.214     15.097
REMARK INTER + INTRA:          -8.186
REMARK INTER:                  -7.872
REMARK INTRA:                  -0.314
REMARK UNBOUND:                 0.075
REMARK SMILES O=c1c(O)c(-c2ccc(O)c(O)c2)oc2cc(O)cc(O)c12
REMARK SMILES IDX 5 1 3 2 2 3 1 4 22 5 20 6 19 7 17 8 16 9 15 10 14 11 6 12
REMARK SMILES IDX 7 13 8 14 9 15 13 16 11 17 10 18 12 20 4 22 21 24 18 26
REMARK H PARENT 10 19 12 21 4 23 21 25 18 27
REMARK Flexibility Score: inf
ROOT
ATOM      1  C   UNL     1      16.533  25.286  43.445  1.00  0.00     0.180 A 
ATOM      2  C   UNL     1      15.740  25.449  42.296  1.00  0.00     0.208 A 
ATOM      3  C   UNL     1      14.870  24.415  41.917  1.00  0.00     0.238 A 
ATOM      4  O   UNL     1      14.122  24.589  40.919  1.00  0.00    -0.285 OA
ATOM      5  C   UNL     1      14.815  23.224  42.680  1.00  0.00     0.111 A 
ATOM      6  C   UNL     1      14.000  22.095  42.365  1.00  0.00     0.134 A 
ATOM      7  C   UNL     1      13.928  21.023  43.262  1.00  0.00     0.093 A 
ATOM      8  C   UNL     1      14.690  21.009  44.430  1.00  0.00     0.123 A 
ATOM      9  C   UNL     1      15.537  22.080  44.719  1.00  0.00     0.094 A 
ATOM     10  C   UNL     1      15.602  23.181  43.861  1.00  0.00     0.146 A 
ATOM     11  O   UNL     1      16.412  24.184  44.177  1.00  0.00    -0.452 OA
ENDROOT
BRANCH   1  12
ATOM     12  C   UNL     1      17.492  26.321  43.894  1.00  0.00     0.025 A 
ATOM     13  C   UNL     1      18.770  26.376  43.315  1.00  0.00     0.016 A 
ATOM     14  C   UNL     1      19.684  27.357  43.709  1.00  0.00     0.051 A 
ATOM     15  C   UNL     1      19.331  28.305  44.674  1.00  0.00     0.157 A 
ATOM     16  C   UNL     1      17.132  27.288  44.850  1.00  0.00     0.062 A 
ATOM     17  C   UNL     1      18.047  28.274  45.245  1.00  0.00     0.158 A 
BRANCH  15  18
ATOM     18  O   UNL     1      20.265  29.270  45.049  1.00  0.00    -0.504 OA
ATOM     19  H   UNL     1      21.254  29.162  44.864  1.00  0.00     0.293 HD
ENDBRANCH  15  18
BRANCH  17  20
ATOM     20  O   UNL     1      17.685  29.225  46.198  1.00  0.00    -0.504 OA
ATOM     21  H   UNL     1      17.961  29.136  47.168  1.00  0.00     0.293 HD
ENDBRANCH  17  20
ENDBRANCH   1  12
BRANCH   2  22
ATOM     22  O   UNL     1      15.793  26.642  41.569  1.00  0.00    -0.502 OA
ATOM     23  H   UNL     1      15.051  27.331  41.601  1.00  0.00     0.293 HD
ENDBRANCH   2  22
BRANCH   6  24
ATOM     24  O   UNL     1      13.269  21.967  41.180  1.00  0.00    -0.507 OA
ATOM     25  H   UNL     1      12.331  21.602  41.120  1.00  0.00     0.293 HD
ENDBRANCH   6  24
BRANCH   8  26
ATOM     26  O   UNL     1      14.606  19.918  45.293  1.00  0.00    -0.508 OA
ATOM     27  H   UNL     1      15.285  19.166  45.264  1.00  0.00     0.293 HD
ENDBRANCH   8  26
TORSDOF 6
ENDMDL
MODEL 6
REMARK VINA RESULT:    -6.811      1.666      7.204
REMARK INTER + INTRA:          -8.129
REMARK INTER:                  -7.833
REMARK INTRA:                  -0.297
REMARK UNBOUND:                 0.075
REMARK SMILES O=c1c(O)c(-c2ccc(O)c(O)c2)oc2cc(O)cc(O)c12
REMARK SMILES IDX 5 1 3 2 2 3 1 4 22 5 20 6 19 7 17 8 16 9 15 10 14 11 6 12
REMARK SMILES IDX 7 13 8 14 9 15 13 16 11 17 10 18 12 20 4 22 21 24 18 26
REMARK H PARENT 10 19 12 21 4 23 21 25 18 27
REMARK Flexibility Score: inf
ROOT
ATOM      1  C   UNL     1      29.176  22.919  50.238  1.00  0.00     0.180 A 
ATOM      2  C   UNL     1      27.850  22.555  49.951  1.00  0.00     0.208 A 
ATOM      3  C   UNL     1      27.293  22.928  48.717  1.00  0.00     0.238 A 
ATOM      4  O   UNL     1      26.123  22.552  48.443  1.00  0.00    -0.285 OA
ATOM      5  C   UNL     1      28.062  23.676  47.794  1.00  0.00     0.111 A 
ATOM      6  C   UNL     1      27.585  24.144  46.532  1.00  0.00     0.134 A 
ATOM      7  C   UNL     1      28.474  24.762  45.644  1.00  0.00     0.093 A 
ATOM      8  C   UNL     1      29.804  24.988  45.997  1.00  0.00     0.123 A 
ATOM      9  C   UNL     1      30.266  24.590  47.253  1.00  0.00     0.094 A 
ATOM     10  C   UNL     1      29.412  23.937  48.145  1.00  0.00     0.146 A 
ATOM     11  O   UNL     1      29.894  23.565  49.325  1.00  0.00    -0.452 OA
ENDROOT
BRANCH   1  12
ATOM     12  C   UNL     1      29.824  22.584  51.526  1.00  0.00     0.025 A 
ATOM     13  C   UNL     1      30.771  21.548  51.574  1.00  0.00     0.016 A 
ATOM     14  C   UNL     1      31.409  21.228  52.775  1.00  0.00     0.051 A 
ATOM     15  C   UNL     1      31.125  21.946  53.940  1.00  0.00     0.157 A 
ATOM     16  C   UNL     1      29.554  23.318  52.695  1.00  0.00     0.062 A 
ATOM     17  C   UNL     1      30.196  23.000  53.901  1.00  0.00     0.158 A 
BRANCH  15  18
ATOM     18  O   UNL     1      31.777  21.602  55.125  1.00  0.00    -0.504 OA
ATOM     19  H   UNL     1      32.521  20.916  55.149  1.00  0.00     0.293 HD
ENDBRANCH  15  18
BRANCH  17  20
ATOM     20  O   UNL     1      29.918  23.729  55.057  1.00  0.00    -0.504 OA
ATOM     21  H   UNL     1      28.994  24.100  55.240  1.00  0.00     0.293 HD
ENDBRANCH  17  20
ENDBRANCH   1  12
BRANCH   2  22
ATOM     22  O   UNL     1      27.115  21.797  50.867  1.00  0.00    -0.502 OA
ATOM     23  H   UNL     1      26.579  22.219  51.616  1.00  0.00     0.293 HD
ENDBRANCH   2  22
BRANCH   6  24
ATOM     24  O   UNL     1      26.253  24.051  46.118  1.00  0.00    -0.507 OA
ATOM     25  H   UNL     1      25.492  24.585  46.507  1.00  0.00     0.293 HD
ENDBRANCH   6  24
BRANCH   8  26
ATOM     26  O   UNL     1      30.657  25.621  45.095  1.00  0.00    -0.508 OA
ATOM     27  H   UNL     1      30.391  26.482  44.629  1.00  0.00     0.293 HD
ENDBRANCH   8  26
TORSDOF 6
ENDMDL
MODEL 7
REMARK VINA RESULT:    -6.810     12.985     14.799
REMARK INTER + INTRA:          -8.128
REMARK INTER:                  -7.881
REMARK INTRA:                  -0.247
REMARK UNBOUND:                 0.075
REMARK SMILES O=c1c(O)c(-c2ccc(O)c(O)c2)oc2cc(O)cc(O)c12
REMARK SMILES IDX 5 1 3 2 2 3 1 4 22 5 20 6 19 7 17 8 16 9 15 10 14 11 6 12
REMARK SMILES IDX 7 13 8 14 9 15 13 16 11 17 10 18 12 20 4 22 21 24 18 26
REMARK H PARENT 10 19 12 21 4 23 21 25 18 27
REMARK Flexibility Score: inf
ROOT
ATOM      1  C   UNL     1      17.002  24.244  41.877  1.00  0.00     0.180 A 
ATOM      2  C   UNL     1      15.608  24.408  41.808  1.00  0.00     0.208 A 
ATOM      3  C   UNL     1      14.777  23.374  42.267  1.00  0.00     0.238 A 
ATOM      4  O   UNL     1      13.530  23.549  42.254  1.00  0.00    -0.285 OA
ATOM      5  C   UNL     1      15.349  22.183  42.774  1.00  0.00     0.111 A 
ATOM      6  C   UNL     1      14.601  21.054  43.228  1.00  0.00     0.134 A 
ATOM      7  C   UNL     1      15.269  19.980  43.830  1.00  0.00     0.093 A 
ATOM      8  C   UNL     1      16.660  19.965  43.935  1.00  0.00     0.123 A 
ATOM      9  C   UNL     1      17.405  21.036  43.439  1.00  0.00     0.094 A 
ATOM     10  C   UNL     1      16.764  22.138  42.867  1.00  0.00     0.146 A 
ATOM     11  O   UNL     1      17.509  23.141  42.418  1.00  0.00    -0.452 OA
ENDROOT
BRANCH   1  12
ATOM     12  C   UNL     1      17.942  25.278  41.390  1.00  0.00     0.025 A 
ATOM     13  C   UNL     1      18.088  25.485  40.009  1.00  0.00     0.016 A 
ATOM     14  C   UNL     1      18.955  26.469  39.528  1.00  0.00     0.051 A 
ATOM     15  C   UNL     1      19.677  27.272  40.417  1.00  0.00     0.157 A 
ATOM     16  C   UNL     1      18.654  26.100  42.283  1.00  0.00     0.062 A 
ATOM     17  C   UNL     1      19.523  27.091  41.801  1.00  0.00     0.158 A 
BRANCH  15  18
ATOM     18  O   UNL     1      20.536  28.245  39.907  1.00  0.00    -0.504 OA
ATOM     19  H   UNL     1      21.159  28.058  39.131  1.00  0.00     0.293 HD
ENDBRANCH  15  18
BRANCH  17  20
ATOM     20  O   UNL     1      20.229  27.897  42.693  1.00  0.00    -0.504 OA
ATOM     21  H   UNL     1      21.037  27.551  43.196  1.00  0.00     0.293 HD
ENDBRANCH  17  20
ENDBRANCH   1  12
BRANCH   2  22
ATOM     22  O   UNL     1      15.064  25.602  41.325  1.00  0.00    -0.502 OA
ATOM     23  H   UNL     1      14.676  26.310  41.938  1.00  0.00     0.293 HD
ENDBRANCH   2  22
BRANCH   6  24
ATOM     24  O   UNL     1      13.216  20.927  43.087  1.00  0.00    -0.507 OA
ATOM     25  H   UNL     1      12.666  20.176  43.474  1.00  0.00     0.293 HD
ENDBRANCH   6  24
BRANCH   8  26
ATOM     26  O   UNL     1      17.293  18.873  44.525  1.00  0.00    -0.508 OA
ATOM     27  H   UNL     1      17.940  18.291  44.005  1.00  0.00     0.293 HD
ENDBRANCH   8  26
TORSDOF 6
ENDMDL
MODEL 8
REMARK VINA RESULT:    -6.744     13.507     15.231
REMARK INTER + INTRA:          -8.049
REMARK INTER:                  -7.806
REMARK INTRA:                  -0.242
REMARK UNBOUND:                 0.075
REMARK SMILES O=c1c(O)c(-c2ccc(O)c(O)c2)oc2cc(O)cc(O)c12
REMARK SMILES IDX 5 1 3 2 2 3 1 4 22 5 20 6 19 7 17 8 16 9 15 10 14 11 6 12
REMARK SMILES IDX 7 13 8 14 9 15 13 16 11 17 10 18 12 20 4 22 21 24 18 26
REMARK H PARENT 10 19 12 21 4 23 21 25 18 27
REMARK Flexibility Score: inf
ROOT
ATOM      1  C   UNL     1      17.187  23.455  42.294  1.00  0.00     0.180 A 
ATOM      2  C   UNL     1      17.264  24.685  42.970  1.00  0.00     0.208 A 
ATOM      3  C   UNL     1      17.885  25.773  42.336  1.00  0.00     0.238 A 
ATOM      4  O   UNL     1      17.902  26.886  42.924  1.00  0.00    -0.285 OA
ATOM      5  C   UNL     1      18.435  25.614  41.042  1.00  0.00     0.111 A 
ATOM      6  C   UNL     1      19.123  26.638  40.322  1.00  0.00     0.134 A 
ATOM      7  C   UNL     1      19.512  26.408  38.997  1.00  0.00     0.093 A 
ATOM      8  C   UNL     1      19.297  25.172  38.387  1.00  0.00     0.123 A 
ATOM      9  C   UNL     1      18.681  24.144  39.102  1.00  0.00     0.094 A 
ATOM     10  C   UNL     1      18.248  24.356  40.414  1.00  0.00     0.146 A 
ATOM     11  O   UNL     1      17.656  23.355  41.055  1.00  0.00    -0.452 OA
ENDROOT
BRANCH   1  12
ATOM     12  C   UNL     1      16.571  22.256  42.906  1.00  0.00     0.025 A 
ATOM     13  C   UNL     1      15.174  22.174  43.009  1.00  0.00     0.016 A 
ATOM     14  C   UNL     1      14.570  21.043  43.565  1.00  0.00     0.051 A 
ATOM     15  C   UNL     1      15.351  19.972  44.011  1.00  0.00     0.157 A 
ATOM     16  C   UNL     1      17.354  21.170  43.337  1.00  0.00     0.062 A 
ATOM     17  C   UNL     1      16.750  20.032  43.893  1.00  0.00     0.158 A 
BRANCH  15  18
ATOM     18  O   UNL     1      14.720  18.857  44.563  1.00  0.00    -0.504 OA
ATOM     19  H   UNL     1      13.827  18.924  45.036  1.00  0.00     0.293 HD
ENDBRANCH  15  18
BRANCH  17  20
ATOM     20  O   UNL     1      17.533  18.962  44.323  1.00  0.00    -0.504 OA
ATOM     21  H   UNL     1      18.250  19.080  45.029  1.00  0.00     0.293 HD
ENDBRANCH  17  20
ENDBRANCH   1  12
BRANCH   2  22
ATOM     22  O   UNL     1      16.694  24.826  44.238  1.00  0.00    -0.502 OA
ATOM     23  H   UNL     1      16.278  24.048  44.737  1.00  0.00     0.293 HD
ENDBRANCH   2  22
BRANCH   6  24
ATOM     24  O   UNL     1      19.470  27.877  40.868  1.00  0.00    -0.507 OA
ATOM     25  H   UNL     1      18.969  28.737  40.706  1.00  0.00     0.293 HD
ENDBRANCH   6  24
BRANCH   8  26
ATOM     26  O   UNL     1      19.712  24.973  37.072  1.00  0.00    -0.508 OA
ATOM     27  H   UNL     1      20.354  24.228  36.826  1.00  0.00     0.293 HD
ENDBRANCH   8  26
TORSDOF 6
ENDMDL
MODEL 9
REMARK VINA RESULT:    -6.613     12.519     15.928
REMARK INTER + INTRA:          -7.892
REMARK INTER:                  -7.893
REMARK INTRA:                   0.001
REMARK UNBOUND:                 0.075
REMARK SMILES O=c1c(O)c(-c2ccc(O)c(O)c2)oc2cc(O)cc(O)c12
REMARK SMILES IDX 5 1 3 2 2 3 1 4 22 5 20 6 19 7 17 8 16 9 15 10 14 11 6 12
REMARK SMILES IDX 7 13 8 14 9 15 13 16 11 17 10 18 12 20 4 22 21 24 18 26
REMARK H PARENT 10 19 12 21 4 23 21 25 18 27
REMARK Flexibility Score: inf
ROOT
ATOM      1  C   UNL     1      17.831  25.168  40.395  1.00  0.00     0.180 A 
ATOM      2  C   UNL     1      16.626  25.267  39.679  1.00  0.00     0.208 A 
ATOM      3  C   UNL     1      16.500  24.587  38.458  1.00  0.00     0.238 A 
ATOM      4  O   UNL     1      15.400  24.635  37.849  1.00  0.00    -0.285 OA
ATOM      5  C   UNL     1      17.587  23.830  37.958  1.00  0.00     0.111 A 
ATOM      6  C   UNL     1      17.585  23.133  36.712  1.00  0.00     0.134 A 
ATOM      7  C   UNL     1      18.668  22.310  36.379  1.00  0.00     0.093 A 
ATOM      8  C   UNL     1      19.779  22.208  37.215  1.00  0.00     0.123 A 
ATOM      9  C   UNL     1      19.818  22.933  38.408  1.00  0.00     0.094 A 
ATOM     10  C   UNL     1      18.737  23.733  38.784  1.00  0.00     0.146 A 
ATOM     11  O   UNL     1      18.810  24.397  39.932  1.00  0.00    -0.452 OA
ENDROOT
BRANCH   1  12
ATOM     12  C   UNL     1      18.048  25.876  41.677  1.00  0.00     0.025 A 
ATOM     13  C   UNL     1      17.133  25.699  42.727  1.00  0.00     0.016 A 
ATOM     14  C   UNL     1      17.329  26.342  43.952  1.00  0.00     0.051 A 
ATOM     15  C   UNL     1      18.448  27.157  44.152  1.00  0.00     0.157 A 
ATOM     16  C   UNL     1      19.183  26.680  41.887  1.00  0.00     0.062 A 
ATOM     17  C   UNL     1      19.382  27.324  43.117  1.00  0.00     0.158 A 
BRANCH  15  18
ATOM     18  O   UNL     1      18.615  27.787  45.385  1.00  0.00    -0.504 OA
ATOM     19  H   UNL     1      19.513  27.824  45.852  1.00  0.00     0.293 HD
ENDBRANCH  15  18
BRANCH  17  20
ATOM     20  O   UNL     1      20.507  28.124  43.314  1.00  0.00    -0.504 OA
ATOM     21  H   UNL     1      20.956  28.608  42.546  1.00  0.00     0.293 HD
ENDBRANCH  17  20
ENDBRANCH   1  12
BRANCH   2  22
ATOM     22  O   UNL     1      15.558  26.002  40.202  1.00  0.00    -0.502 OA
ATOM     23  H   UNL     1      15.035  26.670  39.648  1.00  0.00     0.293 HD
ENDBRANCH   2  22
BRANCH   6  24
ATOM     24  O   UNL     1      16.565  23.238  35.761  1.00  0.00    -0.507 OA
ATOM     25  H   UNL     1      16.689  23.108  34.769  1.00  0.00     0.293 HD
ENDBRANCH   6  24
BRANCH   8  26
ATOM     26  O   UNL     1      20.846  21.392  36.845  1.00  0.00    -0.508 OA
ATOM     27  H   UNL     1      21.806  21.705  36.928  1.00  0.00     0.293 HD
ENDBRANCH   8  26
TORSDOF 6
ENDMDL
