MODEL 1
REMARK VINA RESULT:    21.713      0.000      0.000
REMARK INTER + INTRA:          34.888
REMARK INTER:                  33.138
REMARK INTRA:                   1.750
REMARK UNBOUND:                 1.750
REMARK SMILES CC1=CCC[C@H](C)C(=O)C[C@@H](C(C)C)C(=O)C1
REMARK SMILES IDX 8 1 9 2 6 3 7 4 5 5 4 6 3 7 2 8 1 9 10 11 11 12 15 13 16 14
REMARK SMILES IDX 17 15 12 17 13 18 14 19
REMARK H PARENT
REMARK Flexibility Score: 70.00
ROOT
ATOM      1  C   UNL     1      83.042  13.224 107.377  1.00  0.00     0.136 C 
ATOM      2  O   UNL     1      83.895  12.512 106.866  1.00  0.00    -0.299 OA
ENDROOT
BRANCH   1   3
ATOM      3  C   UNL     1      82.539  14.422 106.578  1.00  0.00     0.053 C 
ATOM      4  C   UNL     1      81.318  15.083 107.246  1.00  0.00     0.016 C 
BRANCH   3   5
ATOM      5  C   UNL     1      83.591  15.473 106.132  1.00  0.00     0.015 C 
BRANCH   5   6
ATOM      6  C   UNL     1      84.527  16.089 107.189  1.00  0.00     0.028 C 
BRANCH   6   7
ATOM      7  C   UNL     1      85.928  15.530 107.241  1.00  0.00    -0.028 C 
ATOM      8  C   UNL     1      86.340  14.343 107.766  1.00  0.00    -0.070 CG0
ATOM      9  C   UNL     1      87.799  13.998 107.577  1.00  0.00     0.039 C 
ATOM     10  G   UNL     1      85.525  13.415 108.668  1.00  0.00     0.000 G0
ENDBRANCH   6   7
ENDBRANCH   5   6
ENDBRANCH   3   5
ENDBRANCH   1   3
BRANCH   1  11
ATOM     11  C   UNL     1      82.668  12.928 108.816  1.00  0.00     0.087 C 
BRANCH  11  12
ATOM     12  C   UNL     1      83.224  13.997 109.804  1.00  0.00     0.066 C 
BRANCH  12  13
ATOM     13  C   UNL     1      84.753  13.996 109.792  1.00  0.00     0.140 C 
ATOM     14  O   UNL     1      85.382  14.516 110.704  1.00  0.00    -0.299 OA
BRANCH  13  15
ATOM     15  C   UNL     1      85.512  13.396 108.640  1.00  0.00     0.106 CG0
ATOM     16  G   UNL     1      86.334  14.364 107.788  1.00  0.00     0.000 G0
ENDBRANCH  13  15
ENDBRANCH  12  13
BRANCH  12  17
ATOM     17  C   UNL     1      82.661  13.842 111.259  1.00  0.00    -0.006 C 
ATOM     18  C   UNL     1      82.282  12.391 111.609  1.00  0.00     0.008 C 
ATOM     19  C   UNL     1      81.418  14.732 111.464  1.00  0.00     0.008 C 
ENDBRANCH  12  17
ENDBRANCH  11  12
ENDBRANCH   1  11
TORSDOF 1
ENDMDL
MODEL 2
REMARK VINA RESULT:    23.312      1.676      3.923
REMARK INTER + INTRA:          37.328
REMARK INTER:                  35.159
REMARK INTRA:                   2.169
REMARK UNBOUND:                 1.750
REMARK SMILES CC1=CCC[C@H](C)C(=O)C[C@@H](C(C)C)C(=O)C1
REMARK SMILES IDX 8 1 9 2 6 3 7 4 5 5 4 6 3 7 2 8 1 9 10 11 11 12 15 13 16 14
REMARK SMILES IDX 17 15 12 17 13 18 14 19
REMARK H PARENT
REMARK Flexibility Score: 70.00
ROOT
ATOM      1  C   UNL     1      83.128  13.881 106.965  1.00  0.00     0.136 C 
ATOM      2  O   UNL     1      83.492  13.216 106.005  1.00  0.00    -0.299 OA
ENDROOT
BRANCH   1   3
ATOM      3  C   UNL     1      82.660  13.138 108.213  1.00  0.00     0.053 C 
ATOM      4  C   UNL     1      83.646  12.026 108.618  1.00  0.00     0.016 C 
BRANCH   3   5
ATOM      5  C   UNL     1      82.226  13.996 109.432  1.00  0.00     0.015 C 
BRANCH   5   6
ATOM      6  C   UNL     1      82.731  13.610 110.835  1.00  0.00     0.028 C 
BRANCH   6   7
ATOM      7  C   UNL     1      84.227  13.482 110.989  1.00  0.00    -0.028 C 
ATOM      8  C   UNL     1      85.189  14.368 110.610  1.00  0.00    -0.070 CG0
ATOM      9  C   UNL     1      86.609  14.018 110.991  1.00  0.00     0.039 C 
ATOM     10  G   UNL     1      85.002  15.581 109.697  1.00  0.00     0.000 G0
ENDBRANCH   6   7
ENDBRANCH   5   6
ENDBRANCH   3   5
ENDBRANCH   1   3
BRANCH   1  11
ATOM     11  C   UNL     1      83.042  15.382 106.771  1.00  0.00     0.087 C 
BRANCH  11  12
ATOM     12  C   UNL     1      84.358  16.109 107.179  1.00  0.00     0.066 C 
BRANCH  12  13
ATOM     13  C   UNL     1      85.137  15.278 108.199  1.00  0.00     0.140 C 
ATOM     14  O   UNL     1      85.862  14.363 107.832  1.00  0.00    -0.299 OA
BRANCH  13  15
ATOM     15  C   UNL     1      84.992  15.539 109.674  1.00  0.00     0.106 CG0
ATOM     16  G   UNL     1      85.236  14.350 110.604  1.00  0.00     0.000 G0
ENDBRANCH  13  15
ENDBRANCH  12  13
BRANCH  12  17
ATOM     17  C   UNL     1      84.121  17.571 107.692  1.00  0.00    -0.006 C 
ATOM     18  C   UNL     1      83.142  18.369 106.810  1.00  0.00     0.008 C 
ATOM     19  C   UNL     1      85.450  18.349 107.768  1.00  0.00     0.008 C 
ENDBRANCH  12  17
ENDBRANCH  11  12
ENDBRANCH   1  11
TORSDOF 1
ENDMDL
MODEL 3
REMARK VINA RESULT:    24.479      8.214     10.092
REMARK INTER + INTRA:          39.108
REMARK INTER:                  37.586
REMARK INTRA:                   1.522
REMARK UNBOUND:                 1.750
REMARK SMILES CC1=CCC[C@H](C)C(=O)C[C@@H](C(C)C)C(=O)C1
REMARK SMILES IDX 8 1 9 2 6 3 7 4 5 5 4 6 3 7 2 8 1 9 10 11 11 12 15 13 16 14
REMARK SMILES IDX 17 15 12 17 13 18 14 19
REMARK H PARENT
REMARK Flexibility Score: 70.00
ROOT
ATOM      1  C   UNL     1      89.860  23.202 112.093  1.00  0.00     0.136 C 
ATOM      2  O   UNL     1      89.461  24.226 112.631  1.00  0.00    -0.299 OA
ENDROOT
BRANCH   1   3
ATOM      3  C   UNL     1      91.106  22.534 112.666  1.00  0.00     0.053 C 
ATOM      4  C   UNL     1      90.996  22.331 114.189  1.00  0.00     0.016 C 
BRANCH   3   5
ATOM      5  C   UNL     1      91.622  21.256 111.951  1.00  0.00     0.015 C 
BRANCH   5   6
ATOM      6  C   UNL     1      92.224  20.118 112.796  1.00  0.00     0.028 C 
BRANCH   6   7
ATOM      7  C   UNL     1      91.283  18.998 113.166  1.00  0.00    -0.028 C 
ATOM      8  C   UNL     1      90.096  18.672 112.584  1.00  0.00    -0.070 CG0
ATOM      9  C   UNL     1      89.417  17.425 113.101  1.00  0.00     0.039 C 
ATOM     10  G   UNL     1      89.303  19.525 111.593  1.00  0.00     0.000 G0
ENDBRANCH   6   7
ENDBRANCH   5   6
ENDBRANCH   3   5
ENDBRANCH   1   3
BRANCH   1  11
ATOM     11  C   UNL     1      89.160  22.774 110.819  1.00  0.00     0.087 C 
BRANCH  11  12
ATOM     12  C   UNL     1      88.031  21.734 111.085  1.00  0.00     0.066 C 
BRANCH  12  13
ATOM     13  C   UNL     1      88.510  20.656 112.058  1.00  0.00     0.140 C 
ATOM     14  O   UNL     1      88.282  20.754 113.255  1.00  0.00    -0.299 OA
BRANCH  13  15
ATOM     15  C   UNL     1      89.310  19.480 111.567  1.00  0.00     0.106 CG0
ATOM     16  G   UNL     1      90.084  18.693 112.625  1.00  0.00     0.000 G0
ENDBRANCH  13  15
ENDBRANCH  12  13
BRANCH  12  17
ATOM     17  C   UNL     1      87.452  21.104 109.771  1.00  0.00    -0.006 C 
ATOM     18  C   UNL     1      86.931  22.157 108.775  1.00  0.00     0.008 C 
ATOM     19  C   UNL     1      86.302  20.127 110.090  1.00  0.00     0.008 C 
ENDBRANCH  12  17
ENDBRANCH  11  12
ENDBRANCH   1  11
TORSDOF 1
ENDMDL
