MODEL 1
REMARK VINA RESULT:     3.270      0.000      0.000
REMARK INTER + INTRA:           4.216
REMARK INTER:                   4.322
REMARK INTRA:                  -0.106
REMARK UNBOUND:                -0.106
REMARK SMILES CC[C@H](C=C[C@@H](C)[C@H]1CC[C@H]2[C@H]3CC=C4C[C@@H](O)CC[C@]4(C)[C@H]3CC[C@@]12C)C(C)C
REMARK SMILES IDX 6 1 7 2 5 3 4 4 3 5 2 6 1 7 28 8 29 9 30 10 8 11 9 12 26 13
REMARK SMILES IDX 10 14 11 15 25 16 27 17 12 18 24 19 23 20 13 21 21 22 14 23
REMARK SMILES IDX 15 24 20 25 22 26 16 27 19 28 17 29 18 30
REMARK H PARENT 18 31
REMARK Flexibility Score: inf
ROOT
ATOM      1  C   UNL     1      14.591  -9.249  12.080  1.00  0.00     0.012 C 
ATOM      2  C   UNL     1      13.053  -9.332  11.992  1.00  0.00     0.012 C 
ENDROOT
BRANCH   1   3
ATOM      3  C   UNL     1      15.078  -9.922  13.352  1.00  0.00    -0.028 C 
ATOM      4  C   UNL     1      15.163 -11.252  13.558  1.00  0.00    -0.027 C 
BRANCH   4   5
ATOM      5  C   UNL     1      14.745 -12.341  12.582  1.00  0.00     0.014 C 
BRANCH   5   6
ATOM      6  C   UNL     1      15.936 -13.308  12.389  1.00  0.00     0.004 C 
ATOM      7  C   UNL     1      17.033 -13.144  13.441  1.00  0.00     0.004 C 
ENDBRANCH   5   6
BRANCH   5   8
ATOM      8  C   UNL     1      13.426 -13.040  13.038  1.00  0.00    -0.011 C 
ATOM      9  C   UNL     1      12.269 -12.908  12.031  1.00  0.00     0.008 C 
ATOM     10  C   UNL     1      13.670 -14.522  13.365  1.00  0.00     0.008 C 
ENDBRANCH   5   8
ENDBRANCH   4   5
ENDBRANCH   1   3
BRANCH   1  11
ATOM     11  C   UNL     1      15.242  -7.832  11.901  1.00  0.00     0.002 C 
ATOM     12  C   UNL     1      14.248  -6.673  11.875  1.00  0.00     0.005 C 
ATOM     13  C   UNL     1      16.474  -7.358  12.767  1.00  0.00    -0.026 C 
ATOM     14  C   UNL     1      15.111  -5.433  12.038  1.00  0.00     0.005 C 
ATOM     15  C   UNL     1      16.220  -5.832  13.020  1.00  0.00    -0.001 C 
ATOM     16  C   UNL     1      16.680  -8.108  14.107  1.00  0.00     0.007 C 
ATOM     17  C   UNL     1      17.762  -7.532  11.903  1.00  0.00     0.012 C 
ATOM     18  C   UNL     1      15.930  -5.401  14.510  1.00  0.00     0.000 C 
ATOM     19  C   UNL     1      17.600  -7.329  15.057  1.00  0.00     0.005 C 
ATOM     20  C   UNL     1      16.944  -6.010  15.549  1.00  0.00     0.003 C 
ATOM     21  C   UNL     1      14.475  -5.555  14.999  1.00  0.00     0.031 C 
ATOM     22  C   UNL     1      16.420  -6.066  17.063  1.00  0.00    -0.008 C 
ATOM     23  C   UNL     1      14.341  -4.903  16.342  1.00  0.00    -0.027 C 
ATOM     24  C   UNL     1      15.288  -5.052  17.287  1.00  0.00    -0.065 C 
ATOM     25  C   UNL     1      17.626  -5.745  18.005  1.00  0.00     0.014 C 
ATOM     26  C   UNL     1      15.836  -7.455  17.467  1.00  0.00     0.016 C 
ATOM     27  C   UNL     1      15.012  -4.480  18.665  1.00  0.00     0.063 C 
ATOM     28  C   UNL     1      17.216  -5.413  19.443  1.00  0.00     0.033 C 
ATOM     29  C   UNL     1      16.295  -4.194  19.456  1.00  0.00     0.118 C 
BRANCH  29  30
ATOM     30  O   UNL     1      15.975  -3.877  20.785  1.00  0.00    -0.393 OA
ATOM     31  H   UNL     1      15.288  -3.161  20.751  1.00  0.00     0.210 HD
ENDBRANCH  29  30
ENDBRANCH   1  11
TORSDOF 6
ENDMDL
MODEL 2
REMARK VINA RESULT:     5.604      2.899      7.496
REMARK INTER + INTRA:           7.301
REMARK INTER:                   6.442
REMARK INTRA:                   0.859
REMARK UNBOUND:                -0.106
REMARK SMILES CC[C@H](C=C[C@@H](C)[C@H]1CC[C@H]2[C@H]3CC=C4C[C@@H](O)CC[C@]4(C)[C@H]3CC[C@@]12C)C(C)C
REMARK SMILES IDX 6 1 7 2 5 3 4 4 3 5 2 6 1 7 28 8 29 9 30 10 8 11 9 12 26 13
REMARK SMILES IDX 10 14 11 15 25 16 27 17 12 18 24 19 23 20 13 21 21 22 14 23
REMARK SMILES IDX 15 24 20 25 22 26 16 27 19 28 17 29 18 30
REMARK H PARENT 18 31
REMARK Flexibility Score: inf
ROOT
ATOM      1  C   UNL     1      17.990  -7.640  15.265  1.00  0.00     0.012 C 
ATOM      2  C   UNL     1      16.885  -8.242  16.159  1.00  0.00     0.012 C 
ENDROOT
BRANCH   1   3
ATOM      3  C   UNL     1      17.986  -6.126  15.378  1.00  0.00    -0.028 C 
ATOM      4  C   UNL     1      16.998  -5.377  15.908  1.00  0.00    -0.027 C 
BRANCH   4   5
ATOM      5  C   UNL     1      15.673  -5.890  16.450  1.00  0.00     0.014 C 
BRANCH   5   6
ATOM      6  C   UNL     1      15.490  -5.349  17.888  1.00  0.00     0.004 C 
ATOM      7  C   UNL     1      16.633  -5.726  18.831  1.00  0.00     0.004 C 
ENDBRANCH   5   6
BRANCH   5   8
ATOM      8  C   UNL     1      14.492  -5.551  15.488  1.00  0.00    -0.011 C 
ATOM      9  C   UNL     1      13.454  -4.587  16.089  1.00  0.00     0.008 C 
ATOM     10  C   UNL     1      15.009  -4.997  14.150  1.00  0.00     0.008 C 
ENDBRANCH   5   8
ENDBRANCH   4   5
ENDBRANCH   1   3
BRANCH   1  11
ATOM     11  C   UNL     1      18.023  -8.099  13.765  1.00  0.00     0.002 C 
ATOM     12  C   UNL     1      18.495  -9.535  13.547  1.00  0.00     0.005 C 
ATOM     13  C   UNL     1      16.805  -7.865  12.787  1.00  0.00    -0.026 C 
ATOM     14  C   UNL     1      18.120  -9.840  12.106  1.00  0.00     0.005 C 
ATOM     15  C   UNL     1      16.775  -9.140  11.876  1.00  0.00    -0.001 C 
ATOM     16  C   UNL     1      15.430  -7.648  13.470  1.00  0.00     0.007 C 
ATOM     17  C   UNL     1      17.124  -6.612  11.915  1.00  0.00     0.012 C 
ATOM     18  C   UNL     1      15.529 -10.095  12.037  1.00  0.00     0.000 C 
ATOM     19  C   UNL     1      14.271  -7.855  12.486  1.00  0.00     0.005 C 
ATOM     20  C   UNL     1      14.151  -9.336  12.034  1.00  0.00     0.003 C 
ATOM     21  C   UNL     1      15.595 -11.122  13.186  1.00  0.00     0.031 C 
ATOM     22  C   UNL     1      12.932 -10.129  12.709  1.00  0.00    -0.008 C 
ATOM     23  C   UNL     1      14.445 -12.075  13.055  1.00  0.00    -0.027 C 
ATOM     24  C   UNL     1      13.212 -11.639  12.737  1.00  0.00    -0.065 C 
ATOM     25  C   UNL     1      11.642  -9.834  11.877  1.00  0.00     0.014 C 
ATOM     26  C   UNL     1      12.668  -9.716  14.190  1.00  0.00     0.016 C 
ATOM     27  C   UNL     1      12.075 -12.644  12.763  1.00  0.00     0.063 C 
ATOM     28  C   UNL     1      10.481 -10.787  12.178  1.00  0.00     0.033 C 
ATOM     29  C   UNL     1      10.895 -12.227  11.877  1.00  0.00     0.118 C 
BRANCH  29  30
ATOM     30  O   UNL     1       9.801 -13.075  12.110  1.00  0.00    -0.393 OA
ATOM     31  H   UNL     1       8.992 -12.591  11.798  1.00  0.00     0.210 HD
ENDBRANCH  29  30
ENDBRANCH   1  11
TORSDOF 6
ENDMDL
