MODEL 1
REMARK VINA RESULT:    -3.311      0.000      0.000
REMARK INTER + INTRA:          -7.807
REMARK INTER:                  -6.407
REMARK INTRA:                  -1.399
REMARK UNBOUND:                -1.399
REMARK SMILES CCCCCCCCCCCCCCCCCC(=O)[O-]
REMARK SMILES IDX 10 1 11 2 12 3 13 4 14 5 15 6 16 7 17 8 18 9 19 10 20 11
REMARK SMILES IDX 9 12 8 13 7 14 6 15 5 16 4 17 3 18 2 19 1 20
REMARK H PARENT
REMARK Flexibility Score: inf
ROOT
ATOM      1  C   UNL     1      34.537  28.609  18.373  1.00  0.00     0.000 C 
ENDROOT
BRANCH   1   2
ATOM      2  C   UNL     1      34.810  27.142  18.745  1.00  0.00     0.000 C 
BRANCH   2   3
ATOM      3  C   UNL     1      35.740  27.005  19.960  1.00  0.00     0.000 C 
BRANCH   3   4
ATOM      4  C   UNL     1      36.120  28.382  20.517  1.00  0.00     0.000 C 
BRANCH   4   5
ATOM      5  C   UNL     1      36.933  28.247  21.813  1.00  0.00     0.000 C 
BRANCH   5   6
ATOM      6  C   UNL     1      36.315  27.251  22.810  1.00  0.00     0.000 C 
BRANCH   6   7
ATOM      7  C   UNL     1      36.567  27.575  24.294  1.00  0.00     0.006 C 
BRANCH   7   8
ATOM      8  C   UNL     1      35.278  27.623  25.125  1.00  0.00     0.053 C 
BRANCH   8   9
ATOM      9  C   UNL     1      34.663  28.985  25.059  1.00  0.00     0.041 C 
ATOM     10  O   UNL     1      33.413  29.113  24.995  1.00  0.00    -0.550 OA
ATOM     11  O   UNL     1      35.475  30.111  25.010  1.00  0.00    -0.550 OA
ENDBRANCH   8   9
ENDBRANCH   7   8
ENDBRANCH   6   7
ENDBRANCH   5   6
ENDBRANCH   4   5
ENDBRANCH   3   4
ENDBRANCH   2   3
ENDBRANCH   1   2
BRANCH   1  12
ATOM     12  C   UNL     1      34.851  28.914  16.901  1.00  0.00     0.000 C 
BRANCH  12  13
ATOM     13  C   UNL     1      36.363  29.027  16.675  1.00  0.00    -0.000 C 
BRANCH  13  14
ATOM     14  C   UNL     1      36.979  27.652  16.371  1.00  0.00    -0.000 C 
BRANCH  14  15
ATOM     15  C   UNL     1      36.193  26.877  15.300  1.00  0.00    -0.000 C 
BRANCH  15  16
ATOM     16  C   UNL     1      36.867  26.928  13.918  1.00  0.00    -0.000 C 
BRANCH  16  17
ATOM     17  C   UNL     1      35.854  27.037  12.767  1.00  0.00    -0.000 C 
BRANCH  17  18
ATOM     18  C   UNL     1      34.400  27.121  13.267  1.00  0.00    -0.000 C 
BRANCH  18  19
ATOM     19  C   UNL     1      33.682  28.388  12.776  1.00  0.00    -0.003 C 
ATOM     20  C   UNL     1      32.619  28.885  13.755  1.00  0.00     0.004 C 
ENDBRANCH  18  19
ENDBRANCH  17  18
ENDBRANCH  16  17
ENDBRANCH  15  16
ENDBRANCH  14  15
ENDBRANCH  13  14
ENDBRANCH  12  13
ENDBRANCH   1  12
TORSDOF 16
ENDMDL
MODEL 2
REMARK VINA RESULT:    -3.161      3.828      9.074
REMARK INTER + INTRA:          -7.517
REMARK INTER:                  -6.027
REMARK INTRA:                  -1.490
REMARK UNBOUND:                -1.399
REMARK SMILES CCCCCCCCCCCCCCCCCC(=O)[O-]
REMARK SMILES IDX 10 1 11 2 12 3 13 4 14 5 15 6 16 7 17 8 18 9 19 10 20 11
REMARK SMILES IDX 9 12 8 13 7 14 6 15 5 16 4 17 3 18 2 19 1 20
REMARK H PARENT
REMARK Flexibility Score: inf
ROOT
ATOM      1  C   UNL     1      34.990  29.221  19.382  1.00  0.00     0.000 C 
ENDROOT
BRANCH   1   2
ATOM      2  C   UNL     1      34.594  28.462  18.106  1.00  0.00     0.000 C 
BRANCH   2   3
ATOM      3  C   UNL     1      35.617  28.636  16.974  1.00  0.00     0.000 C 
BRANCH   3   4
ATOM      4  C   UNL     1      35.542  27.470  15.981  1.00  0.00     0.000 C 
BRANCH   4   5
ATOM      5  C   UNL     1      36.495  27.690  14.798  1.00  0.00     0.000 C 
BRANCH   5   6
ATOM      6  C   UNL     1      35.913  27.205  13.458  1.00  0.00     0.000 C 
BRANCH   6   7
ATOM      7  C   UNL     1      34.375  27.168  13.393  1.00  0.00     0.006 C 
BRANCH   7   8
ATOM      8  C   UNL     1      33.785  28.270  12.503  1.00  0.00     0.053 C 
BRANCH   8   9
ATOM      9  C   UNL     1      33.133  29.324  13.340  1.00  0.00     0.041 C 
ATOM     10  O   UNL     1      32.984  29.149  14.577  1.00  0.00    -0.550 OA
ATOM     11  O   UNL     1      32.637  30.476  12.744  1.00  0.00    -0.550 OA
ENDBRANCH   8   9
ENDBRANCH   7   8
ENDBRANCH   6   7
ENDBRANCH   5   6
ENDBRANCH   4   5
ENDBRANCH   3   4
ENDBRANCH   2   3
ENDBRANCH   1   2
BRANCH   1  12
ATOM     12  C   UNL     1      36.163  28.562  20.122  1.00  0.00     0.000 C 
BRANCH  12  13
ATOM     13  C   UNL     1      35.662  27.510  21.118  1.00  0.00    -0.000 C 
BRANCH  13  14
ATOM     14  C   UNL     1      36.671  27.307  22.259  1.00  0.00    -0.000 C 
BRANCH  14  15
ATOM     15  C   UNL     1      35.995  26.906  23.581  1.00  0.00    -0.000 C 
BRANCH  15  16
ATOM     16  C   UNL     1      36.086  28.009  24.650  1.00  0.00    -0.000 C 
BRANCH  16  17
ATOM     17  C   UNL     1      34.995  29.081  24.490  1.00  0.00    -0.000 C 
BRANCH  17  18
ATOM     18  C   UNL     1      35.545  30.510  24.644  1.00  0.00    -0.000 C 
BRANCH  18  19
ATOM     19  C   UNL     1      36.891  30.702  23.929  1.00  0.00    -0.003 C 
ATOM     20  C   UNL     1      36.739  31.271  22.519  1.00  0.00     0.004 C 
ENDBRANCH  18  19
ENDBRANCH  17  18
ENDBRANCH  16  17
ENDBRANCH  15  16
ENDBRANCH  14  15
ENDBRANCH  13  14
ENDBRANCH  12  13
ENDBRANCH   1  12
TORSDOF 16
ENDMDL
MODEL 3
REMARK VINA RESULT:    -3.132      1.177      1.725
REMARK INTER + INTRA:          -7.461
REMARK INTER:                  -6.428
REMARK INTRA:                  -1.034
REMARK UNBOUND:                -1.399
REMARK SMILES CCCCCCCCCCCCCCCCCC(=O)[O-]
REMARK SMILES IDX 10 1 11 2 12 3 13 4 14 5 15 6 16 7 17 8 18 9 19 10 20 11
REMARK SMILES IDX 9 12 8 13 7 14 6 15 5 16 4 17 3 18 2 19 1 20
REMARK H PARENT
REMARK Flexibility Score: inf
ROOT
ATOM      1  C   UNL     1      34.836  28.782  17.174  1.00  0.00     0.000 C 
ENDROOT
BRANCH   1   2
ATOM      2  C   UNL     1      34.558  28.637  18.678  1.00  0.00     0.000 C 
BRANCH   2   3
ATOM      3  C   UNL     1      35.128  27.334  19.260  1.00  0.00     0.000 C 
BRANCH   3   4
ATOM      4  C   UNL     1      36.108  27.626  20.403  1.00  0.00     0.000 C 
BRANCH   4   5
ATOM      5  C   UNL     1      35.973  29.077  20.888  1.00  0.00     0.000 C 
BRANCH   5   6
ATOM      6  C   UNL     1      36.982  29.438  21.992  1.00  0.00     0.000 C 
BRANCH   6   7
ATOM      7  C   UNL     1      36.480  30.469  23.019  1.00  0.00     0.006 C 
BRANCH   7   8
ATOM      8  C   UNL     1      36.591  29.975  24.468  1.00  0.00     0.053 C 
BRANCH   8   9
ATOM      9  C   UNL     1      35.419  29.114  24.818  1.00  0.00     0.041 C 
ATOM     10  O   UNL     1      34.276  29.625  24.954  1.00  0.00    -0.550 OA
ATOM     11  O   UNL     1      35.599  27.757  25.050  1.00  0.00    -0.550 OA
ENDBRANCH   8   9
ENDBRANCH   7   8
ENDBRANCH   6   7
ENDBRANCH   5   6
ENDBRANCH   4   5
ENDBRANCH   3   4
ENDBRANCH   2   3
ENDBRANCH   1   2
BRANCH   1  12
ATOM     12  C   UNL     1      36.318  29.043  16.869  1.00  0.00     0.000 C 
BRANCH  12  13
ATOM     13  C   UNL     1      37.059  27.731  16.584  1.00  0.00    -0.000 C 
BRANCH  13  14
ATOM     14  C   UNL     1      36.319  26.900  15.524  1.00  0.00    -0.000 C 
BRANCH  14  15
ATOM     15  C   UNL     1      35.880  27.741  14.314  1.00  0.00    -0.000 C 
BRANCH  15  16
ATOM     16  C   UNL     1      35.374  26.877  13.145  1.00  0.00    -0.000 C 
BRANCH  16  17
ATOM     17  C   UNL     1      34.133  27.474  12.461  1.00  0.00    -0.000 C 
BRANCH  17  18
ATOM     18  C   UNL     1      34.192  29.009  12.367  1.00  0.00    -0.000 C 
BRANCH  18  19
ATOM     19  C   UNL     1      32.949  29.683  12.968  1.00  0.00    -0.003 C 
ATOM     20  C   UNL     1      32.277  28.835  14.047  1.00  0.00     0.004 C 
ENDBRANCH  18  19
ENDBRANCH  17  18
ENDBRANCH  16  17
ENDBRANCH  15  16
ENDBRANCH  14  15
ENDBRANCH  13  14
ENDBRANCH  12  13
ENDBRANCH   1  12
TORSDOF 16
ENDMDL
MODEL 4
REMARK VINA RESULT:    -3.021      1.095      2.104
REMARK INTER + INTRA:          -7.246
REMARK INTER:                  -6.261
REMARK INTRA:                  -0.986
REMARK UNBOUND:                -1.399
REMARK SMILES CCCCCCCCCCCCCCCCCC(=O)[O-]
REMARK SMILES IDX 10 1 11 2 12 3 13 4 14 5 15 6 16 7 17 8 18 9 19 10 20 11
REMARK SMILES IDX 9 12 8 13 7 14 6 15 5 16 4 17 3 18 2 19 1 20
REMARK H PARENT
REMARK Flexibility Score: inf
ROOT
ATOM      1  C   UNL     1      35.240  28.304  16.957  1.00  0.00     0.000 C 
ENDROOT
BRANCH   1   2
ATOM      2  C   UNL     1      36.710  28.664  17.225  1.00  0.00     0.000 C 
BRANCH   2   3
ATOM      3  C   UNL     1      37.098  28.494  18.702  1.00  0.00     0.000 C 
BRANCH   3   4
ATOM      4  C   UNL     1      36.067  27.635  19.445  1.00  0.00     0.000 C 
BRANCH   4   5
ATOM      5  C   UNL     1      36.499  27.390  20.898  1.00  0.00     0.000 C 
BRANCH   5   6
ATOM      6  C   UNL     1      37.017  28.660  21.595  1.00  0.00     0.000 C 
BRANCH   6   7
ATOM      7  C   UNL     1      35.977  29.400  22.455  1.00  0.00     0.006 C 
BRANCH   7   8
ATOM      8  C   UNL     1      35.644  28.663  23.759  1.00  0.00     0.053 C 
BRANCH   8   9
ATOM      9  C   UNL     1      34.696  29.470  24.588  1.00  0.00     0.041 C 
ATOM     10  O   UNL     1      33.568  29.002  24.896  1.00  0.00    -0.550 OA
ATOM     11  O   UNL     1      35.034  30.760  24.973  1.00  0.00    -0.550 OA
ENDBRANCH   8   9
ENDBRANCH   7   8
ENDBRANCH   6   7
ENDBRANCH   5   6
ENDBRANCH   4   5
ENDBRANCH   3   4
ENDBRANCH   2   3
ENDBRANCH   1   2
BRANCH   1  12
ATOM     12  C   UNL     1      35.088  27.126  15.982  1.00  0.00     0.000 C 
BRANCH  12  13
ATOM     13  C   UNL     1      36.373  26.915  15.173  1.00  0.00    -0.000 C 
BRANCH  13  14
ATOM     14  C   UNL     1      36.097  27.013  13.665  1.00  0.00    -0.000 C 
BRANCH  14  15
ATOM     15  C   UNL     1      34.603  26.875  13.328  1.00  0.00    -0.000 C 
BRANCH  15  16
ATOM     16  C   UNL     1      34.335  26.881  11.812  1.00  0.00    -0.000 C 
BRANCH  16  17
ATOM     17  C   UNL     1      33.922  28.265  11.288  1.00  0.00    -0.000 C 
BRANCH  17  18
ATOM     18  C   UNL     1      34.074  29.368  12.350  1.00  0.00    -0.000 C 
BRANCH  18  19
ATOM     19  C   UNL     1      32.721  29.844  12.902  1.00  0.00    -0.003 C 
ATOM     20  C   UNL     1      32.257  29.037  14.115  1.00  0.00     0.004 C 
ENDBRANCH  18  19
ENDBRANCH  17  18
ENDBRANCH  16  17
ENDBRANCH  15  16
ENDBRANCH  14  15
ENDBRANCH  13  14
ENDBRANCH  12  13
ENDBRANCH   1  12
TORSDOF 16
ENDMDL
MODEL 5
REMARK VINA RESULT:    -3.007      4.068      9.282
REMARK INTER + INTRA:          -7.219
REMARK INTER:                  -6.309
REMARK INTRA:                  -0.910
REMARK UNBOUND:                -1.399
REMARK SMILES CCCCCCCCCCCCCCCCCC(=O)[O-]
REMARK SMILES IDX 10 1 11 2 12 3 13 4 14 5 15 6 16 7 17 8 18 9 19 10 20 11
REMARK SMILES IDX 9 12 8 13 7 14 6 15 5 16 4 17 3 18 2 19 1 20
REMARK H PARENT
REMARK Flexibility Score: inf
ROOT
ATOM      1  C   UNL     1      34.806  29.194  18.099  1.00  0.00     0.000 C 
ENDROOT
BRANCH   1   2
ATOM      2  C   UNL     1      35.855  29.074  16.982  1.00  0.00     0.000 C 
BRANCH   2   3
ATOM      3  C   UNL     1      36.345  27.631  16.785  1.00  0.00     0.000 C 
BRANCH   3   4
ATOM      4  C   UNL     1      35.449  26.879  15.794  1.00  0.00     0.000 C 
BRANCH   4   5
ATOM      5  C   UNL     1      36.066  26.875  14.387  1.00  0.00     0.000 C 
BRANCH   5   6
ATOM      6  C   UNL     1      35.010  26.881  13.267  1.00  0.00     0.000 C 
BRANCH   6   7
ATOM      7  C   UNL     1      34.893  28.206  12.491  1.00  0.00     0.006 C 
BRANCH   7   8
ATOM      8  C   UNL     1      33.457  28.518  12.051  1.00  0.00     0.053 C 
BRANCH   8   9
ATOM      9  C   UNL     1      32.771  29.371  13.072  1.00  0.00     0.041 C 
ATOM     10  O   UNL     1      32.350  28.861  14.143  1.00  0.00    -0.550 OA
ATOM     11  O   UNL     1      32.547  30.717  12.815  1.00  0.00    -0.550 OA
ENDBRANCH   8   9
ENDBRANCH   7   8
ENDBRANCH   6   7
ENDBRANCH   5   6
ENDBRANCH   4   5
ENDBRANCH   3   4
ENDBRANCH   2   3
ENDBRANCH   1   2
BRANCH   1  12
ATOM     12  C   UNL     1      35.346  28.754  19.467  1.00  0.00     0.000 C 
BRANCH  12  13
ATOM     13  C   UNL     1      36.807  29.184  19.645  1.00  0.00    -0.000 C 
BRANCH  13  14
ATOM     14  C   UNL     1      37.053  29.728  21.060  1.00  0.00    -0.000 C 
BRANCH  14  15
ATOM     15  C   UNL     1      35.798  29.658  21.946  1.00  0.00    -0.000 C 
BRANCH  15  16
ATOM     16  C   UNL     1      36.027  28.844  23.232  1.00  0.00    -0.000 C 
BRANCH  16  17
ATOM     17  C   UNL     1      36.743  29.653  24.327  1.00  0.00    -0.000 C 
BRANCH  17  18
ATOM     18  C   UNL     1      35.816  30.677  25.005  1.00  0.00    -0.000 C 
BRANCH  18  19
ATOM     19  C   UNL     1      36.454  32.071  25.105  1.00  0.00    -0.003 C 
ATOM     20  C   UNL     1      37.111  32.519  23.799  1.00  0.00     0.004 C 
ENDBRANCH  18  19
ENDBRANCH  17  18
ENDBRANCH  16  17
ENDBRANCH  15  16
ENDBRANCH  14  15
ENDBRANCH  13  14
ENDBRANCH  12  13
ENDBRANCH   1  12
TORSDOF 16
ENDMDL
MODEL 6
REMARK VINA RESULT:    -2.969      1.350      1.764
REMARK INTER + INTRA:          -7.144
REMARK INTER:                  -5.914
REMARK INTRA:                  -1.230
REMARK UNBOUND:                -1.399
REMARK SMILES CCCCCCCCCCCCCCCCCC(=O)[O-]
REMARK SMILES IDX 10 1 11 2 12 3 13 4 14 5 15 6 16 7 17 8 18 9 19 10 20 11
REMARK SMILES IDX 9 12 8 13 7 14 6 15 5 16 4 17 3 18 2 19 1 20
REMARK H PARENT
REMARK Flexibility Score: inf
ROOT
ATOM      1  C   UNL     1      34.162  28.774  18.926  1.00  0.00     0.000 C 
ENDROOT
BRANCH   1   2
ATOM      2  C   UNL     1      35.023  29.030  20.173  1.00  0.00     0.000 C 
BRANCH   2   3
ATOM      3  C   UNL     1      36.438  28.445  20.042  1.00  0.00     0.000 C 
BRANCH   3   4
ATOM      4  C   UNL     1      36.484  27.002  20.557  1.00  0.00     0.000 C 
BRANCH   4   5
ATOM      5  C   UNL     1      36.062  26.928  22.032  1.00  0.00     0.000 C 
BRANCH   5   6
ATOM      6  C   UNL     1      36.975  27.749  22.960  1.00  0.00     0.000 C 
BRANCH   6   7
ATOM      7  C   UNL     1      36.299  28.269  24.242  1.00  0.00     0.006 C 
BRANCH   7   8
ATOM      8  C   UNL     1      35.360  29.455  23.987  1.00  0.00     0.053 C 
BRANCH   8   9
ATOM      9  C   UNL     1      36.119  30.743  24.039  1.00  0.00     0.041 C 
ATOM     10  O   UNL     1      36.155  31.414  25.103  1.00  0.00    -0.550 OA
ATOM     11  O   UNL     1      36.738  31.231  22.896  1.00  0.00    -0.550 OA
ENDBRANCH   8   9
ENDBRANCH   7   8
ENDBRANCH   6   7
ENDBRANCH   5   6
ENDBRANCH   4   5
ENDBRANCH   3   4
ENDBRANCH   2   3
ENDBRANCH   1   2
BRANCH   1  12
ATOM     12  C   UNL     1      34.997  28.661  17.642  1.00  0.00     0.000 C 
BRANCH  12  13
ATOM     13  C   UNL     1      35.134  27.199  17.203  1.00  0.00    -0.000 C 
BRANCH  13  14
ATOM     14  C   UNL     1      36.567  26.893  16.744  1.00  0.00    -0.000 C 
BRANCH  14  15
ATOM     15  C   UNL     1      36.707  26.876  15.213  1.00  0.00    -0.000 C 
BRANCH  15  16
ATOM     16  C   UNL     1      35.359  27.068  14.494  1.00  0.00    -0.000 C 
BRANCH  16  17
ATOM     17  C   UNL     1      35.434  28.104  13.360  1.00  0.00    -0.000 C 
BRANCH  17  18
ATOM     18  C   UNL     1      34.106  28.236  12.593  1.00  0.00    -0.000 C 
BRANCH  18  19
ATOM     19  C   UNL     1      32.991  28.853  13.451  1.00  0.00    -0.003 C 
ATOM     20  C   UNL     1      32.614  30.267  13.008  1.00  0.00     0.004 C 
ENDBRANCH  18  19
ENDBRANCH  17  18
ENDBRANCH  16  17
ENDBRANCH  15  16
ENDBRANCH  14  15
ENDBRANCH  13  14
ENDBRANCH  12  13
ENDBRANCH   1  12
TORSDOF 16
ENDMDL
MODEL 7
REMARK VINA RESULT:    -2.265      1.538      2.640
REMARK INTER + INTRA:          -5.783
REMARK INTER:                  -5.177
REMARK INTRA:                  -0.606
REMARK UNBOUND:                -1.399
REMARK SMILES CCCCCCCCCCCCCCCCCC(=O)[O-]
REMARK SMILES IDX 10 1 11 2 12 3 13 4 14 5 15 6 16 7 17 8 18 9 19 10 20 11
REMARK SMILES IDX 9 12 8 13 7 14 6 15 5 16 4 17 3 18 2 19 1 20
REMARK H PARENT
REMARK Flexibility Score: inf
ROOT
ATOM      1  C   UNL     1      35.826  27.080  16.584  1.00  0.00     0.000 C 
ENDROOT
BRANCH   1   2
ATOM      2  C   UNL     1      36.389  27.330  17.992  1.00  0.00     0.000 C 
BRANCH   2   3
ATOM      3  C   UNL     1      35.313  27.231  19.084  1.00  0.00     0.000 C 
BRANCH   3   4
ATOM      4  C   UNL     1      35.032  28.606  19.703  1.00  0.00     0.000 C 
BRANCH   4   5
ATOM      5  C   UNL     1      34.873  28.502  21.227  1.00  0.00     0.000 C 
BRANCH   5   6
ATOM      6  C   UNL     1      36.193  28.178  21.949  1.00  0.00     0.000 C 
BRANCH   6   7
ATOM      7  C   UNL     1      36.077  28.024  23.476  1.00  0.00     0.006 C 
BRANCH   7   8
ATOM      8  C   UNL     1      37.047  28.931  24.246  1.00  0.00     0.053 C 
BRANCH   8   9
ATOM      9  C   UNL     1      36.410  30.254  24.530  1.00  0.00     0.041 C 
ATOM     10  O   UNL     1      35.284  30.308  25.091  1.00  0.00    -0.550 OA
ATOM     11  O   UNL     1      37.034  31.427  24.124  1.00  0.00    -0.550 OA
ENDBRANCH   8   9
ENDBRANCH   7   8
ENDBRANCH   6   7
ENDBRANCH   5   6
ENDBRANCH   4   5
ENDBRANCH   3   4
ENDBRANCH   2   3
ENDBRANCH   1   2
BRANCH   1  12
ATOM     12  C   UNL     1      36.871  27.301  15.480  1.00  0.00     0.000 C 
BRANCH  12  13
ATOM     13  C   UNL     1      36.324  26.875  14.113  1.00  0.00    -0.000 C 
BRANCH  13  14
ATOM     14  C   UNL     1      35.022  27.620  13.784  1.00  0.00    -0.000 C 
BRANCH  14  15
ATOM     15  C   UNL     1      34.218  26.940  12.664  1.00  0.00    -0.000 C 
BRANCH  15  16
ATOM     16  C   UNL     1      33.880  27.901  11.510  1.00  0.00    -0.000 C 
BRANCH  16  17
ATOM     17  C   UNL     1      33.797  29.367  11.965  1.00  0.00    -0.000 C 
BRANCH  17  18
ATOM     18  C   UNL     1      32.542  29.653  12.809  1.00  0.00    -0.000 C 
BRANCH  18  19
ATOM     19  C   UNL     1      32.405  31.139  13.174  1.00  0.00    -0.003 C 
ATOM     20  C   UNL     1      31.092  31.752  12.688  1.00  0.00     0.004 C 
ENDBRANCH  18  19
ENDBRANCH  17  18
ENDBRANCH  16  17
ENDBRANCH  15  16
ENDBRANCH  14  15
ENDBRANCH  13  14
ENDBRANCH  12  13
ENDBRANCH   1  12
TORSDOF 16
ENDMDL
