MODEL 1
REMARK VINA RESULT:    -6.667      0.000      0.000
REMARK INTER + INTRA:         -10.924
REMARK INTER:                 -10.369
REMARK INTRA:                  -0.554
REMARK UNBOUND:                -0.554
REMARK SMILES COc1cc(CNC(=O)CCCCC=CC(C)C)ccc1O
REMARK SMILES IDX 11 1 12 2 13 3 14 4 15 5 16 6 17 7 18 8 10 9 8 10 9 11 7 12
REMARK SMILES IDX 6 14 5 15 4 16 19 17 3 18 20 19 21 20 2 21 1 22 22 23
REMARK H PARENT 7 13 22 24
REMARK Flexibility Score: inf
ROOT
ATOM      1  C   UNL     1       0.290  48.404  73.334  1.00  0.00     0.010 C 
ENDROOT
BRANCH   1   2
ATOM      2  C   UNL     1       1.712  48.750  72.848  1.00  0.00     0.005 C 
BRANCH   2   3
ATOM      3  C   UNL     1       1.906  48.651  71.325  1.00  0.00     0.027 C 
BRANCH   3   4
ATOM      4  C   UNL     1       2.834  49.708  70.793  1.00  0.00    -0.031 C 
ATOM      5  C   UNL     1       2.426  50.612  69.890  1.00  0.00    -0.028 C 
BRANCH   5   6
ATOM      6  C   UNL     1       3.365  51.664  69.348  1.00  0.00     0.005 C 
ATOM      7  C   UNL     1       3.648  52.732  70.411  1.00  0.00     0.012 C 
ATOM      8  C   UNL     1       2.777  52.309  68.088  1.00  0.00     0.012 C 
ENDBRANCH   5   6
ENDBRANCH   3   4
ENDBRANCH   2   3
ENDBRANCH   1   2
BRANCH   1   9
ATOM      9  C   UNL     1       0.033  48.677  74.827  1.00  0.00     0.100 C 
BRANCH   9  10
ATOM     10  C   UNL     1      -0.700  49.968  75.062  1.00  0.00     0.220 C 
ATOM     11  O   UNL     1      -0.927  50.743  74.091  1.00  0.00    -0.275 OA
ATOM     12  N   UNL     1      -1.138  50.316  76.383  1.00  0.00    -0.352 N 
ATOM     13  H   UNL     1      -0.792  49.754  77.193  1.00  0.00     0.163 HD
BRANCH  12  14
ATOM     14  C   UNL     1      -2.275  51.202  76.611  1.00  0.00     0.151 C 
BRANCH  14  15
ATOM     15  C   UNL     1      -3.267  50.521  77.511  1.00  0.00    -0.025 A 
ATOM     16  C   UNL     1      -4.452  51.175  77.886  1.00  0.00     0.056 A 
ATOM     17  C   UNL     1      -3.063  49.189  77.898  1.00  0.00     0.009 A 
ATOM     18  C   UNL     1      -5.430  50.504  78.647  1.00  0.00     0.160 A 
ATOM     19  C   UNL     1      -4.019  48.525  78.668  1.00  0.00     0.050 A 
ATOM     20  C   UNL     1      -5.200  49.179  79.044  1.00  0.00     0.157 A 
BRANCH  18  21
ATOM     21  O   UNL     1      -6.640  51.114  79.016  1.00  0.00    -0.493 OA
ATOM     22  C   UNL     1      -7.057  52.405  78.581  1.00  0.00     0.278 C 
ENDBRANCH  18  21
BRANCH  20  23
ATOM     23  O   UNL     1      -6.157  48.514  79.812  1.00  0.00    -0.504 OA
ATOM     24  H   UNL     1      -6.332  48.766  80.778  1.00  0.00     0.293 HD
ENDBRANCH  20  23
ENDBRANCH  14  15
ENDBRANCH  12  14
ENDBRANCH   9  10
ENDBRANCH   1   9
TORSDOF 10
ENDMDL
MODEL 2
REMARK VINA RESULT:    -6.498      3.320     10.075
REMARK INTER + INTRA:         -10.661
REMARK INTER:                 -10.553
REMARK INTRA:                  -0.108
REMARK UNBOUND:                -0.554
REMARK SMILES COc1cc(CNC(=O)CCCCC=CC(C)C)ccc1O
REMARK SMILES IDX 11 1 12 2 13 3 14 4 15 5 16 6 17 7 18 8 10 9 8 10 9 11 7 12
REMARK SMILES IDX 6 14 5 15 4 16 19 17 3 18 20 19 21 20 2 21 1 22 22 23
REMARK H PARENT 7 13 22 24
REMARK Flexibility Score: inf
ROOT
ATOM      1  C   UNL     1      -0.944  50.128  75.532  1.00  0.00     0.010 C 
ENDROOT
BRANCH   1   2
ATOM      2  C   UNL     1      -1.874  49.926  76.746  1.00  0.00     0.005 C 
BRANCH   2   3
ATOM      3  C   UNL     1      -2.618  51.194  77.197  1.00  0.00     0.027 C 
BRANCH   3   4
ATOM      4  C   UNL     1      -3.922  50.885  77.880  1.00  0.00    -0.031 C 
ATOM      5  C   UNL     1      -4.050  49.839  78.709  1.00  0.00    -0.028 C 
BRANCH   5   6
ATOM      6  C   UNL     1      -5.365  49.525  79.383  1.00  0.00     0.005 C 
ATOM      7  C   UNL     1      -5.834  48.111  79.018  1.00  0.00     0.012 C 
ATOM      8  C   UNL     1      -6.429  50.556  78.988  1.00  0.00     0.012 C 
ENDBRANCH   5   6
ENDBRANCH   3   4
ENDBRANCH   2   3
ENDBRANCH   1   2
BRANCH   1   9
ATOM      9  C   UNL     1       0.110  49.024  75.334  1.00  0.00     0.100 C 
BRANCH   9  10
ATOM     10  C   UNL     1       1.505  49.571  75.210  1.00  0.00     0.220 C 
ATOM     11  O   UNL     1       2.472  48.934  75.713  1.00  0.00    -0.275 OA
ATOM     12  N   UNL     1       1.733  50.811  74.526  1.00  0.00    -0.352 N 
ATOM     13  H   UNL     1       0.911  51.406  74.273  1.00  0.00     0.163 HD
BRANCH  12  14
ATOM     14  C   UNL     1       3.012  51.121  73.896  1.00  0.00     0.151 C 
BRANCH  14  15
ATOM     15  C   UNL     1       2.935  50.806  72.428  1.00  0.00    -0.025 A 
ATOM     16  C   UNL     1       3.170  51.809  71.473  1.00  0.00     0.056 A 
ATOM     17  C   UNL     1       2.728  49.486  72.004  1.00  0.00     0.009 A 
ATOM     18  C   UNL     1       3.197  51.497  70.100  1.00  0.00     0.160 A 
ATOM     19  C   UNL     1       2.735  49.174  70.644  1.00  0.00     0.050 A 
ATOM     20  C   UNL     1       2.968  50.176  69.691  1.00  0.00     0.157 A 
BRANCH  18  21
ATOM     21  O   UNL     1       3.460  52.466  69.117  1.00  0.00    -0.493 OA
ATOM     22  C   UNL     1       2.635  52.703  67.980  1.00  0.00     0.278 C 
ENDBRANCH  18  21
BRANCH  20  23
ATOM     23  O   UNL     1       2.977  49.862  68.332  1.00  0.00    -0.504 OA
ATOM     24  H   UNL     1       2.144  49.950  67.760  1.00  0.00     0.293 HD
ENDBRANCH  20  23
ENDBRANCH  14  15
ENDBRANCH  12  14
ENDBRANCH   9  10
ENDBRANCH   1   9
TORSDOF 10
ENDMDL
MODEL 3
REMARK VINA RESULT:    -6.464      1.560      2.349
REMARK INTER + INTRA:         -10.608
REMARK INTER:                  -9.953
REMARK INTRA:                  -0.655
REMARK UNBOUND:                -0.554
REMARK SMILES COc1cc(CNC(=O)CCCCC=CC(C)C)ccc1O
REMARK SMILES IDX 11 1 12 2 13 3 14 4 15 5 16 6 17 7 18 8 10 9 8 10 9 11 7 12
REMARK SMILES IDX 6 14 5 15 4 16 19 17 3 18 20 19 21 20 2 21 1 22 22 23
REMARK H PARENT 7 13 22 24
REMARK Flexibility Score: inf
ROOT
ATOM      1  C   UNL     1       1.363  50.266  72.913  1.00  0.00     0.010 C 
ENDROOT
BRANCH   1   2
ATOM      2  C   UNL     1       1.165  48.933  72.161  1.00  0.00     0.005 C 
BRANCH   2   3
ATOM      3  C   UNL     1       2.275  48.602  71.150  1.00  0.00     0.027 C 
BRANCH   3   4
ATOM      4  C   UNL     1       3.027  49.824  70.699  1.00  0.00    -0.031 C 
ATOM      5  C   UNL     1       2.627  50.544  69.641  1.00  0.00    -0.028 C 
BRANCH   5   6
ATOM      6  C   UNL     1       3.393  51.763  69.183  1.00  0.00     0.005 C 
ATOM      7  C   UNL     1       3.605  52.735  70.350  1.00  0.00     0.012 C 
ATOM      8  C   UNL     1       2.652  52.461  68.037  1.00  0.00     0.012 C 
ENDBRANCH   5   6
ENDBRANCH   3   4
ENDBRANCH   2   3
ENDBRANCH   1   2
BRANCH   1   9
ATOM      9  C   UNL     1       1.863  50.123  74.361  1.00  0.00     0.100 C 
BRANCH   9  10
ATOM     10  C   UNL     1       1.196  48.993  75.095  1.00  0.00     0.220 C 
ATOM     11  O   UNL     1       1.859  47.958  75.383  1.00  0.00    -0.275 OA
ATOM     12  N   UNL     1      -0.187  49.092  75.464  1.00  0.00    -0.352 N 
ATOM     13  H   UNL     1      -0.760  49.872  75.068  1.00  0.00     0.163 HD
BRANCH  12  14
ATOM     14  C   UNL     1      -0.738  48.356  76.596  1.00  0.00     0.151 C 
BRANCH  14  15
ATOM     15  C   UNL     1      -1.940  49.084  77.129  1.00  0.00    -0.025 A 
ATOM     16  C   UNL     1      -2.855  48.428  77.967  1.00  0.00     0.056 A 
ATOM     17  C   UNL     1      -2.098  50.455  76.876  1.00  0.00     0.009 A 
ATOM     18  C   UNL     1      -3.927  49.133  78.549  1.00  0.00     0.160 A 
ATOM     19  C   UNL     1      -3.169  51.154  77.434  1.00  0.00     0.050 A 
ATOM     20  C   UNL     1      -4.084  50.498  78.268  1.00  0.00     0.157 A 
BRANCH  18  21
ATOM     21  O   UNL     1      -4.845  48.518  79.416  1.00  0.00    -0.493 OA
ATOM     22  C   UNL     1      -6.114  48.008  79.016  1.00  0.00     0.278 C 
ENDBRANCH  18  21
BRANCH  20  23
ATOM     23  O   UNL     1      -5.152  51.199  78.828  1.00  0.00    -0.504 OA
ATOM     24  H   UNL     1      -6.094  51.115  78.461  1.00  0.00     0.293 HD
ENDBRANCH  20  23
ENDBRANCH  14  15
ENDBRANCH  12  14
ENDBRANCH   9  10
ENDBRANCH   1   9
TORSDOF 10
ENDMDL
MODEL 4
REMARK VINA RESULT:    -5.870      1.445      1.964
REMARK INTER + INTRA:          -9.685
REMARK INTER:                  -9.184
REMARK INTRA:                  -0.502
REMARK UNBOUND:                -0.554
REMARK SMILES COc1cc(CNC(=O)CCCCC=CC(C)C)ccc1O
REMARK SMILES IDX 11 1 12 2 13 3 14 4 15 5 16 6 17 7 18 8 10 9 8 10 9 11 7 12
REMARK SMILES IDX 6 14 5 15 4 16 19 17 3 18 20 19 21 20 2 21 1 22 22 23
REMARK H PARENT 7 13 22 24
REMARK Flexibility Score: inf
ROOT
ATOM      1  C   UNL     1       2.036  49.580  73.237  1.00  0.00     0.010 C 
ENDROOT
BRANCH   1   2
ATOM      2  C   UNL     1       2.676  48.387  72.497  1.00  0.00     0.005 C 
BRANCH   2   3
ATOM      3  C   UNL     1       2.667  48.510  70.964  1.00  0.00     0.027 C 
BRANCH   3   4
ATOM      4  C   UNL     1       3.331  49.772  70.485  1.00  0.00    -0.031 C 
ATOM      5  C   UNL     1       2.758  50.561  69.563  1.00  0.00    -0.028 C 
BRANCH   5   6
ATOM      6  C   UNL     1       3.434  51.820  69.075  1.00  0.00     0.005 C 
ATOM      7  C   UNL     1       3.581  52.831  70.219  1.00  0.00     0.012 C 
ATOM      8  C   UNL     1       2.641  52.439  67.918  1.00  0.00     0.012 C 
ENDBRANCH   5   6
ENDBRANCH   3   4
ENDBRANCH   2   3
ENDBRANCH   1   2
BRANCH   1   9
ATOM      9  C   UNL     1       1.782  49.349  74.738  1.00  0.00     0.100 C 
BRANCH   9  10
ATOM     10  C   UNL     1       0.454  48.698  75.006  1.00  0.00     0.220 C 
ATOM     11  O   UNL     1      -0.091  47.998  74.108  1.00  0.00    -0.275 OA
ATOM     12  N   UNL     1      -0.189  48.873  76.277  1.00  0.00    -0.352 N 
ATOM     13  H   UNL     1       0.187  49.591  76.937  1.00  0.00     0.163 HD
BRANCH  12  14
ATOM     14  C   UNL     1      -1.130  47.893  76.807  1.00  0.00     0.151 C 
BRANCH  14  15
ATOM     15  C   UNL     1      -2.258  48.606  77.499  1.00  0.00    -0.025 A 
ATOM     16  C   UNL     1      -2.541  49.948  77.197  1.00  0.00     0.056 A 
ATOM     17  C   UNL     1      -3.100  47.905  78.374  1.00  0.00     0.009 A 
ATOM     18  C   UNL     1      -3.657  50.591  77.768  1.00  0.00     0.160 A 
ATOM     19  C   UNL     1      -4.196  48.541  78.957  1.00  0.00     0.050 A 
ATOM     20  C   UNL     1      -4.476  49.882  78.658  1.00  0.00     0.157 A 
BRANCH  18  21
ATOM     21  O   UNL     1      -3.990  51.922  77.468  1.00  0.00    -0.493 OA
ATOM     22  C   UNL     1      -3.940  52.490  76.163  1.00  0.00     0.278 C 
ENDBRANCH  18  21
BRANCH  20  23
ATOM     23  O   UNL     1      -5.574  50.516  79.240  1.00  0.00    -0.504 OA
ATOM     24  H   UNL     1      -6.181  50.035  79.894  1.00  0.00     0.293 HD
ENDBRANCH  20  23
ENDBRANCH  14  15
ENDBRANCH  12  14
ENDBRANCH   9  10
ENDBRANCH   1   9
TORSDOF 10
ENDMDL
MODEL 5
REMARK VINA RESULT:    -5.594      2.768      9.883
REMARK INTER + INTRA:          -9.256
REMARK INTER:                  -8.479
REMARK INTRA:                  -0.776
REMARK UNBOUND:                -0.554
REMARK SMILES COc1cc(CNC(=O)CCCCC=CC(C)C)ccc1O
REMARK SMILES IDX 11 1 12 2 13 3 14 4 15 5 16 6 17 7 18 8 10 9 8 10 9 11 7 12
REMARK SMILES IDX 6 14 5 15 4 16 19 17 3 18 20 19 21 20 2 21 1 22 22 23
REMARK H PARENT 7 13 22 24
REMARK Flexibility Score: inf
ROOT
ATOM      1  C   UNL     1      -1.791  51.220  75.745  1.00  0.00     0.010 C 
ENDROOT
BRANCH   1   2
ATOM      2  C   UNL     1      -2.285  51.061  77.198  1.00  0.00     0.005 C 
BRANCH   2   3
ATOM      3  C   UNL     1      -2.794  49.652  77.546  1.00  0.00     0.027 C 
BRANCH   3   4
ATOM      4  C   UNL     1      -4.091  49.681  78.309  1.00  0.00    -0.031 C 
ATOM      5  C   UNL     1      -4.896  50.753  78.287  1.00  0.00    -0.028 C 
BRANCH   5   6
ATOM      6  C   UNL     1      -6.190  50.782  79.065  1.00  0.00     0.005 C 
ATOM      7  C   UNL     1      -7.000  49.504  78.811  1.00  0.00     0.012 C 
ATOM      8  C   UNL     1      -7.014  52.018  78.687  1.00  0.00     0.012 C 
ENDBRANCH   5   6
ENDBRANCH   3   4
ENDBRANCH   2   3
ENDBRANCH   1   2
BRANCH   1   9
ATOM      9  C   UNL     1      -1.396  49.905  75.049  1.00  0.00     0.100 C 
BRANCH   9  10
ATOM     10  C   UNL     1       0.064  49.583  75.207  1.00  0.00     0.220 C 
ATOM     11  O   UNL     1       0.409  48.488  75.732  1.00  0.00    -0.275 OA
ATOM     12  N   UNL     1       1.059  50.517  74.765  1.00  0.00    -0.352 N 
ATOM     13  H   UNL     1       0.760  51.483  74.498  1.00  0.00     0.163 HD
BRANCH  12  14
ATOM     14  C   UNL     1       2.398  50.091  74.374  1.00  0.00     0.151 C 
BRANCH  14  15
ATOM     15  C   UNL     1       2.466  49.966  72.878  1.00  0.00    -0.025 A 
ATOM     16  C   UNL     1       2.945  51.029  72.097  1.00  0.00     0.056 A 
ATOM     17  C   UNL     1       2.148  48.747  72.262  1.00  0.00     0.009 A 
ATOM     18  C   UNL     1       3.104  50.881  70.705  1.00  0.00     0.160 A 
ATOM     19  C   UNL     1       2.285  48.599  70.881  1.00  0.00     0.050 A 
ATOM     20  C   UNL     1       2.761  49.663  70.101  1.00  0.00     0.157 A 
BRANCH  18  21
ATOM     21  O   UNL     1       3.609  51.911  69.894  1.00  0.00    -0.493 OA
ATOM     22  C   UNL     1       3.660  53.283  70.274  1.00  0.00     0.278 C 
ENDBRANCH  18  21
BRANCH  20  23
ATOM     23  O   UNL     1       2.900  49.513  68.721  1.00  0.00    -0.504 OA
ATOM     24  H   UNL     1       2.209  49.876  68.074  1.00  0.00     0.293 HD
ENDBRANCH  20  23
ENDBRANCH  14  15
ENDBRANCH  12  14
ENDBRANCH   9  10
ENDBRANCH   1   9
TORSDOF 10
ENDMDL
MODEL 6
REMARK VINA RESULT:    -5.171      3.175      5.331
REMARK INTER + INTRA:          -8.598
REMARK INTER:                  -6.920
REMARK INTRA:                  -1.678
REMARK UNBOUND:                -0.554
REMARK SMILES COc1cc(CNC(=O)CCCCC=CC(C)C)ccc1O
REMARK SMILES IDX 11 1 12 2 13 3 14 4 15 5 16 6 17 7 18 8 10 9 8 10 9 11 7 12
REMARK SMILES IDX 6 14 5 15 4 16 19 17 3 18 20 19 21 20 2 21 1 22 22 23
REMARK H PARENT 7 13 22 24
REMARK Flexibility Score: inf
ROOT
ATOM      1  C   UNL     1       3.353  51.201  71.334  1.00  0.00     0.010 C 
ENDROOT
BRANCH   1   2
ATOM      2  C   UNL     1       2.762  52.140  72.406  1.00  0.00     0.005 C 
BRANCH   2   3
ATOM      3  C   UNL     1       2.803  51.579  73.837  1.00  0.00     0.027 C 
BRANCH   3   4
ATOM      4  C   UNL     1       3.460  50.227  73.907  1.00  0.00    -0.031 C 
ATOM      5  C   UNL     1       3.300  49.422  74.967  1.00  0.00    -0.028 C 
BRANCH   5   6
ATOM      6  C   UNL     1       3.972  48.071  75.039  1.00  0.00     0.005 C 
ATOM      7  C   UNL     1       4.656  47.881  76.398  1.00  0.00     0.012 C 
ATOM      8  C   UNL     1       4.992  47.920  73.904  1.00  0.00     0.012 C 
ENDBRANCH   5   6
ENDBRANCH   3   4
ENDBRANCH   2   3
ENDBRANCH   1   2
BRANCH   1   9
ATOM      9  C   UNL     1       2.310  50.468  70.472  1.00  0.00     0.100 C 
BRANCH   9  10
ATOM     10  C   UNL     1       1.865  49.167  71.081  1.00  0.00     0.220 C 
ATOM     11  O   UNL     1       2.477  48.102  70.793  1.00  0.00    -0.275 OA
ATOM     12  N   UNL     1       0.751  49.139  71.983  1.00  0.00    -0.352 N 
ATOM     13  H   UNL     1       0.153  49.993  72.073  1.00  0.00     0.163 HD
BRANCH  12  14
ATOM     14  C   UNL     1       0.607  48.103  73.000  1.00  0.00     0.151 C 
BRANCH  14  15
ATOM     15  C   UNL     1      -0.032  48.692  74.226  1.00  0.00    -0.025 A 
ATOM     16  C   UNL     1      -0.605  49.974  74.183  1.00  0.00     0.056 A 
ATOM     17  C   UNL     1      -0.152  47.923  75.393  1.00  0.00     0.009 A 
ATOM     18  C   UNL     1      -1.293  50.489  75.300  1.00  0.00     0.160 A 
ATOM     19  C   UNL     1      -0.815  48.436  76.509  1.00  0.00     0.050 A 
ATOM     20  C   UNL     1      -1.384  49.716  76.466  1.00  0.00     0.157 A 
BRANCH  18  21
ATOM     21  O   UNL     1      -1.905  51.753  75.285  1.00  0.00    -0.493 OA
ATOM     22  C   UNL     1      -2.478  52.357  74.129  1.00  0.00     0.278 C 
ENDBRANCH  18  21
BRANCH  20  23
ATOM     23  O   UNL     1      -2.049  50.226  77.581  1.00  0.00    -0.504 OA
ATOM     24  H   UNL     1      -1.660  50.147  78.515  1.00  0.00     0.293 HD
ENDBRANCH  20  23
ENDBRANCH  14  15
ENDBRANCH  12  14
ENDBRANCH   9  10
ENDBRANCH   1   9
TORSDOF 10
ENDMDL
MODEL 7
REMARK VINA RESULT:    -4.615      2.151      4.285
REMARK INTER + INTRA:          -7.732
REMARK INTER:                  -7.574
REMARK INTRA:                  -0.159
REMARK UNBOUND:                -0.554
REMARK SMILES COc1cc(CNC(=O)CCCCC=CC(C)C)ccc1O
REMARK SMILES IDX 11 1 12 2 13 3 14 4 15 5 16 6 17 7 18 8 10 9 8 10 9 11 7 12
REMARK SMILES IDX 6 14 5 15 4 16 19 17 3 18 20 19 21 20 2 21 1 22 22 23
REMARK H PARENT 7 13 22 24
REMARK Flexibility Score: inf
ROOT
ATOM      1  C   UNL     1       3.468  52.020  71.460  1.00  0.00     0.010 C 
ENDROOT
BRANCH   1   2
ATOM      2  C   UNL     1       3.134  52.059  69.955  1.00  0.00     0.005 C 
BRANCH   2   3
ATOM      3  C   UNL     1       3.035  50.677  69.289  1.00  0.00     0.027 C 
BRANCH   3   4
ATOM      4  C   UNL     1       2.818  49.571  70.286  1.00  0.00    -0.031 C 
ATOM      5  C   UNL     1       3.827  49.075  71.016  1.00  0.00    -0.028 C 
BRANCH   5   6
ATOM      6  C   UNL     1       3.607  47.956  72.007  1.00  0.00     0.005 C 
ATOM      7  C   UNL     1       2.130  47.878  72.411  1.00  0.00     0.012 C 
ATOM      8  C   UNL     1       4.487  48.157  73.245  1.00  0.00     0.012 C 
ENDBRANCH   5   6
ENDBRANCH   3   4
ENDBRANCH   2   3
ENDBRANCH   1   2
BRANCH   1   9
ATOM      9  C   UNL     1       2.286  52.341  72.392  1.00  0.00     0.100 C 
BRANCH   9  10
ATOM     10  C   UNL     1       2.041  51.262  73.410  1.00  0.00     0.220 C 
ATOM     11  O   UNL     1       2.948  50.968  74.238  1.00  0.00    -0.275 OA
ATOM     12  N   UNL     1       0.785  50.571  73.438  1.00  0.00    -0.352 N 
ATOM     13  H   UNL     1       0.119  50.703  72.643  1.00  0.00     0.163 HD
BRANCH  12  14
ATOM     14  C   UNL     1       0.270  49.954  74.656  1.00  0.00     0.151 C 
BRANCH  14  15
ATOM     15  C   UNL     1      -0.994  50.652  75.074  1.00  0.00    -0.025 A 
ATOM     16  C   UNL     1      -1.500  50.488  76.373  1.00  0.00     0.056 A 
ATOM     17  C   UNL     1      -1.618  51.554  74.200  1.00  0.00     0.009 A 
ATOM     18  C   UNL     1      -2.627  51.217  76.801  1.00  0.00     0.160 A 
ATOM     19  C   UNL     1      -2.747  52.264  74.611  1.00  0.00     0.050 A 
ATOM     20  C   UNL     1      -3.253  52.098  75.908  1.00  0.00     0.157 A 
BRANCH  18  21
ATOM     21  O   UNL     1      -3.144  51.102  78.101  1.00  0.00    -0.493 OA
ATOM     22  C   UNL     1      -4.408  50.525  78.418  1.00  0.00     0.278 C 
ENDBRANCH  18  21
BRANCH  20  23
ATOM     23  O   UNL     1      -4.380  52.811  76.318  1.00  0.00    -0.504 OA
ATOM     24  H   UNL     1      -4.820  52.640  77.215  1.00  0.00     0.293 HD
ENDBRANCH  20  23
ENDBRANCH  14  15
ENDBRANCH  12  14
ENDBRANCH   9  10
ENDBRANCH   1   9
TORSDOF 10
ENDMDL
