MODEL 1
REMARK VINA RESULT:    -4.978      0.000      0.000
REMARK INTER + INTRA:          -7.709
REMARK INTER:                  -6.142
REMARK INTRA:                  -1.566
REMARK UNBOUND:                -1.566
REMARK SMILES CC(C)=CCC[C@H](C)c1ccc(C)cc1
REMARK SMILES IDX 6 1 7 2 8 3 9 4 13 5 12 6 11 7 14 8 10 9 15 10 5 11 4 12
REMARK SMILES IDX 2 13 1 14 3 15
REMARK H PARENT
REMARK Flexibility Score: inf
ROOT
ATOM      1  C   UNL     1     176.963 179.905 180.464  1.00  0.00     0.012 C 
ENDROOT
BRANCH   1   2
ATOM      2  C   UNL     1     176.638 178.725 181.413  1.00  0.00     0.016 C 
ATOM      3  C   UNL     1     177.467 177.471 181.095  1.00  0.00     0.013 C 
BRANCH   2   4
ATOM      4  C   UNL     1     175.155 178.405 181.361  1.00  0.00    -0.045 A 
ATOM      5  C   UNL     1     170.927 177.530 181.207  1.00  0.00     0.044 C 
ATOM      6  C   UNL     1     172.397 177.829 181.230  1.00  0.00    -0.051 A 
ATOM      7  C   UNL     1     173.325 176.799 181.433  1.00  0.00     0.004 A 
ATOM      8  C   UNL     1     172.850 179.150 181.114  1.00  0.00     0.004 A 
ATOM      9  C   UNL     1     174.692 177.082 181.491  1.00  0.00     0.004 A 
ATOM     10  C   UNL     1     174.217 179.436 181.171  1.00  0.00     0.004 A 
ENDBRANCH   2   4
ENDBRANCH   1   2
BRANCH   1  11
ATOM     11  C   UNL     1     177.160 179.499 178.993  1.00  0.00     0.028 C 
BRANCH  11  12
ATOM     12  C   UNL     1     175.961 179.837 178.138  1.00  0.00    -0.028 C 
ATOM     13  C   UNL     1     175.095 178.929 177.636  1.00  0.00    -0.080 C 
ATOM     14  C   UNL     1     175.282 177.443 177.838  1.00  0.00     0.039 C 
ATOM     15  C   UNL     1     173.922 179.427 176.831  1.00  0.00     0.039 C 
ENDBRANCH  11  12
ENDBRANCH   1  11
TORSDOF 4
ENDMDL
MODEL 2
REMARK VINA RESULT:    -4.964     10.811     12.603
REMARK INTER + INTRA:          -7.691
REMARK INTER:                  -6.123
REMARK INTRA:                  -1.567
REMARK UNBOUND:                -1.566
REMARK SMILES CC(C)=CCC[C@H](C)c1ccc(C)cc1
REMARK SMILES IDX 6 1 7 2 8 3 9 4 13 5 12 6 11 7 14 8 10 9 15 10 5 11 4 12
REMARK SMILES IDX 2 13 1 14 3 15
REMARK H PARENT
REMARK Flexibility Score: inf
ROOT
ATOM      1  C   UNL     1     161.948 179.755 180.476  1.00  0.00     0.012 C 
ENDROOT
BRANCH   1   2
ATOM      2  C   UNL     1     162.937 179.009 181.406  1.00  0.00     0.016 C 
ATOM      3  C   UNL     1     164.403 179.330 181.080  1.00  0.00     0.013 C 
BRANCH   2   4
ATOM      4  C   UNL     1     162.695 177.512 181.335  1.00  0.00    -0.045 A 
ATOM      5  C   UNL     1     161.971 173.258 181.127  1.00  0.00     0.044 C 
ATOM      6  C   UNL     1     162.227 174.735 181.168  1.00  0.00    -0.051 A 
ATOM      7  C   UNL     1     163.527 175.223 181.364  1.00  0.00     0.004 A 
ATOM      8  C   UNL     1     161.160 175.639 181.078  1.00  0.00     0.004 A 
ATOM      9  C   UNL     1     163.761 176.598 181.439  1.00  0.00     0.004 A 
ATOM     10  C   UNL     1     161.391 177.015 181.152  1.00  0.00     0.004 A 
ENDBRANCH   2   4
ENDBRANCH   1   2
BRANCH   1  11
ATOM     11  C   UNL     1     162.388 179.816 179.003  1.00  0.00     0.028 C 
BRANCH  11  12
ATOM     12  C   UNL     1     161.665 178.804 178.145  1.00  0.00    -0.028 C 
ATOM     13  C   UNL     1     162.229 177.687 177.634  1.00  0.00    -0.080 C 
ATOM     14  C   UNL     1     163.692 177.364 177.831  1.00  0.00     0.039 C 
ATOM     15  C   UNL     1     161.364 176.753 176.827  1.00  0.00     0.039 C 
ENDBRANCH  11  12
ENDBRANCH   1  11
TORSDOF 4
ENDMDL
MODEL 3
REMARK VINA RESULT:    -4.624      1.825      3.682
REMARK INTER + INTRA:          -7.272
REMARK INTER:                  -5.680
REMARK INTRA:                  -1.591
REMARK UNBOUND:                -1.566
REMARK SMILES CC(C)=CCC[C@H](C)c1ccc(C)cc1
REMARK SMILES IDX 6 1 7 2 8 3 9 4 13 5 12 6 11 7 14 8 10 9 15 10 5 11 4 12
REMARK SMILES IDX 2 13 1 14 3 15
REMARK H PARENT
REMARK Flexibility Score: inf
ROOT
ATOM      1  C   UNL     1     174.806 179.282 180.491  1.00  0.00     0.012 C 
ENDROOT
BRANCH   1   2
ATOM      2  C   UNL     1     175.908 178.794 181.464  1.00  0.00     0.016 C 
ATOM      3  C   UNL     1     177.088 179.774 181.553  1.00  0.00     0.013 C 
BRANCH   2   4
ATOM      4  C   UNL     1     176.395 177.415 181.055  1.00  0.00    -0.045 A 
ATOM      5  C   UNL     1     177.746 173.481 179.887  1.00  0.00     0.044 C 
ATOM      6  C   UNL     1     177.276 174.856 180.262  1.00  0.00    -0.051 A 
ATOM      7  C   UNL     1     178.203 175.879 180.503  1.00  0.00     0.004 A 
ATOM      8  C   UNL     1     175.909 175.109 180.441  1.00  0.00     0.004 A 
ATOM      9  C   UNL     1     177.767 177.150 180.888  1.00  0.00     0.004 A 
ATOM     10  C   UNL     1     175.471 176.380 180.826  1.00  0.00     0.004 A 
ENDBRANCH   2   4
ENDBRANCH   1   2
BRANCH   1  11
ATOM     11  C   UNL     1     175.315 179.624 179.079  1.00  0.00     0.028 C 
BRANCH  11  12
ATOM     12  C   UNL     1     174.797 178.664 178.034  1.00  0.00    -0.028 C 
ATOM     13  C   UNL     1     175.569 177.816 177.319  1.00  0.00    -0.080 C 
ATOM     14  C   UNL     1     177.073 177.787 177.461  1.00  0.00     0.039 C 
ATOM     15  C   UNL     1     174.898 176.890 176.338  1.00  0.00     0.039 C 
ENDBRANCH  11  12
ENDBRANCH   1  11
TORSDOF 4
ENDMDL
MODEL 4
REMARK VINA RESULT:    -4.591      7.355     11.342
REMARK INTER + INTRA:          -7.231
REMARK INTER:                  -5.633
REMARK INTRA:                  -1.598
REMARK UNBOUND:                -1.566
REMARK SMILES CC(C)=CCC[C@H](C)c1ccc(C)cc1
REMARK SMILES IDX 6 1 7 2 8 3 9 4 13 5 12 6 11 7 14 8 10 9 15 10 5 11 4 12
REMARK SMILES IDX 2 13 1 14 3 15
REMARK H PARENT
REMARK Flexibility Score: inf
ROOT
ATOM      1  C   UNL     1     161.940 177.409 180.489  1.00  0.00     0.012 C 
ENDROOT
BRANCH   1   2
ATOM      2  C   UNL     1     162.731 178.348 181.434  1.00  0.00     0.016 C 
ATOM      3  C   UNL     1     162.127 179.759 181.500  1.00  0.00     0.013 C 
BRANCH   2   4
ATOM      4  C   UNL     1     164.186 178.415 181.007  1.00  0.00    -0.045 A 
ATOM      5  C   UNL     1     168.329 178.572 179.790  1.00  0.00     0.044 C 
ATOM      6  C   UNL     1     166.882 178.518 180.183  1.00  0.00    -0.051 A 
ATOM      7  C   UNL     1     166.169 179.702 180.417  1.00  0.00     0.004 A 
ATOM      8  C   UNL     1     166.250 177.283 180.383  1.00  0.00     0.004 A 
ATOM      9  C   UNL     1     164.831 179.652 180.818  1.00  0.00     0.004 A 
ATOM     10  C   UNL     1     164.912 177.231 180.784  1.00  0.00     0.004 A 
ENDBRANCH   2   4
ENDBRANCH   1   2
BRANCH   1  11
ATOM     11  C   UNL     1     161.738 177.966 179.068  1.00  0.00     0.028 C 
BRANCH  11  12
ATOM     12  C   UNL     1     162.519 177.191 178.032  1.00  0.00    -0.028 C 
ATOM     13  C   UNL     1     163.516 177.705 177.278  1.00  0.00    -0.080 C 
ATOM     14  C   UNL     1     163.918 179.159 177.362  1.00  0.00     0.039 C 
ATOM     15  C   UNL     1     164.227 176.793 176.312  1.00  0.00     0.039 C 
ENDBRANCH  11  12
ENDBRANCH   1  11
TORSDOF 4
ENDMDL
MODEL 5
REMARK VINA RESULT:    -4.513      1.761      3.302
REMARK INTER + INTRA:          -7.135
REMARK INTER:                  -5.889
REMARK INTRA:                  -1.246
REMARK UNBOUND:                -1.566
REMARK SMILES CC(C)=CCC[C@H](C)c1ccc(C)cc1
REMARK SMILES IDX 6 1 7 2 8 3 9 4 13 5 12 6 11 7 14 8 10 9 15 10 5 11 4 12
REMARK SMILES IDX 2 13 1 14 3 15
REMARK H PARENT
REMARK Flexibility Score: inf
ROOT
ATOM      1  C   UNL     1     177.491 178.150 179.702  1.00  0.00     0.012 C 
ENDROOT
BRANCH   1   2
ATOM      2  C   UNL     1     176.787 179.502 179.979  1.00  0.00     0.016 C 
ATOM      3  C   UNL     1     177.218 180.125 181.315  1.00  0.00     0.013 C 
BRANCH   2   4
ATOM      4  C   UNL     1     175.280 179.325 179.939  1.00  0.00    -0.045 A 
ATOM      5  C   UNL     1     170.992 178.813 179.792  1.00  0.00     0.044 C 
ATOM      6  C   UNL     1     172.484 178.960 179.848  1.00  0.00    -0.051 A 
ATOM      7  C   UNL     1     173.122 179.233 181.066  1.00  0.00     0.004 A 
ATOM      8  C   UNL     1     173.245 178.892 178.673  1.00  0.00     0.004 A 
ATOM      9  C   UNL     1     174.508 179.406 181.113  1.00  0.00     0.004 A 
ATOM     10  C   UNL     1     174.631 179.064 178.718  1.00  0.00     0.004 A 
ENDBRANCH   2   4
ENDBRANCH   1   2
BRANCH   1  11
ATOM     11  C   UNL     1     177.503 177.185 180.901  1.00  0.00     0.028 C 
BRANCH  11  12
ATOM     12  C   UNL     1     177.328 175.745 180.481  1.00  0.00    -0.028 C 
ATOM     13  C   UNL     1     176.141 175.105 180.401  1.00  0.00    -0.080 C 
ATOM     14  C   UNL     1     174.842 175.772 180.791  1.00  0.00     0.039 C 
ATOM     15  C   UNL     1     176.127 173.675 179.927  1.00  0.00     0.039 C 
ENDBRANCH  11  12
ENDBRANCH   1  11
TORSDOF 4
ENDMDL
MODEL 6
REMARK VINA RESULT:    -4.511      8.599     12.167
REMARK INTER + INTRA:          -7.132
REMARK INTER:                  -5.672
REMARK INTRA:                  -1.459
REMARK UNBOUND:                -1.566
REMARK SMILES CC(C)=CCC[C@H](C)c1ccc(C)cc1
REMARK SMILES IDX 6 1 7 2 8 3 9 4 13 5 12 6 11 7 14 8 10 9 15 10 5 11 4 12
REMARK SMILES IDX 2 13 1 14 3 15
REMARK H PARENT
REMARK Flexibility Score: inf
ROOT
ATOM      1  C   UNL     1     163.839 179.745 179.947  1.00  0.00     0.012 C 
ENDROOT
BRANCH   1   2
ATOM      2  C   UNL     1     162.322 179.540 180.178  1.00  0.00     0.016 C 
ATOM      3  C   UNL     1     161.852 180.107 181.527  1.00  0.00     0.013 C 
BRANCH   2   4
ATOM      4  C   UNL     1     161.970 178.066 180.073  1.00  0.00    -0.045 A 
ATOM      5  C   UNL     1     160.982 173.874 179.740  1.00  0.00     0.044 C 
ATOM      6  C   UNL     1     161.354 175.322 179.865  1.00  0.00    -0.051 A 
ATOM      7  C   UNL     1     161.154 176.001 181.075  1.00  0.00     0.004 A 
ATOM      8  C   UNL     1     161.842 176.023 178.754  1.00  0.00     0.004 A 
ATOM      9  C   UNL     1     161.467 177.359 181.181  1.00  0.00     0.004 A 
ATOM     10  C   UNL     1     162.155 177.382 178.859  1.00  0.00     0.004 A 
ENDBRANCH   2   4
ENDBRANCH   1   2
BRANCH   1  11
ATOM     11  C   UNL     1     164.738 179.042 180.980  1.00  0.00     0.028 C 
BRANCH  11  12
ATOM     12  C   UNL     1     165.811 178.200 180.330  1.00  0.00    -0.028 C 
ATOM     13  C   UNL     1     165.866 176.851 180.380  1.00  0.00    -0.080 C 
ATOM     14  C   UNL     1     164.863 176.036 181.162  1.00  0.00     0.039 C 
ATOM     15  C   UNL     1     166.982 176.152 179.647  1.00  0.00     0.039 C 
ENDBRANCH  11  12
ENDBRANCH   1  11
TORSDOF 4
ENDMDL
MODEL 7
REMARK VINA RESULT:    -4.495      1.038      4.166
REMARK INTER + INTRA:          -7.112
REMARK INTER:                  -5.689
REMARK INTRA:                  -1.424
REMARK UNBOUND:                -1.566
REMARK SMILES CC(C)=CCC[C@H](C)c1ccc(C)cc1
REMARK SMILES IDX 6 1 7 2 8 3 9 4 13 5 12 6 11 7 14 8 10 9 15 10 5 11 4 12
REMARK SMILES IDX 2 13 1 14 3 15
REMARK H PARENT
REMARK Flexibility Score: inf
ROOT
ATOM      1  C   UNL     1     177.291 177.565 180.770  1.00  0.00     0.012 C 
ENDROOT
BRANCH   1   2
ATOM      2  C   UNL     1     177.470 178.809 179.865  1.00  0.00     0.016 C 
ATOM      3  C   UNL     1     177.249 180.125 180.627  1.00  0.00     0.013 C 
BRANCH   2   4
ATOM      4  C   UNL     1     176.537 178.727 178.670  1.00  0.00    -0.045 A 
ATOM      5  C   UNL     1     173.870 178.524 175.277  1.00  0.00     0.044 C 
ATOM      6  C   UNL     1     174.818 178.609 176.438  1.00  0.00    -0.051 A 
ATOM      7  C   UNL     1     175.734 177.576 176.679  1.00  0.00     0.004 A 
ATOM      8  C   UNL     1     174.749 179.690 177.327  1.00  0.00     0.004 A 
ATOM      9  C   UNL     1     176.592 177.637 177.781  1.00  0.00     0.004 A 
ATOM     10  C   UNL     1     175.606 179.753 178.429  1.00  0.00     0.004 A 
ENDBRANCH   2   4
ENDBRANCH   1   2
BRANCH   1  11
ATOM     11  C   UNL     1     176.176 177.703 181.822  1.00  0.00     0.028 C 
BRANCH  11  12
ATOM     12  C   UNL     1     174.891 177.037 181.388  1.00  0.00    -0.028 C 
ATOM     13  C   UNL     1     173.756 177.695 181.065  1.00  0.00    -0.080 C 
ATOM     14  C   UNL     1     173.643 179.198 181.165  1.00  0.00     0.039 C 
ATOM     15  C   UNL     1     172.565 176.889 180.613  1.00  0.00     0.039 C 
ENDBRANCH  11  12
ENDBRANCH   1  11
TORSDOF 4
ENDMDL
MODEL 8
REMARK VINA RESULT:    -4.486     10.920     12.719
REMARK INTER + INTRA:          -7.102
REMARK INTER:                  -5.549
REMARK INTRA:                  -1.553
REMARK UNBOUND:                -1.566
REMARK SMILES CC(C)=CCC[C@H](C)c1ccc(C)cc1
REMARK SMILES IDX 6 1 7 2 8 3 9 4 13 5 12 6 11 7 14 8 10 9 15 10 5 11 4 12
REMARK SMILES IDX 2 13 1 14 3 15
REMARK H PARENT
REMARK Flexibility Score: inf
ROOT
ATOM      1  C   UNL     1     164.204 179.347 180.848  1.00  0.00     0.012 C 
ENDROOT
BRANCH   1   2
ATOM      2  C   UNL     1     163.072 179.886 179.938  1.00  0.00     0.016 C 
ATOM      3  C   UNL     1     161.761 180.113 180.706  1.00  0.00     0.013 C 
BRANCH   2   4
ATOM      4  C   UNL     1     162.844 178.941 178.771  1.00  0.00    -0.045 A 
ATOM      5  C   UNL     1     162.230 176.253 175.446  1.00  0.00     0.044 C 
ATOM      6  C   UNL     1     162.446 177.162 176.620  1.00  0.00    -0.051 A 
ATOM      7  C   UNL     1     161.354 177.620 177.369  1.00  0.00     0.004 A 
ATOM      8  C   UNL     1     163.735 177.613 176.935  1.00  0.00     0.004 A 
ATOM      9  C   UNL     1     161.550 178.496 178.440  1.00  0.00     0.004 A 
ATOM     10  C   UNL     1     163.934 178.489 178.007  1.00  0.00     0.004 A 
ENDBRANCH   2   4
ENDBRANCH   1   2
BRANCH   1  11
ATOM     11  C   UNL     1     163.741 178.315 181.891  1.00  0.00     0.028 C 
BRANCH  11  12
ATOM     12  C   UNL     1     163.981 176.894 181.439  1.00  0.00    -0.028 C 
ATOM     13  C   UNL     1     163.009 176.023 181.091  1.00  0.00    -0.080 C 
ATOM     14  C   UNL     1     161.543 176.379 181.178  1.00  0.00     0.039 C 
ATOM     15  C   UNL     1     163.412 174.648 180.623  1.00  0.00     0.039 C 
ENDBRANCH  11  12
ENDBRANCH   1  11
TORSDOF 4
ENDMDL
MODEL 9
REMARK VINA RESULT:    -4.484      1.707      4.479
REMARK INTER + INTRA:          -7.099
REMARK INTER:                  -5.505
REMARK INTRA:                  -1.594
REMARK UNBOUND:                -1.566
REMARK SMILES CC(C)=CCC[C@H](C)c1ccc(C)cc1
REMARK SMILES IDX 6 1 7 2 8 3 9 4 13 5 12 6 11 7 14 8 10 9 15 10 5 11 4 12
REMARK SMILES IDX 2 13 1 14 3 15
REMARK H PARENT
REMARK Flexibility Score: inf
ROOT
ATOM      1  C   UNL     1     176.941 179.076 181.143  1.00  0.00     0.012 C 
ENDROOT
BRANCH   1   2
ATOM      2  C   UNL     1     175.697 179.704 180.468  1.00  0.00     0.016 C 
ATOM      3  C   UNL     1     174.386 179.294 181.157  1.00  0.00     0.013 C 
BRANCH   2   4
ATOM      4  C   UNL     1     175.658 179.337 178.995  1.00  0.00    -0.045 A 
ATOM      5  C   UNL     1     175.583 178.293 174.804  1.00  0.00     0.044 C 
ATOM      6  C   UNL     1     175.611 178.625 176.267  1.00  0.00    -0.051 A 
ATOM      7  C   UNL     1     174.417 178.711 176.995  1.00  0.00     0.004 A 
ATOM      8  C   UNL     1     176.826 178.917 176.901  1.00  0.00     0.004 A 
ATOM      9  C   UNL     1     174.439 179.056 178.349  1.00  0.00     0.004 A 
ATOM     10  C   UNL     1     176.851 179.262 178.255  1.00  0.00     0.004 A 
ENDBRANCH   2   4
ENDBRANCH   1   2
BRANCH   1  11
ATOM     11  C   UNL     1     176.725 177.642 181.659  1.00  0.00     0.028 C 
BRANCH  11  12
ATOM     12  C   UNL     1     177.271 176.602 180.709  1.00  0.00    -0.028 C 
ATOM     13  C   UNL     1     176.513 175.783 179.948  1.00  0.00    -0.080 C 
ATOM     14  C   UNL     1     175.004 175.791 180.018  1.00  0.00     0.039 C 
ATOM     15  C   UNL     1     177.208 174.821 179.019  1.00  0.00     0.039 C 
ENDBRANCH  11  12
ENDBRANCH   1  11
TORSDOF 4
ENDMDL
