MODEL 1
REMARK VINA RESULT:    -2.898      0.000      0.000
REMARK INTER + INTRA:          -5.207
REMARK INTER:                  -4.423
REMARK INTRA:                  -0.784
REMARK UNBOUND:                -0.784
REMARK SMILES CCCCCCCCCCC(=O)[O-]
REMARK SMILES IDX 7 1 8 2 9 3 10 4 11 5 12 6 13 7 6 8 5 9 4 10 3 11 2 12 1 13
REMARK H PARENT
REMARK Flexibility Score: inf
ROOT
ATOM      1  C   UNL     1       4.473  17.661  10.413  1.00  0.00     0.000 C 
ENDROOT
BRANCH   1   2
ATOM      2  C   UNL     1       4.315  16.198   9.954  1.00  0.00     0.000 C 
BRANCH   2   3
ATOM      3  C   UNL     1       4.862  15.896   8.548  1.00  0.00     0.006 C 
BRANCH   3   4
ATOM      4  C   UNL     1       3.814  15.266   7.624  1.00  0.00     0.053 C 
BRANCH   4   5
ATOM      5  C   UNL     1       4.394  14.094   6.897  1.00  0.00     0.041 C 
ATOM      6  O   UNL     1       3.656  13.132   6.557  1.00  0.00    -0.550 OA
ATOM      7  O   UNL     1       5.758  14.041   6.640  1.00  0.00    -0.550 OA
ENDBRANCH   4   5
ENDBRANCH   3   4
ENDBRANCH   2   3
ENDBRANCH   1   2
BRANCH   1   8
ATOM      8  C   UNL     1       3.248  18.259  11.133  1.00  0.00     0.000 C 
BRANCH   8   9
ATOM      9  C   UNL     1       2.463  19.304  10.320  1.00  0.00    -0.000 C 
BRANCH   9  10
ATOM     10  C   UNL     1       3.089  19.583   8.944  1.00  0.00    -0.000 C 
BRANCH  10  11
ATOM     11  C   UNL     1       2.044  20.149   7.972  1.00  0.00    -0.000 C 
BRANCH  11  12
ATOM     12  C   UNL     1       2.267  19.680   6.526  1.00  0.00    -0.003 C 
ATOM     13  C   UNL     1       3.517  18.814   6.371  1.00  0.00     0.004 C 
ENDBRANCH  11  12
ENDBRANCH  10  11
ENDBRANCH   9  10
ENDBRANCH   8   9
ENDBRANCH   1   8
TORSDOF 9
ENDMDL
MODEL 2
REMARK VINA RESULT:    -2.833      0.790      1.578
REMARK INTER + INTRA:          -5.107
REMARK INTER:                  -4.260
REMARK INTRA:                  -0.847
REMARK UNBOUND:                -0.784
REMARK SMILES CCCCCCCCCCC(=O)[O-]
REMARK SMILES IDX 7 1 8 2 9 3 10 4 11 5 12 6 13 7 6 8 5 9 4 10 3 11 2 12 1 13
REMARK H PARENT
REMARK Flexibility Score: inf
ROOT
ATOM      1  C   UNL     1       4.624  17.536  10.217  1.00  0.00     0.000 C 
ENDROOT
BRANCH   1   2
ATOM      2  C   UNL     1       4.360  16.029  10.033  1.00  0.00     0.000 C 
BRANCH   2   3
ATOM      3  C   UNL     1       4.953  15.419   8.750  1.00  0.00     0.006 C 
BRANCH   3   4
ATOM      4  C   UNL     1       3.898  15.173   7.665  1.00  0.00     0.053 C 
BRANCH   4   5
ATOM      5  C   UNL     1       4.425  14.233   6.627  1.00  0.00     0.041 C 
ATOM      6  O   UNL     1       5.580  14.396   6.153  1.00  0.00    -0.550 OA
ATOM      7  O   UNL     1       3.622  13.206   6.147  1.00  0.00    -0.550 OA
ENDBRANCH   4   5
ENDBRANCH   3   4
ENDBRANCH   2   3
ENDBRANCH   1   2
BRANCH   1   8
ATOM      8  C   UNL     1       3.439  18.459   9.866  1.00  0.00     0.000 C 
BRANCH   8   9
ATOM      9  C   UNL     1       3.774  19.606   8.896  1.00  0.00    -0.000 C 
BRANCH   9  10
ATOM     10  C   UNL     1       4.369  19.111   7.569  1.00  0.00    -0.000 C 
BRANCH  10  11
ATOM     11  C   UNL     1       3.259  18.686   6.596  1.00  0.00    -0.000 C 
BRANCH  11  12
ATOM     12  C   UNL     1       2.131  19.724   6.498  1.00  0.00    -0.003 C 
ATOM     13  C   UNL     1       2.237  20.598   5.248  1.00  0.00     0.004 C 
ENDBRANCH  11  12
ENDBRANCH  10  11
ENDBRANCH   9  10
ENDBRANCH   8   9
ENDBRANCH   1   8
TORSDOF 9
ENDMDL
MODEL 3
REMARK VINA RESULT:    -2.738      1.587      2.717
REMARK INTER + INTRA:          -4.962
REMARK INTER:                  -4.297
REMARK INTRA:                  -0.665
REMARK UNBOUND:                -0.784
REMARK SMILES CCCCCCCCCCC(=O)[O-]
REMARK SMILES IDX 7 1 8 2 9 3 10 4 11 5 12 6 13 7 6 8 5 9 4 10 3 11 2 12 1 13
REMARK H PARENT
REMARK Flexibility Score: inf
ROOT
ATOM      1  C   UNL     1       4.031  18.156   8.245  1.00  0.00     0.000 C 
ENDROOT
BRANCH   1   2
ATOM      2  C   UNL     1       4.437  16.735   8.685  1.00  0.00     0.000 C 
BRANCH   2   3
ATOM      3  C   UNL     1       3.897  15.602   7.795  1.00  0.00     0.006 C 
BRANCH   3   4
ATOM      4  C   UNL     1       5.011  14.756   7.167  1.00  0.00     0.053 C 
BRANCH   4   5
ATOM      5  C   UNL     1       4.500  14.030   5.962  1.00  0.00     0.041 C 
ATOM      6  O   UNL     1       4.819  14.418   4.807  1.00  0.00    -0.550 OA
ATOM      7  O   UNL     1       3.631  12.957   6.113  1.00  0.00    -0.550 OA
ENDBRANCH   4   5
ENDBRANCH   3   4
ENDBRANCH   2   3
ENDBRANCH   1   2
BRANCH   1   8
ATOM      8  C   UNL     1       3.579  18.285   6.777  1.00  0.00     0.000 C 
BRANCH   8   9
ATOM      9  C   UNL     1       3.776  19.679   6.157  1.00  0.00    -0.000 C 
BRANCH   9  10
ATOM     10  C   UNL     1       2.488  20.247   5.541  1.00  0.00    -0.000 C 
BRANCH  10  11
ATOM     11  C   UNL     1       1.301  20.077   6.500  1.00  0.00    -0.000 C 
BRANCH  11  12
ATOM     12  C   UNL     1       1.212  21.208   7.536  1.00  0.00    -0.003 C 
ATOM     13  C   UNL     1       1.455  20.723   8.965  1.00  0.00     0.004 C 
ENDBRANCH  11  12
ENDBRANCH  10  11
ENDBRANCH   9  10
ENDBRANCH   8   9
ENDBRANCH   1   8
TORSDOF 9
ENDMDL
MODEL 4
REMARK VINA RESULT:    -2.726      1.554      3.196
REMARK INTER + INTRA:          -4.944
REMARK INTER:                  -4.130
REMARK INTRA:                  -0.814
REMARK UNBOUND:                -0.784
REMARK SMILES CCCCCCCCCCC(=O)[O-]
REMARK SMILES IDX 7 1 8 2 9 3 10 4 11 5 12 6 13 7 6 8 5 9 4 10 3 11 2 12 1 13
REMARK H PARENT
REMARK Flexibility Score: inf
ROOT
ATOM      1  C   UNL     1       3.672  19.338   6.836  1.00  0.00     0.000 C 
ENDROOT
BRANCH   1   2
ATOM      2  C   UNL     1       3.562  17.868   7.287  1.00  0.00     0.000 C 
BRANCH   2   3
ATOM      3  C   UNL     1       4.902  17.116   7.379  1.00  0.00     0.006 C 
BRANCH   3   4
ATOM      4  C   UNL     1       4.937  15.854   6.510  1.00  0.00     0.053 C 
BRANCH   4   5
ATOM      5  C   UNL     1       4.476  14.666   7.295  1.00  0.00     0.041 C 
ATOM      6  O   UNL     1       4.869  14.500   8.480  1.00  0.00    -0.550 OA
ATOM      7  O   UNL     1       3.652  13.717   6.703  1.00  0.00    -0.550 OA
ENDBRANCH   4   5
ENDBRANCH   3   4
ENDBRANCH   2   3
ENDBRANCH   1   2
BRANCH   1   8
ATOM      8  C   UNL     1       2.523  19.834   5.934  1.00  0.00     0.000 C 
BRANCH   8   9
ATOM      9  C   UNL     1       1.217  20.171   6.674  1.00  0.00    -0.000 C 
BRANCH   9  10
ATOM     10  C   UNL     1       1.386  21.300   7.703  1.00  0.00    -0.000 C 
BRANCH  10  11
ATOM     11  C   UNL     1       1.051  20.807   9.118  1.00  0.00    -0.000 C 
BRANCH  11  12
ATOM     12  C   UNL     1       2.302  20.621   9.990  1.00  0.00    -0.003 C 
ATOM     13  C   UNL     1       2.375  19.235  10.632  1.00  0.00     0.004 C 
ENDBRANCH  11  12
ENDBRANCH  10  11
ENDBRANCH   9  10
ENDBRANCH   8   9
ENDBRANCH   1   8
TORSDOF 9
ENDMDL
MODEL 5
REMARK VINA RESULT:    -2.723      1.334      3.017
REMARK INTER + INTRA:          -4.940
REMARK INTER:                  -4.410
REMARK INTRA:                  -0.530
REMARK UNBOUND:                -0.784
REMARK SMILES CCCCCCCCCCC(=O)[O-]
REMARK SMILES IDX 7 1 8 2 9 3 10 4 11 5 12 6 13 7 6 8 5 9 4 10 3 11 2 12 1 13
REMARK H PARENT
REMARK Flexibility Score: inf
ROOT
ATOM      1  C   UNL     1       4.609  18.554   6.306  1.00  0.00     0.000 C 
ENDROOT
BRANCH   1   2
ATOM      2  C   UNL     1       4.226  17.425   7.283  1.00  0.00     0.000 C 
BRANCH   2   3
ATOM      3  C   UNL     1       4.827  16.048   6.950  1.00  0.00     0.006 C 
BRANCH   3   4
ATOM      4  C   UNL     1       3.954  14.885   7.434  1.00  0.00     0.053 C 
BRANCH   4   5
ATOM      5  C   UNL     1       4.393  13.602   6.800  1.00  0.00     0.041 C 
ATOM      6  O   UNL     1       3.557  12.871   6.207  1.00  0.00    -0.550 OA
ATOM      7  O   UNL     1       5.715  13.190   6.908  1.00  0.00    -0.550 OA
ENDBRANCH   4   5
ENDBRANCH   3   4
ENDBRANCH   2   3
ENDBRANCH   1   2
BRANCH   1   8
ATOM      8  C   UNL     1       3.439  19.444   5.840  1.00  0.00     0.000 C 
BRANCH   8   9
ATOM      9  C   UNL     1       2.301  19.607   6.863  1.00  0.00    -0.000 C 
BRANCH   9  10
ATOM     10  C   UNL     1       2.646  20.595   7.988  1.00  0.00    -0.000 C 
BRANCH  10  11
ATOM     11  C   UNL     1       1.919  20.221   9.288  1.00  0.00    -0.000 C 
BRANCH  11  12
ATOM     12  C   UNL     1       2.730  19.249  10.159  1.00  0.00    -0.003 C 
ATOM     13  C   UNL     1       2.158  19.099  11.568  1.00  0.00     0.004 C 
ENDBRANCH  11  12
ENDBRANCH  10  11
ENDBRANCH   9  10
ENDBRANCH   8   9
ENDBRANCH   1   8
TORSDOF 9
ENDMDL
MODEL 6
REMARK VINA RESULT:    -2.692      1.301      2.224
REMARK INTER + INTRA:          -4.893
REMARK INTER:                  -3.957
REMARK INTRA:                  -0.936
REMARK UNBOUND:                -0.784
REMARK SMILES CCCCCCCCCCC(=O)[O-]
REMARK SMILES IDX 7 1 8 2 9 3 10 4 11 5 12 6 13 7 6 8 5 9 4 10 3 11 2 12 1 13
REMARK H PARENT
REMARK Flexibility Score: inf
ROOT
ATOM      1  C   UNL     1       3.622  19.655   8.917  1.00  0.00     0.000 C 
ENDROOT
BRANCH   1   2
ATOM      2  C   UNL     1       3.847  18.161   9.220  1.00  0.00     0.000 C 
BRANCH   2   3
ATOM      3  C   UNL     1       4.091  17.279   7.983  1.00  0.00     0.006 C 
BRANCH   3   4
ATOM      4  C   UNL     1       4.388  15.818   8.342  1.00  0.00     0.053 C 
BRANCH   4   5
ATOM      5  C   UNL     1       4.440  14.976   7.107  1.00  0.00     0.041 C 
ATOM      6  O   UNL     1       3.598  14.055   6.933  1.00  0.00    -0.550 OA
ATOM      7  O   UNL     1       5.446  15.174   6.170  1.00  0.00    -0.550 OA
ENDBRANCH   4   5
ENDBRANCH   3   4
ENDBRANCH   2   3
ENDBRANCH   1   2
BRANCH   1   8
ATOM      8  C   UNL     1       2.155  20.125   8.986  1.00  0.00     0.000 C 
BRANCH   8   9
ATOM      9  C   UNL     1       1.594  20.697   7.671  1.00  0.00    -0.000 C 
BRANCH   9  10
ATOM     10  C   UNL     1       1.843  19.776   6.466  1.00  0.00    -0.000 C 
BRANCH  10  11
ATOM     11  C   UNL     1       2.650  20.502   5.380  1.00  0.00    -0.000 C 
BRANCH  11  12
ATOM     12  C   UNL     1       3.991  19.815   5.083  1.00  0.00    -0.003 C 
ATOM     13  C   UNL     1       5.185  20.566   5.671  1.00  0.00     0.004 C 
ENDBRANCH  11  12
ENDBRANCH  10  11
ENDBRANCH   9  10
ENDBRANCH   8   9
ENDBRANCH   1   8
TORSDOF 9
ENDMDL
MODEL 7
REMARK VINA RESULT:    -2.683      2.398      4.511
REMARK INTER + INTRA:          -4.878
REMARK INTER:                  -4.023
REMARK INTRA:                  -0.855
REMARK UNBOUND:                -0.784
REMARK SMILES CCCCCCCCCCC(=O)[O-]
REMARK SMILES IDX 7 1 8 2 9 3 10 4 11 5 12 6 13 7 6 8 5 9 4 10 3 11 2 12 1 13
REMARK H PARENT
REMARK Flexibility Score: inf
ROOT
ATOM      1  C   UNL     1       0.686  20.871   7.360  1.00  0.00     0.000 C 
ENDROOT
BRANCH   1   2
ATOM      2  C   UNL     1       1.434  20.107   6.250  1.00  0.00     0.000 C 
BRANCH   2   3
ATOM      3  C   UNL     1       2.947  19.945   6.481  1.00  0.00     0.006 C 
BRANCH   3   4
ATOM      4  C   UNL     1       3.353  18.497   6.778  1.00  0.00     0.053 C 
BRANCH   4   5
ATOM      5  C   UNL     1       4.778  18.436   7.231  1.00  0.00     0.041 C 
ATOM      6  O   UNL     1       5.385  19.492   7.554  1.00  0.00    -0.550 OA
ATOM      7  O   UNL     1       5.451  17.221   7.249  1.00  0.00    -0.550 OA
ENDBRANCH   4   5
ENDBRANCH   3   4
ENDBRANCH   2   3
ENDBRANCH   1   2
BRANCH   1   8
ATOM      8  C   UNL     1       1.498  21.118   8.648  1.00  0.00     0.000 C 
BRANCH   8   9
ATOM      9  C   UNL     1       0.695  20.990   9.955  1.00  0.00    -0.000 C 
BRANCH   9  10
ATOM     10  C   UNL     1       1.375  20.074  10.986  1.00  0.00    -0.000 C 
BRANCH  10  11
ATOM     11  C   UNL     1       2.560  19.328  10.358  1.00  0.00    -0.000 C 
BRANCH  11  12
ATOM     12  C   UNL     1       3.169  18.283  11.306  1.00  0.00    -0.003 C 
ATOM     13  C   UNL     1       4.029  17.251  10.576  1.00  0.00     0.004 C 
ENDBRANCH  11  12
ENDBRANCH  10  11
ENDBRANCH   9  10
ENDBRANCH   8   9
ENDBRANCH   1   8
TORSDOF 9
ENDMDL
MODEL 8
REMARK VINA RESULT:    -2.679      1.780      2.727
REMARK INTER + INTRA:          -4.873
REMARK INTER:                  -4.438
REMARK INTRA:                  -0.435
REMARK UNBOUND:                -0.784
REMARK SMILES CCCCCCCCCCC(=O)[O-]
REMARK SMILES IDX 7 1 8 2 9 3 10 4 11 5 12 6 13 7 6 8 5 9 4 10 3 11 2 12 1 13
REMARK H PARENT
REMARK Flexibility Score: inf
ROOT
ATOM      1  C   UNL     1       4.085  18.140   8.417  1.00  0.00     0.000 C 
ENDROOT
BRANCH   1   2
ATOM      2  C   UNL     1       3.972  16.922   7.480  1.00  0.00     0.000 C 
BRANCH   2   3
ATOM      3  C   UNL     1       4.345  15.574   8.121  1.00  0.00     0.006 C 
BRANCH   3   4
ATOM      4  C   UNL     1       5.347  14.772   7.281  1.00  0.00     0.053 C 
BRANCH   4   5
ATOM      5  C   UNL     1       4.638  14.024   6.196  1.00  0.00     0.041 C 
ATOM      6  O   UNL     1       5.013  14.138   4.999  1.00  0.00    -0.550 OA
ATOM      7  O   UNL     1       3.532  13.239   6.500  1.00  0.00    -0.550 OA
ENDBRANCH   4   5
ENDBRANCH   3   4
ENDBRANCH   2   3
ENDBRANCH   1   2
BRANCH   1   8
ATOM      8  C   UNL     1       3.433  19.435   7.892  1.00  0.00     0.000 C 
BRANCH   8   9
ATOM      9  C   UNL     1       2.748  19.307   6.520  1.00  0.00    -0.000 C 
BRANCH   9  10
ATOM     10  C   UNL     1       1.433  20.097   6.432  1.00  0.00    -0.000 C 
BRANCH  10  11
ATOM     11  C   UNL     1       1.440  21.040   5.220  1.00  0.00    -0.000 C 
BRANCH  11  12
ATOM     12  C   UNL     1       2.808  21.094   4.522  1.00  0.00    -0.003 C 
ATOM     13  C   UNL     1       2.786  21.924   3.238  1.00  0.00     0.004 C 
ENDBRANCH  11  12
ENDBRANCH  10  11
ENDBRANCH   9  10
ENDBRANCH   8   9
ENDBRANCH   1   8
TORSDOF 9
ENDMDL
MODEL 9
REMARK VINA RESULT:    -2.678      2.223      4.269
REMARK INTER + INTRA:          -4.871
REMARK INTER:                  -3.998
REMARK INTRA:                  -0.874
REMARK UNBOUND:                -0.784
REMARK SMILES CCCCCCCCCCC(=O)[O-]
REMARK SMILES IDX 7 1 8 2 9 3 10 4 11 5 12 6 13 7 6 8 5 9 4 10 3 11 2 12 1 13
REMARK H PARENT
REMARK Flexibility Score: inf
ROOT
ATOM      1  C   UNL     1       2.191  20.453   5.507  1.00  0.00     0.000 C 
ENDROOT
BRANCH   1   2
ATOM      2  C   UNL     1       3.585  20.158   6.094  1.00  0.00     0.000 C 
BRANCH   2   3
ATOM      3  C   UNL     1       3.987  18.673   6.097  1.00  0.00     0.006 C 
BRANCH   3   4
ATOM      4  C   UNL     1       3.657  17.969   7.418  1.00  0.00     0.053 C 
BRANCH   4   5
ATOM      5  C   UNL     1       4.877  17.308   7.978  1.00  0.00     0.041 C 
ATOM      6  O   UNL     1       6.022  17.658   7.586  1.00  0.00    -0.550 OA
ATOM      7  O   UNL     1       4.749  16.271   8.893  1.00  0.00    -0.550 OA
ENDBRANCH   4   5
ENDBRANCH   3   4
ENDBRANCH   2   3
ENDBRANCH   1   2
BRANCH   1   8
ATOM      8  C   UNL     1       1.021  20.344   6.506  1.00  0.00     0.000 C 
BRANCH   8   9
ATOM      9  C   UNL     1       0.968  21.458   7.566  1.00  0.00    -0.000 C 
BRANCH   9  10
ATOM     10  C   UNL     1       0.726  20.920   8.986  1.00  0.00    -0.000 C 
BRANCH  10  11
ATOM     11  C   UNL     1       2.048  20.497   9.643  1.00  0.00    -0.000 C 
BRANCH  11  12
ATOM     12  C   UNL     1       1.836  19.584  10.861  1.00  0.00    -0.003 C 
ATOM     13  C   UNL     1       2.992  18.608  11.077  1.00  0.00     0.004 C 
ENDBRANCH  11  12
ENDBRANCH  10  11
ENDBRANCH   9  10
ENDBRANCH   8   9
ENDBRANCH   1   8
TORSDOF 9
ENDMDL
