MODEL 1
REMARK VINA RESULT:    -5.242      0.000      0.000
REMARK INTER + INTRA:         -10.508
REMARK INTER:                  -8.614
REMARK INTRA:                  -1.895
REMARK UNBOUND:                -1.895
REMARK SMILES COc1ccc([C@H]2CC(=O)c3c(O)cc(O[C@H]4O[C@@H](CO[C@@H]5O[C@H](C)[C@H](O)[C@H](O)[C@H]5O)[C@@H](O)[C@H](O)[C@@H]4O)cc3O2)cc1O
REMARK SMILES IDX 19 1 32 2 34 3 36 4 17 5 18 6 20 7 21 8 22 9 25 10 24 11
REMARK SMILES IDX 26 12 23 13 28 14 30 15 27 16 29 18 31 20 33 22 35 24 16 26
REMARK SMILES IDX 15 27 14 28 38 29 12 30 39 31 11 32 40 33 9 34 7 35 10 36
REMARK SMILES IDX 8 37 13 38 6 40 41 41 5 42 42 43 4 44 3 45 43 46 2 48 1 49
REMARK SMILES IDX 37 50
REMARK H PARENT 27 17 29 19 31 21 33 23 35 25 13 39 43 47 37 51
REMARK Flexibility Score: inf
ROOT
ATOM      1  C   UNL     1      22.444  33.201  43.129  1.00  0.00     0.180 C 
ATOM      2  C   UNL     1      21.541  32.009  43.569  1.00  0.00     0.177 C 
ATOM      3  C   UNL     1      21.658  30.886  42.502  1.00  0.00     0.180 C 
ATOM      4  C   UNL     1      21.493  31.453  41.054  1.00  0.00     0.214 C 
ATOM      5  C   UNL     1      21.289  32.987  41.009  1.00  0.00     0.339 C 
ATOM      6  O   UNL     1      22.212  33.694  41.808  1.00  0.00    -0.332 OA
ENDROOT
BRANCH   1   7
ATOM      7  C   UNL     1      22.414  34.390  44.135  1.00  0.00     0.198 C 
BRANCH   7   8
ATOM      8  O   UNL     1      21.224  34.513  44.949  1.00  0.00    -0.347 OA
BRANCH   8   9
ATOM      9  C   UNL     1      21.453  35.247  46.155  1.00  0.00     0.281 C 
ATOM     10  C   UNL     1      18.137  34.647  46.395  1.00  0.00     0.041 C 
ATOM     11  C   UNL     1      19.190  35.751  46.665  1.00  0.00     0.150 C 
ATOM     12  C   UNL     1      19.276  36.824  45.522  1.00  0.00     0.174 C 
ATOM     13  O   UNL     1      20.404  35.143  47.081  1.00  0.00    -0.344 OA
ATOM     14  C   UNL     1      20.635  37.554  45.427  1.00  0.00     0.179 C 
ATOM     15  C   UNL     1      21.848  36.695  45.907  1.00  0.00     0.202 C 
BRANCH  12  16
ATOM     16  O   UNL     1      18.846  36.311  44.289  1.00  0.00    -0.388 OA
ATOM     17  H   UNL     1      18.939  37.000  43.594  1.00  0.00     0.211 HD
ENDBRANCH  12  16
BRANCH  14  18
ATOM     18  O   UNL     1      20.857  37.963  44.094  1.00  0.00    -0.387 OA
ATOM     19  H   UNL     1      20.010  37.806  43.583  1.00  0.00     0.211 HD
ENDBRANCH  14  18
BRANCH  15  20
ATOM     20  O   UNL     1      22.329  37.226  47.125  1.00  0.00    -0.385 OA
ATOM     21  H   UNL     1      23.285  37.452  46.970  1.00  0.00     0.211 HD
ENDBRANCH  15  20
ENDBRANCH   8   9
ENDBRANCH   7   8
ENDBRANCH   1   7
BRANCH   2  22
ATOM     22  O   UNL     1      20.207  32.414  43.762  1.00  0.00    -0.387 OA
ATOM     23  H   UNL     1      19.670  32.150  42.959  1.00  0.00     0.211 HD
ENDBRANCH   2  22
BRANCH   3  24
ATOM     24  O   UNL     1      22.870  30.162  42.581  1.00  0.00    -0.387 OA
ATOM     25  H   UNL     1      22.911  29.446  41.903  1.00  0.00     0.211 HD
ENDBRANCH   3  24
BRANCH   5  26
ATOM     26  O   UNL     1      19.939  33.269  41.370  1.00  0.00    -0.462 OA
BRANCH  26  27
ATOM     27  C   UNL     1      18.977  33.966  40.616  1.00  0.00     0.130 A 
ATOM     28  C   UNL     1      19.103  34.197  39.226  1.00  0.00     0.093 A 
ATOM     29  C   UNL     1      17.869  34.505  41.282  1.00  0.00     0.094 A 
ATOM     30  C   UNL     1      18.249  35.080  38.557  1.00  0.00     0.133 A 
ATOM     31  C   UNL     1      16.923  35.270  40.590  1.00  0.00     0.138 A 
ATOM     32  C   UNL     1      17.161  35.654  39.260  1.00  0.00     0.102 A 
ATOM     33  O   UNL     1      15.723  35.619  41.213  1.00  0.00    -0.484 OA
ATOM     34  C   UNL     1      16.219  36.656  38.673  1.00  0.00     0.174 C 
ATOM     35  C   UNL     1      14.587  35.994  40.436  1.00  0.00     0.211 C 
ATOM     36  O   UNL     1      16.505  37.279  37.607  1.00  0.00    -0.294 OA
ATOM     37  C   UNL     1      14.994  37.076  39.435  1.00  0.00     0.131 C 
BRANCH  30  38
ATOM     38  O   UNL     1      18.495  35.356  37.221  1.00  0.00    -0.507 OA
ATOM     39  H   UNL     1      19.222  34.900  36.681  1.00  0.00     0.293 HD
ENDBRANCH  30  38
BRANCH  35  40
ATOM     40  C   UNL     1      13.456  36.419  41.326  1.00  0.00    -0.003 A 
ATOM     41  C   UNL     1      12.385  37.177  40.813  1.00  0.00     0.057 A 
ATOM     42  C   UNL     1      13.405  36.010  42.665  1.00  0.00     0.011 A 
ATOM     43  C   UNL     1      11.245  37.420  41.593  1.00  0.00     0.158 A 
ATOM     44  C   UNL     1      12.301  36.284  43.463  1.00  0.00     0.051 A 
ATOM     45  C   UNL     1      11.196  36.949  42.926  1.00  0.00     0.160 A 
BRANCH  43  46
ATOM     46  O   UNL     1      10.148  38.087  41.031  1.00  0.00    -0.504 OA
ATOM     47  H   UNL     1      10.018  38.182  40.034  1.00  0.00     0.293 HD
ENDBRANCH  43  46
BRANCH  45  48
ATOM     48  O   UNL     1      10.075  37.104  43.762  1.00  0.00    -0.493 OA
ATOM     49  C   UNL     1       9.114  36.105  44.036  1.00  0.00     0.278 C 
ENDBRANCH  45  48
ENDBRANCH  35  40
ENDBRANCH  26  27
ENDBRANCH   5  26
BRANCH   4  50
ATOM     50  O   UNL     1      22.610  31.102  40.277  1.00  0.00    -0.384 OA
ATOM     51  H   UNL     1      22.968  31.941  39.832  1.00  0.00     0.211 HD
ENDBRANCH   4  50
TORSDOF 15
ENDMDL
MODEL 2
REMARK VINA RESULT:    -5.235      2.624      8.568
REMARK INTER + INTRA:         -10.497
REMARK INTER:                  -7.649
REMARK INTRA:                  -2.848
REMARK UNBOUND:                -1.895
REMARK SMILES COc1ccc([C@H]2CC(=O)c3c(O)cc(O[C@H]4O[C@@H](CO[C@@H]5O[C@H](C)[C@H](O)[C@H](O)[C@H]5O)[C@@H](O)[C@H](O)[C@@H]4O)cc3O2)cc1O
REMARK SMILES IDX 19 1 32 2 34 3 36 4 17 5 18 6 20 7 21 8 22 9 25 10 24 11
REMARK SMILES IDX 26 12 23 13 28 14 30 15 27 16 29 18 31 20 33 22 35 24 16 26
REMARK SMILES IDX 15 27 14 28 38 29 12 30 39 31 11 32 40 33 9 34 7 35 10 36
REMARK SMILES IDX 8 37 13 38 6 40 41 41 5 42 42 43 4 44 3 45 43 46 2 48 1 49
REMARK SMILES IDX 37 50
REMARK H PARENT 27 17 29 19 31 21 33 23 35 25 13 39 43 47 37 51
REMARK Flexibility Score: inf
ROOT
ATOM      1  C   UNL     1      17.164  34.805  37.832  1.00  0.00     0.180 C 
ATOM      2  C   UNL     1      15.667  34.535  37.495  1.00  0.00     0.177 C 
ATOM      3  C   UNL     1      14.955  35.901  37.295  1.00  0.00     0.180 C 
ATOM      4  C   UNL     1      15.291  36.896  38.454  1.00  0.00     0.214 C 
ATOM      5  C   UNL     1      16.270  36.316  39.503  1.00  0.00     0.339 C 
ATOM      6  O   UNL     1      17.397  35.694  38.927  1.00  0.00    -0.332 OA
ENDROOT
BRANCH   1   7
ATOM      7  C   UNL     1      17.985  33.499  38.046  1.00  0.00     0.198 C 
BRANCH   7   8
ATOM      8  O   UNL     1      18.880  33.482  39.182  1.00  0.00    -0.347 OA
BRANCH   8   9
ATOM      9  C   UNL     1      20.255  33.382  38.800  1.00  0.00     0.281 C 
ATOM     10  C   UNL     1      19.806  30.411  40.344  1.00  0.00     0.041 C 
ATOM     11  C   UNL     1      20.847  31.547  40.187  1.00  0.00     0.150 C 
ATOM     12  C   UNL     1      20.836  32.572  41.376  1.00  0.00     0.174 C 
ATOM     13  O   UNL     1      20.763  32.076  38.872  1.00  0.00    -0.344 OA
ATOM     14  C   UNL     1      21.372  33.978  41.019  1.00  0.00     0.179 C 
ATOM     15  C   UNL     1      21.150  34.376  39.526  1.00  0.00     0.202 C 
BRANCH  12  16
ATOM     16  O   UNL     1      19.591  32.612  42.022  1.00  0.00    -0.388 OA
ATOM     17  H   UNL     1      19.671  32.218  42.919  1.00  0.00     0.211 HD
ENDBRANCH  12  16
BRANCH  14  18
ATOM     18  O   UNL     1      20.758  34.940  41.850  1.00  0.00    -0.387 OA
ATOM     19  H   UNL     1      20.745  34.573  42.782  1.00  0.00     0.211 HD
ENDBRANCH  14  18
BRANCH  15  20
ATOM     20  O   UNL     1      22.401  34.391  38.868  1.00  0.00    -0.385 OA
ATOM     21  H   UNL     1      22.220  34.688  37.935  1.00  0.00     0.211 HD
ENDBRANCH  15  20
ENDBRANCH   8   9
ENDBRANCH   7   8
ENDBRANCH   1   7
BRANCH   2  22
ATOM     22  O   UNL     1      15.044  33.757  38.489  1.00  0.00    -0.387 OA
ATOM     23  H   UNL     1      15.039  34.274  39.347  1.00  0.00     0.211 HD
ENDBRANCH   2  22
BRANCH   3  24
ATOM     24  O   UNL     1      15.255  36.513  36.056  1.00  0.00    -0.387 OA
ATOM     25  H   UNL     1      15.623  37.421  36.180  1.00  0.00     0.211 HD
ENDBRANCH   3  24
BRANCH   5  26
ATOM     26  O   UNL     1      15.542  35.432  40.352  1.00  0.00    -0.462 OA
BRANCH  26  27
ATOM     27  C   UNL     1      15.828  35.098  41.689  1.00  0.00     0.130 A 
ATOM     28  C   UNL     1      14.841  34.671  42.608  1.00  0.00     0.093 A 
ATOM     29  C   UNL     1      17.144  35.246  42.148  1.00  0.00     0.094 A 
ATOM     30  C   UNL     1      15.118  34.566  43.974  1.00  0.00     0.133 A 
ATOM     31  C   UNL     1      17.464  34.998  43.488  1.00  0.00     0.138 A 
ATOM     32  C   UNL     1      16.446  34.768  44.427  1.00  0.00     0.102 A 
ATOM     33  O   UNL     1      18.803  34.943  43.881  1.00  0.00    -0.484 OA
ATOM     34  C   UNL     1      16.854  34.743  45.865  1.00  0.00     0.174 C 
ATOM     35  C   UNL     1      19.175  34.277  45.087  1.00  0.00     0.211 C 
ATOM     36  O   UNL     1      15.995  34.834  46.792  1.00  0.00    -0.294 OA
ATOM     37  C   UNL     1      18.309  34.792  46.238  1.00  0.00     0.131 C 
BRANCH  30  38
ATOM     38  O   UNL     1      14.081  34.259  44.841  1.00  0.00    -0.507 OA
ATOM     39  H   UNL     1      13.194  34.751  44.846  1.00  0.00     0.293 HD
ENDBRANCH  30  38
BRANCH  35  40
ATOM     40  C   UNL     1      20.645  34.437  45.347  1.00  0.00    -0.003 A 
ATOM     41  C   UNL     1      21.170  35.679  45.755  1.00  0.00     0.057 A 
ATOM     42  C   UNL     1      21.511  33.340  45.260  1.00  0.00     0.011 A 
ATOM     43  C   UNL     1      22.504  35.786  46.171  1.00  0.00     0.158 A 
ATOM     44  C   UNL     1      22.847  33.444  45.626  1.00  0.00     0.051 A 
ATOM     45  C   UNL     1      23.345  34.649  46.125  1.00  0.00     0.160 A 
BRANCH  43  46
ATOM     46  O   UNL     1      22.981  37.006  46.670  1.00  0.00    -0.504 OA
ATOM     47  H   UNL     1      23.238  37.778  46.071  1.00  0.00     0.293 HD
ENDBRANCH  43  46
BRANCH  45  48
ATOM     48  O   UNL     1      24.681  34.654  46.570  1.00  0.00    -0.493 OA
ATOM     49  C   UNL     1      25.589  33.580  46.442  1.00  0.00     0.278 C 
ENDBRANCH  45  48
ENDBRANCH  35  40
ENDBRANCH  26  27
ENDBRANCH   5  26
BRANCH   4  50
ATOM     50  O   UNL     1      15.818  38.084  37.920  1.00  0.00    -0.384 OA
ATOM     51  H   UNL     1      15.140  38.827  38.061  1.00  0.00     0.211 HD
ENDBRANCH   4  50
TORSDOF 15
ENDMDL
MODEL 3
REMARK VINA RESULT:    -5.159      1.474      2.015
REMARK INTER + INTRA:         -10.372
REMARK INTER:                  -8.651
REMARK INTRA:                  -1.720
REMARK UNBOUND:                -1.895
REMARK SMILES COc1ccc([C@H]2CC(=O)c3c(O)cc(O[C@H]4O[C@@H](CO[C@@H]5O[C@H](C)[C@H](O)[C@H](O)[C@H]5O)[C@@H](O)[C@H](O)[C@@H]4O)cc3O2)cc1O
REMARK SMILES IDX 19 1 32 2 34 3 36 4 17 5 18 6 20 7 21 8 22 9 25 10 24 11
REMARK SMILES IDX 26 12 23 13 28 14 30 15 27 16 29 18 31 20 33 22 35 24 16 26
REMARK SMILES IDX 15 27 14 28 38 29 12 30 39 31 11 32 40 33 9 34 7 35 10 36
REMARK SMILES IDX 8 37 13 38 6 40 41 41 5 42 42 43 4 44 3 45 43 46 2 48 1 49
REMARK SMILES IDX 37 50
REMARK H PARENT 27 17 29 19 31 21 33 23 35 25 13 39 43 47 37 51
REMARK Flexibility Score: inf
ROOT
ATOM      1  C   UNL     1      21.935  33.682  42.253  1.00  0.00     0.180 C 
ATOM      2  C   UNL     1      21.549  32.321  41.599  1.00  0.00     0.177 C 
ATOM      3  C   UNL     1      21.994  32.348  40.111  1.00  0.00     0.180 C 
ATOM      4  C   UNL     1      21.546  33.670  39.405  1.00  0.00     0.214 C 
ATOM      5  C   UNL     1      20.804  34.652  40.342  1.00  0.00     0.339 C 
ATOM      6  O   UNL     1      21.460  34.847  41.575  1.00  0.00    -0.332 OA
ENDROOT
BRANCH   1   7
ATOM      7  C   UNL     1      21.543  33.767  43.758  1.00  0.00     0.198 C 
BRANCH   7   8
ATOM      8  O   UNL     1      20.970  35.018  44.203  1.00  0.00    -0.347 OA
BRANCH   8   9
ATOM      9  C   UNL     1      21.544  35.484  45.428  1.00  0.00     0.281 C 
ATOM     10  C   UNL     1      19.023  33.564  46.597  1.00  0.00     0.041 C 
ATOM     11  C   UNL     1      19.751  34.903  46.871  1.00  0.00     0.150 C 
ATOM     12  C   UNL     1      19.003  36.151  46.281  1.00  0.00     0.174 C 
ATOM     13  O   UNL     1      21.127  34.758  46.554  1.00  0.00    -0.344 OA
ATOM     14  C   UNL     1      19.912  37.367  45.990  1.00  0.00     0.179 C 
ATOM     15  C   UNL     1      21.383  36.984  45.631  1.00  0.00     0.202 C 
BRANCH  12  16
ATOM     16  O   UNL     1      18.189  35.807  45.191  1.00  0.00    -0.388 OA
ATOM     17  H   UNL     1      18.713  35.293  44.536  1.00  0.00     0.211 HD
ENDBRANCH  12  16
BRANCH  14  18
ATOM     18  O   UNL     1      19.361  38.125  44.934  1.00  0.00    -0.387 OA
ATOM     19  H   UNL     1      18.878  37.492  44.326  1.00  0.00     0.211 HD
ENDBRANCH  14  18
BRANCH  15  20
ATOM     20  O   UNL     1      22.227  37.368  46.696  1.00  0.00    -0.385 OA
ATOM     21  H   UNL     1      22.767  36.564  46.926  1.00  0.00     0.211 HD
ENDBRANCH  15  20
ENDBRANCH   8   9
ENDBRANCH   7   8
ENDBRANCH   1   7
BRANCH   2  22
ATOM     22  O   UNL     1      20.173  32.054  41.732  1.00  0.00    -0.387 OA
ATOM     23  H   UNL     1      20.058  31.168  42.184  1.00  0.00     0.211 HD
ENDBRANCH   2  22
BRANCH   3  24
ATOM     24  O   UNL     1      23.387  32.180  39.941  1.00  0.00    -0.387 OA
ATOM     25  H   UNL     1      23.606  31.862  39.032  1.00  0.00     0.211 HD
ENDBRANCH   3  24
BRANCH   5  26
ATOM     26  O   UNL     1      19.468  34.184  40.511  1.00  0.00    -0.462 OA
BRANCH  26  27
ATOM     27  C   UNL     1      18.283  34.784  40.045  1.00  0.00     0.130 A 
ATOM     28  C   UNL     1      18.056  35.093  38.683  1.00  0.00     0.093 A 
ATOM     29  C   UNL     1      17.304  35.144  40.980  1.00  0.00     0.094 A 
ATOM     30  C   UNL     1      16.974  35.887  38.290  1.00  0.00     0.133 A 
ATOM     31  C   UNL     1      16.141  35.809  40.576  1.00  0.00     0.138 A 
ATOM     32  C   UNL     1      16.019  36.282  39.259  1.00  0.00     0.102 A 
ATOM     33  O   UNL     1      15.086  35.971  41.476  1.00  0.00    -0.484 OA
ATOM     34  C   UNL     1      14.857  37.179  38.974  1.00  0.00     0.174 C 
ATOM     35  C   UNL     1      13.765  36.230  41.003  1.00  0.00     0.211 C 
ATOM     36  O   UNL     1      14.814  37.881  37.920  1.00  0.00    -0.294 OA
ATOM     37  C   UNL     1      13.800  37.400  40.019  1.00  0.00     0.131 C 
BRANCH  30  38
ATOM     38  O   UNL     1      16.870  36.253  36.957  1.00  0.00    -0.507 OA
ATOM     39  H   UNL     1      16.547  37.166  36.653  1.00  0.00     0.293 HD
ENDBRANCH  30  38
BRANCH  35  40
ATOM     40  C   UNL     1      12.829  36.463  42.153  1.00  0.00    -0.003 A 
ATOM     41  C   UNL     1      12.742  35.534  43.207  1.00  0.00     0.057 A 
ATOM     42  C   UNL     1      12.078  37.643  42.236  1.00  0.00     0.011 A 
ATOM     43  C   UNL     1      12.007  35.835  44.363  1.00  0.00     0.158 A 
ATOM     44  C   UNL     1      11.310  37.932  43.357  1.00  0.00     0.051 A 
ATOM     45  C   UNL     1      11.302  37.058  44.446  1.00  0.00     0.160 A 
BRANCH  43  46
ATOM     46  O   UNL     1      12.016  34.941  45.444  1.00  0.00    -0.504 OA
ATOM     47  H   UNL     1      12.869  34.570  45.839  1.00  0.00     0.293 HD
ENDBRANCH  43  46
BRANCH  45  48
ATOM     48  O   UNL     1      10.582  37.462  45.586  1.00  0.00    -0.493 OA
ATOM     49  C   UNL     1      11.130  38.123  46.707  1.00  0.00     0.278 C 
ENDBRANCH  45  48
ENDBRANCH  35  40
ENDBRANCH  26  27
ENDBRANCH   5  26
BRANCH   4  50
ATOM     50  O   UNL     1      22.664  34.307  38.841  1.00  0.00    -0.384 OA
ATOM     51  H   UNL     1      23.310  34.542  39.588  1.00  0.00     0.211 HD
ENDBRANCH   4  50
TORSDOF 15
ENDMDL
MODEL 4
REMARK VINA RESULT:    -4.950      1.976      4.499
REMARK INTER + INTRA:         -10.029
REMARK INTER:                  -7.634
REMARK INTRA:                  -2.395
REMARK UNBOUND:                -1.895
REMARK SMILES COc1ccc([C@H]2CC(=O)c3c(O)cc(O[C@H]4O[C@@H](CO[C@@H]5O[C@H](C)[C@H](O)[C@H](O)[C@H]5O)[C@@H](O)[C@H](O)[C@@H]4O)cc3O2)cc1O
REMARK SMILES IDX 19 1 32 2 34 3 36 4 17 5 18 6 20 7 21 8 22 9 25 10 24 11
REMARK SMILES IDX 26 12 23 13 28 14 30 15 27 16 29 18 31 20 33 22 35 24 16 26
REMARK SMILES IDX 15 27 14 28 38 29 12 30 39 31 11 32 40 33 9 34 7 35 10 36
REMARK SMILES IDX 8 37 13 38 6 40 41 41 5 42 42 43 4 44 3 45 43 46 2 48 1 49
REMARK SMILES IDX 37 50
REMARK H PARENT 27 17 29 19 31 21 33 23 35 25 13 39 43 47 37 51
REMARK Flexibility Score: inf
ROOT
ATOM      1  C   UNL     1      21.303  35.871  46.545  1.00  0.00     0.180 C 
ATOM      2  C   UNL     1      20.852  37.066  45.650  1.00  0.00     0.177 C 
ATOM      3  C   UNL     1      19.340  37.321  45.898  1.00  0.00     0.180 C 
ATOM      4  C   UNL     1      18.518  35.992  45.838  1.00  0.00     0.214 C 
ATOM      5  C   UNL     1      19.388  34.737  45.585  1.00  0.00     0.339 C 
ATOM      6  O   UNL     1      20.530  34.676  46.410  1.00  0.00    -0.332 OA
ENDROOT
BRANCH   1   7
ATOM      7  C   UNL     1      22.814  35.528  46.385  1.00  0.00     0.198 C 
BRANCH   7   8
ATOM      8  O   UNL     1      23.190  34.832  45.174  1.00  0.00    -0.347 OA
BRANCH   8   9
ATOM      9  C   UNL     1      24.332  33.990  45.353  1.00  0.00     0.281 C 
ATOM     10  C   UNL     1      23.120  32.805  42.431  1.00  0.00     0.041 C 
ATOM     11  C   UNL     1      23.766  32.328  43.755  1.00  0.00     0.150 C 
ATOM     12  C   UNL     1      22.722  31.813  44.809  1.00  0.00     0.174 C 
ATOM     13  O   UNL     1      24.706  33.299  44.190  1.00  0.00    -0.344 OA
ATOM     14  C   UNL     1      23.195  31.898  46.278  1.00  0.00     0.179 C 
ATOM     15  C   UNL     1      24.206  33.058  46.549  1.00  0.00     0.202 C 
BRANCH  12  16
ATOM     16  O   UNL     1      21.455  32.383  44.612  1.00  0.00    -0.388 OA
ATOM     17  H   UNL     1      21.311  33.103  45.264  1.00  0.00     0.211 HD
ENDBRANCH  12  16
BRANCH  14  18
ATOM     18  O   UNL     1      22.077  32.053  47.125  1.00  0.00    -0.387 OA
ATOM     19  H   UNL     1      21.385  31.387  46.839  1.00  0.00     0.211 HD
ENDBRANCH  14  18
BRANCH  15  20
ATOM     20  O   UNL     1      25.481  32.502  46.800  1.00  0.00    -0.385 OA
ATOM     21  H   UNL     1      25.385  31.520  46.671  1.00  0.00     0.211 HD
ENDBRANCH  15  20
ENDBRANCH   8   9
ENDBRANCH   7   8
ENDBRANCH   1   7
BRANCH   2  22
ATOM     22  O   UNL     1      21.129  36.828  44.291  1.00  0.00    -0.387 OA
ATOM     23  H   UNL     1      20.877  35.884  44.070  1.00  0.00     0.211 HD
ENDBRANCH   2  22
BRANCH   3  24
ATOM     24  O   UNL     1      19.077  37.974  47.125  1.00  0.00    -0.387 OA
ATOM     25  H   UNL     1      19.105  37.344  47.885  1.00  0.00     0.211 HD
ENDBRANCH   3  24
BRANCH   5  26
ATOM     26  O   UNL     1      19.722  34.698  44.200  1.00  0.00    -0.462 OA
BRANCH  26  27
ATOM     27  C   UNL     1      18.870  34.402  43.119  1.00  0.00     0.130 A 
ATOM     28  C   UNL     1      19.176  33.434  42.135  1.00  0.00     0.093 A 
ATOM     29  C   UNL     1      17.687  35.140  42.980  1.00  0.00     0.094 A 
ATOM     30  C   UNL     1      18.421  33.327  40.963  1.00  0.00     0.133 A 
ATOM     31  C   UNL     1      16.843  34.935  41.883  1.00  0.00     0.138 A 
ATOM     32  C   UNL     1      17.254  34.117  40.818  1.00  0.00     0.102 A 
ATOM     33  O   UNL     1      15.574  35.518  41.866  1.00  0.00    -0.484 OA
ATOM     34  C   UNL     1      16.402  34.137  39.590  1.00  0.00     0.174 C 
ATOM     35  C   UNL     1      14.551  34.997  41.020  1.00  0.00     0.211 C 
ATOM     36  O   UNL     1      16.826  33.674  38.490  1.00  0.00    -0.294 OA
ATOM     37  C   UNL     1      15.089  34.869  39.594  1.00  0.00     0.131 C 
BRANCH  30  38
ATOM     38  O   UNL     1      18.840  32.440  39.982  1.00  0.00    -0.507 OA
ATOM     39  H   UNL     1      19.746  32.497  39.529  1.00  0.00     0.293 HD
ENDBRANCH  30  38
BRANCH  35  40
ATOM     40  C   UNL     1      13.315  35.846  41.101  1.00  0.00    -0.003 A 
ATOM     41  C   UNL     1      12.341  35.794  40.085  1.00  0.00     0.057 A 
ATOM     42  C   UNL     1      13.072  36.650  42.222  1.00  0.00     0.011 A 
ATOM     43  C   UNL     1      11.109  36.445  40.246  1.00  0.00     0.158 A 
ATOM     44  C   UNL     1      11.873  37.337  42.372  1.00  0.00     0.051 A 
ATOM     45  C   UNL     1      10.867  37.207  41.412  1.00  0.00     0.160 A 
BRANCH  43  46
ATOM     46  O   UNL     1      10.113  36.298  39.270  1.00  0.00    -0.504 OA
ATOM     47  H   UNL     1       9.497  37.052  39.001  1.00  0.00     0.293 HD
ENDBRANCH  43  46
BRANCH  45  48
ATOM     48  O   UNL     1       9.643  37.850  41.678  1.00  0.00    -0.493 OA
ATOM     49  C   UNL     1       9.121  38.116  42.963  1.00  0.00     0.278 C 
ENDBRANCH  45  48
ENDBRANCH  35  40
ENDBRANCH  26  27
ENDBRANCH   5  26
BRANCH   4  50
ATOM     50  O   UNL     1      17.791  35.830  47.030  1.00  0.00    -0.384 OA
ATOM     51  H   UNL     1      17.795  36.714  47.530  1.00  0.00     0.211 HD
ENDBRANCH   4  50
TORSDOF 15
ENDMDL
MODEL 5
REMARK VINA RESULT:    -4.851      2.060      4.638
REMARK INTER + INTRA:          -9.865
REMARK INTER:                  -7.588
REMARK INTRA:                  -2.277
REMARK UNBOUND:                -1.895
REMARK SMILES COc1ccc([C@H]2CC(=O)c3c(O)cc(O[C@H]4O[C@@H](CO[C@@H]5O[C@H](C)[C@H](O)[C@H](O)[C@H]5O)[C@@H](O)[C@H](O)[C@@H]4O)cc3O2)cc1O
REMARK SMILES IDX 19 1 32 2 34 3 36 4 17 5 18 6 20 7 21 8 22 9 25 10 24 11
REMARK SMILES IDX 26 12 23 13 28 14 30 15 27 16 29 18 31 20 33 22 35 24 16 26
REMARK SMILES IDX 15 27 14 28 38 29 12 30 39 31 11 32 40 33 9 34 7 35 10 36
REMARK SMILES IDX 8 37 13 38 6 40 41 41 5 42 42 43 4 44 3 45 43 46 2 48 1 49
REMARK SMILES IDX 37 50
REMARK H PARENT 27 17 29 19 31 21 33 23 35 25 13 39 43 47 37 51
REMARK Flexibility Score: inf
ROOT
ATOM      1  C   UNL     1      21.294  34.658  46.756  1.00  0.00     0.180 C 
ATOM      2  C   UNL     1      21.948  35.507  45.624  1.00  0.00     0.177 C 
ATOM      3  C   UNL     1      21.097  36.791  45.419  1.00  0.00     0.180 C 
ATOM      4  C   UNL     1      19.573  36.456  45.314  1.00  0.00     0.214 C 
ATOM      5  C   UNL     1      19.258  34.949  45.472  1.00  0.00     0.339 C 
ATOM      6  O   UNL     1      19.908  34.357  46.575  1.00  0.00    -0.332 OA
ENDROOT
BRANCH   1   7
ATOM      7  C   UNL     1      22.071  33.343  47.056  1.00  0.00     0.198 C 
BRANCH   7   8
ATOM      8  O   UNL     1      23.421  33.263  46.543  1.00  0.00    -0.347 OA
BRANCH   8   9
ATOM      9  C   UNL     1      23.855  31.915  46.338  1.00  0.00     0.281 C 
ATOM     10  C   UNL     1      26.737  33.599  45.818  1.00  0.00     0.041 C 
ATOM     11  C   UNL     1      25.924  32.397  45.277  1.00  0.00     0.150 C 
ATOM     12  C   UNL     1      25.076  32.742  44.002  1.00  0.00     0.174 C 
ATOM     13  O   UNL     1      25.251  31.768  46.357  1.00  0.00    -0.344 OA
ATOM     14  C   UNL     1      23.843  31.834  43.785  1.00  0.00     0.179 C 
ATOM     15  C   UNL     1      23.235  31.269  45.108  1.00  0.00     0.202 C 
BRANCH  12  16
ATOM     16  O   UNL     1      24.764  34.108  43.934  1.00  0.00    -0.388 OA
ATOM     17  H   UNL     1      23.816  34.243  44.154  1.00  0.00     0.211 HD
ENDBRANCH  12  16
BRANCH  14  18
ATOM     18  O   UNL     1      22.847  32.552  43.088  1.00  0.00    -0.387 OA
ATOM     19  H   UNL     1      21.959  32.160  43.338  1.00  0.00     0.211 HD
ENDBRANCH  14  18
BRANCH  15  20
ATOM     20  O   UNL     1      23.495  29.881  45.172  1.00  0.00    -0.385 OA
ATOM     21  H   UNL     1      24.335  29.733  44.660  1.00  0.00     0.211 HD
ENDBRANCH  15  20
ENDBRANCH   8   9
ENDBRANCH   7   8
ENDBRANCH   1   7
BRANCH   2  22
ATOM     22  O   UNL     1      22.081  34.768  44.434  1.00  0.00    -0.387 OA
ATOM     23  H   UNL     1      21.239  34.862  43.900  1.00  0.00     0.211 HD
ENDBRANCH   2  22
BRANCH   3  24
ATOM     24  O   UNL     1      21.291  37.758  46.432  1.00  0.00    -0.387 OA
ATOM     25  H   UNL     1      21.055  37.403  47.323  1.00  0.00     0.211 HD
ENDBRANCH   3  24
BRANCH   5  26
ATOM     26  O   UNL     1      19.578  34.296  44.246  1.00  0.00    -0.462 OA
BRANCH  26  27
ATOM     27  C   UNL     1      18.931  34.438  43.004  1.00  0.00     0.130 A 
ATOM     28  C   UNL     1      19.523  34.062  41.776  1.00  0.00     0.093 A 
ATOM     29  C   UNL     1      17.661  35.029  42.976  1.00  0.00     0.094 A 
ATOM     30  C   UNL     1      18.949  34.423  40.553  1.00  0.00     0.133 A 
ATOM     31  C   UNL     1      17.008  35.260  41.760  1.00  0.00     0.138 A 
ATOM     32  C   UNL     1      17.685  35.065  40.546  1.00  0.00     0.102 A 
ATOM     33  O   UNL     1      15.667  35.650  41.756  1.00  0.00    -0.484 OA
ATOM     34  C   UNL     1      17.000  35.553  39.309  1.00  0.00     0.174 C 
ATOM     35  C   UNL     1      14.865  35.468  40.591  1.00  0.00     0.211 C 
ATOM     36  O   UNL     1      17.633  35.690  38.220  1.00  0.00    -0.294 OA
ATOM     37  C   UNL     1      15.588  36.061  39.381  1.00  0.00     0.131 C 
BRANCH  30  38
ATOM     38  O   UNL     1      19.636  34.130  39.385  1.00  0.00    -0.507 OA
ATOM     39  H   UNL     1      19.853  34.824  38.677  1.00  0.00     0.293 HD
ENDBRANCH  30  38
BRANCH  35  40
ATOM     40  C   UNL     1      13.497  36.052  40.795  1.00  0.00    -0.003 A 
ATOM     41  C   UNL     1      13.166  36.699  42.002  1.00  0.00     0.057 A 
ATOM     42  C   UNL     1      12.548  36.030  39.765  1.00  0.00     0.011 A 
ATOM     43  C   UNL     1      11.958  37.400  42.127  1.00  0.00     0.158 A 
ATOM     44  C   UNL     1      11.327  36.682  39.893  1.00  0.00     0.051 A 
ATOM     45  C   UNL     1      11.039  37.408  41.051  1.00  0.00     0.160 A 
BRANCH  43  46
ATOM     46  O   UNL     1      11.692  38.123  43.298  1.00  0.00    -0.504 OA
ATOM     47  H   UNL     1      10.859  38.682  43.417  1.00  0.00     0.293 HD
ENDBRANCH  43  46
BRANCH  45  48
ATOM     48  O   UNL     1       9.828  38.125  41.071  1.00  0.00    -0.493 OA
ATOM     49  C   UNL     1       8.597  37.636  41.561  1.00  0.00     0.278 C 
ENDBRANCH  45  48
ENDBRANCH  35  40
ENDBRANCH  26  27
ENDBRANCH   5  26
BRANCH   4  50
ATOM     50  O   UNL     1      18.860  37.191  46.276  1.00  0.00    -0.384 OA
ATOM     51  H   UNL     1      18.165  36.581  46.695  1.00  0.00     0.211 HD
ENDBRANCH   4  50
TORSDOF 15
ENDMDL
MODEL 6
REMARK VINA RESULT:    -4.783      1.877      3.292
REMARK INTER + INTRA:          -9.754
REMARK INTER:                  -7.641
REMARK INTRA:                  -2.113
REMARK UNBOUND:                -1.895
REMARK SMILES COc1ccc([C@H]2CC(=O)c3c(O)cc(O[C@H]4O[C@@H](CO[C@@H]5O[C@H](C)[C@H](O)[C@H](O)[C@H]5O)[C@@H](O)[C@H](O)[C@@H]4O)cc3O2)cc1O
REMARK SMILES IDX 19 1 32 2 34 3 36 4 17 5 18 6 20 7 21 8 22 9 25 10 24 11
REMARK SMILES IDX 26 12 23 13 28 14 30 15 27 16 29 18 31 20 33 22 35 24 16 26
REMARK SMILES IDX 15 27 14 28 38 29 12 30 39 31 11 32 40 33 9 34 7 35 10 36
REMARK SMILES IDX 8 37 13 38 6 40 41 41 5 42 42 43 4 44 3 45 43 46 2 48 1 49
REMARK SMILES IDX 37 50
REMARK H PARENT 27 17 29 19 31 21 33 23 35 25 13 39 43 47 37 51
REMARK Flexibility Score: inf
ROOT
ATOM      1  C   UNL     1      23.024  32.652  44.486  1.00  0.00     0.180 C 
ATOM      2  C   UNL     1      23.296  31.121  44.378  1.00  0.00     0.177 C 
ATOM      3  C   UNL     1      24.817  30.909  44.139  1.00  0.00     0.180 C 
ATOM      4  C   UNL     1      25.353  31.844  43.006  1.00  0.00     0.214 C 
ATOM      5  C   UNL     1      24.274  32.781  42.413  1.00  0.00     0.339 C 
ATOM      6  O   UNL     1      23.509  33.441  43.397  1.00  0.00    -0.332 OA
ENDROOT
BRANCH   1   7
ATOM      7  C   UNL     1      21.524  32.986  44.737  1.00  0.00     0.198 C 
BRANCH   7   8
ATOM      8  O   UNL     1      21.167  34.388  44.724  1.00  0.00    -0.347 OA
BRANCH   8   9
ATOM      9  C   UNL     1      21.380  35.024  45.987  1.00  0.00     0.281 C 
ATOM     10  C   UNL     1      18.052  34.457  46.112  1.00  0.00     0.041 C 
ATOM     11  C   UNL     1      19.113  35.521  46.489  1.00  0.00     0.150 C 
ATOM     12  C   UNL     1      19.238  36.677  45.434  1.00  0.00     0.174 C 
ATOM     13  O   UNL     1      20.310  34.865  46.881  1.00  0.00    -0.344 OA
ATOM     14  C   UNL     1      20.609  37.393  45.423  1.00  0.00     0.179 C 
ATOM     15  C   UNL     1      21.799  36.481  45.860  1.00  0.00     0.202 C 
BRANCH  12  16
ATOM     16  O   UNL     1      18.828  36.268  44.156  1.00  0.00    -0.388 OA
ATOM     17  H   UNL     1      18.809  35.286  44.114  1.00  0.00     0.211 HD
ENDBRANCH  12  16
BRANCH  14  18
ATOM     18  O   UNL     1      20.865  37.899  44.131  1.00  0.00    -0.387 OA
ATOM     19  H   UNL     1      20.051  38.403  43.835  1.00  0.00     0.211 HD
ENDBRANCH  14  18
BRANCH  15  20
ATOM     20  O   UNL     1      22.261  36.910  47.125  1.00  0.00    -0.385 OA
ATOM     21  H   UNL     1      23.255  36.880  47.082  1.00  0.00     0.211 HD
ENDBRANCH  15  20
ENDBRANCH   8   9
ENDBRANCH   7   8
ENDBRANCH   1   7
BRANCH   2  22
ATOM     22  O   UNL     1      22.517  30.527  43.368  1.00  0.00    -0.387 OA
ATOM     23  H   UNL     1      22.945  30.709  42.480  1.00  0.00     0.211 HD
ENDBRANCH   2  22
BRANCH   3  24
ATOM     24  O   UNL     1      25.597  31.095  45.303  1.00  0.00    -0.387 OA
ATOM     25  H   UNL     1      26.037  31.979  45.308  1.00  0.00     0.211 HD
ENDBRANCH   3  24
BRANCH   5  26
ATOM     26  O   UNL     1      23.462  32.019  41.523  1.00  0.00    -0.462 OA
BRANCH  26  27
ATOM     27  C   UNL     1      22.552  32.503  40.564  1.00  0.00     0.130 A 
ATOM     28  C   UNL     1      22.771  32.402  39.170  1.00  0.00     0.093 A 
ATOM     29  C   UNL     1      21.402  33.166  41.010  1.00  0.00     0.094 A 
ATOM     30  C   UNL     1      21.964  33.089  38.258  1.00  0.00     0.133 A 
ATOM     31  C   UNL     1      20.504  33.730  40.097  1.00  0.00     0.138 A 
ATOM     32  C   UNL     1      20.830  33.794  38.733  1.00  0.00     0.102 A 
ATOM     33  O   UNL     1      19.265  34.197  40.541  1.00  0.00    -0.484 OA
ATOM     34  C   UNL     1      19.929  34.615  37.866  1.00  0.00     0.174 C 
ATOM     35  C   UNL     1      18.183  34.359  39.625  1.00  0.00     0.211 C 
ATOM     36  O   UNL     1      20.285  34.973  36.704  1.00  0.00    -0.294 OA
ATOM     37  C   UNL     1      18.655  35.182  38.425  1.00  0.00     0.131 C 
BRANCH  30  38
ATOM     38  O   UNL     1      22.298  33.047  36.913  1.00  0.00    -0.507 OA
ATOM     39  H   UNL     1      21.758  33.510  36.189  1.00  0.00     0.293 HD
ENDBRANCH  30  38
BRANCH  35  40
ATOM     40  C   UNL     1      16.994  34.964  40.314  1.00  0.00    -0.003 A 
ATOM     41  C   UNL     1      16.084  35.768  39.601  1.00  0.00     0.057 A 
ATOM     42  C   UNL     1      16.726  34.682  41.660  1.00  0.00     0.011 A 
ATOM     43  C   UNL     1      14.883  36.183  40.194  1.00  0.00     0.158 A 
ATOM     44  C   UNL     1      15.561  35.125  42.273  1.00  0.00     0.051 A 
ATOM     45  C   UNL     1      14.611  35.838  41.538  1.00  0.00     0.160 A 
BRANCH  43  46
ATOM     46  O   UNL     1      13.943  36.896  39.436  1.00  0.00    -0.504 OA
ATOM     47  H   UNL     1      14.207  37.617  38.778  1.00  0.00     0.293 HD
ENDBRANCH  43  46
BRANCH  45  48
ATOM     48  O   UNL     1      13.411  36.169  42.196  1.00  0.00    -0.493 OA
ATOM     49  C   UNL     1      12.257  35.356  42.250  1.00  0.00     0.278 C 
ENDBRANCH  45  48
ENDBRANCH  35  40
ENDBRANCH  26  27
ENDBRANCH   5  26
BRANCH   4  50
ATOM     50  O   UNL     1      26.427  32.609  43.493  1.00  0.00    -0.384 OA
ATOM     51  H   UNL     1      27.263  32.032  43.482  1.00  0.00     0.211 HD
ENDBRANCH   4  50
TORSDOF 15
ENDMDL
MODEL 7
REMARK VINA RESULT:    -4.749      2.450      5.930
REMARK INTER + INTRA:          -9.698
REMARK INTER:                  -6.441
REMARK INTRA:                  -3.256
REMARK UNBOUND:                -1.895
REMARK SMILES COc1ccc([C@H]2CC(=O)c3c(O)cc(O[C@H]4O[C@@H](CO[C@@H]5O[C@H](C)[C@H](O)[C@H](O)[C@H]5O)[C@@H](O)[C@H](O)[C@@H]4O)cc3O2)cc1O
REMARK SMILES IDX 19 1 32 2 34 3 36 4 17 5 18 6 20 7 21 8 22 9 25 10 24 11
REMARK SMILES IDX 26 12 23 13 28 14 30 15 27 16 29 18 31 20 33 22 35 24 16 26
REMARK SMILES IDX 15 27 14 28 38 29 12 30 39 31 11 32 40 33 9 34 7 35 10 36
REMARK SMILES IDX 8 37 13 38 6 40 41 41 5 42 42 43 4 44 3 45 43 46 2 48 1 49
REMARK SMILES IDX 37 50
REMARK H PARENT 27 17 29 19 31 21 33 23 35 25 13 39 43 47 37 51
REMARK Flexibility Score: inf
ROOT
ATOM      1  C   UNL     1      21.863  32.563  43.997  1.00  0.00     0.180 C 
ATOM      2  C   UNL     1      22.591  33.874  43.571  1.00  0.00     0.177 C 
ATOM      3  C   UNL     1      23.328  34.451  44.811  1.00  0.00     0.180 C 
ATOM      4  C   UNL     1      22.394  34.490  46.065  1.00  0.00     0.214 C 
ATOM      5  C   UNL     1      20.979  33.920  45.801  1.00  0.00     0.339 C 
ATOM      6  O   UNL     1      20.995  32.681  45.128  1.00  0.00    -0.332 OA
ENDROOT
BRANCH   1   7
ATOM      7  C   UNL     1      21.092  31.886  42.825  1.00  0.00     0.198 C 
BRANCH   7   8
ATOM      8  O   UNL     1      20.265  32.754  42.015  1.00  0.00    -0.347 OA
BRANCH   8   9
ATOM      9  C   UNL     1      19.734  32.093  40.863  1.00  0.00     0.281 C 
ATOM     10  C   UNL     1      22.786  32.992  39.729  1.00  0.00     0.041 C 
ATOM     11  C   UNL     1      21.309  32.887  39.274  1.00  0.00     0.150 C 
ATOM     12  C   UNL     1      20.537  34.253  39.342  1.00  0.00     0.174 C 
ATOM     13  O   UNL     1      20.707  31.768  39.906  1.00  0.00    -0.344 OA
ATOM     14  C   UNL     1      19.004  34.119  39.490  1.00  0.00     0.179 C 
ATOM     15  C   UNL     1      18.554  32.828  40.243  1.00  0.00     0.202 C 
BRANCH  12  16
ATOM     16  O   UNL     1      21.101  35.127  40.284  1.00  0.00    -0.388 OA
ATOM     17  H   UNL     1      20.669  34.996  41.157  1.00  0.00     0.211 HD
ENDBRANCH  12  16
BRANCH  14  18
ATOM     18  O   UNL     1      18.497  35.249  40.167  1.00  0.00    -0.387 OA
ATOM     19  H   UNL     1      19.177  35.981  40.089  1.00  0.00     0.211 HD
ENDBRANCH  14  18
BRANCH  15  20
ATOM     20  O   UNL     1      17.937  31.953  39.321  1.00  0.00    -0.385 OA
ATOM     21  H   UNL     1      16.961  31.993  39.511  1.00  0.00     0.211 HD
ENDBRANCH  15  20
ENDBRANCH   8   9
ENDBRANCH   7   8
ENDBRANCH   1   7
BRANCH   2  22
ATOM     22  O   UNL     1      21.696  34.804  43.011  1.00  0.00    -0.387 OA
ATOM     23  H   UNL     1      21.129  35.188  43.742  1.00  0.00     0.211 HD
ENDBRANCH   2  22
BRANCH   3  24
ATOM     24  O   UNL     1      24.511  33.748  45.136  1.00  0.00    -0.387 OA
ATOM     25  H   UNL     1      24.542  32.866  44.693  1.00  0.00     0.211 HD
ENDBRANCH   3  24
BRANCH   5  26
ATOM     26  O   UNL     1      20.226  34.905  45.098  1.00  0.00    -0.462 OA
BRANCH  26  27
ATOM     27  C   UNL     1      18.831  34.947  44.912  1.00  0.00     0.130 A 
ATOM     28  C   UNL     1      17.907  34.942  45.983  1.00  0.00     0.093 A 
ATOM     29  C   UNL     1      18.331  34.939  43.603  1.00  0.00     0.094 A 
ATOM     30  C   UNL     1      16.540  34.757  45.761  1.00  0.00     0.133 A 
ATOM     31  C   UNL     1      16.952  34.905  43.366  1.00  0.00     0.138 A 
ATOM     32  C   UNL     1      16.057  34.702  44.429  1.00  0.00     0.102 A 
ATOM     33  O   UNL     1      16.465  35.110  42.073  1.00  0.00    -0.484 OA
ATOM     34  C   UNL     1      14.630  34.447  44.064  1.00  0.00     0.174 C 
ATOM     35  C   UNL     1      15.114  35.517  41.866  1.00  0.00     0.211 C 
ATOM     36  O   UNL     1      13.812  33.972  44.908  1.00  0.00    -0.294 OA
ATOM     37  C   UNL     1      14.180  34.581  42.637  1.00  0.00     0.131 C 
BRANCH  30  38
ATOM     38  O   UNL     1      15.698  34.642  46.857  1.00  0.00    -0.507 OA
ATOM     39  H   UNL     1      15.966  34.179  47.719  1.00  0.00     0.293 HD
ENDBRANCH  30  38
BRANCH  35  40
ATOM     40  C   UNL     1      14.799  35.575  40.399  1.00  0.00    -0.003 A 
ATOM     41  C   UNL     1      14.397  36.784  39.799  1.00  0.00     0.057 A 
ATOM     42  C   UNL     1      14.969  34.448  39.585  1.00  0.00     0.011 A 
ATOM     43  C   UNL     1      14.278  36.883  38.406  1.00  0.00     0.158 A 
ATOM     44  C   UNL     1      14.810  34.521  38.207  1.00  0.00     0.051 A 
ATOM     45  C   UNL     1      14.509  35.743  37.601  1.00  0.00     0.160 A 
BRANCH  43  46
ATOM     46  O   UNL     1      13.977  38.121  37.820  1.00  0.00    -0.504 OA
ATOM     47  H   UNL     1      13.065  38.339  37.443  1.00  0.00     0.293 HD
ENDBRANCH  43  46
BRANCH  45  48
ATOM     48  O   UNL     1      14.461  35.764  36.195  1.00  0.00    -0.493 OA
ATOM     49  C   UNL     1      15.522  35.404  35.335  1.00  0.00     0.278 C 
ENDBRANCH  45  48
ENDBRANCH  35  40
ENDBRANCH  26  27
ENDBRANCH   5  26
BRANCH   4  50
ATOM     50  O   UNL     1      22.995  33.791  47.125  1.00  0.00    -0.384 OA
ATOM     51  H   UNL     1      22.668  32.829  47.101  1.00  0.00     0.211 HD
ENDBRANCH   4  50
TORSDOF 15
ENDMDL
MODEL 8
REMARK VINA RESULT:    -4.745      3.106      5.787
REMARK INTER + INTRA:          -9.691
REMARK INTER:                  -6.338
REMARK INTRA:                  -3.353
REMARK UNBOUND:                -1.895
REMARK SMILES COc1ccc([C@H]2CC(=O)c3c(O)cc(O[C@H]4O[C@@H](CO[C@@H]5O[C@H](C)[C@H](O)[C@H](O)[C@H]5O)[C@@H](O)[C@H](O)[C@@H]4O)cc3O2)cc1O
REMARK SMILES IDX 19 1 32 2 34 3 36 4 17 5 18 6 20 7 21 8 22 9 25 10 24 11
REMARK SMILES IDX 26 12 23 13 28 14 30 15 27 16 29 18 31 20 33 22 35 24 16 26
REMARK SMILES IDX 15 27 14 28 38 29 12 30 39 31 11 32 40 33 9 34 7 35 10 36
REMARK SMILES IDX 8 37 13 38 6 40 41 41 5 42 42 43 4 44 3 45 43 46 2 48 1 49
REMARK SMILES IDX 37 50
REMARK H PARENT 27 17 29 19 31 21 33 23 35 25 13 39 43 47 37 51
REMARK Flexibility Score: inf
ROOT
ATOM      1  C   UNL     1      20.291  34.994  44.903  1.00  0.00     0.180 C 
ATOM      2  C   UNL     1      20.405  33.509  45.363  1.00  0.00     0.177 C 
ATOM      3  C   UNL     1      21.861  33.255  45.842  1.00  0.00     0.180 C 
ATOM      4  C   UNL     1      22.905  33.800  44.814  1.00  0.00     0.214 C 
ATOM      5  C   UNL     1      22.264  34.492  43.587  1.00  0.00     0.339 C 
ATOM      6  O   UNL     1      21.254  35.413  43.933  1.00  0.00    -0.332 OA
ENDROOT
BRANCH   1   7
ATOM      7  C   UNL     1      18.863  35.368  44.407  1.00  0.00     0.198 C 
BRANCH   7   8
ATOM      8  O   UNL     1      18.408  34.709  43.202  1.00  0.00    -0.347 OA
BRANCH   8   9
ATOM      9  C   UNL     1      17.071  35.070  42.845  1.00  0.00     0.281 C 
ATOM     10  C   UNL     1      16.497  32.460  44.912  1.00  0.00     0.041 C 
ATOM     11  C   UNL     1      15.989  33.093  43.592  1.00  0.00     0.150 C 
ATOM     12  C   UNL     1      16.574  32.407  42.306  1.00  0.00     0.174 C 
ATOM     13  O   UNL     1      16.097  34.506  43.683  1.00  0.00    -0.344 OA
ATOM     14  C   UNL     1      16.604  33.312  41.053  1.00  0.00     0.179 C 
ATOM     15  C   UNL     1      16.760  34.832  41.375  1.00  0.00     0.202 C 
BRANCH  12  16
ATOM     16  O   UNL     1      17.805  31.785  42.559  1.00  0.00    -0.388 OA
ATOM     17  H   UNL     1      18.102  31.997  43.471  1.00  0.00     0.211 HD
ENDBRANCH  12  16
BRANCH  14  18
ATOM     18  O   UNL     1      17.660  32.908  40.207  1.00  0.00    -0.387 OA
ATOM     19  H   UNL     1      18.030  32.051  40.570  1.00  0.00     0.211 HD
ENDBRANCH  14  18
BRANCH  15  20
ATOM     20  O   UNL     1      15.543  35.487  41.080  1.00  0.00    -0.385 OA
ATOM     21  H   UNL     1      15.231  35.891  41.935  1.00  0.00     0.211 HD
ENDBRANCH  15  20
ENDBRANCH   8   9
ENDBRANCH   7   8
ENDBRANCH   1   7
BRANCH   2  22
ATOM     22  O   UNL     1      20.026  32.620  44.340  1.00  0.00    -0.387 OA
ATOM     23  H   UNL     1      20.490  31.744  44.484  1.00  0.00     0.211 HD
ENDBRANCH   2  22
BRANCH   3  24
ATOM     24  O   UNL     1      22.134  33.803  47.117  1.00  0.00    -0.387 OA
ATOM     25  H   UNL     1      21.762  33.243  47.840  1.00  0.00     0.211 HD
ENDBRANCH   3  24
BRANCH   5  26
ATOM     26  O   UNL     1      21.788  33.480  42.703  1.00  0.00    -0.462 OA
BRANCH  26  27
ATOM     27  C   UNL     1      21.715  33.532  41.298  1.00  0.00     0.130 A 
ATOM     28  C   UNL     1      22.669  32.923  40.451  1.00  0.00     0.093 A 
ATOM     29  C   UNL     1      20.679  34.270  40.711  1.00  0.00     0.094 A 
ATOM     30  C   UNL     1      22.692  33.184  39.078  1.00  0.00     0.133 A 
ATOM     31  C   UNL     1      20.605  34.414  39.321  1.00  0.00     0.138 A 
ATOM     32  C   UNL     1      21.662  33.973  38.507  1.00  0.00     0.102 A 
ATOM     33  O   UNL     1      19.462  34.966  38.740  1.00  0.00    -0.484 OA
ATOM     34  C   UNL     1      21.611  34.372  37.067  1.00  0.00     0.174 C 
ATOM     35  C   UNL     1      19.163  34.731  37.365  1.00  0.00     0.211 C 
ATOM     36  O   UNL     1      22.634  34.280  36.325  1.00  0.00    -0.294 OA
ATOM     37  C   UNL     1      20.393  35.059  36.517  1.00  0.00     0.131 C 
BRANCH  30  38
ATOM     38  O   UNL     1      23.722  32.652  38.317  1.00  0.00    -0.507 OA
ATOM     39  H   UNL     1      23.821  32.813  37.320  1.00  0.00     0.293 HD
ENDBRANCH  30  38
BRANCH  35  40
ATOM     40  C   UNL     1      17.946  35.504  36.949  1.00  0.00    -0.003 A 
ATOM     41  C   UNL     1      16.991  35.908  37.903  1.00  0.00     0.057 A 
ATOM     42  C   UNL     1      17.771  35.903  35.617  1.00  0.00     0.011 A 
ATOM     43  C   UNL     1      15.953  36.780  37.547  1.00  0.00     0.158 A 
ATOM     44  C   UNL     1      16.720  36.730  35.243  1.00  0.00     0.051 A 
ATOM     45  C   UNL     1      15.831  37.212  36.206  1.00  0.00     0.160 A 
BRANCH  43  46
ATOM     46  O   UNL     1      15.073  37.251  38.532  1.00  0.00    -0.504 OA
ATOM     47  H   UNL     1      14.069  37.192  38.441  1.00  0.00     0.293 HD
ENDBRANCH  43  46
BRANCH  45  48
ATOM     48  O   UNL     1      14.851  38.125  35.772  1.00  0.00    -0.493 OA
ATOM     49  C   UNL     1      13.555  37.783  35.326  1.00  0.00     0.278 C 
ENDBRANCH  45  48
ENDBRANCH  35  40
ENDBRANCH  26  27
ENDBRANCH   5  26
BRANCH   4  50
ATOM     50  O   UNL     1      23.780  34.693  45.456  1.00  0.00    -0.384 OA
ATOM     51  H   UNL     1      24.352  34.167  46.111  1.00  0.00     0.211 HD
ENDBRANCH   4  50
TORSDOF 15
ENDMDL
MODEL 9
REMARK VINA RESULT:    -4.672      2.066      3.548
REMARK INTER + INTRA:          -9.572
REMARK INTER:                  -6.167
REMARK INTRA:                  -3.405
REMARK UNBOUND:                -1.895
REMARK SMILES COc1ccc([C@H]2CC(=O)c3c(O)cc(O[C@H]4O[C@@H](CO[C@@H]5O[C@H](C)[C@H](O)[C@H](O)[C@H]5O)[C@@H](O)[C@H](O)[C@@H]4O)cc3O2)cc1O
REMARK SMILES IDX 19 1 32 2 34 3 36 4 17 5 18 6 20 7 21 8 22 9 25 10 24 11
REMARK SMILES IDX 26 12 23 13 28 14 30 15 27 16 29 18 31 20 33 22 35 24 16 26
REMARK SMILES IDX 15 27 14 28 38 29 12 30 39 31 11 32 40 33 9 34 7 35 10 36
REMARK SMILES IDX 8 37 13 38 6 40 41 41 5 42 42 43 4 44 3 45 43 46 2 48 1 49
REMARK SMILES IDX 37 50
REMARK H PARENT 27 17 29 19 31 21 33 23 35 25 13 39 43 47 37 51
REMARK Flexibility Score: inf
ROOT
ATOM      1  C   UNL     1      20.569  34.456  45.334  1.00  0.00     0.180 C 
ATOM      2  C   UNL     1      20.844  32.922  45.284  1.00  0.00     0.177 C 
ATOM      3  C   UNL     1      22.304  32.703  44.801  1.00  0.00     0.180 C 
ATOM      4  C   UNL     1      22.622  33.560  43.532  1.00  0.00     0.214 C 
ATOM      5  C   UNL     1      21.441  34.448  43.072  1.00  0.00     0.339 C 
ATOM      6  O   UNL     1      20.846  35.171  44.127  1.00  0.00    -0.332 OA
ENDROOT
BRANCH   1   7
ATOM      7  C   UNL     1      19.128  34.799  45.817  1.00  0.00     0.198 C 
BRANCH   7   8
ATOM      8  O   UNL     1      18.047  34.088  45.169  1.00  0.00    -0.347 OA
BRANCH   8   9
ATOM      9  C   UNL     1      16.797  34.250  45.845  1.00  0.00     0.281 C 
ATOM     10  C   UNL     1      17.701  31.173  46.906  1.00  0.00     0.041 C 
ATOM     11  C   UNL     1      16.459  31.980  46.454  1.00  0.00     0.150 C 
ATOM     12  C   UNL     1      16.073  31.739  44.951  1.00  0.00     0.174 C 
ATOM     13  O   UNL     1      16.598  33.326  46.882  1.00  0.00    -0.344 OA
ATOM     14  C   UNL     1      15.283  32.896  44.297  1.00  0.00     0.179 C 
ATOM     15  C   UNL     1      15.608  34.300  44.897  1.00  0.00     0.202 C 
BRANCH  12  16
ATOM     16  O   UNL     1      17.176  31.332  44.185  1.00  0.00    -0.388 OA
ATOM     17  H   UNL     1      17.347  30.375  44.335  1.00  0.00     0.211 HD
ENDBRANCH  12  16
BRANCH  14  18
ATOM     18  O   UNL     1      15.540  32.915  42.909  1.00  0.00    -0.387 OA
ATOM     19  H   UNL     1      16.477  33.244  42.778  1.00  0.00     0.211 HD
ENDBRANCH  14  18
BRANCH  15  20
ATOM     20  O   UNL     1      14.489  34.752  45.632  1.00  0.00    -0.385 OA
ATOM     21  H   UNL     1      13.805  34.032  45.566  1.00  0.00     0.211 HD
ENDBRANCH  15  20
ENDBRANCH   8   9
ENDBRANCH   7   8
ENDBRANCH   1   7
BRANCH   2  22
ATOM     22  O   UNL     1      19.913  32.256  44.465  1.00  0.00    -0.387 OA
ATOM     23  H   UNL     1      20.039  32.559  43.519  1.00  0.00     0.211 HD
ENDBRANCH   2  22
BRANCH   3  24
ATOM     24  O   UNL     1      23.270  32.972  45.798  1.00  0.00    -0.387 OA
ATOM     25  H   UNL     1      24.131  33.252  45.403  1.00  0.00     0.211 HD
ENDBRANCH   3  24
BRANCH   5  26
ATOM     26  O   UNL     1      20.502  33.622  42.389  1.00  0.00    -0.462 OA
BRANCH  26  27
ATOM     27  C   UNL     1      19.556  34.016  41.424  1.00  0.00     0.130 A 
ATOM     28  C   UNL     1      19.764  33.874  40.033  1.00  0.00     0.093 A 
ATOM     29  C   UNL     1      18.373  34.629  41.860  1.00  0.00     0.094 A 
ATOM     30  C   UNL     1      18.909  34.477  39.105  1.00  0.00     0.133 A 
ATOM     31  C   UNL     1      17.435  35.105  40.938  1.00  0.00     0.138 A 
ATOM     32  C   UNL     1      17.742  35.135  39.568  1.00  0.00     0.102 A 
ATOM     33  O   UNL     1      16.176  35.517  41.379  1.00  0.00    -0.484 OA
ATOM     34  C   UNL     1      16.787  35.868  38.682  1.00  0.00     0.174 C 
ATOM     35  C   UNL     1      15.077  35.582  40.472  1.00  0.00     0.211 C 
ATOM     36  O   UNL     1      17.109  36.200  37.503  1.00  0.00    -0.294 OA
ATOM     37  C   UNL     1      15.488  36.383  39.236  1.00  0.00     0.131 C 
BRANCH  30  38
ATOM     38  O   UNL     1      19.231  34.402  37.759  1.00  0.00    -0.507 OA
ATOM     39  H   UNL     1      18.936  35.091  37.075  1.00  0.00     0.293 HD
ENDBRANCH  30  38
BRANCH  35  40
ATOM     40  C   UNL     1      13.863  36.144  41.153  1.00  0.00    -0.003 A 
ATOM     41  C   UNL     1      13.409  35.603  42.372  1.00  0.00     0.057 A 
ATOM     42  C   UNL     1      13.201  37.262  40.629  1.00  0.00     0.011 A 
ATOM     43  C   UNL     1      12.390  36.237  43.097  1.00  0.00     0.158 A 
ATOM     44  C   UNL     1      12.160  37.873  41.316  1.00  0.00     0.051 A 
ATOM     45  C   UNL     1      11.775  37.397  42.571  1.00  0.00     0.160 A 
BRANCH  43  46
ATOM     46  O   UNL     1      12.022  35.742  44.356  1.00  0.00    -0.504 OA
ATOM     47  H   UNL     1      11.669  36.336  45.094  1.00  0.00     0.293 HD
ENDBRANCH  43  46
BRANCH  45  48
ATOM     48  O   UNL     1      10.781  38.125  43.254  1.00  0.00    -0.493 OA
ATOM     49  C   UNL     1       9.423  37.752  43.361  1.00  0.00     0.278 C 
ENDBRANCH  45  48
ENDBRANCH  35  40
ENDBRANCH  26  27
ENDBRANCH   5  26
BRANCH   4  50
ATOM     50  O   UNL     1      23.751  34.362  43.774  1.00  0.00    -0.384 OA
ATOM     51  H   UNL     1      23.823  34.521  44.774  1.00  0.00     0.211 HD
ENDBRANCH   4  50
TORSDOF 15
ENDMDL
