MODEL 1
REMARK VINA RESULT:    -3.578      0.000      0.000
REMARK INTER + INTRA:          -5.339
REMARK INTER:                  -4.833
REMARK INTRA:                  -0.506
REMARK UNBOUND:                -0.506
REMARK SMILES CCCCCCCC(=O)[O-]
REMARK SMILES IDX 5 1 6 2 7 3 8 4 9 5 10 6 4 7 3 8 2 9 1 10
REMARK H PARENT
REMARK Flexibility Score: inf
ROOT
ATOM      1  C   UNL     1      -9.158  -3.891 -15.314  1.00  0.00     0.000 C 
ENDROOT
BRANCH   1   2
ATOM      2  C   UNL     1     -10.301  -3.669 -16.316  1.00  0.00     0.006 C 
BRANCH   2   3
ATOM      3  C   UNL     1     -11.384  -4.752 -16.227  1.00  0.00     0.053 C 
BRANCH   3   4
ATOM      4  C   UNL     1     -12.454  -4.343 -15.265  1.00  0.00     0.041 C 
ATOM      5  O   UNL     1     -12.376  -4.674 -14.052  1.00  0.00    -0.550 OA
ATOM      6  O   UNL     1     -13.512  -3.555 -15.696  1.00  0.00    -0.550 OA
ENDBRANCH   3   4
ENDBRANCH   2   3
ENDBRANCH   1   2
BRANCH   1   7
ATOM      7  C   UNL     1      -8.685  -5.356 -15.273  1.00  0.00     0.000 C 
BRANCH   7   8
ATOM      8  C   UNL     1      -8.737  -5.954 -13.859  1.00  0.00    -0.000 C 
BRANCH   8   9
ATOM      9  C   UNL     1      -9.077  -7.451 -13.863  1.00  0.00    -0.003 C 
ATOM     10  C   UNL     1     -10.545  -7.681 -14.215  1.00  0.00     0.004 C 
ENDBRANCH   8   9
ENDBRANCH   7   8
ENDBRANCH   1   7
TORSDOF 6
ENDMDL
MODEL 2
REMARK VINA RESULT:    -3.563      7.228      8.260
REMARK INTER + INTRA:          -5.319
REMARK INTER:                  -5.187
REMARK INTRA:                  -0.132
REMARK UNBOUND:                -0.506
REMARK SMILES CCCCCCCC(=O)[O-]
REMARK SMILES IDX 5 1 6 2 7 3 8 4 9 5 10 6 4 7 3 8 2 9 1 10
REMARK H PARENT
REMARK Flexibility Score: inf
ROOT
ATOM      1  C   UNL     1      -6.929  -0.538 -10.897  1.00  0.00     0.000 C 
ENDROOT
BRANCH   1   2
ATOM      2  C   UNL     1      -6.593  -0.476  -9.399  1.00  0.00     0.006 C 
BRANCH   2   3
ATOM      3  C   UNL     1      -7.324   0.662  -8.677  1.00  0.00     0.053 C 
BRANCH   3   4
ATOM      4  C   UNL     1      -6.519   1.922  -8.735  1.00  0.00     0.041 C 
ATOM      5  O   UNL     1      -6.774   2.797  -9.604  1.00  0.00    -0.550 OA
ATOM      6  O   UNL     1      -5.520   2.151  -7.799  1.00  0.00    -0.550 OA
ENDBRANCH   3   4
ENDBRANCH   2   3
ENDBRANCH   1   2
BRANCH   1   7
ATOM      7  C   UNL     1      -7.254  -1.966 -11.371  1.00  0.00     0.000 C 
BRANCH   7   8
ATOM      8  C   UNL     1      -8.212  -1.986 -12.572  1.00  0.00    -0.000 C 
BRANCH   8   9
ATOM      9  C   UNL     1      -7.702  -2.869 -13.720  1.00  0.00    -0.003 C 
ATOM     10  C   UNL     1      -8.857  -3.571 -14.429  1.00  0.00     0.004 C 
ENDBRANCH   8   9
ENDBRANCH   7   8
ENDBRANCH   1   7
TORSDOF 6
ENDMDL
MODEL 3
REMARK VINA RESULT:    -3.558      1.889      3.304
REMARK INTER + INTRA:          -5.313
REMARK INTER:                  -5.021
REMARK INTRA:                  -0.291
REMARK UNBOUND:                -0.506
REMARK SMILES CCCCCCCC(=O)[O-]
REMARK SMILES IDX 5 1 6 2 7 3 8 4 9 5 10 6 4 7 3 8 2 9 1 10
REMARK H PARENT
REMARK Flexibility Score: inf
ROOT
ATOM      1  C   UNL     1      -8.888  -4.280 -15.373  1.00  0.00     0.000 C 
ENDROOT
BRANCH   1   2
ATOM      2  C   UNL     1     -10.054  -3.855 -16.280  1.00  0.00     0.006 C 
BRANCH   2   3
ATOM      3  C   UNL     1     -11.203  -4.871 -16.278  1.00  0.00     0.053 C 
BRANCH   3   4
ATOM      4  C   UNL     1     -12.284  -4.437 -15.339  1.00  0.00     0.041 C 
ATOM      5  O   UNL     1     -13.212  -3.688 -15.744  1.00  0.00    -0.550 OA
ATOM      6  O   UNL     1     -12.294  -4.899 -14.030  1.00  0.00    -0.550 OA
ENDBRANCH   3   4
ENDBRANCH   2   3
ENDBRANCH   1   2
BRANCH   1   7
ATOM      7  C   UNL     1      -8.824  -3.462 -14.071  1.00  0.00     0.000 C 
BRANCH   7   8
ATOM      8  C   UNL     1      -7.457  -2.790 -13.864  1.00  0.00    -0.000 C 
BRANCH   8   9
ATOM      9  C   UNL     1      -6.374  -3.355 -14.794  1.00  0.00    -0.003 C 
ATOM     10  C   UNL     1      -5.090  -2.534 -14.706  1.00  0.00     0.004 C 
ENDBRANCH   8   9
ENDBRANCH   7   8
ENDBRANCH   1   7
TORSDOF 6
ENDMDL
MODEL 4
REMARK VINA RESULT:    -3.552      8.743      9.670
REMARK INTER + INTRA:          -5.304
REMARK INTER:                  -4.726
REMARK INTRA:                  -0.578
REMARK UNBOUND:                -0.506
REMARK SMILES CCCCCCCC(=O)[O-]
REMARK SMILES IDX 5 1 6 2 7 3 8 4 9 5 10 6 4 7 3 8 2 9 1 10
REMARK H PARENT
REMARK Flexibility Score: inf
ROOT
ATOM      1  C   UNL     1      -6.744  -0.322  -9.674  1.00  0.00     0.000 C 
ENDROOT
BRANCH   1   2
ATOM      2  C   UNL     1      -7.359   0.821  -8.850  1.00  0.00     0.006 C 
BRANCH   2   3
ATOM      3  C   UNL     1      -6.565   2.128  -8.970  1.00  0.00     0.053 C 
BRANCH   3   4
ATOM      4  C   UNL     1      -7.149   2.998 -10.038  1.00  0.00     0.041 C 
ATOM      5  O   UNL     1      -6.733   2.911 -11.224  1.00  0.00    -0.550 OA
ATOM      6  O   UNL     1      -8.187   3.868  -9.734  1.00  0.00    -0.550 OA
ENDBRANCH   3   4
ENDBRANCH   2   3
ENDBRANCH   1   2
BRANCH   1   7
ATOM      7  C   UNL     1      -5.442  -0.862  -9.055  1.00  0.00     0.000 C 
BRANCH   7   8
ATOM      8  C   UNL     1      -4.283  -0.905 -10.063  1.00  0.00    -0.000 C 
BRANCH   8   9
ATOM      9  C   UNL     1      -4.494   0.051 -11.247  1.00  0.00    -0.003 C 
ATOM     10  C   UNL     1      -3.593   1.277 -11.130  1.00  0.00     0.004 C 
ENDBRANCH   8   9
ENDBRANCH   7   8
ENDBRANCH   1   7
TORSDOF 6
ENDMDL
MODEL 5
REMARK VINA RESULT:    -3.549      2.130      3.224
REMARK INTER + INTRA:          -5.300
REMARK INTER:                  -5.046
REMARK INTRA:                  -0.255
REMARK UNBOUND:                -0.506
REMARK SMILES CCCCCCCC(=O)[O-]
REMARK SMILES IDX 5 1 6 2 7 3 8 4 9 5 10 6 4 7 3 8 2 9 1 10
REMARK H PARENT
REMARK Flexibility Score: inf
ROOT
ATOM      1  C   UNL     1      -8.449  -4.379 -15.558  1.00  0.00     0.000 C 
ENDROOT
BRANCH   1   2
ATOM      2  C   UNL     1      -9.728  -3.730 -16.111  1.00  0.00     0.006 C 
BRANCH   2   3
ATOM      3  C   UNL     1     -10.829  -4.755 -16.408  1.00  0.00     0.053 C 
BRANCH   3   4
ATOM      4  C   UNL     1     -11.919  -4.663 -15.387  1.00  0.00     0.041 C 
ATOM      5  O   UNL     1     -11.787  -5.224 -14.267  1.00  0.00    -0.550 OA
ATOM      6  O   UNL     1     -13.058  -3.915 -15.653  1.00  0.00    -0.550 OA
ENDBRANCH   3   4
ENDBRANCH   2   3
ENDBRANCH   1   2
BRANCH   1   7
ATOM      7  C   UNL     1      -8.221  -4.059 -14.070  1.00  0.00     0.000 C 
BRANCH   7   8
ATOM      8  C   UNL     1      -7.741  -2.617 -13.843  1.00  0.00    -0.000 C 
BRANCH   8   9
ATOM      9  C   UNL     1      -8.376  -1.972 -12.603  1.00  0.00    -0.003 C 
ATOM     10  C   UNL     1      -7.326  -1.694 -11.530  1.00  0.00     0.004 C 
ENDBRANCH   8   9
ENDBRANCH   7   8
ENDBRANCH   1   7
TORSDOF 6
ENDMDL
MODEL 6
REMARK VINA RESULT:    -3.525      7.522      8.501
REMARK INTER + INTRA:          -5.267
REMARK INTER:                  -5.129
REMARK INTRA:                  -0.139
REMARK UNBOUND:                -0.506
REMARK SMILES CCCCCCCC(=O)[O-]
REMARK SMILES IDX 5 1 6 2 7 3 8 4 9 5 10 6 4 7 3 8 2 9 1 10
REMARK H PARENT
REMARK Flexibility Score: inf
ROOT
ATOM      1  C   UNL     1      -3.859  -2.691 -16.293  1.00  0.00     0.000 C 
ENDROOT
BRANCH   1   2
ATOM      2  C   UNL     1      -3.616  -1.532 -17.273  1.00  0.00     0.006 C 
BRANCH   2   3
ATOM      3  C   UNL     1      -3.136  -2.012 -18.648  1.00  0.00     0.053 C 
BRANCH   3   4
ATOM      4  C   UNL     1      -1.712  -1.612 -18.874  1.00  0.00     0.041 C 
ATOM      5  O   UNL     1      -1.128  -0.856 -18.053  1.00  0.00    -0.550 OA
ATOM      6  O   UNL     1      -1.014  -2.115 -19.963  1.00  0.00    -0.550 OA
ENDBRANCH   3   4
ENDBRANCH   2   3
ENDBRANCH   1   2
BRANCH   1   7
ATOM      7  C   UNL     1      -4.718  -2.273 -15.086  1.00  0.00     0.000 C 
BRANCH   7   8
ATOM      8  C   UNL     1      -5.765  -3.334 -14.711  1.00  0.00    -0.000 C 
BRANCH   8   9
ATOM      9  C   UNL     1      -7.043  -2.719 -14.121  1.00  0.00    -0.003 C 
ATOM     10  C   UNL     1      -8.282  -3.487 -14.574  1.00  0.00     0.004 C 
ENDBRANCH   8   9
ENDBRANCH   7   8
ENDBRANCH   1   7
TORSDOF 6
ENDMDL
MODEL 7
REMARK VINA RESULT:    -3.488      3.239      4.432
REMARK INTER + INTRA:          -5.218
REMARK INTER:                  -4.888
REMARK INTRA:                  -0.330
REMARK UNBOUND:                -0.506
REMARK SMILES CCCCCCCC(=O)[O-]
REMARK SMILES IDX 5 1 6 2 7 3 8 4 9 5 10 6 4 7 3 8 2 9 1 10
REMARK H PARENT
REMARK Flexibility Score: inf
ROOT
ATOM      1  C   UNL     1      -9.051  -4.507 -16.153  1.00  0.00     0.000 C 
ENDROOT
BRANCH   1   2
ATOM      2  C   UNL     1      -8.391  -4.445 -14.766  1.00  0.00     0.006 C 
BRANCH   2   3
ATOM      3  C   UNL     1      -8.904  -3.273 -13.920  1.00  0.00     0.053 C 
BRANCH   3   4
ATOM      4  C   UNL     1      -7.762  -2.555 -13.273  1.00  0.00     0.041 C 
ATOM      5  O   UNL     1      -6.584  -2.751 -13.671  1.00  0.00    -0.550 OA
ATOM      6  O   UNL     1      -8.005  -1.632 -12.265  1.00  0.00    -0.550 OA
ENDBRANCH   3   4
ENDBRANCH   2   3
ENDBRANCH   1   2
BRANCH   1   7
ATOM      7  C   UNL     1     -10.480  -3.936 -16.153  1.00  0.00     0.000 C 
BRANCH   7   8
ATOM      8  C   UNL     1     -11.544  -5.009 -15.872  1.00  0.00    -0.000 C 
BRANCH   8   9
ATOM      9  C   UNL     1     -12.403  -4.681 -14.643  1.00  0.00    -0.003 C 
ATOM     10  C   UNL     1     -13.678  -3.943 -15.044  1.00  0.00     0.004 C 
ENDBRANCH   8   9
ENDBRANCH   7   8
ENDBRANCH   1   7
TORSDOF 6
ENDMDL
MODEL 8
REMARK VINA RESULT:    -3.470      2.927      4.268
REMARK INTER + INTRA:          -5.193
REMARK INTER:                  -4.709
REMARK INTRA:                  -0.484
REMARK UNBOUND:                -0.506
REMARK SMILES CCCCCCCC(=O)[O-]
REMARK SMILES IDX 5 1 6 2 7 3 8 4 9 5 10 6 4 7 3 8 2 9 1 10
REMARK H PARENT
REMARK Flexibility Score: inf
ROOT
ATOM      1  C   UNL     1      -9.676  -3.861 -16.180  1.00  0.00     0.000 C 
ENDROOT
BRANCH   1   2
ATOM      2  C   UNL     1      -9.106  -3.546 -14.788  1.00  0.00     0.006 C 
BRANCH   2   3
ATOM      3  C   UNL     1      -7.613  -3.880 -14.672  1.00  0.00     0.053 C 
BRANCH   3   4
ATOM      4  C   UNL     1      -7.395  -5.354 -14.806  1.00  0.00     0.041 C 
ATOM      5  O   UNL     1      -7.906  -6.148 -13.973  1.00  0.00    -0.550 OA
ATOM      6  O   UNL     1      -6.668  -5.854 -15.878  1.00  0.00    -0.550 OA
ENDBRANCH   3   4
ENDBRANCH   2   3
ENDBRANCH   1   2
BRANCH   1   7
ATOM      7  C   UNL     1     -11.014  -4.618 -16.113  1.00  0.00     0.000 C 
BRANCH   7   8
ATOM      8  C   UNL     1     -11.313  -5.166 -14.709  1.00  0.00    -0.000 C 
BRANCH   8   9
ATOM      9  C   UNL     1     -12.621  -4.613 -14.125  1.00  0.00    -0.003 C 
ATOM     10  C   UNL     1     -13.462  -3.937 -15.204  1.00  0.00     0.004 C 
ENDBRANCH   8   9
ENDBRANCH   7   8
ENDBRANCH   1   7
TORSDOF 6
ENDMDL
MODEL 9
REMARK VINA RESULT:    -3.415      7.202      8.696
REMARK INTER + INTRA:          -5.118
REMARK INTER:                  -4.666
REMARK INTRA:                  -0.452
REMARK UNBOUND:                -0.506
REMARK SMILES CCCCCCCC(=O)[O-]
REMARK SMILES IDX 5 1 6 2 7 3 8 4 9 5 10 6 4 7 3 8 2 9 1 10
REMARK H PARENT
REMARK Flexibility Score: inf
ROOT
ATOM      1  C   UNL     1      -7.028  -0.036  -9.028  1.00  0.00     0.000 C 
ENDROOT
BRANCH   1   2
ATOM      2  C   UNL     1      -6.250  -1.165  -9.721  1.00  0.00     0.006 C 
BRANCH   2   3
ATOM      3  C   UNL     1      -6.450  -1.173 -11.241  1.00  0.00     0.053 C 
BRANCH   3   4
ATOM      4  C   UNL     1      -7.448  -2.217 -11.632  1.00  0.00     0.041 C 
ATOM      5  O   UNL     1      -8.407  -1.923 -12.393  1.00  0.00    -0.550 OA
ATOM      6  O   UNL     1      -7.291  -3.526 -11.195  1.00  0.00    -0.550 OA
ENDBRANCH   3   4
ENDBRANCH   2   3
ENDBRANCH   1   2
BRANCH   1   7
ATOM      7  C   UNL     1      -6.140   1.176  -8.694  1.00  0.00     0.000 C 
BRANCH   7   8
ATOM      8  C   UNL     1      -6.608   2.462  -9.393  1.00  0.00    -0.000 C 
BRANCH   8   9
ATOM      9  C   UNL     1      -6.265   2.478 -10.890  1.00  0.00    -0.003 C 
ATOM     10  C   UNL     1      -4.804   2.105 -11.123  1.00  0.00     0.004 C 
ENDBRANCH   8   9
ENDBRANCH   7   8
ENDBRANCH   1   7
TORSDOF 6
ENDMDL
