MODEL 1
REMARK VINA RESULT:    -3.313      0.000      0.000
REMARK INTER + INTRA:          -4.890
REMARK INTER:                  -4.475
REMARK INTRA:                  -0.415
REMARK UNBOUND:                -0.415
REMARK SMILES CCCCCCCC(=O)[O-]
REMARK SMILES IDX 5 1 6 2 7 3 8 4 9 5 10 6 4 7 3 8 2 9 1 10
REMARK H PARENT
REMARK Flexibility Score: inf
ROOT
ATOM      1  C   UNL     1      -1.653   9.292  36.794  1.00  0.00     0.000 C 
ENDROOT
BRANCH   1   2
ATOM      2  C   UNL     1      -1.005   7.900  36.743  1.00  0.00     0.006 C 
BRANCH   2   3
ATOM      3  C   UNL     1      -1.558   7.031  35.606  1.00  0.00     0.053 C 
BRANCH   3   4
ATOM      4  C   UNL     1      -0.483   6.725  34.613  1.00  0.00     0.041 C 
ATOM      5  O   UNL     1      -0.417   5.585  34.081  1.00  0.00    -0.550 OA
ATOM      6  O   UNL     1       0.418   7.713  34.236  1.00  0.00    -0.550 OA
ENDBRANCH   3   4
ENDBRANCH   2   3
ENDBRANCH   1   2
BRANCH   1   7
ATOM      7  C   UNL     1      -2.274   9.606  38.164  1.00  0.00     0.000 C 
BRANCH   7   8
ATOM      8  C   UNL     1      -1.813   8.594  39.221  1.00  0.00    -0.000 C 
BRANCH   8   9
ATOM      9  C   UNL     1      -3.010   7.998  39.971  1.00  0.00    -0.003 C 
ATOM     10  C   UNL     1      -3.172   6.514  39.660  1.00  0.00     0.004 C 
ENDBRANCH   8   9
ENDBRANCH   7   8
ENDBRANCH   1   7
TORSDOF 6
ENDMDL
MODEL 2
REMARK VINA RESULT:    -3.307      3.012      3.577
REMARK INTER + INTRA:          -4.882
REMARK INTER:                  -4.496
REMARK INTRA:                  -0.386
REMARK UNBOUND:                -0.415
REMARK SMILES CCCCCCCC(=O)[O-]
REMARK SMILES IDX 5 1 6 2 7 3 8 4 9 5 10 6 4 7 3 8 2 9 1 10
REMARK H PARENT
REMARK Flexibility Score: inf
ROOT
ATOM      1  C   UNL     1      -1.196   9.909  38.570  1.00  0.00     0.000 C 
ENDROOT
BRANCH   1   2
ATOM      2  C   UNL     1      -0.288   9.732  39.796  1.00  0.00     0.006 C 
BRANCH   2   3
ATOM      3  C   UNL     1       1.174  10.098  39.507  1.00  0.00     0.053 C 
BRANCH   3   4
ATOM      4  C   UNL     1       1.745   9.186  38.468  1.00  0.00     0.041 C 
ATOM      5  O   UNL     1       1.839   7.950  38.691  1.00  0.00    -0.550 OA
ATOM      6  O   UNL     1       2.127   9.693  37.232  1.00  0.00    -0.550 OA
ENDBRANCH   3   4
ENDBRANCH   2   3
ENDBRANCH   1   2
BRANCH   1   7
ATOM      7  C   UNL     1      -2.206   8.763  38.411  1.00  0.00     0.000 C 
BRANCH   7   8
ATOM      8  C   UNL     1      -2.759   8.326  39.773  1.00  0.00    -0.000 C 
BRANCH   8   9
ATOM      9  C   UNL     1      -3.130   6.838  39.765  1.00  0.00    -0.003 C 
ATOM     10  C   UNL     1      -2.158   6.032  38.910  1.00  0.00     0.004 C 
ENDBRANCH   8   9
ENDBRANCH   7   8
ENDBRANCH   1   7
TORSDOF 6
ENDMDL
MODEL 3
REMARK VINA RESULT:    -3.270      3.713      4.677
REMARK INTER + INTRA:          -4.832
REMARK INTER:                  -4.359
REMARK INTRA:                  -0.473
REMARK UNBOUND:                -0.415
REMARK SMILES CCCCCCCC(=O)[O-]
REMARK SMILES IDX 5 1 6 2 7 3 8 4 9 5 10 6 4 7 3 8 2 9 1 10
REMARK H PARENT
REMARK Flexibility Score: inf
ROOT
ATOM      1  C   UNL     1      -1.440   9.965  38.648  1.00  0.00     0.000 C 
ENDROOT
BRANCH   1   2
ATOM      2  C   UNL     1       0.080   9.737  38.645  1.00  0.00     0.006 C 
BRANCH   2   3
ATOM      3  C   UNL     1       0.739  10.124  39.975  1.00  0.00     0.053 C 
BRANCH   3   4
ATOM      4  C   UNL     1       0.468   9.084  41.014  1.00  0.00     0.041 C 
ATOM      5  O   UNL     1       0.710   7.871  40.776  1.00  0.00    -0.550 OA
ATOM      6  O   UNL     1      -0.005   9.458  42.266  1.00  0.00    -0.550 OA
ENDBRANCH   3   4
ENDBRANCH   2   3
ENDBRANCH   1   2
BRANCH   1   7
ATOM      7  C   UNL     1      -2.233   8.665  38.445  1.00  0.00     0.000 C 
BRANCH   7   8
ATOM      8  C   UNL     1      -2.920   8.232  39.746  1.00  0.00    -0.000 C 
BRANCH   8   9
ATOM      9  C   UNL     1      -3.159   6.718  39.765  1.00  0.00    -0.003 C 
ATOM     10  C   UNL     1      -2.113   5.984  38.932  1.00  0.00     0.004 C 
ENDBRANCH   8   9
ENDBRANCH   7   8
ENDBRANCH   1   7
TORSDOF 6
ENDMDL
MODEL 4
REMARK VINA RESULT:    -3.232      2.653      4.273
REMARK INTER + INTRA:          -4.780
REMARK INTER:                  -4.221
REMARK INTRA:                  -0.559
REMARK UNBOUND:                -0.415
REMARK SMILES CCCCCCCC(=O)[O-]
REMARK SMILES IDX 5 1 6 2 7 3 8 4 9 5 10 6 4 7 3 8 2 9 1 10
REMARK H PARENT
REMARK Flexibility Score: inf
ROOT
ATOM      1  C   UNL     1      -1.078   9.581  38.990  1.00  0.00     0.000 C 
ENDROOT
BRANCH   1   2
ATOM      2  C   UNL     1      -1.491   8.503  40.004  1.00  0.00     0.006 C 
BRANCH   2   3
ATOM      3  C   UNL     1      -2.902   7.958  39.748  1.00  0.00     0.053 C 
BRANCH   3   4
ATOM      4  C   UNL     1      -2.847   6.501  39.417  1.00  0.00     0.041 C 
ATOM      5  O   UNL     1      -3.862   5.774  39.586  1.00  0.00    -0.550 OA
ATOM      6  O   UNL     1      -1.692   5.954  38.873  1.00  0.00    -0.550 OA
ENDBRANCH   3   4
ENDBRANCH   2   3
ENDBRANCH   1   2
BRANCH   1   7
ATOM      7  C   UNL     1      -2.169   9.858  37.944  1.00  0.00     0.000 C 
BRANCH   7   8
ATOM      8  C   UNL     1      -1.616   9.711  36.521  1.00  0.00    -0.000 C 
BRANCH   8   9
ATOM      9  C   UNL     1      -0.773   8.438  36.387  1.00  0.00    -0.003 C 
ATOM     10  C   UNL     1      -1.534   7.349  35.637  1.00  0.00     0.004 C 
ENDBRANCH   8   9
ENDBRANCH   7   8
ENDBRANCH   1   7
TORSDOF 6
ENDMDL
MODEL 5
REMARK VINA RESULT:    -3.221      1.623      2.120
REMARK INTER + INTRA:          -4.765
REMARK INTER:                  -4.330
REMARK INTRA:                  -0.435
REMARK UNBOUND:                -0.415
REMARK SMILES CCCCCCCC(=O)[O-]
REMARK SMILES IDX 5 1 6 2 7 3 8 4 9 5 10 6 4 7 3 8 2 9 1 10
REMARK H PARENT
REMARK Flexibility Score: inf
ROOT
ATOM      1  C   UNL     1      -2.207   9.691  38.031  1.00  0.00     0.000 C 
ENDROOT
BRANCH   1   2
ATOM      2  C   UNL     1      -1.680   9.732  36.588  1.00  0.00     0.006 C 
BRANCH   2   3
ATOM      3  C   UNL     1      -0.783   8.534  36.251  1.00  0.00     0.053 C 
BRANCH   3   4
ATOM      4  C   UNL     1       0.534   9.001  35.720  1.00  0.00     0.041 C 
ATOM      5  O   UNL     1       1.457   9.328  36.513  1.00  0.00    -0.550 OA
ATOM      6  O   UNL     1       0.763   9.027  34.350  1.00  0.00    -0.550 OA
ENDBRANCH   3   4
ENDBRANCH   2   3
ENDBRANCH   1   2
BRANCH   1   7
ATOM      7  C   UNL     1      -1.102   9.392  39.056  1.00  0.00     0.000 C 
BRANCH   7   8
ATOM      8  C   UNL     1      -1.520   8.255  39.996  1.00  0.00    -0.000 C 
BRANCH   8   9
ATOM      9  C   UNL     1      -2.991   7.879  39.787  1.00  0.00    -0.003 C 
ATOM     10  C   UNL     1      -3.174   6.365  39.756  1.00  0.00     0.004 C 
ENDBRANCH   8   9
ENDBRANCH   7   8
ENDBRANCH   1   7
TORSDOF 6
ENDMDL
MODEL 6
REMARK VINA RESULT:    -3.207      1.766      2.682
REMARK INTER + INTRA:          -4.746
REMARK INTER:                  -4.280
REMARK INTRA:                  -0.466
REMARK UNBOUND:                -0.415
REMARK SMILES CCCCCCCC(=O)[O-]
REMARK SMILES IDX 5 1 6 2 7 3 8 4 9 5 10 6 4 7 3 8 2 9 1 10
REMARK H PARENT
REMARK Flexibility Score: inf
ROOT
ATOM      1  C   UNL     1      -1.170   9.192  39.258  1.00  0.00     0.000 C 
ENDROOT
BRANCH   1   2
ATOM      2  C   UNL     1      -2.258   9.557  38.236  1.00  0.00     0.006 C 
BRANCH   2   3
ATOM      3  C   UNL     1      -1.679  10.125  36.934  1.00  0.00     0.053 C 
BRANCH   3   4
ATOM      4  C   UNL     1      -0.943   9.062  36.182  1.00  0.00     0.041 C 
ATOM      5  O   UNL     1       0.275   9.213  35.900  1.00  0.00    -0.550 OA
ATOM      6  O   UNL     1      -1.589   7.881  35.836  1.00  0.00    -0.550 OA
ENDBRANCH   3   4
ENDBRANCH   2   3
ENDBRANCH   1   2
BRANCH   1   7
ATOM      7  C   UNL     1      -1.652   8.164  40.294  1.00  0.00     0.000 C 
BRANCH   7   8
ATOM      8  C   UNL     1      -3.061   7.662  39.954  1.00  0.00    -0.000 C 
BRANCH   8   9
ATOM      9  C   UNL     1      -3.084   6.135  39.821  1.00  0.00    -0.003 C 
ATOM     10  C   UNL     1      -2.405   5.684  38.532  1.00  0.00     0.004 C 
ENDBRANCH   8   9
ENDBRANCH   7   8
ENDBRANCH   1   7
TORSDOF 6
ENDMDL
MODEL 7
REMARK VINA RESULT:    -3.184      4.146      5.229
REMARK INTER + INTRA:          -4.715
REMARK INTER:                  -4.148
REMARK INTRA:                  -0.567
REMARK UNBOUND:                -0.415
REMARK SMILES CCCCCCCC(=O)[O-]
REMARK SMILES IDX 5 1 6 2 7 3 8 4 9 5 10 6 4 7 3 8 2 9 1 10
REMARK H PARENT
REMARK Flexibility Score: inf
ROOT
ATOM      1  C   UNL     1      -1.251   8.766  38.709  1.00  0.00     0.000 C 
ENDROOT
BRANCH   1   2
ATOM      2  C   UNL     1      -2.685   8.669  39.253  1.00  0.00     0.006 C 
BRANCH   2   3
ATOM      3  C   UNL     1      -3.011   7.281  39.817  1.00  0.00     0.053 C 
BRANCH   3   4
ATOM      4  C   UNL     1      -2.550   7.172  41.235  1.00  0.00     0.041 C 
ATOM      5  O   UNL     1      -3.107   7.852  42.137  1.00  0.00    -0.550 OA
ATOM      6  O   UNL     1      -1.538   6.281  41.572  1.00  0.00    -0.550 OA
ENDBRANCH   3   4
ENDBRANCH   2   3
ENDBRANCH   1   2
BRANCH   1   7
ATOM      7  C   UNL     1      -0.597  10.125  39.005  1.00  0.00     0.000 C 
BRANCH   7   8
ATOM      8  C   UNL     1       0.791   9.941  39.631  1.00  0.00    -0.000 C 
BRANCH   8   9
ATOM      9  C   UNL     1       0.778   8.826  40.683  1.00  0.00    -0.003 C 
ATOM     10  C   UNL     1       0.362   9.361  42.049  1.00  0.00     0.004 C 
ENDBRANCH   8   9
ENDBRANCH   7   8
ENDBRANCH   1   7
TORSDOF 6
ENDMDL
MODEL 8
REMARK VINA RESULT:    -3.164      3.351      4.877
REMARK INTER + INTRA:          -4.689
REMARK INTER:                  -4.059
REMARK INTRA:                  -0.630
REMARK UNBOUND:                -0.415
REMARK SMILES CCCCCCCC(=O)[O-]
REMARK SMILES IDX 5 1 6 2 7 3 8 4 9 5 10 6 4 7 3 8 2 9 1 10
REMARK H PARENT
REMARK Flexibility Score: inf
ROOT
ATOM      1  C   UNL     1      -1.691   7.440  38.866  1.00  0.00     0.000 C 
ENDROOT
BRANCH   1   2
ATOM      2  C   UNL     1      -0.703   7.277  40.031  1.00  0.00     0.006 C 
BRANCH   2   3
ATOM      3  C   UNL     1       0.693   7.822  39.703  1.00  0.00     0.053 C 
BRANCH   3   4
ATOM      4  C   UNL     1       0.824   9.237  40.168  1.00  0.00     0.041 C 
ATOM      5  O   UNL     1       1.328  10.109  39.412  1.00  0.00    -0.550 OA
ATOM      6  O   UNL     1       0.343   9.606  41.419  1.00  0.00    -0.550 OA
ENDBRANCH   3   4
ENDBRANCH   2   3
ENDBRANCH   1   2
BRANCH   1   7
ATOM      7  C   UNL     1      -2.585   8.680  39.017  1.00  0.00     0.000 C 
BRANCH   7   8
ATOM      8  C   UNL     1      -2.222   9.748  37.978  1.00  0.00    -0.000 C 
BRANCH   8   9
ATOM      9  C   UNL     1      -1.474   9.130  36.791  1.00  0.00    -0.003 C 
ATOM     10  C   UNL     1      -0.385  10.067  36.278  1.00  0.00     0.004 C 
ENDBRANCH   8   9
ENDBRANCH   7   8
ENDBRANCH   1   7
TORSDOF 6
ENDMDL
