MODEL 1
REMARK VINA RESULT:    -7.029      0.000      0.000
REMARK INTER + INTRA:         -12.535
REMARK INTER:                 -11.139
REMARK INTRA:                  -1.396
REMARK UNBOUND:                -1.396
REMARK SMILES C[C@@H]1O[C@@H](O[C@H]2CC[C@]3(C)[C@H](CC[C@@]4(C)[C@H]3C=C[C@]35OC[C@@]6(CCC(C)(C)C[C@@H]63)[C@@H](O)C[C@@]45C)[C@@]2(C)CO)[C@@H](O)[C@H](O[C@H]2O[C@@H](CO)[C@H](O)[C@@H](O)[C@H]2O)[C@@H]1O
REMARK SMILES IDX 1 1 2 2 54 3 41 4 39 5 4 6 3 7 55 8 42 10 43 11 52 12 44 13
REMARK SMILES IDX 50 14 45 15 48 16 53 17 51 19 46 21 47 22 49 24 5 26 6 27
REMARK SMILES IDX 7 28 35 29 8 30 11 31 36 32 9 33 12 34 10 35 16 36 13 37
REMARK SMILES IDX 14 38 17 39 15 40 33 41 18 42 19 43 32 44 34 45 29 46 20 47
REMARK SMILES IDX 30 48 22 49 28 50 21 51 23 52 25 53 24 54 26 55 27 56 37 57
REMARK SMILES IDX 38 58 31 60 40 62
REMARK H PARENT 55 9 53 18 51 20 47 23 49 25 38 59 31 61 40 63
REMARK Flexibility Score: inf
ROOT
ATOM      1  C   UNL     1       8.869 -21.713  29.451  1.00  0.00     0.041 C 
ATOM      2  C   UNL     1       9.951 -22.654  30.002  1.00  0.00     0.150 C 
ATOM      3  C   UNL     1      10.107 -22.635  31.561  1.00  0.00     0.175 C 
ATOM      4  C   UNL     1      10.227 -24.108  32.043  1.00  0.00     0.186 C 
ATOM      5  C   UNL     1       8.882 -24.768  31.642  1.00  0.00     0.202 C 
ATOM      6  C   UNL     1       8.732 -24.689  30.071  1.00  0.00     0.282 C 
ATOM      7  O   UNL     1       9.829 -23.977  29.506  1.00  0.00    -0.344 OA
ENDROOT
BRANCH   3   8
ATOM      8  O   UNL     1       9.013 -21.975  32.156  1.00  0.00    -0.388 OA
ATOM      9  H   UNL     1       8.589 -21.412  31.458  1.00  0.00     0.211 HD
ENDBRANCH   3   8
BRANCH   4  10
ATOM     10  O   UNL     1      10.511 -24.199  33.443  1.00  0.00    -0.341 OA
BRANCH  10  11
ATOM     11  C   UNL     1      11.907 -24.410  33.691  1.00  0.00     0.282 C 
ATOM     12  C   UNL     1      12.148 -25.292  34.923  1.00  0.00     0.202 C 
ATOM     13  O   UNL     1      12.614 -23.176  33.751  1.00  0.00    -0.341 OA
ATOM     14  C   UNL     1      11.743 -24.571  36.200  1.00  0.00     0.179 C 
ATOM     15  C   UNL     1      12.399 -22.410  34.936  1.00  0.00     0.178 C 
ATOM     16  C   UNL     1      12.472 -23.207  36.275  1.00  0.00     0.177 C 
BRANCH  12  17
ATOM     17  O   UNL     1      11.453 -26.506  34.807  1.00  0.00    -0.385 OA
ATOM     18  H   UNL     1      11.906 -27.052  34.109  1.00  0.00     0.211 HD
ENDBRANCH  12  17
BRANCH  14  19
ATOM     19  O   UNL     1      10.336 -24.486  36.298  1.00  0.00    -0.387 OA
ATOM     20  H   UNL     1       9.927 -24.771  35.447  1.00  0.00     0.211 HD
ENDBRANCH  14  19
BRANCH  15  21
ATOM     21  C   UNL     1      11.180 -21.469  34.794  1.00  0.00     0.191 C 
BRANCH  21  22
ATOM     22  O   UNL     1      10.003 -22.152  35.141  1.00  0.00    -0.394 OA
ATOM     23  H   UNL     1      10.268 -23.068  35.414  1.00  0.00     0.210 HD
ENDBRANCH  21  22
ENDBRANCH  15  21
BRANCH  16  24
ATOM     24  O   UNL     1      13.826 -23.442  36.570  1.00  0.00    -0.387 OA
ATOM     25  H   UNL     1      14.179 -22.622  37.002  1.00  0.00     0.211 HD
ENDBRANCH  16  24
ENDBRANCH  10  11
ENDBRANCH   4  10
BRANCH   6  26
ATOM     26  O   UNL     1       8.666 -26.026  29.592  1.00  0.00    -0.346 OA
BRANCH  26  27
ATOM     27  C   UNL     1       8.872 -26.341  28.208  1.00  0.00     0.130 C 
ATOM     28  C   UNL     1       9.585 -25.331  27.261  1.00  0.00     0.033 C 
ATOM     29  C   UNL     1       9.526 -27.761  28.143  1.00  0.00     0.020 C 
ATOM     30  C   UNL     1       9.588 -25.768  25.764  1.00  0.00     0.010 C 
ATOM     31  C   UNL     1       9.916 -28.136  26.656  1.00  0.00     0.006 C 
ATOM     32  C   UNL     1       8.508 -28.764  28.773  1.00  0.00     0.017 C 
ATOM     33  C   UNL     1       9.272 -27.285  25.496  1.00  0.00    -0.022 C 
ATOM     34  C   UNL     1       9.869 -29.662  26.360  1.00  0.00     0.005 C 
ATOM     35  C   UNL     1       7.712 -27.430  25.400  1.00  0.00     0.012 C 
ATOM     36  C   UNL     1       9.998 -27.730  24.150  1.00  0.00     0.024 C 
ATOM     37  C   UNL     1      10.600 -30.022  25.061  1.00  0.00     0.008 C 
ATOM     38  C   UNL     1      10.070 -29.276  23.794  1.00  0.00    -0.017 C 
ATOM     39  C   UNL     1       9.624 -26.957  22.901  1.00  0.00    -0.024 C 
ATOM     40  C   UNL     1       8.613 -29.809  23.546  1.00  0.00     0.013 C 
ATOM     41  C   UNL     1      11.027 -29.531  22.454  1.00  0.00     0.009 C 
ATOM     42  C   UNL     1      10.300 -27.195  21.761  1.00  0.00     0.005 C 
ATOM     43  C   UNL     1      11.492 -28.140  21.797  1.00  0.00     0.096 C 
ATOM     44  C   UNL     1      12.348 -30.336  22.746  1.00  0.00     0.043 C 
ATOM     45  C   UNL     1      10.264 -30.406  21.389  1.00  0.00     0.015 C 
ATOM     46  C   UNL     1      12.219 -28.354  20.430  1.00  0.00     0.037 C 
ATOM     47  O   UNL     1      12.491 -27.537  22.624  1.00  0.00    -0.369 OA
ATOM     48  C   UNL     1      13.379 -30.305  21.577  1.00  0.00     0.124 C 
ATOM     49  C   UNL     1      13.551 -28.862  20.967  1.00  0.00     0.026 C 
ATOM     50  C   UNL     1      12.369 -27.055  19.589  1.00  0.00     0.014 C 
ATOM     51  C   UNL     1      13.766 -27.861  22.108  1.00  0.00     0.171 C 
ATOM     52  C   UNL     1      14.692 -28.857  19.920  1.00  0.00     0.013 C 
ATOM     53  C   UNL     1      13.437 -27.142  18.474  1.00  0.00    -0.035 C 
ATOM     54  C   UNL     1      14.791 -27.565  19.094  1.00  0.00     0.007 C 
ATOM     55  C   UNL     1      13.014 -28.130  17.358  1.00  0.00     0.011 C 
ATOM     56  C   UNL     1      13.618 -25.748  17.841  1.00  0.00     0.011 C 
BRANCH  29  57
ATOM     57  C   UNL     1      10.817 -27.755  29.036  1.00  0.00     0.165 C 
BRANCH  57  58
ATOM     58  O   UNL     1      10.523 -28.034  30.379  1.00  0.00    -0.396 OA
ATOM     59  H   UNL     1      10.349 -29.014  30.443  1.00  0.00     0.210 HD
ENDBRANCH  57  58
ENDBRANCH  29  57
BRANCH  48  60
ATOM     60  O   UNL     1      14.620 -30.760  22.057  1.00  0.00    -0.392 OA
ATOM     61  H   UNL     1      14.920 -30.092  22.724  1.00  0.00     0.210 HD
ENDBRANCH  48  60
ENDBRANCH  26  27
ENDBRANCH   6  26
BRANCH   5  62
ATOM     62  O   UNL     1       8.790 -26.086  32.137  1.00  0.00    -0.385 OA
ATOM     63  H   UNL     1       8.441 -26.038  33.062  1.00  0.00     0.211 HD
ENDBRANCH   5  62
TORSDOF 14
ENDMDL
MODEL 2
REMARK VINA RESULT:    -6.572      1.746      2.087
REMARK INTER + INTRA:         -11.811
REMARK INTER:                 -10.317
REMARK INTRA:                  -1.493
REMARK UNBOUND:                -1.396
REMARK SMILES C[C@@H]1O[C@@H](O[C@H]2CC[C@]3(C)[C@H](CC[C@@]4(C)[C@H]3C=C[C@]35OC[C@@]6(CCC(C)(C)C[C@@H]63)[C@@H](O)C[C@@]45C)[C@@]2(C)CO)[C@@H](O)[C@H](O[C@H]2O[C@@H](CO)[C@H](O)[C@@H](O)[C@H]2O)[C@@H]1O
REMARK SMILES IDX 1 1 2 2 54 3 41 4 39 5 4 6 3 7 55 8 42 10 43 11 52 12 44 13
REMARK SMILES IDX 50 14 45 15 48 16 53 17 51 19 46 21 47 22 49 24 5 26 6 27
REMARK SMILES IDX 7 28 35 29 8 30 11 31 36 32 9 33 12 34 10 35 16 36 13 37
REMARK SMILES IDX 14 38 17 39 15 40 33 41 18 42 19 43 32 44 34 45 29 46 20 47
REMARK SMILES IDX 30 48 22 49 28 50 21 51 23 52 25 53 24 54 26 55 27 56 37 57
REMARK SMILES IDX 38 58 31 60 40 62
REMARK H PARENT 55 9 53 18 51 20 47 23 49 25 38 59 31 61 40 63
REMARK Flexibility Score: inf
ROOT
ATOM      1  C   UNL     1       8.957 -22.118  29.895  1.00  0.00     0.041 C 
ATOM      2  C   UNL     1      10.219 -22.779  30.468  1.00  0.00     0.150 C 
ATOM      3  C   UNL     1      10.281 -22.831  32.033  1.00  0.00     0.175 C 
ATOM      4  C   UNL     1      10.762 -24.251  32.442  1.00  0.00     0.186 C 
ATOM      5  C   UNL     1       9.664 -25.210  31.913  1.00  0.00     0.202 C 
ATOM      6  C   UNL     1       9.582 -25.063  30.342  1.00  0.00     0.282 C 
ATOM      7  O   UNL     1      10.479 -24.050  29.894  1.00  0.00    -0.344 OA
ENDROOT
BRANCH   3   8
ATOM      8  O   UNL     1       9.022 -22.524  32.585  1.00  0.00    -0.388 OA
ATOM      9  H   UNL     1       8.516 -23.374  32.667  1.00  0.00     0.211 HD
ENDBRANCH   3   8
BRANCH   4  10
ATOM     10  O   UNL     1      10.985 -24.363  33.852  1.00  0.00    -0.341 OA
BRANCH  10  11
ATOM     11  C   UNL     1      12.370 -24.576  34.156  1.00  0.00     0.282 C 
ATOM     12  C   UNL     1      12.559 -25.469  35.391  1.00  0.00     0.202 C 
ATOM     13  O   UNL     1      13.073 -23.344  34.256  1.00  0.00    -0.341 OA
ATOM     14  C   UNL     1      12.100 -24.757  36.655  1.00  0.00     0.179 C 
ATOM     15  C   UNL     1      12.809 -22.587  35.437  1.00  0.00     0.178 C 
ATOM     16  C   UNL     1      12.825 -23.394  36.772  1.00  0.00     0.177 C 
BRANCH  12  17
ATOM     17  O   UNL     1      11.869 -26.681  35.236  1.00  0.00    -0.385 OA
ATOM     18  H   UNL     1      12.379 -27.243  34.592  1.00  0.00     0.211 HD
ENDBRANCH  12  17
BRANCH  14  19
ATOM     19  O   UNL     1      10.690 -24.672  36.694  1.00  0.00    -0.387 OA
ATOM     20  H   UNL     1      10.416 -23.725  36.710  1.00  0.00     0.211 HD
ENDBRANCH  14  19
BRANCH  15  21
ATOM     21  C   UNL     1      11.597 -21.645  35.251  1.00  0.00     0.191 C 
BRANCH  21  22
ATOM     22  O   UNL     1      10.669 -21.844  36.286  1.00  0.00    -0.394 OA
ATOM     23  H   UNL     1       9.795 -21.503  35.963  1.00  0.00     0.210 HD
ENDBRANCH  21  22
ENDBRANCH  15  21
BRANCH  16  24
ATOM     24  O   UNL     1      14.165 -23.632  37.121  1.00  0.00    -0.387 OA
ATOM     25  H   UNL     1      14.521 -22.793  37.511  1.00  0.00     0.211 HD
ENDBRANCH  16  24
ENDBRANCH  10  11
ENDBRANCH   4  10
BRANCH   6  26
ATOM     26  O   UNL     1       9.899 -26.333  29.788  1.00  0.00    -0.346 OA
BRANCH  26  27
ATOM     27  C   UNL     1       9.488 -26.701  28.464  1.00  0.00     0.130 C 
ATOM     28  C   UNL     1       9.455 -25.645  27.320  1.00  0.00     0.033 C 
ATOM     29  C   UNL     1      10.302 -27.974  28.058  1.00  0.00     0.020 C 
ATOM     30  C   UNL     1       8.840 -26.178  25.990  1.00  0.00     0.010 C 
ATOM     31  C   UNL     1      10.013 -28.374  26.554  1.00  0.00     0.006 C 
ATOM     32  C   UNL     1       9.922 -29.103  29.068  1.00  0.00     0.017 C 
ATOM     33  C   UNL     1       8.744 -27.743  25.863  1.00  0.00    -0.022 C 
ATOM     34  C   UNL     1      10.136 -29.898  26.274  1.00  0.00     0.005 C 
ATOM     35  C   UNL     1       7.387 -28.184  26.515  1.00  0.00     0.012 C 
ATOM     36  C   UNL     1       8.824 -28.137  24.322  1.00  0.00     0.024 C 
ATOM     37  C   UNL     1      10.226 -30.206  24.775  1.00  0.00     0.008 C 
ATOM     38  C   UNL     1       9.026 -29.664  23.932  1.00  0.00    -0.017 C 
ATOM     39  C   UNL     1       7.762 -27.540  23.421  1.00  0.00    -0.024 C 
ATOM     40  C   UNL     1       7.762 -30.478  24.391  1.00  0.00     0.013 C 
ATOM     41  C   UNL     1       9.270 -29.830  22.292  1.00  0.00     0.009 C 
ATOM     42  C   UNL     1       7.854 -27.727  22.092  1.00  0.00     0.005 C 
ATOM     43  C   UNL     1       9.083 -28.426  21.531  1.00  0.00     0.096 C 
ATOM     44  C   UNL     1      10.703 -30.350  21.900  1.00  0.00     0.043 C 
ATOM     45  C   UNL     1       8.287 -30.905  21.694  1.00  0.00     0.015 C 
ATOM     46  C   UNL     1       9.109 -28.596  19.978  1.00  0.00     0.037 C 
ATOM     47  O   UNL     1      10.212 -27.589  21.801  1.00  0.00    -0.369 OA
ATOM     48  C   UNL     1      11.034 -30.209  20.383  1.00  0.00     0.124 C 
ATOM     49  C   UNL     1      10.608 -28.805  19.804  1.00  0.00     0.026 C 
ATOM     50  C   UNL     1       8.584 -27.354  19.203  1.00  0.00     0.014 C 
ATOM     51  C   UNL     1      11.130 -27.704  20.733  1.00  0.00     0.171 C 
ATOM     52  C   UNL     1      11.095 -28.660  18.341  1.00  0.00     0.013 C 
ATOM     53  C   UNL     1       8.996 -27.318  17.712  1.00  0.00    -0.035 C 
ATOM     54  C   UNL     1      10.535 -27.435  17.603  1.00  0.00     0.007 C 
ATOM     55  C   UNL     1       8.303 -28.445  16.905  1.00  0.00     0.011 C 
ATOM     56  C   UNL     1       8.576 -25.964  17.107  1.00  0.00     0.011 C 
BRANCH  29  57
ATOM     57  C   UNL     1      11.831 -27.663  28.230  1.00  0.00     0.165 C 
BRANCH  57  58
ATOM     58  O   UNL     1      12.511 -27.701  27.004  1.00  0.00    -0.396 OA
ATOM     59  H   UNL     1      12.958 -28.591  26.946  1.00  0.00     0.210 HD
ENDBRANCH  57  58
ENDBRANCH  29  57
BRANCH  48  60
ATOM     60  O   UNL     1      12.417 -30.387  20.204  1.00  0.00    -0.392 OA
ATOM     61  H   UNL     1      12.629 -30.024  19.308  1.00  0.00     0.210 HD
ENDBRANCH  48  60
ENDBRANCH  26  27
ENDBRANCH   6  26
BRANCH   5  62
ATOM     62  O   UNL     1       9.899 -26.538  32.329  1.00  0.00    -0.385 OA
ATOM     63  H   UNL     1       9.050 -27.038  32.239  1.00  0.00     0.211 HD
ENDBRANCH   5  62
TORSDOF 14
ENDMDL
MODEL 3
REMARK VINA RESULT:    -6.313      1.999      3.916
REMARK INTER + INTRA:         -11.400
REMARK INTER:                  -9.961
REMARK INTRA:                  -1.439
REMARK UNBOUND:                -1.396
REMARK SMILES C[C@@H]1O[C@@H](O[C@H]2CC[C@]3(C)[C@H](CC[C@@]4(C)[C@H]3C=C[C@]35OC[C@@]6(CCC(C)(C)C[C@@H]63)[C@@H](O)C[C@@]45C)[C@@]2(C)CO)[C@@H](O)[C@H](O[C@H]2O[C@@H](CO)[C@H](O)[C@@H](O)[C@H]2O)[C@@H]1O
REMARK SMILES IDX 1 1 2 2 54 3 41 4 39 5 4 6 3 7 55 8 42 10 43 11 52 12 44 13
REMARK SMILES IDX 50 14 45 15 48 16 53 17 51 19 46 21 47 22 49 24 5 26 6 27
REMARK SMILES IDX 7 28 35 29 8 30 11 31 36 32 9 33 12 34 10 35 16 36 13 37
REMARK SMILES IDX 14 38 17 39 15 40 33 41 18 42 19 43 32 44 34 45 29 46 20 47
REMARK SMILES IDX 30 48 22 49 28 50 21 51 23 52 25 53 24 54 26 55 27 56 37 57
REMARK SMILES IDX 38 58 31 60 40 62
REMARK H PARENT 55 9 53 18 51 20 47 23 49 25 38 59 31 61 40 63
REMARK Flexibility Score: inf
ROOT
ATOM      1  C   UNL     1       9.488 -29.641  30.356  1.00  0.00     0.041 C 
ATOM      2  C   UNL     1       8.676 -28.355  30.569  1.00  0.00     0.150 C 
ATOM      3  C   UNL     1       9.153 -27.469  31.771  1.00  0.00     0.175 C 
ATOM      4  C   UNL     1       9.175 -25.991  31.290  1.00  0.00     0.186 C 
ATOM      5  C   UNL     1      10.223 -25.960  30.147  1.00  0.00     0.202 C 
ATOM      6  C   UNL     1       9.740 -26.930  28.997  1.00  0.00     0.282 C 
ATOM      7  O   UNL     1       8.538 -27.592  29.382  1.00  0.00    -0.344 OA
ENDROOT
BRANCH   3   8
ATOM      8  O   UNL     1      10.419 -27.893  32.222  1.00  0.00    -0.388 OA
ATOM      9  H   UNL     1      10.429 -28.885  32.193  1.00  0.00     0.211 HD
ENDBRANCH   3   8
BRANCH   4  10
ATOM     10  O   UNL     1       9.467 -25.079  32.355  1.00  0.00    -0.341 OA
BRANCH  10  11
ATOM     11  C   UNL     1      10.863 -24.753  32.409  1.00  0.00     0.282 C 
ATOM     12  C   UNL     1      11.458 -24.994  33.803  1.00  0.00     0.202 C 
ATOM     13  O   UNL     1      11.105 -23.437  31.928  1.00  0.00    -0.341 OA
ATOM     14  C   UNL     1      10.900 -24.005  34.815  1.00  0.00     0.179 C 
ATOM     15  C   UNL     1      10.705 -22.385  32.806  1.00  0.00     0.178 C 
ATOM     16  C   UNL     1      11.119 -22.561  34.300  1.00  0.00     0.177 C 
BRANCH  12  17
ATOM     17  O   UNL     1      11.216 -26.311  34.224  1.00  0.00    -0.385 OA
ATOM     18  H   UNL     1      10.842 -26.815  33.452  1.00  0.00     0.211 HD
ENDBRANCH  12  17
BRANCH  14  19
ATOM     19  O   UNL     1       9.556 -24.315  35.125  1.00  0.00    -0.387 OA
ATOM     20  H   UNL     1       9.308 -23.893  35.981  1.00  0.00     0.211 HD
ENDBRANCH  14  19
BRANCH  15  21
ATOM     21  C   UNL     1       9.231 -21.978  32.574  1.00  0.00     0.191 C 
BRANCH  21  22
ATOM     22  O   UNL     1       8.837 -22.318  31.270  1.00  0.00    -0.394 OA
ATOM     23  H   UNL     1       8.830 -23.310  31.218  1.00  0.00     0.210 HD
ENDBRANCH  21  22
ENDBRANCH  15  21
BRANCH  16  24
ATOM     24  O   UNL     1      12.485 -22.252  34.413  1.00  0.00    -0.387 OA
ATOM     25  H   UNL     1      12.615 -21.812  35.293  1.00  0.00     0.211 HD
ENDBRANCH  16  24
ENDBRANCH  10  11
ENDBRANCH   4  10
BRANCH   6  26
ATOM     26  O   UNL     1       9.556 -26.135  27.833  1.00  0.00    -0.346 OA
BRANCH  26  27
ATOM     27  C   UNL     1      10.366 -26.314  26.662  1.00  0.00     0.130 C 
ATOM     28  C   UNL     1      11.399 -27.476  26.582  1.00  0.00     0.033 C 
ATOM     29  C   UNL     1       9.410 -26.297  25.424  1.00  0.00     0.020 C 
ATOM     30  C   UNL     1      12.298 -27.431  25.308  1.00  0.00     0.010 C 
ATOM     31  C   UNL     1      10.203 -26.626  24.094  1.00  0.00     0.006 C 
ATOM     32  C   UNL     1       8.726 -24.894  25.390  1.00  0.00     0.017 C 
ATOM     33  C   UNL     1      11.775 -26.520  24.138  1.00  0.00    -0.022 C 
ATOM     34  C   UNL     1       9.605 -25.956  22.824  1.00  0.00     0.005 C 
ATOM     35  C   UNL     1      12.302 -25.066  24.402  1.00  0.00     0.012 C 
ATOM     36  C   UNL     1      12.307 -27.107  22.756  1.00  0.00     0.024 C 
ATOM     37  C   UNL     1      10.145 -26.580  21.532  1.00  0.00     0.008 C 
ATOM     38  C   UNL     1      11.703 -26.542  21.400  1.00  0.00    -0.017 C 
ATOM     39  C   UNL     1      13.812 -27.220  22.610  1.00  0.00    -0.024 C 
ATOM     40  C   UNL     1      12.097 -25.026  21.261  1.00  0.00     0.013 C 
ATOM     41  C   UNL     1      12.255 -27.417  20.094  1.00  0.00     0.009 C 
ATOM     42  C   UNL     1      14.318 -27.830  21.523  1.00  0.00     0.005 C 
ATOM     43  C   UNL     1      13.363 -28.492  20.541  1.00  0.00     0.096 C 
ATOM     44  C   UNL     1      11.138 -28.231  19.341  1.00  0.00     0.043 C 
ATOM     45  C   UNL     1      12.846 -26.455  18.995  1.00  0.00     0.015 C 
ATOM     46  C   UNL     1      14.037 -29.182  19.311  1.00  0.00     0.037 C 
ATOM     47  O   UNL     1      12.723 -29.572  21.228  1.00  0.00    -0.369 OA
ATOM     48  C   UNL     1      11.693 -29.279  18.329  1.00  0.00     0.124 C 
ATOM     49  C   UNL     1      12.893 -30.110  18.925  1.00  0.00     0.026 C 
ATOM     50  C   UNL     1      15.342 -29.952  19.661  1.00  0.00     0.014 C 
ATOM     51  C   UNL     1      12.502 -30.627  20.313  1.00  0.00     0.171 C 
ATOM     52  C   UNL     1      13.304 -31.235  17.942  1.00  0.00     0.013 C 
ATOM     53  C   UNL     1      15.777 -30.978  18.589  1.00  0.00    -0.035 C 
ATOM     54  C   UNL     1      14.610 -31.955  18.310  1.00  0.00     0.007 C 
ATOM     55  C   UNL     1      16.228 -30.278  17.282  1.00  0.00     0.011 C 
ATOM     56  C   UNL     1      16.966 -31.798  19.131  1.00  0.00     0.011 C 
BRANCH  29  57
ATOM     57  C   UNL     1       8.292 -27.377  25.645  1.00  0.00     0.165 C 
BRANCH  57  58
ATOM     58  O   UNL     1       7.311 -26.935  26.545  1.00  0.00    -0.396 OA
ATOM     59  H   UNL     1       6.577 -26.532  26.003  1.00  0.00     0.210 HD
ENDBRANCH  57  58
ENDBRANCH  29  57
BRANCH  48  60
ATOM     60  O   UNL     1      10.653 -30.154  17.970  1.00  0.00    -0.392 OA
ATOM     61  H   UNL     1      10.469 -30.709  18.769  1.00  0.00     0.210 HD
ENDBRANCH  48  60
ENDBRANCH  26  27
ENDBRANCH   6  26
BRANCH   5  62
ATOM     62  O   UNL     1      10.450 -24.643  29.696  1.00  0.00    -0.385 OA
ATOM     63  H   UNL     1      11.283 -24.317  30.119  1.00  0.00     0.211 HD
ENDBRANCH   5  62
TORSDOF 14
ENDMDL
MODEL 4
REMARK VINA RESULT:    -5.307      2.090      3.516
REMARK INTER + INTRA:          -9.805
REMARK INTER:                  -9.025
REMARK INTRA:                  -0.780
REMARK UNBOUND:                -1.396
REMARK SMILES C[C@@H]1O[C@@H](O[C@H]2CC[C@]3(C)[C@H](CC[C@@]4(C)[C@H]3C=C[C@]35OC[C@@]6(CCC(C)(C)C[C@@H]63)[C@@H](O)C[C@@]45C)[C@@]2(C)CO)[C@@H](O)[C@H](O[C@H]2O[C@@H](CO)[C@H](O)[C@@H](O)[C@H]2O)[C@@H]1O
REMARK SMILES IDX 1 1 2 2 54 3 41 4 39 5 4 6 3 7 55 8 42 10 43 11 52 12 44 13
REMARK SMILES IDX 50 14 45 15 48 16 53 17 51 19 46 21 47 22 49 24 5 26 6 27
REMARK SMILES IDX 7 28 35 29 8 30 11 31 36 32 9 33 12 34 10 35 16 36 13 37
REMARK SMILES IDX 14 38 17 39 15 40 33 41 18 42 19 43 32 44 34 45 29 46 20 47
REMARK SMILES IDX 30 48 22 49 28 50 21 51 23 52 25 53 24 54 26 55 27 56 37 57
REMARK SMILES IDX 38 58 31 60 40 62
REMARK H PARENT 55 9 53 18 51 20 47 23 49 25 38 59 31 61 40 63
REMARK Flexibility Score: inf
ROOT
ATOM      1  C   UNL     1       9.469 -21.879  33.487  1.00  0.00     0.041 C 
ATOM      2  C   UNL     1      10.617 -22.697  32.876  1.00  0.00     0.150 C 
ATOM      3  C   UNL     1      11.854 -22.896  33.817  1.00  0.00     0.175 C 
ATOM      4  C   UNL     1      12.292 -24.383  33.716  1.00  0.00     0.186 C 
ATOM      5  C   UNL     1      11.078 -25.192  34.242  1.00  0.00     0.202 C 
ATOM      6  C   UNL     1       9.835 -24.896  33.312  1.00  0.00     0.282 C 
ATOM      7  O   UNL     1      10.179 -23.927  32.324  1.00  0.00    -0.344 OA
ENDROOT
BRANCH   3   8
ATOM      8  O   UNL     1      11.529 -22.533  35.139  1.00  0.00    -0.388 OA
ATOM      9  H   UNL     1      12.211 -21.879  35.445  1.00  0.00     0.211 HD
ENDBRANCH   3   8
BRANCH   4  10
ATOM     10  O   UNL     1      13.503 -24.642  34.435  1.00  0.00    -0.341 OA
BRANCH  10  11
ATOM     11  C   UNL     1      14.197 -23.431  34.763  1.00  0.00     0.282 C 
ATOM     12  C   UNL     1      15.485 -23.264  33.947  1.00  0.00     0.202 C 
ATOM     13  O   UNL     1      14.417 -23.325  36.165  1.00  0.00    -0.341 OA
ATOM     14  C   UNL     1      16.525 -24.300  34.347  1.00  0.00     0.179 C 
ATOM     15  C   UNL     1      15.428 -24.186  36.688  1.00  0.00     0.178 C 
ATOM     16  C   UNL     1      16.760 -24.231  35.876  1.00  0.00     0.177 C 
BRANCH  12  17
ATOM     17  O   UNL     1      15.215 -23.351  32.572  1.00  0.00    -0.385 OA
ATOM     18  H   UNL     1      16.084 -23.304  32.087  1.00  0.00     0.211 HD
ENDBRANCH  12  17
BRANCH  14  19
ATOM     19  O   UNL     1      16.161 -25.580  33.870  1.00  0.00    -0.387 OA
ATOM     20  H   UNL     1      15.188 -25.609  33.711  1.00  0.00     0.211 HD
ENDBRANCH  14  19
BRANCH  15  21
ATOM     21  C   UNL     1      14.854 -25.564  37.090  1.00  0.00     0.191 C 
BRANCH  21  22
ATOM     22  O   UNL     1      14.891 -26.439  35.992  1.00  0.00    -0.394 OA
ATOM     23  H   UNL     1      15.657 -26.162  35.425  1.00  0.00     0.210 HD
ENDBRANCH  21  22
ENDBRANCH  15  21
BRANCH  16  24
ATOM     24  O   UNL     1      17.485 -23.062  36.162  1.00  0.00    -0.387 OA
ATOM     25  H   UNL     1      17.826 -23.147  37.089  1.00  0.00     0.211 HD
ENDBRANCH  16  24
ENDBRANCH  10  11
ENDBRANCH   4  10
BRANCH   6  26
ATOM     26  O   UNL     1       9.448 -26.133  32.728  1.00  0.00    -0.346 OA
BRANCH  26  27
ATOM     27  C   UNL     1       9.361 -26.300  31.306  1.00  0.00     0.130 C 
ATOM     28  C   UNL     1      10.345 -25.554  30.357  1.00  0.00     0.033 C 
ATOM     29  C   UNL     1       9.326 -27.837  31.017  1.00  0.00     0.020 C 
ATOM     30  C   UNL     1      10.011 -25.728  28.844  1.00  0.00     0.010 C 
ATOM     31  C   UNL     1       9.368 -28.120  29.460  1.00  0.00     0.006 C 
ATOM     32  C   UNL     1       8.042 -28.404  31.701  1.00  0.00     0.017 C 
ATOM     33  C   UNL     1       9.045 -26.918  28.492  1.00  0.00    -0.022 C 
ATOM     34  C   UNL     1       8.637 -29.426  29.039  1.00  0.00     0.005 C 
ATOM     35  C   UNL     1       7.576 -26.384  28.620  1.00  0.00     0.012 C 
ATOM     36  C   UNL     1       9.372 -27.424  27.017  1.00  0.00     0.024 C 
ATOM     37  C   UNL     1       9.009 -29.865  27.618  1.00  0.00     0.008 C 
ATOM     38  C   UNL     1       8.733 -28.790  26.517  1.00  0.00    -0.017 C 
ATOM     39  C   UNL     1       9.249 -26.394  25.913  1.00  0.00    -0.024 C 
ATOM     40  C   UNL     1       7.171 -28.624  26.445  1.00  0.00     0.013 C 
ATOM     41  C   UNL     1       9.349 -29.223  25.031  1.00  0.00     0.009 C 
ATOM     42  C   UNL     1       9.640 -26.723  24.667  1.00  0.00     0.005 C 
ATOM     43  C   UNL     1      10.302 -28.073  24.438  1.00  0.00     0.096 C 
ATOM     44  C   UNL     1      10.213 -30.539  25.047  1.00  0.00     0.043 C 
ATOM     45  C   UNL     1       8.182 -29.534  24.019  1.00  0.00     0.015 C 
ATOM     46  C   UNL     1      10.728 -28.369  22.964  1.00  0.00     0.037 C 
ATOM     47  O   UNL     1      11.540 -28.069  25.156  1.00  0.00    -0.369 OA
ATOM     48  C   UNL     1      11.036 -30.771  23.743  1.00  0.00     0.124 C 
ATOM     49  C   UNL     1      11.754 -29.459  23.246  1.00  0.00     0.026 C 
ATOM     50  C   UNL     1      11.342 -27.144  22.230  1.00  0.00     0.014 C 
ATOM     51  C   UNL     1      12.492 -28.817  24.426  1.00  0.00     0.171 C 
ATOM     52  C   UNL     1      12.676 -29.777  22.043  1.00  0.00     0.013 C 
ATOM     53  C   UNL     1      12.153 -27.506  20.963  1.00  0.00    -0.035 C 
ATOM     54  C   UNL     1      13.243 -28.540  21.331  1.00  0.00     0.007 C 
ATOM     55  C   UNL     1      11.236 -28.053  19.840  1.00  0.00     0.011 C 
ATOM     56  C   UNL     1      12.855 -26.238  20.437  1.00  0.00     0.011 C 
BRANCH  29  57
ATOM     57  C   UNL     1      10.574 -28.501  31.701  1.00  0.00     0.165 C 
BRANCH  57  58
ATOM     58  O   UNL     1      10.266 -28.997  32.976  1.00  0.00    -0.396 OA
ATOM     59  H   UNL     1      10.760 -29.857  33.083  1.00  0.00     0.210 HD
ENDBRANCH  57  58
ENDBRANCH  29  57
BRANCH  48  60
ATOM     60  O   UNL     1      11.998 -31.766  23.988  1.00  0.00    -0.392 OA
ATOM     61  H   UNL     1      12.342 -31.599  24.901  1.00  0.00     0.210 HD
ENDBRANCH  48  60
ENDBRANCH  26  27
ENDBRANCH   6  26
BRANCH   5  62
ATOM     62  O   UNL     1      11.379 -26.567  34.335  1.00  0.00    -0.385 OA
ATOM     63  H   UNL     1      11.172 -26.861  35.257  1.00  0.00     0.211 HD
ENDBRANCH   5  62
TORSDOF 14
ENDMDL
MODEL 5
REMARK VINA RESULT:    -5.183      1.279      2.223
REMARK INTER + INTRA:          -9.609
REMARK INTER:                 -11.159
REMARK INTRA:                   1.549
REMARK UNBOUND:                -1.396
REMARK SMILES C[C@@H]1O[C@@H](O[C@H]2CC[C@]3(C)[C@H](CC[C@@]4(C)[C@H]3C=C[C@]35OC[C@@]6(CCC(C)(C)C[C@@H]63)[C@@H](O)C[C@@]45C)[C@@]2(C)CO)[C@@H](O)[C@H](O[C@H]2O[C@@H](CO)[C@H](O)[C@@H](O)[C@H]2O)[C@@H]1O
REMARK SMILES IDX 1 1 2 2 54 3 41 4 39 5 4 6 3 7 55 8 42 10 43 11 52 12 44 13
REMARK SMILES IDX 50 14 45 15 48 16 53 17 51 19 46 21 47 22 49 24 5 26 6 27
REMARK SMILES IDX 7 28 35 29 8 30 11 31 36 32 9 33 12 34 10 35 16 36 13 37
REMARK SMILES IDX 14 38 17 39 15 40 33 41 18 42 19 43 32 44 34 45 29 46 20 47
REMARK SMILES IDX 30 48 22 49 28 50 21 51 23 52 25 53 24 54 26 55 27 56 37 57
REMARK SMILES IDX 38 58 31 60 40 62
REMARK H PARENT 55 9 53 18 51 20 47 23 49 25 38 59 31 61 40 63
REMARK Flexibility Score: inf
ROOT
ATOM      1  C   UNL     1       9.386 -29.596  31.200  1.00  0.00     0.041 C 
ATOM      2  C   UNL     1       8.566 -28.363  31.610  1.00  0.00     0.150 C 
ATOM      3  C   UNL     1       9.259 -27.434  32.665  1.00  0.00     0.175 C 
ATOM      4  C   UNL     1       9.066 -25.964  32.201  1.00  0.00     0.186 C 
ATOM      5  C   UNL     1       9.801 -25.876  30.838  1.00  0.00     0.202 C 
ATOM      6  C   UNL     1       9.121 -26.889  29.834  1.00  0.00     0.282 C 
ATOM      7  O   UNL     1       8.094 -27.625  30.496  1.00  0.00    -0.344 OA
ENDROOT
BRANCH   3   8
ATOM      8  O   UNL     1      10.622 -27.769  32.794  1.00  0.00    -0.388 OA
ATOM      9  H   UNL     1      10.697 -28.755  32.706  1.00  0.00     0.211 HD
ENDBRANCH   3   8
BRANCH   4  10
ATOM     10  O   UNL     1       9.545 -25.022  33.167  1.00  0.00    -0.341 OA
BRANCH  10  11
ATOM     11  C   UNL     1      10.959 -24.813  33.052  1.00  0.00     0.282 C 
ATOM     12  C   UNL     1      11.686 -25.029  34.387  1.00  0.00     0.202 C 
ATOM     13  O   UNL     1      11.249 -23.550  32.465  1.00  0.00    -0.341 OA
ATOM     14  C   UNL     1      11.322 -23.942  35.388  1.00  0.00     0.179 C 
ATOM     15  C   UNL     1      11.033 -22.423  33.313  1.00  0.00     0.178 C 
ATOM     16  C   UNL     1      11.596 -22.552  34.763  1.00  0.00     0.177 C 
BRANCH  12  17
ATOM     17  O   UNL     1      11.389 -26.296  34.914  1.00  0.00    -0.385 OA
ATOM     18  H   UNL     1      10.505 -26.238  35.368  1.00  0.00     0.211 HD
ENDBRANCH  12  17
BRANCH  14  19
ATOM     19  O   UNL     1      10.001 -24.120  35.858  1.00  0.00    -0.387 OA
ATOM     20  H   UNL     1       9.362 -23.820  35.170  1.00  0.00     0.211 HD
ENDBRANCH  14  19
BRANCH  15  21
ATOM     21  C   UNL     1       9.579 -21.905  33.215  1.00  0.00     0.191 C 
BRANCH  21  22
ATOM     22  O   UNL     1       9.057 -22.176  31.940  1.00  0.00    -0.394 OA
ATOM     23  H   UNL     1       9.721 -21.850  31.278  1.00  0.00     0.210 HD
ENDBRANCH  21  22
ENDBRANCH  15  21
BRANCH  16  24
ATOM     24  O   UNL     1      12.986 -22.354  34.710  1.00  0.00    -0.387 OA
ATOM     25  H   UNL     1      13.391 -22.917  35.419  1.00  0.00     0.211 HD
ENDBRANCH  16  24
ENDBRANCH  10  11
ENDBRANCH   4  10
BRANCH   6  26
ATOM     26  O   UNL     1       8.608 -26.121  28.753  1.00  0.00    -0.346 OA
BRANCH  26  27
ATOM     27  C   UNL     1       8.923 -26.436  27.389  1.00  0.00     0.130 C 
ATOM     28  C   UNL     1       9.665 -25.406  26.488  1.00  0.00     0.033 C 
ATOM     29  C   UNL     1       9.630 -27.832  27.383  1.00  0.00     0.020 C 
ATOM     30  C   UNL     1       9.790 -25.851  24.998  1.00  0.00     0.010 C 
ATOM     31  C   UNL     1      10.139 -28.201  25.930  1.00  0.00     0.006 C 
ATOM     32  C   UNL     1       8.607 -28.868  27.948  1.00  0.00     0.017 C 
ATOM     33  C   UNL     1       9.548 -27.380  24.721  1.00  0.00    -0.022 C 
ATOM     34  C   UNL     1      10.168 -29.729  25.644  1.00  0.00     0.005 C 
ATOM     35  C   UNL     1       8.005 -27.582  24.516  1.00  0.00     0.012 C 
ATOM     36  C   UNL     1      10.383 -27.805  23.433  1.00  0.00     0.024 C 
ATOM     37  C   UNL     1      11.002 -30.070  24.403  1.00  0.00     0.008 C 
ATOM     38  C   UNL     1      10.537 -29.350  23.095  1.00  0.00    -0.017 C 
ATOM     39  C   UNL     1      10.072 -27.054  22.154  1.00  0.00    -0.024 C 
ATOM     40  C   UNL     1       9.120 -29.937  22.749  1.00  0.00     0.013 C 
ATOM     41  C   UNL     1      11.595 -29.578  21.829  1.00  0.00     0.009 C 
ATOM     42  C   UNL     1      10.835 -27.274  21.067  1.00  0.00     0.005 C 
ATOM     43  C   UNL     1      12.054 -28.174  21.194  1.00  0.00     0.096 C 
ATOM     44  C   UNL     1      12.920 -30.332  22.220  1.00  0.00     0.043 C 
ATOM     45  C   UNL     1      10.941 -30.486  20.720  1.00  0.00     0.015 C 
ATOM     46  C   UNL     1      12.884 -28.369  19.884  1.00  0.00     0.037 C 
ATOM     47  O   UNL     1      12.971 -27.530  22.085  1.00  0.00    -0.369 OA
ATOM     48  C   UNL     1      14.030 -30.270  21.127  1.00  0.00     0.124 C 
ATOM     49  C   UNL     1      14.192 -28.825  20.519  1.00  0.00     0.026 C 
ATOM     50  C   UNL     1      13.046 -27.070  19.046  1.00  0.00     0.014 C 
ATOM     51  C   UNL     1      14.290 -27.811  21.663  1.00  0.00     0.171 C 
ATOM     52  C   UNL     1      15.403 -28.784  19.555  1.00  0.00     0.013 C 
ATOM     53  C   UNL     1      14.194 -27.124  18.010  1.00  0.00    -0.035 C 
ATOM     54  C   UNL     1      15.514 -27.494  18.727  1.00  0.00     0.007 C 
ATOM     55  C   UNL     1      13.886 -28.134  16.875  1.00  0.00     0.011 C 
ATOM     56  C   UNL     1      14.368 -25.728  17.380  1.00  0.00     0.011 C 
BRANCH  29  57
ATOM     57  C   UNL     1      10.854 -27.774  28.365  1.00  0.00     0.165 C 
BRANCH  57  58
ATOM     58  O   UNL     1      12.072 -27.948  27.689  1.00  0.00    -0.396 OA
ATOM     59  H   UNL     1      12.146 -28.917  27.466  1.00  0.00     0.210 HD
ENDBRANCH  57  58
ENDBRANCH  29  57
BRANCH  48  60
ATOM     60  O   UNL     1      15.249 -30.676  21.697  1.00  0.00    -0.392 OA
ATOM     61  H   UNL     1      15.429 -30.049  22.441  1.00  0.00     0.210 HD
ENDBRANCH  48  60
ENDBRANCH  26  27
ENDBRANCH   6  26
BRANCH   5  62
ATOM     62  O   UNL     1       9.825 -24.553  30.352  1.00  0.00    -0.385 OA
ATOM     63  H   UNL     1      10.691 -24.413  29.894  1.00  0.00     0.211 HD
ENDBRANCH   5  62
TORSDOF 14
ENDMDL
MODEL 6
REMARK VINA RESULT:    -5.128      2.100      4.420
REMARK INTER + INTRA:          -9.523
REMARK INTER:                  -8.403
REMARK INTRA:                  -1.120
REMARK UNBOUND:                -1.396
REMARK SMILES C[C@@H]1O[C@@H](O[C@H]2CC[C@]3(C)[C@H](CC[C@@]4(C)[C@H]3C=C[C@]35OC[C@@]6(CCC(C)(C)C[C@@H]63)[C@@H](O)C[C@@]45C)[C@@]2(C)CO)[C@@H](O)[C@H](O[C@H]2O[C@@H](CO)[C@H](O)[C@@H](O)[C@H]2O)[C@@H]1O
REMARK SMILES IDX 1 1 2 2 54 3 41 4 39 5 4 6 3 7 55 8 42 10 43 11 52 12 44 13
REMARK SMILES IDX 50 14 45 15 48 16 53 17 51 19 46 21 47 22 49 24 5 26 6 27
REMARK SMILES IDX 7 28 35 29 8 30 11 31 36 32 9 33 12 34 10 35 16 36 13 37
REMARK SMILES IDX 14 38 17 39 15 40 33 41 18 42 19 43 32 44 34 45 29 46 20 47
REMARK SMILES IDX 30 48 22 49 28 50 21 51 23 52 25 53 24 54 26 55 27 56 37 57
REMARK SMILES IDX 38 58 31 60 40 62
REMARK H PARENT 55 9 53 18 51 20 47 23 49 25 38 59 31 61 40 63
REMARK Flexibility Score: inf
ROOT
ATOM      1  C   UNL     1       8.613 -30.088  31.557  1.00  0.00     0.041 C 
ATOM      2  C   UNL     1       8.226 -28.604  31.476  1.00  0.00     0.150 C 
ATOM      3  C   UNL     1       9.196 -27.630  32.229  1.00  0.00     0.175 C 
ATOM      4  C   UNL     1       9.461 -26.413  31.301  1.00  0.00     0.186 C 
ATOM      5  C   UNL     1      10.159 -27.010  30.051  1.00  0.00     0.202 C 
ATOM      6  C   UNL     1       9.176 -28.045  29.373  1.00  0.00     0.282 C 
ATOM      7  O   UNL     1       7.985 -28.174  30.146  1.00  0.00    -0.344 OA
ENDROOT
BRANCH   3   8
ATOM      8  O   UNL     1      10.389 -28.296  32.576  1.00  0.00    -0.388 OA
ATOM      9  H   UNL     1      10.577 -28.961  31.864  1.00  0.00     0.211 HD
ENDBRANCH   3   8
BRANCH   4  10
ATOM     10  O   UNL     1      10.229 -25.393  31.949  1.00  0.00    -0.341 OA
BRANCH  10  11
ATOM     11  C   UNL     1       9.399 -24.334  32.445  1.00  0.00     0.282 C 
ATOM     12  C   UNL     1       9.339 -23.145  31.477  1.00  0.00     0.202 C 
ATOM     13  O   UNL     1       9.778 -23.954  33.762  1.00  0.00    -0.341 OA
ATOM     14  C   UNL     1      10.683 -22.435  31.401  1.00  0.00     0.179 C 
ATOM     15  C   UNL     1      10.989 -23.204  33.853  1.00  0.00     0.178 C 
ATOM     16  C   UNL     1      11.138 -22.038  32.827  1.00  0.00     0.177 C 
BRANCH  12  17
ATOM     17  O   UNL     1       8.937 -23.565  30.200  1.00  0.00    -0.385 OA
ATOM     18  H   UNL     1       8.483 -22.799  29.756  1.00  0.00     0.211 HD
ENDBRANCH  12  17
BRANCH  14  19
ATOM     19  O   UNL     1      11.619 -23.216  30.687  1.00  0.00    -0.387 OA
ATOM     20  H   UNL     1      12.247 -23.640  31.318  1.00  0.00     0.211 HD
ENDBRANCH  14  19
BRANCH  15  21
ATOM     21  C   UNL     1      12.223 -24.127  33.985  1.00  0.00     0.191 C 
BRANCH  21  22
ATOM     22  O   UNL     1      13.317 -23.569  33.304  1.00  0.00    -0.394 OA
ATOM     23  H   UNL     1      14.138 -23.947  33.714  1.00  0.00     0.210 HD
ENDBRANCH  21  22
ENDBRANCH  15  21
BRANCH  16  24
ATOM     24  O   UNL     1      10.342 -20.967  33.266  1.00  0.00    -0.387 OA
ATOM     25  H   UNL     1      10.927 -20.362  33.791  1.00  0.00     0.211 HD
ENDBRANCH  16  24
ENDBRANCH  10  11
ENDBRANCH   4  10
BRANCH   6  26
ATOM     26  O   UNL     1       8.906 -27.565  28.063  1.00  0.00    -0.346 OA
BRANCH  26  27
ATOM     27  C   UNL     1       9.850 -27.722  26.994  1.00  0.00     0.130 C 
ATOM     28  C   UNL     1      10.186 -29.135  26.432  1.00  0.00     0.033 C 
ATOM     29  C   UNL     1       9.442 -26.726  25.858  1.00  0.00     0.020 C 
ATOM     30  C   UNL     1      11.340 -29.137  25.383  1.00  0.00     0.010 C 
ATOM     31  C   UNL     1      10.350 -26.927  24.577  1.00  0.00     0.006 C 
ATOM     32  C   UNL     1       9.544 -25.285  26.453  1.00  0.00     0.017 C 
ATOM     33  C   UNL     1      11.690 -27.739  24.753  1.00  0.00    -0.022 C 
ATOM     34  C   UNL     1      10.555 -25.630  23.743  1.00  0.00     0.005 C 
ATOM     35  C   UNL     1      12.728 -27.043  25.702  1.00  0.00     0.012 C 
ATOM     36  C   UNL     1      12.276 -27.968  23.290  1.00  0.00     0.024 C 
ATOM     37  C   UNL     1      11.103 -25.925  22.342  1.00  0.00     0.008 C 
ATOM     38  C   UNL     1      12.453 -26.715  22.330  1.00  0.00    -0.017 C 
ATOM     39  C   UNL     1      13.515 -28.836  23.193  1.00  0.00    -0.024 C 
ATOM     40  C   UNL     1      13.532 -25.752  22.945  1.00  0.00     0.013 C 
ATOM     41  C   UNL     1      12.897 -27.199  20.799  1.00  0.00     0.009 C 
ATOM     42  C   UNL     1      13.978 -29.177  21.977  1.00  0.00     0.005 C 
ATOM     43  C   UNL     1      13.175 -28.781  20.747  1.00  0.00     0.096 C 
ATOM     44  C   UNL     1      11.818 -26.910  19.690  1.00  0.00     0.043 C 
ATOM     45  C   UNL     1      14.172 -26.409  20.319  1.00  0.00     0.015 C 
ATOM     46  C   UNL     1      13.785 -29.222  19.377  1.00  0.00     0.037 C 
ATOM     47  O   UNL     1      11.929 -29.482  20.806  1.00  0.00    -0.369 OA
ATOM     48  C   UNL     1      12.094 -27.632  18.336  1.00  0.00     0.124 C 
ATOM     49  C   UNL     1      12.519 -29.137  18.535  1.00  0.00     0.026 C 
ATOM     50  C   UNL     1      14.399 -30.650  19.394  1.00  0.00     0.014 C 
ATOM     51  C   UNL     1      11.529 -29.812  19.491  1.00  0.00     0.171 C 
ATOM     52  C   UNL     1      12.630 -29.847  17.163  1.00  0.00     0.013 C 
ATOM     53  C   UNL     1      14.604 -31.268  17.991  1.00  0.00    -0.035 C 
ATOM     54  C   UNL     1      13.263 -31.245  17.219  1.00  0.00     0.007 C 
ATOM     55  C   UNL     1      15.704 -30.519  17.197  1.00  0.00     0.011 C 
ATOM     56  C   UNL     1      15.040 -32.738  18.148  1.00  0.00     0.011 C 
BRANCH  29  57
ATOM     57  C   UNL     1       7.941 -26.990  25.480  1.00  0.00     0.165 C 
BRANCH  57  58
ATOM     58  O   UNL     1       7.826 -27.774  24.323  1.00  0.00    -0.396 OA
ATOM     59  H   UNL     1       8.623 -28.374  24.295  1.00  0.00     0.210 HD
ENDBRANCH  57  58
ENDBRANCH  29  57
BRANCH  48  60
ATOM     60  O   UNL     1      10.930 -27.575  17.549  1.00  0.00    -0.392 OA
ATOM     61  H   UNL     1      10.183 -27.397  18.173  1.00  0.00     0.210 HD
ENDBRANCH  48  60
ENDBRANCH  26  27
ENDBRANCH   6  26
BRANCH   5  62
ATOM     62  O   UNL     1      10.584 -25.995  29.167  1.00  0.00    -0.385 OA
ATOM     63  H   UNL     1      11.017 -25.287  29.705  1.00  0.00     0.211 HD
ENDBRANCH   5  62
TORSDOF 14
ENDMDL
MODEL 7
REMARK VINA RESULT:    -5.128      2.022      4.155
REMARK INTER + INTRA:          -9.522
REMARK INTER:                  -9.703
REMARK INTRA:                   0.181
REMARK UNBOUND:                -1.396
REMARK SMILES C[C@@H]1O[C@@H](O[C@H]2CC[C@]3(C)[C@H](CC[C@@]4(C)[C@H]3C=C[C@]35OC[C@@]6(CCC(C)(C)C[C@@H]63)[C@@H](O)C[C@@]45C)[C@@]2(C)CO)[C@@H](O)[C@H](O[C@H]2O[C@@H](CO)[C@H](O)[C@@H](O)[C@H]2O)[C@@H]1O
REMARK SMILES IDX 1 1 2 2 54 3 41 4 39 5 4 6 3 7 55 8 42 10 43 11 52 12 44 13
REMARK SMILES IDX 50 14 45 15 48 16 53 17 51 19 46 21 47 22 49 24 5 26 6 27
REMARK SMILES IDX 7 28 35 29 8 30 11 31 36 32 9 33 12 34 10 35 16 36 13 37
REMARK SMILES IDX 14 38 17 39 15 40 33 41 18 42 19 43 32 44 34 45 29 46 20 47
REMARK SMILES IDX 30 48 22 49 28 50 21 51 23 52 25 53 24 54 26 55 27 56 37 57
REMARK SMILES IDX 38 58 31 60 40 62
REMARK H PARENT 55 9 53 18 51 20 47 23 49 25 38 59 31 61 40 63
REMARK Flexibility Score: inf
ROOT
ATOM      1  C   UNL     1       9.347 -29.947  32.429  1.00  0.00     0.041 C 
ATOM      2  C   UNL     1       8.578 -28.702  31.962  1.00  0.00     0.150 C 
ATOM      3  C   UNL     1       9.319 -27.343  32.204  1.00  0.00     0.175 C 
ATOM      4  C   UNL     1       9.172 -26.487  30.915  1.00  0.00     0.186 C 
ATOM      5  C   UNL     1       9.891 -27.304  29.810  1.00  0.00     0.202 C 
ATOM      6  C   UNL     1       9.160 -28.697  29.660  1.00  0.00     0.282 C 
ATOM      7  O   UNL     1       8.117 -28.814  30.625  1.00  0.00    -0.344 OA
ENDROOT
BRANCH   3   8
ATOM      8  O   UNL     1      10.670 -27.572  32.531  1.00  0.00    -0.388 OA
ATOM      9  H   UNL     1      11.125 -26.690  32.555  1.00  0.00     0.211 HD
ENDBRANCH   3   8
BRANCH   4  10
ATOM     10  O   UNL     1       9.698 -25.166  31.079  1.00  0.00    -0.341 OA
BRANCH  10  11
ATOM     11  C   UNL     1       9.016 -24.445  32.114  1.00  0.00     0.282 C 
ATOM     12  C   UNL     1       8.340 -23.174  31.584  1.00  0.00     0.202 C 
ATOM     13  O   UNL     1       9.876 -24.191  33.219  1.00  0.00    -0.341 OA
ATOM     14  C   UNL     1       9.373 -22.141  31.158  1.00  0.00     0.179 C 
ATOM     15  C   UNL     1      10.861 -23.181  33.003  1.00  0.00     0.178 C 
ATOM     16  C   UNL     1      10.345 -21.870  32.332  1.00  0.00     0.177 C 
BRANCH  12  17
ATOM     17  O   UNL     1       7.484 -23.477  30.513  1.00  0.00    -0.385 OA
ATOM     18  H   UNL     1       7.337 -22.641  29.994  1.00  0.00     0.211 HD
ENDBRANCH  12  17
BRANCH  14  19
ATOM     19  O   UNL     1      10.006 -22.537  29.957  1.00  0.00    -0.387 OA
ATOM     20  H   UNL     1      10.108 -23.518  29.945  1.00  0.00     0.211 HD
ENDBRANCH  14  19
BRANCH  15  21
ATOM     21  C   UNL     1      12.155 -23.768  32.394  1.00  0.00     0.191 C 
BRANCH  21  22
ATOM     22  O   UNL     1      12.700 -22.869  31.463  1.00  0.00    -0.394 OA
ATOM     23  H   UNL     1      13.662 -22.769  31.683  1.00  0.00     0.210 HD
ENDBRANCH  21  22
ENDBRANCH  15  21
BRANCH  16  24
ATOM     24  O   UNL     1       9.666 -21.119  33.307  1.00  0.00    -0.387 OA
ATOM     25  H   UNL     1       9.368 -20.278  32.876  1.00  0.00     0.211 HD
ENDBRANCH  16  24
ENDBRANCH  10  11
ENDBRANCH   4  10
BRANCH   6  26
ATOM     26  O   UNL     1       8.660 -28.763  28.331  1.00  0.00    -0.346 OA
BRANCH  26  27
ATOM     27  C   UNL     1       9.425 -28.288  27.214  1.00  0.00     0.130 C 
ATOM     28  C   UNL     1      10.837 -28.870  26.913  1.00  0.00     0.033 C 
ATOM     29  C   UNL     1       8.495 -28.334  25.957  1.00  0.00     0.020 C 
ATOM     30  C   UNL     1      11.587 -28.135  25.760  1.00  0.00     0.010 C 
ATOM     31  C   UNL     1       9.298 -27.954  24.646  1.00  0.00     0.006 C 
ATOM     32  C   UNL     1       7.299 -27.369  26.234  1.00  0.00     0.017 C 
ATOM     33  C   UNL     1      10.692 -27.240  24.827  1.00  0.00    -0.022 C 
ATOM     34  C   UNL     1       8.428 -27.275  23.551  1.00  0.00     0.005 C 
ATOM     35  C   UNL     1      10.592 -25.822  25.490  1.00  0.00     0.012 C 
ATOM     36  C   UNL     1      11.360 -27.179  23.382  1.00  0.00     0.024 C 
ATOM     37  C   UNL     1       9.122 -27.266  22.184  1.00  0.00     0.008 C 
ATOM     38  C   UNL     1      10.523 -26.571  22.176  1.00  0.00    -0.017 C 
ATOM     39  C   UNL     1      12.773 -26.634  23.319  1.00  0.00    -0.024 C 
ATOM     40  C   UNL     1      10.260 -25.047  22.457  1.00  0.00     0.013 C 
ATOM     41  C   UNL     1      11.330 -26.774  20.733  1.00  0.00     0.009 C 
ATOM     42  C   UNL     1      13.439 -26.681  22.151  1.00  0.00     0.005 C 
ATOM     43  C   UNL     1      12.797 -27.389  20.967  1.00  0.00     0.096 C 
ATOM     44  C   UNL     1      10.610 -27.741  19.720  1.00  0.00     0.043 C 
ATOM     45  C   UNL     1      11.433 -25.405  19.961  1.00  0.00     0.015 C 
ATOM     46  C   UNL     1      13.642 -27.400  19.653  1.00  0.00     0.037 C 
ATOM     47  O   UNL     1      12.680 -28.773  21.308  1.00  0.00    -0.369 OA
ATOM     48  C   UNL     1      11.502 -28.172  18.515  1.00  0.00     0.124 C 
ATOM     49  C   UNL     1      12.960 -28.573  18.962  1.00  0.00     0.026 C 
ATOM     50  C   UNL     1      15.160 -27.642  19.886  1.00  0.00     0.014 C 
ATOM     51  C   UNL     1      12.869 -29.548  20.141  1.00  0.00     0.171 C 
ATOM     52  C   UNL     1      13.752 -29.137  17.757  1.00  0.00     0.013 C 
ATOM     53  C   UNL     1      15.931 -28.086  18.621  1.00  0.00    -0.035 C 
ATOM     54  C   UNL     1      15.252 -29.339  18.020  1.00  0.00     0.007 C 
ATOM     55  C   UNL     1      16.005 -26.948  17.572  1.00  0.00     0.011 C 
ATOM     56  C   UNL     1      17.371 -28.468  19.018  1.00  0.00     0.011 C 
BRANCH  29  57
ATOM     57  C   UNL     1       7.923 -29.789  25.814  1.00  0.00     0.165 C 
BRANCH  57  58
ATOM     58  O   UNL     1       8.565 -30.503  24.792  1.00  0.00    -0.396 OA
ATOM     59  H   UNL     1       8.621 -29.896  24.002  1.00  0.00     0.210 HD
ENDBRANCH  57  58
ENDBRANCH  29  57
BRANCH  48  60
ATOM     60  O   UNL     1      10.894 -29.264  17.872  1.00  0.00    -0.392 OA
ATOM     61  H   UNL     1      11.603 -29.945  17.754  1.00  0.00     0.210 HD
ENDBRANCH  48  60
ENDBRANCH  26  27
ENDBRANCH   6  26
BRANCH   5  62
ATOM     62  O   UNL     1       9.955 -26.584  28.599  1.00  0.00    -0.385 OA
ATOM     63  H   UNL     1       9.786 -27.220  27.860  1.00  0.00     0.211 HD
ENDBRANCH   5  62
TORSDOF 14
ENDMDL
MODEL 8
REMARK VINA RESULT:    -4.597      1.677      2.828
REMARK INTER + INTRA:          -8.681
REMARK INTER:                  -7.821
REMARK INTRA:                  -0.860
REMARK UNBOUND:                -1.396
REMARK SMILES C[C@@H]1O[C@@H](O[C@H]2CC[C@]3(C)[C@H](CC[C@@]4(C)[C@H]3C=C[C@]35OC[C@@]6(CCC(C)(C)C[C@@H]63)[C@@H](O)C[C@@]45C)[C@@]2(C)CO)[C@@H](O)[C@H](O[C@H]2O[C@@H](CO)[C@H](O)[C@@H](O)[C@H]2O)[C@@H]1O
REMARK SMILES IDX 1 1 2 2 54 3 41 4 39 5 4 6 3 7 55 8 42 10 43 11 52 12 44 13
REMARK SMILES IDX 50 14 45 15 48 16 53 17 51 19 46 21 47 22 49 24 5 26 6 27
REMARK SMILES IDX 7 28 35 29 8 30 11 31 36 32 9 33 12 34 10 35 16 36 13 37
REMARK SMILES IDX 14 38 17 39 15 40 33 41 18 42 19 43 32 44 34 45 29 46 20 47
REMARK SMILES IDX 30 48 22 49 28 50 21 51 23 52 25 53 24 54 26 55 27 56 37 57
REMARK SMILES IDX 38 58 31 60 40 62
REMARK H PARENT 55 9 53 18 51 20 47 23 49 25 38 59 31 61 40 63
REMARK Flexibility Score: inf
ROOT
ATOM      1  C   UNL     1       7.267 -24.357  30.367  1.00  0.00     0.041 C 
ATOM      2  C   UNL     1       8.802 -24.415  30.372  1.00  0.00     0.150 C 
ATOM      3  C   UNL     1       9.455 -24.412  31.797  1.00  0.00     0.175 C 
ATOM      4  C   UNL     1      10.574 -25.490  31.808  1.00  0.00     0.186 C 
ATOM      5  C   UNL     1       9.837 -26.831  31.554  1.00  0.00     0.202 C 
ATOM      6  C   UNL     1       9.127 -26.756  30.145  1.00  0.00     0.282 C 
ATOM      7  O   UNL     1       9.312 -25.465  29.568  1.00  0.00    -0.344 OA
ENDROOT
BRANCH   3   8
ATOM      8  O   UNL     1       8.480 -24.657  32.784  1.00  0.00    -0.388 OA
ATOM      9  H   UNL     1       8.948 -24.715  33.658  1.00  0.00     0.211 HD
ENDBRANCH   3   8
BRANCH   4  10
ATOM     10  O   UNL     1      11.328 -25.477  33.025  1.00  0.00    -0.341 OA
BRANCH  10  11
ATOM     11  C   UNL     1      11.027 -24.326  33.826  1.00  0.00     0.282 C 
ATOM     12  C   UNL     1      12.123 -23.256  33.733  1.00  0.00     0.202 C 
ATOM     13  O   UNL     1      10.728 -24.693  35.167  1.00  0.00    -0.341 OA
ATOM     14  C   UNL     1      13.408 -23.730  34.397  1.00  0.00     0.179 C 
ATOM     15  C   UNL     1      11.851 -25.091  35.953  1.00  0.00     0.178 C 
ATOM     16  C   UNL     1      13.106 -24.169  35.850  1.00  0.00     0.177 C 
BRANCH  12  17
ATOM     17  O   UNL     1      12.365 -22.908  32.395  1.00  0.00    -0.385 OA
ATOM     18  H   UNL     1      12.461 -21.918  32.350  1.00  0.00     0.211 HD
ENDBRANCH  12  17
BRANCH  14  19
ATOM     19  O   UNL     1      14.039 -24.719  33.608  1.00  0.00    -0.387 OA
ATOM     20  H   UNL     1      13.877 -24.533  32.653  1.00  0.00     0.211 HD
ENDBRANCH  14  19
BRANCH  15  21
ATOM     21  C   UNL     1      12.134 -26.606  35.817  1.00  0.00     0.191 C 
BRANCH  21  22
ATOM     22  O   UNL     1      13.512 -26.827  35.667  1.00  0.00    -0.394 OA
ATOM     23  H   UNL     1      13.648 -27.810  35.643  1.00  0.00     0.210 HD
ENDBRANCH  21  22
ENDBRANCH  15  21
BRANCH  16  24
ATOM     24  O   UNL     1      12.866 -23.020  36.622  1.00  0.00    -0.387 OA
ATOM     25  H   UNL     1      12.692 -22.274  35.992  1.00  0.00     0.211 HD
ENDBRANCH  16  24
ENDBRANCH  10  11
ENDBRANCH   4  10
BRANCH   6  26
ATOM     26  O   UNL     1       9.693 -27.781  29.339  1.00  0.00    -0.346 OA
BRANCH  26  27
ATOM     27  C   UNL     1      10.201 -27.513  28.024  1.00  0.00     0.130 C 
ATOM     28  C   UNL     1      11.711 -27.708  27.702  1.00  0.00     0.033 C 
ATOM     29  C   UNL     1       9.285 -28.268  27.005  1.00  0.00     0.020 C 
ATOM     30  C   UNL     1      12.117 -27.225  26.275  1.00  0.00     0.010 C 
ATOM     31  C   UNL     1       9.853 -28.140  25.533  1.00  0.00     0.006 C 
ATOM     32  C   UNL     1       7.847 -27.677  27.153  1.00  0.00     0.017 C 
ATOM     33  C   UNL     1      10.931 -27.023  25.263  1.00  0.00    -0.022 C 
ATOM     34  C   UNL     1       8.756 -28.178  24.431  1.00  0.00     0.005 C 
ATOM     35  C   UNL     1      10.389 -25.563  25.460  1.00  0.00     0.012 C 
ATOM     36  C   UNL     1      11.473 -27.264  23.784  1.00  0.00     0.024 C 
ATOM     37  C   UNL     1       9.344 -28.431  23.038  1.00  0.00     0.008 C 
ATOM     38  C   UNL     1      10.427 -27.393  22.596  1.00  0.00    -0.017 C 
ATOM     39  C   UNL     1      12.615 -26.374  23.335  1.00  0.00    -0.024 C 
ATOM     40  C   UNL     1       9.679 -26.021  22.427  1.00  0.00     0.013 C 
ATOM     41  C   UNL     1      11.189 -27.827  21.180  1.00  0.00     0.009 C 
ATOM     42  C   UNL     1      13.204 -26.618  22.150  1.00  0.00     0.005 C 
ATOM     43  C   UNL     1      12.786 -27.849  21.361  1.00  0.00     0.096 C 
ATOM     44  C   UNL     1      10.792 -29.253  20.643  1.00  0.00     0.043 C 
ATOM     45  C   UNL     1      10.789 -26.846  20.014  1.00  0.00     0.015 C 
ATOM     46  C   UNL     1      13.525 -28.057  20.000  1.00  0.00     0.037 C 
ATOM     47  O   UNL     1      13.159 -28.998  22.129  1.00  0.00    -0.369 OA
ATOM     48  C   UNL     1      11.722 -29.782  19.508  1.00  0.00     0.124 C 
ATOM     49  C   UNL     1      13.248 -29.544  19.823  1.00  0.00     0.026 C 
ATOM     50  C   UNL     1      15.045 -27.733  20.056  1.00  0.00     0.014 C 
ATOM     51  C   UNL     1      13.545 -30.031  21.246  1.00  0.00     0.171 C 
ATOM     52  C   UNL     1      14.129 -30.222  18.744  1.00  0.00     0.013 C 
ATOM     53  C   UNL     1      15.863 -28.331  18.887  1.00  0.00    -0.035 C 
ATOM     54  C   UNL     1      15.619 -29.857  18.819  1.00  0.00     0.007 C 
ATOM     55  C   UNL     1      15.500 -27.659  17.538  1.00  0.00     0.011 C 
ATOM     56  C   UNL     1      17.364 -28.098  19.153  1.00  0.00     0.011 C 
BRANCH  29  57
ATOM     57  C   UNL     1       9.231 -29.784  27.414  1.00  0.00     0.165 C 
BRANCH  57  58
ATOM     58  O   UNL     1      10.088 -30.566  26.625  1.00  0.00    -0.396 OA
ATOM     59  H   UNL     1      10.037 -31.498  26.974  1.00  0.00     0.210 HD
ENDBRANCH  57  58
ENDBRANCH  29  57
BRANCH  48  60
ATOM     60  O   UNL     1      11.490 -31.159  19.339  1.00  0.00    -0.392 OA
ATOM     61  H   UNL     1      10.713 -31.380  19.911  1.00  0.00     0.210 HD
ENDBRANCH  48  60
ENDBRANCH  26  27
ENDBRANCH   6  26
BRANCH   5  62
ATOM     62  O   UNL     1      10.716 -27.929  31.669  1.00  0.00    -0.385 OA
ATOM     63  H   UNL     1      11.631 -27.606  31.475  1.00  0.00     0.211 HD
ENDBRANCH   5  62
TORSDOF 14
ENDMDL
