MODEL 1
REMARK VINA RESULT:    -3.648      0.000      0.000
REMARK INTER + INTRA:          -4.780
REMARK INTER:                  -4.501
REMARK INTRA:                  -0.279
REMARK UNBOUND:                -0.279
REMARK SMILES C=CC[C@H](C)C(=O)CC
REMARK SMILES IDX 4 1 5 2 6 3 7 4 8 5 9 6 3 7 2 8 1 9
REMARK H PARENT
REMARK Flexibility Score: inf
ROOT
ATOM      1  C   UNL     1      27.663  30.403 137.796  1.00  0.00     0.057 C 
ATOM      2  C   UNL     1      28.271  30.783 136.439  1.00  0.00     0.016 C 
ENDROOT
BRANCH   1   3
ATOM      3  C   UNL     1      26.398  31.194 138.036  1.00  0.00     0.135 C 
ATOM      4  O   UNL     1      26.428  32.416 137.972  1.00  0.00    -0.299 OA
BRANCH   3   5
ATOM      5  C   UNL     1      25.110  30.470 138.349  1.00  0.00     0.072 C 
ATOM      6  C   UNL     1      25.057  29.923 139.776  1.00  0.00     0.012 C 
ENDBRANCH   3   5
ENDBRANCH   1   3
BRANCH   1   7
ATOM      7  C   UNL     1      28.658  30.634 138.954  1.00  0.00     0.038 C 
BRANCH   7   8
ATOM      8  C   UNL     1      28.763  29.440 139.866  1.00  0.00    -0.034 C 
ATOM      9  C   UNL     1      29.824  29.251 140.657  1.00  0.00     0.004 C 
ENDBRANCH   7   8
ENDBRANCH   1   7
TORSDOF 4
ENDMDL
MODEL 2
REMARK VINA RESULT:    -3.647     15.055     16.082
REMARK INTER + INTRA:          -4.779
REMARK INTER:                  -4.597
REMARK INTRA:                  -0.181
REMARK UNBOUND:                -0.279
REMARK SMILES C=CC[C@H](C)C(=O)CC
REMARK SMILES IDX 4 1 5 2 6 3 7 4 8 5 9 6 3 7 2 8 1 9
REMARK H PARENT
REMARK Flexibility Score: inf
ROOT
ATOM      1  C   UNL     1      32.385  41.117 150.389  1.00  0.00     0.057 C 
ATOM      2  C   UNL     1      33.453  40.158 150.930  1.00  0.00     0.016 C 
ENDROOT
BRANCH   1   3
ATOM      3  C   UNL     1      31.148  40.344 149.994  1.00  0.00     0.135 C 
ATOM      4  O   UNL     1      30.535  40.658 148.982  1.00  0.00    -0.299 OA
BRANCH   3   5
ATOM      5  C   UNL     1      30.681  39.190 150.850  1.00  0.00     0.072 C 
ATOM      6  C   UNL     1      29.195  38.874 150.678  1.00  0.00     0.012 C 
ENDBRANCH   3   5
ENDBRANCH   1   3
BRANCH   1   7
ATOM      7  C   UNL     1      32.904  41.933 149.186  1.00  0.00     0.038 C 
BRANCH   7   8
ATOM      8  C   UNL     1      34.335  41.606 148.846  1.00  0.00    -0.034 C 
ATOM      9  C   UNL     1      35.148  42.507 148.286  1.00  0.00     0.004 C 
ENDBRANCH   7   8
ENDBRANCH   1   7
TORSDOF 4
ENDMDL
MODEL 3
REMARK VINA RESULT:    -3.615     13.222     13.740
REMARK INTER + INTRA:          -4.740
REMARK INTER:                  -4.260
REMARK INTRA:                  -0.479
REMARK UNBOUND:                -0.279
REMARK SMILES C=CC[C@H](C)C(=O)CC
REMARK SMILES IDX 4 1 5 2 6 3 7 4 8 5 9 6 3 7 2 8 1 9
REMARK H PARENT
REMARK Flexibility Score: inf
ROOT
ATOM      1  C   UNL     1      27.041  43.846 143.032  1.00  0.00     0.057 C 
ATOM      2  C   UNL     1      26.930  45.091 142.141  1.00  0.00     0.016 C 
ENDROOT
BRANCH   1   3
ATOM      3  C   UNL     1      25.662  43.343 143.392  1.00  0.00     0.135 C 
ATOM      4  O   UNL     1      24.754  44.142 143.575  1.00  0.00    -0.299 OA
BRANCH   3   5
ATOM      5  C   UNL     1      25.418  41.857 143.520  1.00  0.00     0.072 C 
ATOM      6  C   UNL     1      26.449  41.010 142.773  1.00  0.00     0.012 C 
ENDBRANCH   3   5
ENDBRANCH   1   3
BRANCH   1   7
ATOM      7  C   UNL     1      27.851  44.131 144.316  1.00  0.00     0.038 C 
BRANCH   7   8
ATOM      8  C   UNL     1      29.024  43.200 144.472  1.00  0.00    -0.034 C 
ATOM      9  C   UNL     1      29.725  42.769 143.419  1.00  0.00     0.004 C 
ENDBRANCH   7   8
ENDBRANCH   1   7
TORSDOF 4
ENDMDL
MODEL 4
REMARK VINA RESULT:    -3.595     13.741     14.310
REMARK INTER + INTRA:          -4.715
REMARK INTER:                  -4.243
REMARK INTRA:                  -0.473
REMARK UNBOUND:                -0.279
REMARK SMILES C=CC[C@H](C)C(=O)CC
REMARK SMILES IDX 4 1 5 2 6 3 7 4 8 5 9 6 3 7 2 8 1 9
REMARK H PARENT
REMARK Flexibility Score: inf
ROOT
ATOM      1  C   UNL     1      26.002  44.125 141.606  1.00  0.00     0.057 C 
ATOM      2  C   UNL     1      25.768  44.409 140.116  1.00  0.00     0.016 C 
ENDROOT
BRANCH   1   3
ATOM      3  C   UNL     1      24.765  44.477 142.401  1.00  0.00     0.135 C 
ATOM      4  O   UNL     1      24.068  45.420 142.049  1.00  0.00    -0.299 OA
BRANCH   3   5
ATOM      5  C   UNL     1      24.401  43.662 143.619  1.00  0.00     0.072 C 
ATOM      6  C   UNL     1      24.825  42.196 143.513  1.00  0.00     0.012 C 
ENDBRANCH   3   5
ENDBRANCH   1   3
BRANCH   1   7
ATOM      7  C   UNL     1      27.219  44.902 142.153  1.00  0.00     0.038 C 
BRANCH   7   8
ATOM      8  C   UNL     1      28.117  44.038 143.000  1.00  0.00    -0.034 C 
ATOM      9  C   UNL     1      28.065  44.069 144.335  1.00  0.00     0.004 C 
ENDBRANCH   7   8
ENDBRANCH   1   7
TORSDOF 4
ENDMDL
MODEL 5
REMARK VINA RESULT:    -3.591     13.953     14.508
REMARK INTER + INTRA:          -4.709
REMARK INTER:                  -4.469
REMARK INTRA:                  -0.240
REMARK UNBOUND:                -0.279
REMARK SMILES C=CC[C@H](C)C(=O)CC
REMARK SMILES IDX 4 1 5 2 6 3 7 4 8 5 9 6 3 7 2 8 1 9
REMARK H PARENT
REMARK Flexibility Score: inf
ROOT
ATOM      1  C   UNL     1      26.023  44.003 142.300  1.00  0.00     0.057 C 
ATOM      2  C   UNL     1      26.817  45.259 141.918  1.00  0.00     0.016 C 
ENDROOT
BRANCH   1   3
ATOM      3  C   UNL     1      24.591  44.372 142.616  1.00  0.00     0.135 C 
ATOM      4  O   UNL     1      24.111  44.063 143.699  1.00  0.00    -0.299 OA
BRANCH   3   5
ATOM      5  C   UNL     1      23.768  45.120 141.594  1.00  0.00     0.072 C 
ATOM      6  C   UNL     1      23.542  44.328 140.305  1.00  0.00     0.012 C 
ENDBRANCH   3   5
ENDBRANCH   1   3
BRANCH   1   7
ATOM      7  C   UNL     1      26.656  43.268 143.502  1.00  0.00     0.038 C 
BRANCH   7   8
ATOM      8  C   UNL     1      27.765  44.063 144.140  1.00  0.00    -0.034 C 
ATOM      9  C   UNL     1      28.935  43.504 144.461  1.00  0.00     0.004 C 
ENDBRANCH   7   8
ENDBRANCH   1   7
TORSDOF 4
ENDMDL
MODEL 6
REMARK VINA RESULT:    -3.587     13.663     14.175
REMARK INTER + INTRA:          -4.705
REMARK INTER:                  -4.436
REMARK INTRA:                  -0.270
REMARK UNBOUND:                -0.279
REMARK SMILES C=CC[C@H](C)C(=O)CC
REMARK SMILES IDX 4 1 5 2 6 3 7 4 8 5 9 6 3 7 2 8 1 9
REMARK H PARENT
REMARK Flexibility Score: inf
ROOT
ATOM      1  C   UNL     1      27.041  44.018 142.551  1.00  0.00     0.057 C 
ATOM      2  C   UNL     1      27.142  45.342 141.781  1.00  0.00     0.016 C 
ENDROOT
BRANCH   1   3
ATOM      3  C   UNL     1      25.646  43.449 142.421  1.00  0.00     0.135 C 
ATOM      4  O   UNL     1      25.380  42.705 141.487  1.00  0.00    -0.299 OA
BRANCH   3   5
ATOM      5  C   UNL     1      24.595  43.804 143.447  1.00  0.00     0.072 C 
ATOM      6  C   UNL     1      23.730  44.996 143.037  1.00  0.00     0.012 C 
ENDBRANCH   3   5
ENDBRANCH   1   3
BRANCH   1   7
ATOM      7  C   UNL     1      27.402  44.193 144.042  1.00  0.00     0.038 C 
BRANCH   7   8
ATOM      8  C   UNL     1      28.814  43.763 144.344  1.00  0.00    -0.034 C 
ATOM      9  C   UNL     1      29.180  42.478 144.309  1.00  0.00     0.004 C 
ENDBRANCH   7   8
ENDBRANCH   1   7
TORSDOF 4
ENDMDL
MODEL 7
REMARK VINA RESULT:    -3.580     13.731     14.285
REMARK INTER + INTRA:          -4.696
REMARK INTER:                  -4.418
REMARK INTRA:                  -0.278
REMARK UNBOUND:                -0.279
REMARK SMILES C=CC[C@H](C)C(=O)CC
REMARK SMILES IDX 4 1 5 2 6 3 7 4 8 5 9 6 3 7 2 8 1 9
REMARK H PARENT
REMARK Flexibility Score: inf
ROOT
ATOM      1  C   UNL     1      26.541  43.812 143.642  1.00  0.00     0.057 C 
ATOM      2  C   UNL     1      26.322  42.316 143.379  1.00  0.00     0.016 C 
ENDROOT
BRANCH   1   3
ATOM      3  C   UNL     1      26.397  44.591 142.355  1.00  0.00     0.135 C 
ATOM      4  O   UNL     1      27.355  45.209 141.910  1.00  0.00    -0.299 OA
BRANCH   3   5
ATOM      5  C   UNL     1      25.072  44.596 141.628  1.00  0.00     0.072 C 
ATOM      6  C   UNL     1      23.960  45.300 142.406  1.00  0.00     0.012 C 
ENDBRANCH   3   5
ENDBRANCH   1   3
BRANCH   1   7
ATOM      7  C   UNL     1      27.924  44.087 144.273  1.00  0.00     0.038 C 
BRANCH   7   8
ATOM      8  C   UNL     1      28.827  42.883 144.219  1.00  0.00    -0.034 C 
ATOM      9  C   UNL     1      29.956  42.882 143.502  1.00  0.00     0.004 C 
ENDBRANCH   7   8
ENDBRANCH   1   7
TORSDOF 4
ENDMDL
MODEL 8
REMARK VINA RESULT:    -3.576      1.509      3.252
REMARK INTER + INTRA:          -4.691
REMARK INTER:                  -4.246
REMARK INTRA:                  -0.445
REMARK UNBOUND:                -0.279
REMARK SMILES C=CC[C@H](C)C(=O)CC
REMARK SMILES IDX 4 1 5 2 6 3 7 4 8 5 9 6 3 7 2 8 1 9
REMARK H PARENT
REMARK Flexibility Score: inf
ROOT
ATOM      1  C   UNL     1      26.737  30.755 137.987  1.00  0.00     0.057 C 
ATOM      2  C   UNL     1      26.154  32.174 138.019  1.00  0.00     0.016 C 
ENDROOT
BRANCH   1   3
ATOM      3  C   UNL     1      27.282  30.389 139.348  1.00  0.00     0.135 C 
ATOM      4  O   UNL     1      27.006  31.083 140.317  1.00  0.00    -0.299 OA
BRANCH   3   5
ATOM      5  C   UNL     1      28.161  29.169 139.499  1.00  0.00     0.072 C 
ATOM      6  C   UNL     1      29.500  29.471 140.174  1.00  0.00     0.012 C 
ENDBRANCH   3   5
ENDBRANCH   1   3
BRANCH   1   7
ATOM      7  C   UNL     1      27.844  30.614 136.920  1.00  0.00     0.038 C 
BRANCH   7   8
ATOM      8  C   UNL     1      28.557  31.915 136.659  1.00  0.00    -0.034 C 
ATOM      9  C   UNL     1      29.778  32.157 137.145  1.00  0.00     0.004 C 
ENDBRANCH   7   8
ENDBRANCH   1   7
TORSDOF 4
ENDMDL
MODEL 9
REMARK VINA RESULT:    -3.529      1.146      2.720
REMARK INTER + INTRA:          -4.634
REMARK INTER:                  -4.177
REMARK INTRA:                  -0.456
REMARK UNBOUND:                -0.279
REMARK SMILES C=CC[C@H](C)C(=O)CC
REMARK SMILES IDX 4 1 5 2 6 3 7 4 8 5 9 6 3 7 2 8 1 9
REMARK H PARENT
REMARK Flexibility Score: inf
ROOT
ATOM      1  C   UNL     1      27.041  30.100 139.533  1.00  0.00     0.057 C 
ATOM      2  C   UNL     1      25.762  29.623 140.234  1.00  0.00     0.016 C 
ENDROOT
BRANCH   1   3
ATOM      3  C   UNL     1      26.711  30.624 138.154  1.00  0.00     0.135 C 
ATOM      4  O   UNL     1      25.610  31.113 137.940  1.00  0.00    -0.299 OA
BRANCH   3   5
ATOM      5  C   UNL     1      27.744  30.540 137.055  1.00  0.00     0.072 C 
ATOM      6  C   UNL     1      28.620  31.789 136.954  1.00  0.00     0.012 C 
ENDBRANCH   3   5
ENDBRANCH   1   3
BRANCH   1   7
ATOM      7  C   UNL     1      28.093  28.974 139.431  1.00  0.00     0.038 C 
BRANCH   7   8
ATOM      8  C   UNL     1      29.340  29.281 140.219  1.00  0.00    -0.034 C 
ATOM      9  C   UNL     1      29.759  30.536 140.410  1.00  0.00     0.004 C 
ENDBRANCH   7   8
ENDBRANCH   1   7
TORSDOF 4
ENDMDL
