MODEL 1
REMARK VINA RESULT:    -5.467      0.000      0.000
REMARK INTER + INTRA:          -8.754
REMARK INTER:                  -8.343
REMARK INTRA:                  -0.410
REMARK UNBOUND:                -0.410
REMARK SMILES CC1=CCC[C@@H](C)C(=O)C[C@H](C(C)C)C(=O)C1
REMARK SMILES IDX 8 1 9 2 6 3 7 4 5 5 4 6 3 7 2 8 1 9 10 11 11 12 15 13 16 14
REMARK SMILES IDX 17 15 12 17 13 18 14 19
REMARK H PARENT
REMARK Flexibility Score: 70.00
ROOT
ATOM      1  C   UNL     1      -8.304  32.748  22.061  1.00  0.00     0.136 C 
ATOM      2  O   UNL     1      -7.524  32.402  21.184  1.00  0.00    -0.299 OA
ENDROOT
BRANCH   1   3
ATOM      3  C   UNL     1      -8.386  34.225  22.490  1.00  0.00     0.053 C 
ATOM      4  C   UNL     1      -7.500  35.149  21.646  1.00  0.00     0.016 C 
BRANCH   3   5
ATOM      5  C   UNL     1      -7.935  34.210  23.934  1.00  0.00     0.015 C 
BRANCH   5   6
ATOM      6  C   UNL     1      -8.543  34.920  25.111  1.00  0.00     0.028 C 
BRANCH   6   7
ATOM      7  C   UNL     1      -8.232  34.091  26.366  1.00  0.00    -0.028 C 
ATOM      8  C   UNL     1      -8.705  32.846  26.741  1.00  0.00    -0.070 CG0
ATOM      9  C   UNL     1      -8.091  32.262  27.993  1.00  0.00     0.039 C 
ATOM     10  G   UNL     1      -9.803  31.992  26.045  1.00  0.00     0.000 G0
ENDBRANCH   6   7
ENDBRANCH   5   6
ENDBRANCH   3   5
ENDBRANCH   1   3
BRANCH   1  11
ATOM     11  C   UNL     1      -9.158  31.677  22.756  1.00  0.00     0.087 C 
BRANCH  11  12
ATOM     12  C   UNL     1      -8.471  30.900  23.948  1.00  0.00     0.066 C 
BRANCH  12  13
ATOM     13  C   UNL     1      -9.303  30.774  25.250  1.00  0.00     0.140 C 
ATOM     14  O   UNL     1      -9.653  29.655  25.599  1.00  0.00    -0.299 OA
BRANCH  13  15
ATOM     15  C   UNL     1      -9.815  31.978  26.062  1.00  0.00     0.106 CG0
ATOM     16  G   UNL     1      -8.706  32.836  26.735  1.00  0.00     0.000 G0
ENDBRANCH  13  15
ENDBRANCH  12  13
BRANCH  12  17
ATOM     17  C   UNL     1      -7.963  29.481  23.520  1.00  0.00    -0.006 C 
ATOM     18  C   UNL     1      -6.454  29.499  23.204  1.00  0.00     0.008 C 
ATOM     19  C   UNL     1      -8.710  28.915  22.297  1.00  0.00     0.008 C 
ENDBRANCH  12  17
ENDBRANCH  11  12
ENDBRANCH   1  11
TORSDOF 1
ENDMDL
MODEL 2
REMARK VINA RESULT:    -5.020      1.742      4.187
REMARK INTER + INTRA:          -8.072
REMARK INTER:                  -7.510
REMARK INTRA:                  -0.562
REMARK UNBOUND:                -0.410
REMARK SMILES CC1=CCC[C@@H](C)C(=O)C[C@H](C(C)C)C(=O)C1
REMARK SMILES IDX 8 1 9 2 6 3 7 4 5 5 4 6 3 7 2 8 1 9 10 11 11 12 15 13 16 14
REMARK SMILES IDX 17 15 12 17 13 18 14 19
REMARK H PARENT
REMARK Flexibility Score: 70.00
ROOT
ATOM      1  C   UNL     1      -7.802  34.052  22.043  1.00  0.00     0.136 C 
ATOM      2  O   UNL     1      -8.204  35.148  21.677  1.00  0.00    -0.299 OA
ENDROOT
BRANCH   1   3
ATOM      3  C   UNL     1      -7.631  32.908  21.026  1.00  0.00     0.053 C 
ATOM      4  C   UNL     1      -7.106  33.382  19.666  1.00  0.00     0.016 C 
BRANCH   3   5
ATOM      5  C   UNL     1      -9.021  32.324  20.897  1.00  0.00     0.015 C 
BRANCH   5   6
ATOM      6  C   UNL     1      -9.489  30.938  21.238  1.00  0.00     0.028 C 
BRANCH   6   7
ATOM      7  C   UNL     1      -8.577  30.397  22.348  1.00  0.00    -0.028 C 
ATOM      8  C   UNL     1      -8.693  30.515  23.722  1.00  0.00    -0.070 CG0
ATOM      9  C   UNL     1      -7.675  29.748  24.534  1.00  0.00     0.039 C 
ATOM     10  G   UNL     1      -9.725  31.358  24.524  1.00  0.00     0.000 G0
ENDBRANCH   6   7
ENDBRANCH   5   6
ENDBRANCH   3   5
ENDBRANCH   1   3
BRANCH   1  11
ATOM     11  C   UNL     1      -7.520  33.828  23.536  1.00  0.00     0.087 C 
BRANCH  11  12
ATOM     12  C   UNL     1      -8.765  33.919  24.504  1.00  0.00     0.066 C 
BRANCH  12  13
ATOM     13  C   UNL     1      -9.150  32.612  25.244  1.00  0.00     0.140 C 
ATOM     14  O   UNL     1      -8.893  32.533  26.437  1.00  0.00    -0.299 OA
BRANCH  13  15
ATOM     15  C   UNL     1      -9.726  31.366  24.545  1.00  0.00     0.106 CG0
ATOM     16  G   UNL     1      -8.691  30.527  23.742  1.00  0.00     0.000 G0
ENDBRANCH  13  15
ENDBRANCH  12  13
BRANCH  12  17
ATOM     17  C   UNL     1      -8.626  35.080  25.545  1.00  0.00    -0.006 C 
ATOM     18  C   UNL     1      -9.373  36.345  25.075  1.00  0.00     0.008 C 
ATOM     19  C   UNL     1      -7.161  35.460  25.836  1.00  0.00     0.008 C 
ENDBRANCH  12  17
ENDBRANCH  11  12
ENDBRANCH   1  11
TORSDOF 1
ENDMDL
MODEL 3
REMARK VINA RESULT:    -4.756      2.349      4.287
REMARK INTER + INTRA:          -7.669
REMARK INTER:                  -7.100
REMARK INTRA:                  -0.569
REMARK UNBOUND:                -0.410
REMARK SMILES CC1=CCC[C@@H](C)C(=O)C[C@H](C(C)C)C(=O)C1
REMARK SMILES IDX 8 1 9 2 6 3 7 4 5 5 4 6 3 7 2 8 1 9 10 11 11 12 15 13 16 14
REMARK SMILES IDX 17 15 12 17 13 18 14 19
REMARK H PARENT
REMARK Flexibility Score: 70.00
ROOT
ATOM      1  C   UNL     1      -8.354  33.567  25.579  1.00  0.00     0.136 C 
ATOM      2  O   UNL     1      -9.297  33.358  26.330  1.00  0.00    -0.299 OA
ENDROOT
BRANCH   1   3
ATOM      3  C   UNL     1      -7.910  35.010  25.273  1.00  0.00     0.053 C 
ATOM      4  C   UNL     1      -9.032  36.039  25.456  1.00  0.00     0.016 C 
BRANCH   3   5
ATOM      5  C   UNL     1      -7.455  34.953  23.831  1.00  0.00     0.015 C 
BRANCH   5   6
ATOM      6  C   UNL     1      -8.261  35.190  22.586  1.00  0.00     0.028 C 
BRANCH   6   7
ATOM      7  C   UNL     1      -7.601  34.403  21.445  1.00  0.00    -0.028 C 
ATOM      8  C   UNL     1      -7.890  33.138  20.962  1.00  0.00    -0.070 CG0
ATOM      9  C   UNL     1      -7.118  32.713  19.735  1.00  0.00     0.039 C 
ATOM     10  G   UNL     1      -8.892  32.101  21.544  1.00  0.00     0.000 G0
ENDBRANCH   6   7
ENDBRANCH   5   6
ENDBRANCH   3   5
ENDBRANCH   1   3
BRANCH   1  11
ATOM     11  C   UNL     1      -7.659  32.371  24.912  1.00  0.00     0.087 C 
BRANCH  11  12
ATOM     12  C   UNL     1      -8.598  31.349  24.156  1.00  0.00     0.066 C 
BRANCH  12  13
ATOM     13  C   UNL     1      -8.320  31.158  22.643  1.00  0.00     0.140 C 
ATOM     14  O   UNL     1      -7.519  30.295  22.313  1.00  0.00    -0.299 OA
BRANCH  13  15
ATOM     15  C   UNL     1      -8.897  32.067  21.542  1.00  0.00     0.106 CG0
ATOM     16  G   UNL     1      -7.904  33.117  20.969  1.00  0.00     0.000 G0
ENDBRANCH  13  15
ENDBRANCH  12  13
BRANCH  12  17
ATOM     17  C   UNL     1      -8.638  29.948  24.855  1.00  0.00    -0.006 C 
ATOM     18  C   UNL     1     -10.088  29.503  25.133  1.00  0.00     0.008 C 
ATOM     19  C   UNL     1      -7.854  29.911  26.181  1.00  0.00     0.008 C 
ENDBRANCH  12  17
ENDBRANCH  11  12
ENDBRANCH   1  11
TORSDOF 1
ENDMDL
MODEL 4
REMARK VINA RESULT:    -4.751      2.110      4.626
REMARK INTER + INTRA:          -7.661
REMARK INTER:                  -8.081
REMARK INTRA:                   0.420
REMARK UNBOUND:                -0.410
REMARK SMILES CC1=CCC[C@@H](C)C(=O)C[C@H](C(C)C)C(=O)C1
REMARK SMILES IDX 8 1 9 2 6 3 7 4 5 5 4 6 3 7 2 8 1 9 10 11 11 12 15 13 16 14
REMARK SMILES IDX 17 15 12 17 13 18 14 19
REMARK H PARENT
REMARK Flexibility Score: 70.00
ROOT
ATOM      1  C   UNL     1      -8.895  33.114  25.029  1.00  0.00     0.136 C 
ATOM      2  O   UNL     1      -7.986  33.904  25.237  1.00  0.00    -0.299 OA
ENDROOT
BRANCH   1   3
ATOM      3  C   UNL     1      -9.374  32.167  26.147  1.00  0.00     0.053 C 
ATOM      4  C   UNL     1      -8.228  31.624  27.009  1.00  0.00     0.016 C 
BRANCH   3   5
ATOM      5  C   UNL     1     -10.070  31.049  25.403  1.00  0.00     0.015 C 
BRANCH   5   6
ATOM      6  C   UNL     1      -9.686  29.599  25.319  1.00  0.00     0.028 C 
BRANCH   6   7
ATOM      7  C   UNL     1      -8.280  29.524  24.707  1.00  0.00    -0.028 C 
ATOM      8  C   UNL     1      -7.880  29.674  23.391  1.00  0.00    -0.070 CG0
ATOM      9  C   UNL     1      -6.388  29.662  23.153  1.00  0.00     0.039 C 
ATOM     10  G   UNL     1      -8.781  29.827  22.132  1.00  0.00     0.000 G0
ENDBRANCH   6   7
ENDBRANCH   5   6
ENDBRANCH   3   5
ENDBRANCH   1   3
BRANCH   1  11
ATOM     11  C   UNL     1      -9.514  33.050  23.625  1.00  0.00     0.087 C 
BRANCH  11  12
ATOM     12  C   UNL     1      -8.568  32.540  22.466  1.00  0.00     0.066 C 
BRANCH  12  13
ATOM     13  C   UNL     1      -9.056  31.292  21.687  1.00  0.00     0.140 C 
ATOM     14  O   UNL     1      -9.805  31.469  20.737  1.00  0.00    -0.299 OA
BRANCH  13  15
ATOM     15  C   UNL     1      -8.752  29.843  22.108  1.00  0.00     0.106 CG0
ATOM     16  G   UNL     1      -7.885  29.700  23.392  1.00  0.00     0.000 G0
ENDBRANCH  13  15
ENDBRANCH  12  13
BRANCH  12  17
ATOM     17  C   UNL     1      -8.206  33.675  21.451  1.00  0.00    -0.006 C 
ATOM     18  C   UNL     1      -7.302  33.146  20.319  1.00  0.00     0.008 C 
ATOM     19  C   UNL     1      -7.504  34.878  22.112  1.00  0.00     0.008 C 
ENDBRANCH  12  17
ENDBRANCH  11  12
ENDBRANCH   1  11
TORSDOF 1
ENDMDL
MODEL 5
REMARK VINA RESULT:    -4.669      1.609      2.240
REMARK INTER + INTRA:          -7.537
REMARK INTER:                  -7.088
REMARK INTRA:                  -0.449
REMARK UNBOUND:                -0.410
REMARK SMILES CC1=CCC[C@@H](C)C(=O)C[C@H](C(C)C)C(=O)C1
REMARK SMILES IDX 8 1 9 2 6 3 7 4 5 5 4 6 3 7 2 8 1 9 10 11 11 12 15 13 16 14
REMARK SMILES IDX 17 15 12 17 13 18 14 19
REMARK H PARENT
REMARK Flexibility Score: 70.00
ROOT
ATOM      1  C   UNL     1      -8.535  33.168  23.799  1.00  0.00     0.136 C 
ATOM      2  O   UNL     1      -7.820  33.393  22.833  1.00  0.00    -0.299 OA
ENDROOT
BRANCH   1   3
ATOM      3  C   UNL     1      -8.711  34.230  24.901  1.00  0.00     0.053 C 
ATOM      4  C   UNL     1      -7.465  35.098  25.107  1.00  0.00     0.016 C 
BRANCH   3   5
ATOM      5  C   UNL     1      -9.020  33.420  26.141  1.00  0.00     0.015 C 
BRANCH   5   6
ATOM      6  C   UNL     1      -8.090  33.011  27.247  1.00  0.00     0.028 C 
BRANCH   6   7
ATOM      7  C   UNL     1      -8.785  31.906  28.056  1.00  0.00    -0.028 C 
ATOM      8  C   UNL     1      -8.698  30.531  27.927  1.00  0.00    -0.070 CG0
ATOM      9  C   UNL     1      -9.426  29.726  28.979  1.00  0.00     0.039 C 
ATOM     10  G   UNL     1      -7.965  29.720  26.821  1.00  0.00     0.000 G0
ENDBRANCH   6   7
ENDBRANCH   5   6
ENDBRANCH   3   5
ENDBRANCH   1   3
BRANCH   1  11
ATOM     11  C   UNL     1      -9.210  31.793  23.915  1.00  0.00     0.087 C 
BRANCH  11  12
ATOM     12  C   UNL     1      -8.260  30.573  24.243  1.00  0.00     0.066 C 
BRANCH  12  13
ATOM     13  C   UNL     1      -8.681  29.684  25.442  1.00  0.00     0.140 C 
ATOM     14  O   UNL     1      -9.689  29.001  25.320  1.00  0.00    -0.299 OA
BRANCH  13  15
ATOM     15  C   UNL     1      -7.979  29.700  26.812  1.00  0.00     0.106 CG0
ATOM     16  G   UNL     1      -8.712  30.513  27.916  1.00  0.00     0.000 G0
ENDBRANCH  13  15
ENDBRANCH  12  13
BRANCH  12  17
ATOM     17  C   UNL     1      -8.003  29.667  22.993  1.00  0.00    -0.006 C 
ATOM     18  C   UNL     1      -6.494  29.457  22.755  1.00  0.00     0.008 C 
ATOM     19  C   UNL     1      -8.625  30.228  21.700  1.00  0.00     0.008 C 
ENDBRANCH  12  17
ENDBRANCH  11  12
ENDBRANCH   1  11
TORSDOF 1
ENDMDL
MODEL 6
REMARK VINA RESULT:    -4.589      2.084      5.255
REMARK INTER + INTRA:          -7.413
REMARK INTER:                  -6.954
REMARK INTRA:                  -0.459
REMARK UNBOUND:                -0.410
REMARK SMILES CC1=CCC[C@@H](C)C(=O)C[C@H](C(C)C)C(=O)C1
REMARK SMILES IDX 8 1 9 2 6 3 7 4 5 5 4 6 3 7 2 8 1 9 10 11 11 12 15 13 16 14
REMARK SMILES IDX 17 15 12 17 13 18 14 19
REMARK H PARENT
REMARK Flexibility Score: 70.00
ROOT
ATOM      1  C   UNL     1      -8.870  32.257  26.668  1.00  0.00     0.136 C 
ATOM      2  O   UNL     1      -8.072  32.934  27.300  1.00  0.00    -0.299 OA
ENDROOT
BRANCH   1   3
ATOM      3  C   UNL     1      -9.258  30.850  27.162  1.00  0.00     0.053 C 
ATOM      4  C   UNL     1      -9.584  30.803  28.659  1.00  0.00     0.016 C 
BRANCH   3   5
ATOM      5  C   UNL     1      -8.043  30.006  26.844  1.00  0.00     0.015 C 
BRANCH   5   6
ATOM      6  C   UNL     1      -7.174  30.041  25.619  1.00  0.00     0.028 C 
BRANCH   6   7
ATOM      7  C   UNL     1      -7.963  29.400  24.469  1.00  0.00    -0.028 C 
ATOM      8  C   UNL     1      -8.120  29.825  23.161  1.00  0.00    -0.070 CG0
ATOM      9  C   UNL     1      -8.869  28.881  22.250  1.00  0.00     0.039 C 
ATOM     10  G   UNL     1      -7.641  31.163  22.529  1.00  0.00     0.000 G0
ENDBRANCH   6   7
ENDBRANCH   5   6
ENDBRANCH   3   5
ENDBRANCH   1   3
BRANCH   1  11
ATOM     11  C   UNL     1      -9.437  32.815  25.354  1.00  0.00     0.087 C 
BRANCH  11  12
ATOM     12  C   UNL     1      -8.382  33.175  24.235  1.00  0.00     0.066 C 
BRANCH  12  13
ATOM     13  C   UNL     1      -8.510  32.396  22.901  1.00  0.00     0.140 C 
ATOM     14  O   UNL     1      -9.410  32.716  22.136  1.00  0.00    -0.299 OA
BRANCH  13  15
ATOM     15  C   UNL     1      -7.653  31.170  22.536  1.00  0.00     0.106 CG0
ATOM     16  G   UNL     1      -8.131  29.826  23.155  1.00  0.00     0.000 G0
ENDBRANCH  13  15
ENDBRANCH  12  13
BRANCH  12  17
ATOM     17  C   UNL     1      -8.335  34.711  23.933  1.00  0.00    -0.006 C 
ATOM     18  C   UNL     1      -7.038  35.096  23.193  1.00  0.00     0.008 C 
ATOM     19  C   UNL     1      -8.448  35.580  25.201  1.00  0.00     0.008 C 
ENDBRANCH  12  17
ENDBRANCH  11  12
ENDBRANCH   1  11
TORSDOF 1
ENDMDL
MODEL 7
REMARK VINA RESULT:    -4.509      1.611      4.146
REMARK INTER + INTRA:          -7.293
REMARK INTER:                  -6.983
REMARK INTRA:                  -0.309
REMARK UNBOUND:                -0.410
REMARK SMILES CC1=CCC[C@@H](C)C(=O)C[C@H](C(C)C)C(=O)C1
REMARK SMILES IDX 8 1 9 2 6 3 7 4 5 5 4 6 3 7 2 8 1 9 10 11 11 12 15 13 16 14
REMARK SMILES IDX 17 15 12 17 13 18 14 19
REMARK H PARENT
REMARK Flexibility Score: 70.00
ROOT
ATOM      1  C   UNL     1      -8.254  31.225  23.070  1.00  0.00     0.136 C 
ATOM      2  O   UNL     1      -9.112  31.180  22.199  1.00  0.00    -0.299 OA
ENDROOT
BRANCH   1   3
ATOM      3  C   UNL     1      -7.784  29.933  23.766  1.00  0.00     0.053 C 
ATOM      4  C   UNL     1      -6.719  29.171  22.969  1.00  0.00     0.016 C 
BRANCH   3   5
ATOM      5  C   UNL     1      -9.049  29.113  23.903  1.00  0.00     0.015 C 
BRANCH   5   6
ATOM      6  C   UNL     1     -10.124  29.221  24.946  1.00  0.00     0.028 C 
BRANCH   6   7
ATOM      7  C   UNL     1      -9.446  29.552  26.283  1.00  0.00    -0.028 C 
ATOM      8  C   UNL     1      -9.366  30.758  26.958  1.00  0.00    -0.070 CG0
ATOM      9  C   UNL     1      -8.723  30.703  28.324  1.00  0.00     0.039 C 
ATOM     10  G   UNL     1      -9.836  32.158  26.470  1.00  0.00     0.000 G0
ENDBRANCH   6   7
ENDBRANCH   5   6
ENDBRANCH   3   5
ENDBRANCH   1   3
BRANCH   1  11
ATOM     11  C   UNL     1      -7.694  32.593  23.487  1.00  0.00     0.087 C 
BRANCH  11  12
ATOM     12  C   UNL     1      -8.631  33.485  24.395  1.00  0.00     0.066 C 
BRANCH  12  13
ATOM     13  C   UNL     1      -8.724  33.075  25.887  1.00  0.00     0.140 C 
ATOM     14  O   UNL     1      -7.815  33.415  26.631  1.00  0.00    -0.299 OA
BRANCH  13  15
ATOM     15  C   UNL     1      -9.829  32.170  26.462  1.00  0.00     0.106 CG0
ATOM     16  G   UNL     1      -9.347  30.770  26.939  1.00  0.00     0.000 G0
ENDBRANCH  13  15
ENDBRANCH  12  13
BRANCH  12  17
ATOM     17  C   UNL     1      -8.279  35.007  24.297  1.00  0.00    -0.006 C 
ATOM     18  C   UNL     1      -9.389  35.879  24.919  1.00  0.00     0.008 C 
ATOM     19  C   UNL     1      -8.041  35.482  22.850  1.00  0.00     0.008 C 
ENDBRANCH  12  17
ENDBRANCH  11  12
ENDBRANCH   1  11
TORSDOF 1
ENDMDL
MODEL 8
REMARK VINA RESULT:    -4.320      1.971      4.316
REMARK INTER + INTRA:          -7.003
REMARK INTER:                  -6.805
REMARK INTRA:                  -0.199
REMARK UNBOUND:                -0.410
REMARK SMILES CC1=CCC[C@@H](C)C(=O)C[C@H](C(C)C)C(=O)C1
REMARK SMILES IDX 8 1 9 2 6 3 7 4 5 5 4 6 3 7 2 8 1 9 10 11 11 12 15 13 16 14
REMARK SMILES IDX 17 15 12 17 13 18 14 19
REMARK H PARENT
REMARK Flexibility Score: 70.00
ROOT
ATOM      1  C   UNL     1      -8.630  30.524  23.970  1.00  0.00     0.136 C 
ATOM      2  O   UNL     1      -7.595  30.058  24.426  1.00  0.00    -0.299 OA
ENDROOT
BRANCH   1   3
ATOM      3  C   UNL     1      -9.035  30.235  22.512  1.00  0.00     0.053 C 
ATOM      4  C   UNL     1      -8.541  28.875  22.006  1.00  0.00     0.016 C 
BRANCH   3   5
ATOM      5  C   UNL     1      -8.407  31.367  21.729  1.00  0.00     0.015 C 
BRANCH   5   6
ATOM      6  C   UNL     1      -8.942  32.751  21.492  1.00  0.00     0.028 C 
BRANCH   6   7
ATOM      7  C   UNL     1      -7.908  33.749  22.032  1.00  0.00    -0.028 C 
ATOM      8  C   UNL     1      -7.880  34.426  23.239  1.00  0.00    -0.070 CG0
ATOM      9  C   UNL     1      -6.639  35.246  23.502  1.00  0.00     0.039 C 
ATOM     10  G   UNL     1      -8.979  34.460  24.339  1.00  0.00     0.000 G0
ENDBRANCH   6   7
ENDBRANCH   5   6
ENDBRANCH   3   5
ENDBRANCH   1   3
BRANCH   1  11
ATOM     11  C   UNL     1      -9.486  31.438  24.859  1.00  0.00     0.087 C 
BRANCH  11  12
ATOM     12  C   UNL     1      -8.710  32.279  25.949  1.00  0.00     0.066 C 
BRANCH  12  13
ATOM     13  C   UNL     1      -8.592  33.801  25.678  1.00  0.00     0.140 C 
ATOM     14  O   UNL     1      -8.259  34.523  26.607  1.00  0.00    -0.299 OA
BRANCH  13  15
ATOM     15  C   UNL     1      -8.984  34.470  24.347  1.00  0.00     0.106 CG0
ATOM     16  G   UNL     1      -7.884  34.438  23.248  1.00  0.00     0.000 G0
ENDBRANCH  13  15
ENDBRANCH  12  13
BRANCH  12  17
ATOM     17  C   UNL     1      -9.278  32.053  27.391  1.00  0.00    -0.006 C 
ATOM     18  C   UNL     1      -8.171  32.190  28.455  1.00  0.00     0.008 C 
ATOM     19  C   UNL     1      -9.954  30.679  27.566  1.00  0.00     0.008 C 
ENDBRANCH  12  17
ENDBRANCH  11  12
ENDBRANCH   1  11
TORSDOF 1
ENDMDL
MODEL 9
REMARK VINA RESULT:    -3.485     18.185     19.828
REMARK INTER + INTRA:          -5.729
REMARK INTER:                  -5.202
REMARK INTRA:                  -0.527
REMARK UNBOUND:                -0.410
REMARK SMILES CC1=CCC[C@@H](C)C(=O)C[C@H](C(C)C)C(=O)C1
REMARK SMILES IDX 8 1 9 2 6 3 7 4 5 5 4 6 3 7 2 8 1 9 10 11 11 12 15 13 16 14
REMARK SMILES IDX 17 15 12 17 13 18 14 19
REMARK H PARENT
REMARK Flexibility Score: 70.00
ROOT
ATOM      1  C   UNL     1       2.127  47.992  15.270  1.00  0.00     0.136 C 
ATOM      2  O   UNL     1       2.273  47.305  14.269  1.00  0.00    -0.299 OA
ENDROOT
BRANCH   1   3
ATOM      3  C   UNL     1       3.305  48.214  16.239  1.00  0.00     0.053 C 
ATOM      4  C   UNL     1       4.472  47.248  16.002  1.00  0.00     0.016 C 
BRANCH   3   5
ATOM      5  C   UNL     1       2.695  48.003  17.607  1.00  0.00     0.015 C 
BRANCH   5   6
ATOM      6  C   UNL     1       2.602  48.974  18.750  1.00  0.00     0.028 C 
BRANCH   6   7
ATOM      7  C   UNL     1       1.505  48.473  19.700  1.00  0.00    -0.028 C 
ATOM      8  C   UNL     1       0.135  48.412  19.512  1.00  0.00    -0.070 CG0
ATOM      9  C   UNL     1      -0.649  47.742  20.616  1.00  0.00     0.039 C 
ATOM     10  G   UNL     1      -0.691  48.970  18.318  1.00  0.00     0.000 G0
ENDBRANCH   6   7
ENDBRANCH   5   6
ENDBRANCH   3   5
ENDBRANCH   1   3
BRANCH   1  11
ATOM     11  C   UNL     1       0.742  48.585  15.567  1.00  0.00     0.087 C 
BRANCH  11  12
ATOM     12  C   UNL     1      -0.376  47.560  16.013  1.00  0.00     0.066 C 
BRANCH  12  13
ATOM     13  C   UNL     1      -1.164  47.928  17.296  1.00  0.00     0.140 C 
ATOM     14  O   UNL     1      -2.267  47.422  17.454  1.00  0.00    -0.299 OA
BRANCH  13  15
ATOM     15  C   UNL     1      -0.697  48.977  18.321  1.00  0.00     0.106 CG0
ATOM     16  G   UNL     1       0.108  48.407  19.524  1.00  0.00     0.000 G0
ENDBRANCH  13  15
ENDBRANCH  12  13
BRANCH  12  17
ATOM     17  C   UNL     1      -1.385  47.241  14.859  1.00  0.00    -0.006 C 
ATOM     18  C   UNL     1      -1.112  45.853  14.245  1.00  0.00     0.008 C 
ATOM     19  C   UNL     1      -1.362  48.287  13.728  1.00  0.00     0.008 C 
ENDBRANCH  12  17
ENDBRANCH  11  12
ENDBRANCH   1  11
TORSDOF 1
ENDMDL
