MODEL 1
REMARK VINA RESULT:    -4.391      0.000      0.000
REMARK INTER + INTRA:         -13.081
REMARK INTER:                 -10.038
REMARK INTRA:                  -3.042
REMARK UNBOUND:                -3.042
REMARK SMILES CCCCCCCCCCCCCCCCCCCCCCCC(=O)[O-]
REMARK SMILES IDX 13 1 14 2 15 3 16 4 17 5 18 6 19 7 20 8 21 9 22 10 23 11
REMARK SMILES IDX 24 12 25 13 26 14 12 15 11 16 10 17 9 18 8 19 7 20 6 21 5 22
REMARK SMILES IDX 4 23 3 24 2 25 1 26
REMARK H PARENT
REMARK Flexibility Score: inf
ROOT
ATOM      1  C   UNL     1       6.832  33.304   6.930  1.00  0.00     0.000 C 
ENDROOT
BRANCH   1   2
ATOM      2  C   UNL     1       5.995  34.509   7.408  1.00  0.00     0.000 C 
BRANCH   2   3
ATOM      3  C   UNL     1       4.734  34.804   6.568  1.00  0.00     0.000 C 
BRANCH   3   4
ATOM      4  C   UNL     1       5.039  35.130   5.096  1.00  0.00     0.000 C 
BRANCH   4   5
ATOM      5  C   UNL     1       3.898  34.704   4.147  1.00  0.00     0.000 C 
BRANCH   5   6
ATOM      6  C   UNL     1       4.416  34.152   2.807  1.00  0.00     0.000 C 
BRANCH   6   7
ATOM      7  C   UNL     1       5.944  34.288   2.650  1.00  0.00     0.000 C 
BRANCH   7   8
ATOM      8  C   UNL     1       6.450  33.687   1.328  1.00  0.00     0.000 C 
BRANCH   8   9
ATOM      9  C   UNL     1       7.112  34.763   0.455  1.00  0.00     0.000 C 
BRANCH   9  10
ATOM     10  C   UNL     1       7.954  35.765   1.269  1.00  0.00     0.006 C 
BRANCH  10  11
ATOM     11  C   UNL     1       9.262  36.196   0.585  1.00  0.00     0.053 C 
BRANCH  11  12
ATOM     12  C   UNL     1       9.664  37.587   0.971  1.00  0.00     0.041 C 
ATOM     13  O   UNL     1       8.816  38.520   0.958  1.00  0.00    -0.550 OA
ATOM     14  O   UNL     1      10.983  37.859   1.316  1.00  0.00    -0.550 OA
ENDBRANCH  11  12
ENDBRANCH  10  11
ENDBRANCH   9  10
ENDBRANCH   8   9
ENDBRANCH   7   8
ENDBRANCH   6   7
ENDBRANCH   5   6
ENDBRANCH   4   5
ENDBRANCH   3   4
ENDBRANCH   2   3
ENDBRANCH   1   2
BRANCH   1  15
ATOM     15  C   UNL     1       7.295  32.342   8.042  1.00  0.00     0.000 C 
BRANCH  15  16
ATOM     16  C   UNL     1       7.896  33.022   9.289  1.00  0.00     0.000 C 
BRANCH  16  17
ATOM     17  C   UNL     1       9.434  33.013   9.354  1.00  0.00     0.000 C 
BRANCH  17  18
ATOM     18  C   UNL     1      10.070  34.150   8.540  1.00  0.00    -0.000 C 
BRANCH  18  19
ATOM     19  C   UNL     1      10.885  33.596   7.363  1.00  0.00    -0.000 C 
BRANCH  19  20
ATOM     20  C   UNL     1      11.244  32.109   7.533  1.00  0.00    -0.000 C 
BRANCH  20  21
ATOM     21  C   UNL     1      10.423  31.132   6.665  1.00  0.00    -0.000 C 
BRANCH  21  22
ATOM     22  C   UNL     1       9.990  31.687   5.296  1.00  0.00    -0.000 C 
BRANCH  22  23
ATOM     23  C   UNL     1       9.276  30.639   4.425  1.00  0.00    -0.000 C 
BRANCH  23  24
ATOM     24  C   UNL     1       8.207  31.253   3.504  1.00  0.00    -0.000 C 
BRANCH  24  25
ATOM     25  C   UNL     1       6.887  30.464   3.438  1.00  0.00    -0.003 C 
ATOM     26  C   UNL     1       5.852  30.942   4.456  1.00  0.00     0.004 C 
ENDBRANCH  24  25
ENDBRANCH  23  24
ENDBRANCH  22  23
ENDBRANCH  21  22
ENDBRANCH  20  21
ENDBRANCH  19  20
ENDBRANCH  18  19
ENDBRANCH  17  18
ENDBRANCH  16  17
ENDBRANCH  15  16
ENDBRANCH   1  15
TORSDOF 22
ENDMDL
MODEL 2
REMARK VINA RESULT:    -4.293     10.686     13.534
REMARK INTER + INTRA:         -12.857
REMARK INTER:                  -7.936
REMARK INTRA:                  -4.921
REMARK UNBOUND:                -3.042
REMARK SMILES CCCCCCCCCCCCCCCCCCCCCCCC(=O)[O-]
REMARK SMILES IDX 13 1 14 2 15 3 16 4 17 5 18 6 19 7 20 8 21 9 22 10 23 11
REMARK SMILES IDX 24 12 25 13 26 14 12 15 11 16 10 17 9 18 8 19 7 20 6 21 5 22
REMARK SMILES IDX 4 23 3 24 2 25 1 26
REMARK H PARENT
REMARK Flexibility Score: inf
ROOT
ATOM      1  C   UNL     1       4.120  38.064  -8.873  1.00  0.00     0.000 C 
ENDROOT
BRANCH   1   2
ATOM      2  C   UNL     1       3.844  39.493  -8.358  1.00  0.00     0.000 C 
BRANCH   2   3
ATOM      3  C   UNL     1       4.729  39.943  -7.176  1.00  0.00     0.000 C 
BRANCH   3   4
ATOM      4  C   UNL     1       5.841  38.940  -6.824  1.00  0.00     0.000 C 
BRANCH   4   5
ATOM      5  C   UNL     1       5.580  38.214  -5.486  1.00  0.00     0.000 C 
BRANCH   5   6
ATOM      6  C   UNL     1       4.218  38.578  -4.870  1.00  0.00     0.000 C 
BRANCH   6   7
ATOM      7  C   UNL     1       3.220  37.403  -4.876  1.00  0.00     0.000 C 
BRANCH   7   8
ATOM      8  C   UNL     1       1.797  37.848  -5.250  1.00  0.00     0.000 C 
BRANCH   8   9
ATOM      9  C   UNL     1       0.824  36.659  -5.218  1.00  0.00     0.000 C 
BRANCH   9  10
ATOM     10  C   UNL     1      -0.006  36.527  -6.511  1.00  0.00     0.006 C 
BRANCH  10  11
ATOM     11  C   UNL     1      -0.249  37.855  -7.247  1.00  0.00     0.053 C 
BRANCH  11  12
ATOM     12  C   UNL     1      -1.681  38.015  -7.656  1.00  0.00     0.041 C 
ATOM     13  O   UNL     1      -2.373  37.004  -7.955  1.00  0.00    -0.550 OA
ATOM     14  O   UNL     1      -2.243  39.283  -7.736  1.00  0.00    -0.550 OA
ENDBRANCH  11  12
ENDBRANCH  10  11
ENDBRANCH   9  10
ENDBRANCH   8   9
ENDBRANCH   7   8
ENDBRANCH   6   7
ENDBRANCH   5   6
ENDBRANCH   4   5
ENDBRANCH   3   4
ENDBRANCH   2   3
ENDBRANCH   1   2
BRANCH   1  15
ATOM     15  C   UNL     1       2.953  37.070  -8.708  1.00  0.00     0.000 C 
BRANCH  15  16
ATOM     16  C   UNL     1       3.350  35.674  -8.187  1.00  0.00     0.000 C 
BRANCH  16  17
ATOM     17  C   UNL     1       4.843  35.510  -7.845  1.00  0.00     0.000 C 
BRANCH  17  18
ATOM     18  C   UNL     1       5.464  34.258  -8.481  1.00  0.00    -0.000 C 
BRANCH  18  19
ATOM     19  C   UNL     1       6.750  33.849  -7.748  1.00  0.00    -0.000 C 
BRANCH  19  20
ATOM     20  C   UNL     1       7.029  34.712  -6.505  1.00  0.00    -0.000 C 
BRANCH  20  21
ATOM     21  C   UNL     1       6.802  34.005  -5.151  1.00  0.00    -0.000 C 
BRANCH  21  22
ATOM     22  C   UNL     1       5.750  34.666  -4.242  1.00  0.00    -0.000 C 
BRANCH  22  23
ATOM     23  C   UNL     1       4.373  33.989  -4.331  1.00  0.00    -0.000 C 
BRANCH  23  24
ATOM     24  C   UNL     1       4.439  32.573  -4.930  1.00  0.00    -0.000 C 
BRANCH  24  25
ATOM     25  C   UNL     1       3.446  32.314  -6.077  1.00  0.00    -0.003 C 
ATOM     26  C   UNL     1       2.137  33.089  -5.922  1.00  0.00     0.004 C 
ENDBRANCH  24  25
ENDBRANCH  23  24
ENDBRANCH  22  23
ENDBRANCH  21  22
ENDBRANCH  20  21
ENDBRANCH  19  20
ENDBRANCH  18  19
ENDBRANCH  17  18
ENDBRANCH  16  17
ENDBRANCH  15  16
ENDBRANCH   1  15
TORSDOF 22
ENDMDL
MODEL 3
REMARK VINA RESULT:    -4.207      3.081      6.701
REMARK INTER + INTRA:         -12.659
REMARK INTER:                  -8.422
REMARK INTRA:                  -4.237
REMARK UNBOUND:                -3.042
REMARK SMILES CCCCCCCCCCCCCCCCCCCCCCCC(=O)[O-]
REMARK SMILES IDX 13 1 14 2 15 3 16 4 17 5 18 6 19 7 20 8 21 9 22 10 23 11
REMARK SMILES IDX 24 12 25 13 26 14 12 15 11 16 10 17 9 18 8 19 7 20 6 21 5 22
REMARK SMILES IDX 4 23 3 24 2 25 1 26
REMARK H PARENT
REMARK Flexibility Score: inf
ROOT
ATOM      1  C   UNL     1      10.629  32.896   6.990  1.00  0.00     0.000 C 
ENDROOT
BRANCH   1   2
ATOM      2  C   UNL     1      11.725  32.216   7.838  1.00  0.00     0.000 C 
BRANCH   2   3
ATOM      3  C   UNL     1      11.911  32.801   9.254  1.00  0.00     0.000 C 
BRANCH   3   4
ATOM      4  C   UNL     1      11.384  31.886  10.373  1.00  0.00     0.000 C 
BRANCH   4   5
ATOM      5  C   UNL     1      10.021  32.354  10.927  1.00  0.00     0.000 C 
BRANCH   5   6
ATOM      6  C   UNL     1       8.915  31.300  10.746  1.00  0.00     0.000 C 
BRANCH   6   7
ATOM      7  C   UNL     1       9.252  30.251   9.668  1.00  0.00     0.000 C 
BRANCH   7   8
ATOM      8  C   UNL     1       8.241  30.259   8.509  1.00  0.00     0.000 C 
BRANCH   8   9
ATOM      9  C   UNL     1       8.567  29.160   7.488  1.00  0.00     0.000 C 
BRANCH   9  10
ATOM     10  C   UNL     1       9.142  29.715   6.170  1.00  0.00     0.006 C 
BRANCH  10  11
ATOM     11  C   UNL     1       8.448  29.186   4.903  1.00  0.00     0.053 C 
BRANCH  11  12
ATOM     12  C   UNL     1       8.950  29.864   3.665  1.00  0.00     0.041 C 
ATOM     13  O   UNL     1       9.064  29.217   2.589  1.00  0.00    -0.550 OA
ATOM     14  O   UNL     1       9.320  31.202   3.707  1.00  0.00    -0.550 OA
ENDBRANCH  11  12
ENDBRANCH  10  11
ENDBRANCH   9  10
ENDBRANCH   8   9
ENDBRANCH   7   8
ENDBRANCH   6   7
ENDBRANCH   5   6
ENDBRANCH   4   5
ENDBRANCH   3   4
ENDBRANCH   2   3
ENDBRANCH   1   2
BRANCH   1  15
ATOM     15  C   UNL     1       9.754  33.918   7.744  1.00  0.00     0.000 C 
BRANCH  15  16
ATOM     16  C   UNL     1       8.233  33.704   7.609  1.00  0.00     0.000 C 
BRANCH  16  17
ATOM     17  C   UNL     1       7.383  34.390   8.695  1.00  0.00     0.000 C 
BRANCH  17  18
ATOM     18  C   UNL     1       6.068  34.963   8.146  1.00  0.00    -0.000 C 
BRANCH  18  19
ATOM     19  C   UNL     1       4.884  34.047   8.486  1.00  0.00    -0.000 C 
BRANCH  19  20
ATOM     20  C   UNL     1       4.406  33.217   7.281  1.00  0.00    -0.000 C 
BRANCH  20  21
ATOM     21  C   UNL     1       4.965  31.780   7.212  1.00  0.00    -0.000 C 
BRANCH  21  22
ATOM     22  C   UNL     1       5.639  31.408   5.880  1.00  0.00    -0.000 C 
BRANCH  22  23
ATOM     23  C   UNL     1       6.212  32.627   5.139  1.00  0.00    -0.000 C 
BRANCH  23  24
ATOM     24  C   UNL     1       5.733  32.721   3.680  1.00  0.00    -0.000 C 
BRANCH  24  25
ATOM     25  C   UNL     1       5.323  34.134   3.228  1.00  0.00    -0.003 C 
ATOM     26  C   UNL     1       5.303  35.146   4.374  1.00  0.00     0.004 C 
ENDBRANCH  24  25
ENDBRANCH  23  24
ENDBRANCH  22  23
ENDBRANCH  21  22
ENDBRANCH  20  21
ENDBRANCH  19  20
ENDBRANCH  18  19
ENDBRANCH  17  18
ENDBRANCH  16  17
ENDBRANCH  15  16
ENDBRANCH   1  15
TORSDOF 22
ENDMDL
MODEL 4
REMARK VINA RESULT:    -4.202      3.931      6.259
REMARK INTER + INTRA:         -12.649
REMARK INTER:                  -8.879
REMARK INTRA:                  -3.770
REMARK UNBOUND:                -3.042
REMARK SMILES CCCCCCCCCCCCCCCCCCCCCCCC(=O)[O-]
REMARK SMILES IDX 13 1 14 2 15 3 16 4 17 5 18 6 19 7 20 8 21 9 22 10 23 11
REMARK SMILES IDX 24 12 25 13 26 14 12 15 11 16 10 17 9 18 8 19 7 20 6 21 5 22
REMARK SMILES IDX 4 23 3 24 2 25 1 26
REMARK H PARENT
REMARK Flexibility Score: inf
ROOT
ATOM      1  C   UNL     1      10.865  33.997   7.333  1.00  0.00     0.000 C 
ENDROOT
BRANCH   1   2
ATOM      2  C   UNL     1       9.843  32.942   6.859  1.00  0.00     0.000 C 
BRANCH   2   3
ATOM      3  C   UNL     1      10.457  31.680   6.216  1.00  0.00     0.000 C 
BRANCH   3   4
ATOM      4  C   UNL     1      10.327  30.420   7.088  1.00  0.00     0.000 C 
BRANCH   4   5
ATOM      5  C   UNL     1       9.239  29.453   6.573  1.00  0.00     0.000 C 
BRANCH   5   6
ATOM      6  C   UNL     1       7.853  30.117   6.483  1.00  0.00     0.000 C 
BRANCH   6   7
ATOM      7  C   UNL     1       7.179  29.922   5.110  1.00  0.00     0.000 C 
BRANCH   7   8
ATOM      8  C   UNL     1       7.735  30.881   4.045  1.00  0.00     0.000 C 
BRANCH   8   9
ATOM      9  C   UNL     1       8.737  30.162   3.129  1.00  0.00     0.000 C 
BRANCH   9  10
ATOM     10  C   UNL     1       8.506  28.640   3.063  1.00  0.00     0.006 C 
BRANCH  10  11
ATOM     11  C   UNL     1       8.423  28.073   1.635  1.00  0.00     0.053 C 
BRANCH  11  12
ATOM     12  C   UNL     1       9.560  27.146   1.333  1.00  0.00     0.041 C 
ATOM     13  O   UNL     1       9.527  25.950   1.730  1.00  0.00    -0.550 OA
ATOM     14  O   UNL     1      10.670  27.611   0.638  1.00  0.00    -0.550 OA
ENDBRANCH  11  12
ENDBRANCH  10  11
ENDBRANCH   9  10
ENDBRANCH   8   9
ENDBRANCH   7   8
ENDBRANCH   6   7
ENDBRANCH   5   6
ENDBRANCH   4   5
ENDBRANCH   3   4
ENDBRANCH   2   3
ENDBRANCH   1   2
BRANCH   1  15
ATOM     15  C   UNL     1      11.135  34.015   8.851  1.00  0.00     0.000 C 
BRANCH  15  16
ATOM     16  C   UNL     1      11.813  32.748   9.410  1.00  0.00     0.000 C 
BRANCH  16  17
ATOM     17  C   UNL     1      10.935  31.908  10.357  1.00  0.00     0.000 C 
BRANCH  17  18
ATOM     18  C   UNL     1       9.543  32.519  10.574  1.00  0.00    -0.000 C 
BRANCH  18  19
ATOM     19  C   UNL     1       8.445  31.595  10.030  1.00  0.00    -0.000 C 
BRANCH  19  20
ATOM     20  C   UNL     1       7.222  32.366   9.504  1.00  0.00    -0.000 C 
BRANCH  20  21
ATOM     21  C   UNL     1       7.464  33.863   9.216  1.00  0.00    -0.000 C 
BRANCH  21  22
ATOM     22  C   UNL     1       6.480  34.502   8.220  1.00  0.00    -0.000 C 
BRANCH  22  23
ATOM     23  C   UNL     1       5.798  33.468   7.308  1.00  0.00    -0.000 C 
BRANCH  23  24
ATOM     24  C   UNL     1       6.329  33.500   5.864  1.00  0.00    -0.000 C 
BRANCH  24  25
ATOM     25  C   UNL     1       5.285  33.893   4.804  1.00  0.00    -0.003 C 
ATOM     26  C   UNL     1       4.929  35.379   4.836  1.00  0.00     0.004 C 
ENDBRANCH  24  25
ENDBRANCH  23  24
ENDBRANCH  22  23
ENDBRANCH  21  22
ENDBRANCH  20  21
ENDBRANCH  19  20
ENDBRANCH  18  19
ENDBRANCH  17  18
ENDBRANCH  16  17
ENDBRANCH  15  16
ENDBRANCH   1  15
TORSDOF 22
ENDMDL
MODEL 5
REMARK VINA RESULT:    -4.167      3.434      6.331
REMARK INTER + INTRA:         -12.569
REMARK INTER:                  -8.225
REMARK INTRA:                  -4.344
REMARK UNBOUND:                -3.042
REMARK SMILES CCCCCCCCCCCCCCCCCCCCCCCC(=O)[O-]
REMARK SMILES IDX 13 1 14 2 15 3 16 4 17 5 18 6 19 7 20 8 21 9 22 10 23 11
REMARK SMILES IDX 24 12 25 13 26 14 12 15 11 16 10 17 9 18 8 19 7 20 6 21 5 22
REMARK SMILES IDX 4 23 3 24 2 25 1 26
REMARK H PARENT
REMARK Flexibility Score: inf
ROOT
ATOM      1  C   UNL     1      10.938  33.757   7.708  1.00  0.00     0.000 C 
ENDROOT
BRANCH   1   2
ATOM      2  C   UNL     1      11.366  32.327   8.103  1.00  0.00     0.000 C 
BRANCH   2   3
ATOM      3  C   UNL     1      10.747  31.799   9.415  1.00  0.00     0.000 C 
BRANCH   3   4
ATOM      4  C   UNL     1       9.753  30.644   9.205  1.00  0.00     0.000 C 
BRANCH   4   5
ATOM      5  C   UNL     1       9.562  30.291   7.714  1.00  0.00     0.000 C 
BRANCH   5   6
ATOM      6  C   UNL     1       8.080  30.246   7.302  1.00  0.00     0.000 C 
BRANCH   6   7
ATOM      7  C   UNL     1       7.814  30.904   5.934  1.00  0.00     0.000 C 
BRANCH   7   8
ATOM      8  C   UNL     1       9.113  31.273   5.200  1.00  0.00     0.000 C 
BRANCH   8   9
ATOM      9  C   UNL     1       9.168  30.613   3.815  1.00  0.00     0.000 C 
BRANCH   9  10
ATOM     10  C   UNL     1       8.677  29.152   3.825  1.00  0.00     0.006 C 
BRANCH  10  11
ATOM     11  C   UNL     1       7.744  28.788   2.657  1.00  0.00     0.053 C 
BRANCH  11  12
ATOM     12  C   UNL     1       8.452  27.997   1.600  1.00  0.00     0.041 C 
ATOM     13  O   UNL     1       7.831  27.118   0.943  1.00  0.00    -0.550 OA
ATOM     14  O   UNL     1       9.804  28.209   1.362  1.00  0.00    -0.550 OA
ENDBRANCH  11  12
ENDBRANCH  10  11
ENDBRANCH   9  10
ENDBRANCH   8   9
ENDBRANCH   7   8
ENDBRANCH   6   7
ENDBRANCH   5   6
ENDBRANCH   4   5
ENDBRANCH   3   4
ENDBRANCH   2   3
ENDBRANCH   1   2
BRANCH   1  15
ATOM     15  C   UNL     1       9.682  34.289   8.426  1.00  0.00     0.000 C 
BRANCH  15  16
ATOM     16  C   UNL     1       8.343  33.953   7.739  1.00  0.00     0.000 C 
BRANCH  16  17
ATOM     17  C   UNL     1       7.185  33.627   8.701  1.00  0.00     0.000 C 
BRANCH  17  18
ATOM     18  C   UNL     1       5.852  33.403   7.972  1.00  0.00    -0.000 C 
BRANCH  18  19
ATOM     19  C   UNL     1       5.850  34.098   6.603  1.00  0.00    -0.000 C 
BRANCH  19  20
ATOM     20  C   UNL     1       4.470  34.661   6.222  1.00  0.00    -0.000 C 
BRANCH  20  21
ATOM     21  C   UNL     1       4.321  35.091   4.747  1.00  0.00    -0.000 C 
BRANCH  21  22
ATOM     22  C   UNL     1       5.592  34.936   3.893  1.00  0.00    -0.000 C 
BRANCH  22  23
ATOM     23  C   UNL     1       5.436  33.898   2.770  1.00  0.00    -0.000 C 
BRANCH  23  24
ATOM     24  C   UNL     1       6.106  32.553   3.100  1.00  0.00    -0.000 C 
BRANCH  24  25
ATOM     25  C   UNL     1       5.138  31.362   3.208  1.00  0.00    -0.003 C 
ATOM     26  C   UNL     1       4.421  31.294   4.557  1.00  0.00     0.004 C 
ENDBRANCH  24  25
ENDBRANCH  23  24
ENDBRANCH  22  23
ENDBRANCH  21  22
ENDBRANCH  20  21
ENDBRANCH  19  20
ENDBRANCH  18  19
ENDBRANCH  17  18
ENDBRANCH  16  17
ENDBRANCH  15  16
ENDBRANCH   1  15
TORSDOF 22
ENDMDL
MODEL 6
REMARK VINA RESULT:    -4.166      3.863      7.631
REMARK INTER + INTRA:         -12.566
REMARK INTER:                  -8.017
REMARK INTRA:                  -4.548
REMARK UNBOUND:                -3.042
REMARK SMILES CCCCCCCCCCCCCCCCCCCCCCCC(=O)[O-]
REMARK SMILES IDX 13 1 14 2 15 3 16 4 17 5 18 6 19 7 20 8 21 9 22 10 23 11
REMARK SMILES IDX 24 12 25 13 26 14 12 15 11 16 10 17 9 18 8 19 7 20 6 21 5 22
REMARK SMILES IDX 4 23 3 24 2 25 1 26
REMARK H PARENT
REMARK Flexibility Score: inf
ROOT
ATOM      1  C   UNL     1       9.064  30.414   4.102  1.00  0.00     0.000 C 
ENDROOT
BRANCH   1   2
ATOM      2  C   UNL     1       9.753  31.390   5.079  1.00  0.00     0.000 C 
BRANCH   2   3
ATOM      3  C   UNL     1      10.480  30.723   6.265  1.00  0.00     0.000 C 
BRANCH   3   4
ATOM      4  C   UNL     1      11.163  31.725   7.211  1.00  0.00     0.000 C 
BRANCH   4   5
ATOM      5  C   UNL     1      10.699  33.178   6.970  1.00  0.00     0.000 C 
BRANCH   5   6
ATOM      6  C   UNL     1      10.701  34.022   8.256  1.00  0.00     0.000 C 
BRANCH   6   7
ATOM      7  C   UNL     1       9.285  34.397   8.735  1.00  0.00     0.000 C 
BRANCH   7   8
ATOM      8  C   UNL     1       8.188  33.805   7.835  1.00  0.00     0.000 C 
BRANCH   8   9
ATOM      9  C   UNL     1       7.261  32.880   8.637  1.00  0.00     0.000 C 
BRANCH   9  10
ATOM     10  C   UNL     1       7.854  31.473   8.853  1.00  0.00     0.006 C 
BRANCH  10  11
ATOM     11  C   UNL     1       8.275  31.179  10.303  1.00  0.00     0.053 C 
BRANCH  11  12
ATOM     12  C   UNL     1       9.631  30.548  10.375  1.00  0.00     0.041 C 
ATOM     13  O   UNL     1       9.770  29.314  10.163  1.00  0.00    -0.550 OA
ATOM     14  O   UNL     1      10.739  31.319  10.706  1.00  0.00    -0.550 OA
ENDBRANCH  11  12
ENDBRANCH  10  11
ENDBRANCH   9  10
ENDBRANCH   8   9
ENDBRANCH   7   8
ENDBRANCH   6   7
ENDBRANCH   5   6
ENDBRANCH   4   5
ENDBRANCH   3   4
ENDBRANCH   2   3
ENDBRANCH   1   2
BRANCH   1  15
ATOM     15  C   UNL     1       7.551  30.640   3.904  1.00  0.00     0.000 C 
BRANCH  15  16
ATOM     16  C   UNL     1       6.914  31.675   4.853  1.00  0.00     0.000 C 
BRANCH  16  17
ATOM     17  C   UNL     1       5.774  31.132   5.734  1.00  0.00     0.000 C 
BRANCH  17  18
ATOM     18  C   UNL     1       4.398  31.245   5.060  1.00  0.00    -0.000 C 
BRANCH  18  19
ATOM     19  C   UNL     1       3.353  31.810   6.032  1.00  0.00    -0.000 C 
BRANCH  19  20
ATOM     20  C   UNL     1       3.960  32.775   7.066  1.00  0.00    -0.000 C 
BRANCH  20  21
ATOM     21  C   UNL     1       3.896  34.270   6.684  1.00  0.00    -0.000 C 
BRANCH  21  22
ATOM     22  C   UNL     1       5.218  34.866   6.168  1.00  0.00    -0.000 C 
BRANCH  22  23
ATOM     23  C   UNL     1       5.203  35.130   4.653  1.00  0.00    -0.000 C 
BRANCH  23  24
ATOM     24  C   UNL     1       3.795  35.026   4.040  1.00  0.00    -0.000 C 
BRANCH  24  25
ATOM     25  C   UNL     1       3.685  34.065   2.843  1.00  0.00    -0.003 C 
ATOM     26  C   UNL     1       5.042  33.715   2.230  1.00  0.00     0.004 C 
ENDBRANCH  24  25
ENDBRANCH  23  24
ENDBRANCH  22  23
ENDBRANCH  21  22
ENDBRANCH  20  21
ENDBRANCH  19  20
ENDBRANCH  18  19
ENDBRANCH  17  18
ENDBRANCH  16  17
ENDBRANCH  15  16
ENDBRANCH   1  15
TORSDOF 22
ENDMDL
MODEL 7
REMARK VINA RESULT:    -4.156      2.625      4.719
REMARK INTER + INTRA:         -12.543
REMARK INTER:                  -8.315
REMARK INTRA:                  -4.228
REMARK UNBOUND:                -3.042
REMARK SMILES CCCCCCCCCCCCCCCCCCCCCCCC(=O)[O-]
REMARK SMILES IDX 13 1 14 2 15 3 16 4 17 5 18 6 19 7 20 8 21 9 22 10 23 11
REMARK SMILES IDX 24 12 25 13 26 14 12 15 11 16 10 17 9 18 8 19 7 20 6 21 5 22
REMARK SMILES IDX 4 23 3 24 2 25 1 26
REMARK H PARENT
REMARK Flexibility Score: inf
ROOT
ATOM      1  C   UNL     1      10.049  33.187   9.820  1.00  0.00     0.000 C 
ENDROOT
BRANCH   1   2
ATOM      2  C   UNL     1       8.976  32.133  10.165  1.00  0.00     0.000 C 
BRANCH   2   3
ATOM      3  C   UNL     1       7.662  32.703  10.741  1.00  0.00     0.000 C 
BRANCH   3   4
ATOM      4  C   UNL     1       6.445  32.489   9.825  1.00  0.00     0.000 C 
BRANCH   4   5
ATOM      5  C   UNL     1       5.269  33.427  10.174  1.00  0.00     0.000 C 
BRANCH   5   6
ATOM      6  C   UNL     1       4.949  34.421   9.044  1.00  0.00     0.000 C 
BRANCH   6   7
ATOM      7  C   UNL     1       6.200  34.873   8.265  1.00  0.00     0.000 C 
BRANCH   7   8
ATOM      8  C   UNL     1       5.895  35.161   6.786  1.00  0.00     0.000 C 
BRANCH   8   9
ATOM      9  C   UNL     1       4.585  34.486   6.354  1.00  0.00     0.000 C 
BRANCH   9  10
ATOM     10  C   UNL     1       4.177  34.834   4.909  1.00  0.00     0.006 C 
BRANCH  10  11
ATOM     11  C   UNL     1       5.356  34.949   3.928  1.00  0.00     0.053 C 
BRANCH  11  12
ATOM     12  C   UNL     1       5.150  34.111   2.703  1.00  0.00     0.041 C 
ATOM     13  O   UNL     1       3.987  33.908   2.261  1.00  0.00    -0.550 OA
ATOM     14  O   UNL     1       6.240  33.531   2.066  1.00  0.00    -0.550 OA
ENDBRANCH  11  12
ENDBRANCH  10  11
ENDBRANCH   9  10
ENDBRANCH   8   9
ENDBRANCH   7   8
ENDBRANCH   6   7
ENDBRANCH   5   6
ENDBRANCH   4   5
ENDBRANCH   3   4
ENDBRANCH   2   3
ENDBRANCH   1   2
BRANCH   1  15
ATOM     15  C   UNL     1       9.791  33.988   8.528  1.00  0.00     0.000 C 
BRANCH  15  16
ATOM     16  C   UNL     1      10.730  33.654   7.352  1.00  0.00     0.000 C 
BRANCH  16  17
ATOM     17  C   UNL     1      11.222  32.195   7.309  1.00  0.00     0.000 C 
BRANCH  17  18
ATOM     18  C   UNL     1      10.493  31.353   6.252  1.00  0.00    -0.000 C 
BRANCH  18  19
ATOM     19  C   UNL     1       9.677  30.231   6.909  1.00  0.00    -0.000 C 
BRANCH  19  20
ATOM     20  C   UNL     1       8.191  30.594   7.079  1.00  0.00    -0.000 C 
BRANCH  20  21
ATOM     21  C   UNL     1       7.729  31.845   6.302  1.00  0.00    -0.000 C 
BRANCH  21  22
ATOM     22  C   UNL     1       6.472  31.645   5.437  1.00  0.00    -0.000 C 
BRANCH  22  23
ATOM     23  C   UNL     1       6.698  30.669   4.271  1.00  0.00    -0.000 C 
BRANCH  23  24
ATOM     24  C   UNL     1       7.950  31.005   3.442  1.00  0.00    -0.000 C 
BRANCH  24  25
ATOM     25  C   UNL     1       8.947  29.844   3.283  1.00  0.00    -0.003 C 
ATOM     26  C   UNL     1       8.372  28.497   3.722  1.00  0.00     0.004 C 
ENDBRANCH  24  25
ENDBRANCH  23  24
ENDBRANCH  22  23
ENDBRANCH  21  22
ENDBRANCH  20  21
ENDBRANCH  19  20
ENDBRANCH  18  19
ENDBRANCH  17  18
ENDBRANCH  16  17
ENDBRANCH  15  16
ENDBRANCH   1  15
TORSDOF 22
ENDMDL
MODEL 8
REMARK VINA RESULT:    -4.137      2.766      5.135
REMARK INTER + INTRA:         -12.499
REMARK INTER:                  -8.040
REMARK INTRA:                  -4.459
REMARK UNBOUND:                -3.042
REMARK SMILES CCCCCCCCCCCCCCCCCCCCCCCC(=O)[O-]
REMARK SMILES IDX 13 1 14 2 15 3 16 4 17 5 18 6 19 7 20 8 21 9 22 10 23 11
REMARK SMILES IDX 24 12 25 13 26 14 12 15 11 16 10 17 9 18 8 19 7 20 6 21 5 22
REMARK SMILES IDX 4 23 3 24 2 25 1 26
REMARK H PARENT
REMARK Flexibility Score: inf
ROOT
ATOM      1  C   UNL     1      10.649  31.127   6.370  1.00  0.00     0.000 C 
ENDROOT
BRANCH   1   2
ATOM      2  C   UNL     1       9.536  31.642   5.433  1.00  0.00     0.000 C 
BRANCH   2   3
ATOM      3  C   UNL     1       9.469  30.949   4.055  1.00  0.00     0.000 C 
BRANCH   3   4
ATOM      4  C   UNL     1       8.621  29.666   4.052  1.00  0.00     0.000 C 
BRANCH   4   5
ATOM      5  C   UNL     1       8.578  28.988   2.666  1.00  0.00     0.000 C 
BRANCH   5   6
ATOM      6  C   UNL     1       7.185  29.057   2.016  1.00  0.00     0.000 C 
BRANCH   6   7
ATOM      7  C   UNL     1       6.182  29.901   2.827  1.00  0.00     0.000 C 
BRANCH   7   8
ATOM      8  C   UNL     1       5.756  31.177   2.082  1.00  0.00     0.000 C 
BRANCH   8   9
ATOM      9  C   UNL     1       6.524  32.400   2.605  1.00  0.00     0.000 C 
BRANCH   9  10
ATOM     10  C   UNL     1       5.657  33.673   2.667  1.00  0.00     0.006 C 
BRANCH  10  11
ATOM     11  C   UNL     1       4.168  33.413   2.949  1.00  0.00     0.053 C 
BRANCH  11  12
ATOM     12  C   UNL     1       3.634  34.318   4.017  1.00  0.00     0.041 C 
ATOM     13  O   UNL     1       2.541  34.054   4.585  1.00  0.00    -0.550 OA
ATOM     14  O   UNL     1       4.330  35.470   4.364  1.00  0.00    -0.550 OA
ENDBRANCH  11  12
ENDBRANCH  10  11
ENDBRANCH   9  10
ENDBRANCH   8   9
ENDBRANCH   7   8
ENDBRANCH   6   7
ENDBRANCH   5   6
ENDBRANCH   4   5
ENDBRANCH   3   4
ENDBRANCH   2   3
ENDBRANCH   1   2
BRANCH   1  15
ATOM     15  C   UNL     1      10.992  32.054   7.554  1.00  0.00     0.000 C 
BRANCH  15  16
ATOM     16  C   UNL     1      10.746  33.555   7.303  1.00  0.00     0.000 C 
BRANCH  16  17
ATOM     17  C   UNL     1       9.780  34.228   8.296  1.00  0.00     0.000 C 
BRANCH  17  18
ATOM     18  C   UNL     1       9.104  33.223   9.240  1.00  0.00    -0.000 C 
BRANCH  18  19
ATOM     19  C   UNL     1       7.575  33.312   9.135  1.00  0.00    -0.000 C 
BRANCH  19  20
ATOM     20  C   UNL     1       7.098  34.602   8.446  1.00  0.00    -0.000 C 
BRANCH  20  21
ATOM     21  C   UNL     1       6.089  34.397   7.296  1.00  0.00    -0.000 C 
BRANCH  21  22
ATOM     22  C   UNL     1       6.432  33.251   6.327  1.00  0.00    -0.000 C 
BRANCH  22  23
ATOM     23  C   UNL     1       5.386  32.124   6.339  1.00  0.00    -0.000 C 
BRANCH  23  24
ATOM     24  C   UNL     1       6.017  30.721   6.351  1.00  0.00    -0.000 C 
BRANCH  24  25
ATOM     25  C   UNL     1       6.213  30.116   7.753  1.00  0.00    -0.003 C 
ATOM     26  C   UNL     1       7.677  29.815   8.075  1.00  0.00     0.004 C 
ENDBRANCH  24  25
ENDBRANCH  23  24
ENDBRANCH  22  23
ENDBRANCH  21  22
ENDBRANCH  20  21
ENDBRANCH  19  20
ENDBRANCH  18  19
ENDBRANCH  17  18
ENDBRANCH  16  17
ENDBRANCH  15  16
ENDBRANCH   1  15
TORSDOF 22
ENDMDL
MODEL 9
REMARK VINA RESULT:    -4.129      2.178      4.450
REMARK INTER + INTRA:         -12.481
REMARK INTER:                  -8.430
REMARK INTRA:                  -4.051
REMARK UNBOUND:                -3.042
REMARK SMILES CCCCCCCCCCCCCCCCCCCCCCCC(=O)[O-]
REMARK SMILES IDX 13 1 14 2 15 3 16 4 17 5 18 6 19 7 20 8 21 9 22 10 23 11
REMARK SMILES IDX 24 12 25 13 26 14 12 15 11 16 10 17 9 18 8 19 7 20 6 21 5 22
REMARK SMILES IDX 4 23 3 24 2 25 1 26
REMARK H PARENT
REMARK Flexibility Score: inf
ROOT
ATOM      1  C   UNL     1      11.932  32.509   9.055  1.00  0.00     0.000 C 
ENDROOT
BRANCH   1   2
ATOM      2  C   UNL     1      11.626  33.994   8.765  1.00  0.00     0.000 C 
BRANCH   2   3
ATOM      3  C   UNL     1      10.512  34.240   7.725  1.00  0.00     0.000 C 
BRANCH   3   4
ATOM      4  C   UNL     1       9.093  34.160   8.313  1.00  0.00     0.000 C 
BRANCH   4   5
ATOM      5  C   UNL     1       8.065  33.600   7.306  1.00  0.00     0.000 C 
BRANCH   5   6
ATOM      6  C   UNL     1       6.727  33.231   7.970  1.00  0.00     0.000 C 
BRANCH   6   7
ATOM      7  C   UNL     1       5.514  33.452   7.046  1.00  0.00     0.000 C 
BRANCH   7   8
ATOM      8  C   UNL     1       5.641  34.737   6.212  1.00  0.00     0.000 C 
BRANCH   8   9
ATOM      9  C   UNL     1       4.701  34.699   4.998  1.00  0.00     0.000 C 
BRANCH   9  10
ATOM     10  C   UNL     1       5.446  34.842   3.656  1.00  0.00     0.006 C 
BRANCH  10  11
ATOM     11  C   UNL     1       5.079  33.777   2.610  1.00  0.00     0.053 C 
BRANCH  11  12
ATOM     12  C   UNL     1       6.003  33.807   1.431  1.00  0.00     0.041 C 
ATOM     13  O   UNL     1       6.970  34.614   1.403  1.00  0.00    -0.550 OA
ATOM     14  O   UNL     1       5.778  32.962   0.350  1.00  0.00    -0.550 OA
ENDBRANCH  11  12
ENDBRANCH  10  11
ENDBRANCH   9  10
ENDBRANCH   8   9
ENDBRANCH   7   8
ENDBRANCH   6   7
ENDBRANCH   5   6
ENDBRANCH   4   5
ENDBRANCH   3   4
ENDBRANCH   2   3
ENDBRANCH   1   2
BRANCH   1  15
ATOM     15  C   UNL     1      11.505  32.011  10.450  1.00  0.00     0.000 C 
BRANCH  15  16
ATOM     16  C   UNL     1      10.453  30.883  10.450  1.00  0.00     0.000 C 
BRANCH  16  17
ATOM     17  C   UNL     1       9.517  30.870   9.227  1.00  0.00     0.000 C 
BRANCH  17  18
ATOM     18  C   UNL     1       9.307  29.461   8.655  1.00  0.00    -0.000 C 
BRANCH  18  19
ATOM     19  C   UNL     1       9.351  29.476   7.121  1.00  0.00    -0.000 C 
BRANCH  19  20
ATOM     20  C   UNL     1      10.400  30.453   6.564  1.00  0.00    -0.000 C 
BRANCH  20  21
ATOM     21  C   UNL     1       9.929  31.314   5.372  1.00  0.00    -0.000 C 
BRANCH  21  22
ATOM     22  C   UNL     1       8.842  30.669   4.494  1.00  0.00    -0.000 C 
BRANCH  22  23
ATOM     23  C   UNL     1       7.598  31.558   4.332  1.00  0.00    -0.000 C 
BRANCH  23  24
ATOM     24  C   UNL     1       6.280  30.777   4.476  1.00  0.00    -0.000 C 
BRANCH  24  25
ATOM     25  C   UNL     1       6.088  30.086   5.837  1.00  0.00    -0.003 C 
ATOM     26  C   UNL     1       5.885  28.575   5.718  1.00  0.00     0.004 C 
ENDBRANCH  24  25
ENDBRANCH  23  24
ENDBRANCH  22  23
ENDBRANCH  21  22
ENDBRANCH  20  21
ENDBRANCH  19  20
ENDBRANCH  18  19
ENDBRANCH  17  18
ENDBRANCH  16  17
ENDBRANCH  15  16
ENDBRANCH   1  15
TORSDOF 22
ENDMDL
