MODEL 1
REMARK VINA RESULT:    17.438      0.000      0.000
REMARK INTER + INTRA:          38.494
REMARK INTER:                  37.827
REMARK INTRA:                   0.667
REMARK UNBOUND:                 0.667
REMARK SMILES CCCCCCCCCCCCCCCCCCCCCC(=O)[O-]
REMARK SMILES IDX 12 1 11 2 10 3 9 4 8 5 7 6 6 7 5 8 4 9 3 10 2 11 1 12 13 13
REMARK SMILES IDX 14 14 15 15 16 16 17 17 18 18 19 19 20 20 21 21 22 22 23 23
REMARK SMILES IDX 24 24
REMARK H PARENT
REMARK Flexibility Score: inf
ROOT
ATOM      1  C   UNL     1       4.857  20.740  51.774  1.00  0.00     0.000 C 
ENDROOT
BRANCH   1   2
ATOM      2  C   UNL     1       5.164  20.839  53.280  1.00  0.00     0.000 C 
BRANCH   2   3
ATOM      3  C   UNL     1       4.189  21.716  54.090  1.00  0.00     0.000 C 
BRANCH   3   4
ATOM      4  C   UNL     1       4.357  21.550  55.609  1.00  0.00    -0.000 C 
BRANCH   4   5
ATOM      5  C   UNL     1       5.827  21.638  56.051  1.00  0.00    -0.000 C 
BRANCH   5   6
ATOM      6  C   UNL     1       6.775  20.858  55.126  1.00  0.00    -0.000 C 
BRANCH   6   7
ATOM      7  C   UNL     1       7.973  20.305  55.912  1.00  0.00    -0.000 C 
BRANCH   7   8
ATOM      8  C   UNL     1       9.086  21.347  56.107  1.00  0.00    -0.000 C 
BRANCH   8   9
ATOM      9  C   UNL     1      10.350  21.020  55.298  1.00  0.00    -0.000 C 
BRANCH   9  10
ATOM     10  C   UNL     1      11.616  21.348  56.106  1.00  0.00    -0.000 C 
BRANCH  10  11
ATOM     11  C   UNL     1      12.888  20.760  55.473  1.00  0.00    -0.003 C 
ATOM     12  C   UNL     1      13.317  19.445  56.125  1.00  0.00     0.004 C 
ENDBRANCH  10  11
ENDBRANCH   9  10
ENDBRANCH   8   9
ENDBRANCH   7   8
ENDBRANCH   6   7
ENDBRANCH   5   6
ENDBRANCH   4   5
ENDBRANCH   3   4
ENDBRANCH   2   3
ENDBRANCH   1   2
BRANCH   1  13
ATOM     13  C   UNL     1       5.915  19.996  50.936  1.00  0.00     0.000 C 
BRANCH  13  14
ATOM     14  C   UNL     1       5.335  19.246  49.715  1.00  0.00     0.000 C 
BRANCH  14  15
ATOM     15  C   UNL     1       5.159  20.108  48.448  1.00  0.00     0.000 C 
BRANCH  15  16
ATOM     16  C   UNL     1       5.703  19.491  47.142  1.00  0.00     0.000 C 
BRANCH  16  17
ATOM     17  C   UNL     1       4.953  18.243  46.639  1.00  0.00     0.000 C 
BRANCH  17  18
ATOM     18  C   UNL     1       5.635  17.586  45.425  1.00  0.00     0.000 C 
BRANCH  18  19
ATOM     19  C   UNL     1       5.955  16.097  45.667  1.00  0.00     0.000 C 
BRANCH  19  20
ATOM     20  C   UNL     1       7.461  15.781  45.687  1.00  0.00     0.006 C 
BRANCH  20  21
ATOM     21  C   UNL     1       7.970  15.218  44.357  1.00  0.00     0.053 C 
BRANCH  21  22
ATOM     22  C   UNL     1       9.288  14.538  44.546  1.00  0.00     0.041 C 
ATOM     23  O   UNL     1       9.336  13.297  44.759  1.00  0.00    -0.550 OA
ATOM     24  O   UNL     1      10.462  15.280  44.535  1.00  0.00    -0.550 OA
ENDBRANCH  21  22
ENDBRANCH  20  21
ENDBRANCH  19  20
ENDBRANCH  18  19
ENDBRANCH  17  18
ENDBRANCH  16  17
ENDBRANCH  15  16
ENDBRANCH  14  15
ENDBRANCH  13  14
ENDBRANCH   1  13
TORSDOF 20
ENDMDL
MODEL 2
REMARK VINA RESULT:    18.274      1.088      2.119
REMARK INTER + INTRA:          40.306
REMARK INTER:                  41.129
REMARK INTRA:                  -0.823
REMARK UNBOUND:                 0.667
REMARK SMILES CCCCCCCCCCCCCCCCCCCCCC(=O)[O-]
REMARK SMILES IDX 12 1 11 2 10 3 9 4 8 5 7 6 6 7 5 8 4 9 3 10 2 11 1 12 13 13
REMARK SMILES IDX 14 14 15 15 16 16 17 17 18 18 19 19 20 20 21 21 22 22 23 23
REMARK SMILES IDX 24 24
REMARK H PARENT
REMARK Flexibility Score: inf
ROOT
ATOM      1  C   UNL     1       4.803  19.544  50.363  1.00  0.00     0.000 C 
ENDROOT
BRANCH   1   2
ATOM      2  C   UNL     1       4.591  20.987  50.859  1.00  0.00     0.000 C 
BRANCH   2   3
ATOM      3  C   UNL     1       4.837  21.203  52.365  1.00  0.00     0.000 C 
BRANCH   3   4
ATOM      4  C   UNL     1       3.830  20.448  53.249  1.00  0.00    -0.000 C 
BRANCH   4   5
ATOM      5  C   UNL     1       4.351  20.233  54.680  1.00  0.00    -0.000 C 
BRANCH   5   6
ATOM      6  C   UNL     1       4.477  21.545  55.472  1.00  0.00    -0.000 C 
BRANCH   6   7
ATOM      7  C   UNL     1       5.946  21.970  55.597  1.00  0.00    -0.000 C 
BRANCH   7   8
ATOM      8  C   UNL     1       6.909  20.984  54.914  1.00  0.00    -0.000 C 
BRANCH   8   9
ATOM      9  C   UNL     1       7.793  20.231  55.919  1.00  0.00    -0.000 C 
BRANCH   9  10
ATOM     10  C   UNL     1       9.130  20.959  56.125  1.00  0.00    -0.000 C 
BRANCH  10  11
ATOM     11  C   UNL     1      10.333  20.002  56.105  1.00  0.00    -0.003 C 
ATOM     12  C   UNL     1      11.464  20.494  55.202  1.00  0.00     0.004 C 
ENDBRANCH  10  11
ENDBRANCH   9  10
ENDBRANCH   8   9
ENDBRANCH   7   8
ENDBRANCH   6   7
ENDBRANCH   5   6
ENDBRANCH   4   5
ENDBRANCH   3   4
ENDBRANCH   2   3
ENDBRANCH   1   2
BRANCH   1  13
ATOM     13  C   UNL     1       5.732  19.399  49.143  1.00  0.00     0.000 C 
BRANCH  13  14
ATOM     14  C   UNL     1       6.176  17.946  48.861  1.00  0.00     0.000 C 
BRANCH  14  15
ATOM     15  C   UNL     1       5.961  17.471  47.409  1.00  0.00     0.000 C 
BRANCH  15  16
ATOM     16  C   UNL     1       5.927  18.585  46.341  1.00  0.00     0.000 C 
BRANCH  16  17
ATOM     17  C   UNL     1       5.338  18.175  44.979  1.00  0.00     0.000 C 
BRANCH  17  18
ATOM     18  C   UNL     1       5.756  16.757  44.550  1.00  0.00     0.000 C 
BRANCH  18  19
ATOM     19  C   UNL     1       6.438  16.741  43.166  1.00  0.00     0.000 C 
BRANCH  19  20
ATOM     20  C   UNL     1       7.677  15.832  43.095  1.00  0.00     0.006 C 
BRANCH  20  21
ATOM     21  C   UNL     1       7.829  14.934  44.327  1.00  0.00     0.053 C 
BRANCH  21  22
ATOM     22  C   UNL     1       9.192  14.320  44.363  1.00  0.00     0.041 C 
ATOM     23  O   UNL     1       9.334  13.111  44.686  1.00  0.00    -0.550 OA
ATOM     24  O   UNL     1      10.312  15.095  44.088  1.00  0.00    -0.550 OA
ENDBRANCH  21  22
ENDBRANCH  20  21
ENDBRANCH  19  20
ENDBRANCH  18  19
ENDBRANCH  17  18
ENDBRANCH  16  17
ENDBRANCH  15  16
ENDBRANCH  14  15
ENDBRANCH  13  14
ENDBRANCH   1  13
TORSDOF 20
ENDMDL
MODEL 3
REMARK VINA RESULT:    18.317      1.624      2.147
REMARK INTER + INTRA:          40.401
REMARK INTER:                  41.372
REMARK INTRA:                  -0.971
REMARK UNBOUND:                 0.667
REMARK SMILES CCCCCCCCCCCCCCCCCCCCCC(=O)[O-]
REMARK SMILES IDX 12 1 11 2 10 3 9 4 8 5 7 6 6 7 5 8 4 9 3 10 2 11 1 12 13 13
REMARK SMILES IDX 14 14 15 15 16 16 17 17 18 18 19 19 20 20 21 21 22 22 23 23
REMARK SMILES IDX 24 24
REMARK H PARENT
REMARK Flexibility Score: inf
ROOT
ATOM      1  C   UNL     1       4.918  20.168  51.278  1.00  0.00     0.000 C 
ENDROOT
BRANCH   1   2
ATOM      2  C   UNL     1       5.757  20.343  52.558  1.00  0.00     0.000 C 
BRANCH   2   3
ATOM      3  C   UNL     1       4.945  20.564  53.848  1.00  0.00     0.000 C 
BRANCH   3   4
ATOM      4  C   UNL     1       5.811  20.504  55.118  1.00  0.00    -0.000 C 
BRANCH   4   5
ATOM      5  C   UNL     1       6.342  21.887  55.531  1.00  0.00    -0.000 C 
BRANCH   5   6
ATOM      6  C   UNL     1       7.762  21.828  56.118  1.00  0.00    -0.000 C 
BRANCH   6   7
ATOM      7  C   UNL     1       8.517  20.595  55.603  1.00  0.00    -0.000 C 
BRANCH   7   8
ATOM      8  C   UNL     1       9.971  20.541  56.098  1.00  0.00    -0.000 C 
BRANCH   8   9
ATOM      9  C   UNL     1      10.675  21.903  56.014  1.00  0.00    -0.000 C 
BRANCH   9  10
ATOM     10  C   UNL     1      12.184  21.726  55.782  1.00  0.00    -0.000 C 
BRANCH  10  11
ATOM     11  C   UNL     1      12.655  20.286  56.041  1.00  0.00    -0.003 C 
ATOM     12  C   UNL     1      13.976  19.962  55.344  1.00  0.00     0.004 C 
ENDBRANCH  10  11
ENDBRANCH   9  10
ENDBRANCH   8   9
ENDBRANCH   7   8
ENDBRANCH   6   7
ENDBRANCH   5   6
ENDBRANCH   4   5
ENDBRANCH   3   4
ENDBRANCH   2   3
ENDBRANCH   1   2
BRANCH   1  13
ATOM     13  C   UNL     1       5.728  19.948  49.987  1.00  0.00     0.000 C 
BRANCH  13  14
ATOM     14  C   UNL     1       5.603  18.522  49.404  1.00  0.00     0.000 C 
BRANCH  14  15
ATOM     15  C   UNL     1       6.872  17.994  48.703  1.00  0.00     0.000 C 
BRANCH  15  16
ATOM     16  C   UNL     1       6.639  17.262  47.364  1.00  0.00     0.000 C 
BRANCH  16  17
ATOM     17  C   UNL     1       7.245  15.850  47.269  1.00  0.00     0.000 C 
BRANCH  17  18
ATOM     18  C   UNL     1       8.785  15.861  47.259  1.00  0.00     0.000 C 
BRANCH  18  19
ATOM     19  C   UNL     1       9.363  15.707  45.837  1.00  0.00     0.000 C 
BRANCH  19  20
ATOM     20  C   UNL     1       9.033  14.357  45.176  1.00  0.00     0.006 C 
BRANCH  20  21
ATOM     21  C   UNL     1       8.995  14.436  43.646  1.00  0.00     0.053 C 
BRANCH  21  22
ATOM     22  C   UNL     1       8.340  15.705  43.203  1.00  0.00     0.041 C 
ATOM     23  O   UNL     1       8.982  16.543  42.515  1.00  0.00    -0.550 OA
ATOM     24  O   UNL     1       7.036  15.987  43.589  1.00  0.00    -0.550 OA
ENDBRANCH  21  22
ENDBRANCH  20  21
ENDBRANCH  19  20
ENDBRANCH  18  19
ENDBRANCH  17  18
ENDBRANCH  16  17
ENDBRANCH  15  16
ENDBRANCH  14  15
ENDBRANCH  13  14
ENDBRANCH   1  13
TORSDOF 20
ENDMDL
MODEL 4
REMARK VINA RESULT:    19.621      1.522      3.684
REMARK INTER + INTRA:          43.228
REMARK INTER:                  44.147
REMARK INTRA:                  -0.918
REMARK UNBOUND:                 0.667
REMARK SMILES CCCCCCCCCCCCCCCCCCCCCC(=O)[O-]
REMARK SMILES IDX 12 1 11 2 10 3 9 4 8 5 7 6 6 7 5 8 4 9 3 10 2 11 1 12 13 13
REMARK SMILES IDX 14 14 15 15 16 16 17 17 18 18 19 19 20 20 21 21 22 22 23 23
REMARK SMILES IDX 24 24
REMARK H PARENT
REMARK Flexibility Score: inf
ROOT
ATOM      1  C   UNL     1       6.518  17.608  48.619  1.00  0.00     0.000 C 
ENDROOT
BRANCH   1   2
ATOM      2  C   UNL     1       5.721  18.857  49.039  1.00  0.00     0.000 C 
BRANCH   2   3
ATOM      3  C   UNL     1       6.074  19.422  50.428  1.00  0.00     0.000 C 
BRANCH   3   4
ATOM      4  C   UNL     1       5.032  20.428  50.947  1.00  0.00    -0.000 C 
BRANCH   4   5
ATOM      5  C   UNL     1       4.639  20.164  52.410  1.00  0.00    -0.000 C 
BRANCH   5   6
ATOM      6  C   UNL     1       4.482  21.457  53.227  1.00  0.00    -0.000 C 
BRANCH   6   7
ATOM      7  C   UNL     1       4.768  21.202  54.713  1.00  0.00    -0.000 C 
BRANCH   7   8
ATOM      8  C   UNL     1       6.119  20.505  54.946  1.00  0.00    -0.000 C 
BRANCH   8   9
ATOM      9  C   UNL     1       7.089  21.359  55.778  1.00  0.00    -0.000 C 
BRANCH   9  10
ATOM     10  C   UNL     1       8.358  20.563  56.124  1.00  0.00    -0.000 C 
BRANCH  10  11
ATOM     11  C   UNL     1       9.610  21.119  55.428  1.00  0.00    -0.003 C 
ATOM     12  C   UNL     1      10.840  20.235  55.632  1.00  0.00     0.004 C 
ENDBRANCH  10  11
ENDBRANCH   9  10
ENDBRANCH   8   9
ENDBRANCH   7   8
ENDBRANCH   6   7
ENDBRANCH   5   6
ENDBRANCH   4   5
ENDBRANCH   3   4
ENDBRANCH   2   3
ENDBRANCH   1   2
BRANCH   1  13
ATOM     13  C   UNL     1       5.909  16.801  47.456  1.00  0.00     0.000 C 
BRANCH  13  14
ATOM     14  C   UNL     1       5.719  17.617  46.158  1.00  0.00     0.000 C 
BRANCH  14  15
ATOM     15  C   UNL     1       5.738  16.785  44.859  1.00  0.00     0.000 C 
BRANCH  15  16
ATOM     16  C   UNL     1       5.044  17.433  43.642  1.00  0.00     0.000 C 
BRANCH  16  17
ATOM     17  C   UNL     1       5.978  17.823  42.481  1.00  0.00     0.000 C 
BRANCH  17  18
ATOM     18  C   UNL     1       6.614  16.603  41.791  1.00  0.00     0.000 C 
BRANCH  18  19
ATOM     19  C   UNL     1       8.080  16.386  42.220  1.00  0.00     0.000 C 
BRANCH  19  20
ATOM     20  C   UNL     1       8.308  15.092  43.020  1.00  0.00     0.006 C 
BRANCH  20  21
ATOM     21  C   UNL     1       9.540  15.160  43.928  1.00  0.00     0.053 C 
BRANCH  21  22
ATOM     22  C   UNL     1       9.245  14.543  45.258  1.00  0.00     0.041 C 
ATOM     23  O   UNL     1       8.709  13.405  45.323  1.00  0.00    -0.550 OA
ATOM     24  O   UNL     1       9.517  15.244  46.426  1.00  0.00    -0.550 OA
ENDBRANCH  21  22
ENDBRANCH  20  21
ENDBRANCH  19  20
ENDBRANCH  18  19
ENDBRANCH  17  18
ENDBRANCH  16  17
ENDBRANCH  15  16
ENDBRANCH  14  15
ENDBRANCH  13  14
ENDBRANCH   1  13
TORSDOF 20
ENDMDL
MODEL 5
REMARK VINA RESULT:    19.763      5.106     11.723
REMARK INTER + INTRA:          43.536
REMARK INTER:                  43.793
REMARK INTRA:                  -0.257
REMARK UNBOUND:                 0.667
REMARK SMILES CCCCCCCCCCCCCCCCCCCCCC(=O)[O-]
REMARK SMILES IDX 12 1 11 2 10 3 9 4 8 5 7 6 6 7 5 8 4 9 3 10 2 11 1 12 13 13
REMARK SMILES IDX 14 14 15 15 16 16 17 17 18 18 19 19 20 20 21 21 22 22 23 23
REMARK SMILES IDX 24 24
REMARK H PARENT
REMARK Flexibility Score: inf
ROOT
ATOM      1  C   UNL     1       7.954  15.699  46.202  1.00  0.00     0.000 C 
ENDROOT
BRANCH   1   2
ATOM      2  C   UNL     1       8.574  15.394  44.825  1.00  0.00     0.000 C 
BRANCH   2   3
ATOM      3  C   UNL     1       8.910  13.911  44.574  1.00  0.00     0.000 C 
BRANCH   3   4
ATOM      4  C   UNL     1       9.833  13.705  43.361  1.00  0.00    -0.000 C 
BRANCH   4   5
ATOM      5  C   UNL     1      11.233  13.213  43.766  1.00  0.00    -0.000 C 
BRANCH   5   6
ATOM      6  C   UNL     1      11.962  12.485  42.625  1.00  0.00    -0.000 C 
BRANCH   6   7
ATOM      7  C   UNL     1      12.930  11.430  43.180  1.00  0.00    -0.000 C 
BRANCH   7   8
ATOM      8  C   UNL     1      13.960  12.026  44.154  1.00  0.00    -0.000 C 
BRANCH   8   9
ATOM      9  C   UNL     1      14.909  10.965  44.732  1.00  0.00    -0.000 C 
BRANCH   9  10
ATOM     10  C   UNL     1      15.760  11.553  45.868  1.00  0.00    -0.000 C 
BRANCH  10  11
ATOM     11  C   UNL     1      14.907  12.066  47.039  1.00  0.00    -0.003 C 
ATOM     12  C   UNL     1      15.741  12.745  48.125  1.00  0.00     0.004 C 
ENDBRANCH  10  11
ENDBRANCH   9  10
ENDBRANCH   8   9
ENDBRANCH   7   8
ENDBRANCH   6   7
ENDBRANCH   5   6
ENDBRANCH   4   5
ENDBRANCH   3   4
ENDBRANCH   2   3
ENDBRANCH   1   2
BRANCH   1  13
ATOM     13  C   UNL     1       6.850  16.775  46.200  1.00  0.00     0.000 C 
BRANCH  13  14
ATOM     14  C   UNL     1       6.074  16.879  47.533  1.00  0.00     0.000 C 
BRANCH  14  15
ATOM     15  C   UNL     1       6.653  17.890  48.544  1.00  0.00     0.000 C 
BRANCH  15  16
ATOM     16  C   UNL     1       5.661  18.950  49.069  1.00  0.00     0.000 C 
BRANCH  16  17
ATOM     17  C   UNL     1       6.011  19.559  50.439  1.00  0.00     0.000 C 
BRANCH  17  18
ATOM     18  C   UNL     1       4.787  20.158  51.156  1.00  0.00     0.000 C 
BRANCH  18  19
ATOM     19  C   UNL     1       5.007  20.294  52.677  1.00  0.00     0.000 C 
BRANCH  19  20
ATOM     20  C   UNL     1       3.864  21.020  53.407  1.00  0.00     0.006 C 
BRANCH  20  21
ATOM     21  C   UNL     1       4.163  21.266  54.889  1.00  0.00     0.053 C 
BRANCH  21  22
ATOM     22  C   UNL     1       5.626  21.116  55.160  1.00  0.00     0.041 C 
ATOM     23  O   UNL     1       6.386  22.120  55.110  1.00  0.00    -0.550 OA
ATOM     24  O   UNL     1       6.161  19.861  55.418  1.00  0.00    -0.550 OA
ENDBRANCH  21  22
ENDBRANCH  20  21
ENDBRANCH  19  20
ENDBRANCH  18  19
ENDBRANCH  17  18
ENDBRANCH  16  17
ENDBRANCH  15  16
ENDBRANCH  14  15
ENDBRANCH  13  14
ENDBRANCH   1  13
TORSDOF 20
ENDMDL
MODEL 6
REMARK VINA RESULT:    19.949      1.398      2.885
REMARK INTER + INTRA:          43.940
REMARK INTER:                  44.446
REMARK INTRA:                  -0.506
REMARK UNBOUND:                 0.667
REMARK SMILES CCCCCCCCCCCCCCCCCCCCCC(=O)[O-]
REMARK SMILES IDX 12 1 11 2 10 3 9 4 8 5 7 6 6 7 5 8 4 9 3 10 2 11 1 12 13 13
REMARK SMILES IDX 14 14 15 15 16 16 17 17 18 18 19 19 20 20 21 21 22 22 23 23
REMARK SMILES IDX 24 24
REMARK H PARENT
REMARK Flexibility Score: inf
ROOT
ATOM      1  C   UNL     1       6.313  18.647  50.648  1.00  0.00     0.000 C 
ENDROOT
BRANCH   1   2
ATOM      2  C   UNL     1       5.684  20.040  50.836  1.00  0.00     0.000 C 
BRANCH   2   3
ATOM      3  C   UNL     1       5.667  20.559  52.287  1.00  0.00     0.000 C 
BRANCH   3   4
ATOM      4  C   UNL     1       4.265  20.987  52.753  1.00  0.00    -0.000 C 
BRANCH   4   5
ATOM      5  C   UNL     1       4.063  20.790  54.264  1.00  0.00    -0.000 C 
BRANCH   5   6
ATOM      6  C   UNL     1       4.263  22.086  55.066  1.00  0.00    -0.000 C 
BRANCH   6   7
ATOM      7  C   UNL     1       5.613  22.074  55.797  1.00  0.00    -0.000 C 
BRANCH   7   8
ATOM      8  C   UNL     1       6.710  21.344  55.004  1.00  0.00    -0.000 C 
BRANCH   8   9
ATOM      9  C   UNL     1       7.511  20.361  55.871  1.00  0.00    -0.000 C 
BRANCH   9  10
ATOM     10  C   UNL     1       8.933  20.886  56.122  1.00  0.00    -0.000 C 
BRANCH  10  11
ATOM     11  C   UNL     1       9.995  20.123  55.315  1.00  0.00    -0.003 C 
ATOM     12  C   UNL     1      11.292  20.914  55.149  1.00  0.00     0.004 C 
ENDBRANCH  10  11
ENDBRANCH   9  10
ENDBRANCH   8   9
ENDBRANCH   7   8
ENDBRANCH   6   7
ENDBRANCH   5   6
ENDBRANCH   4   5
ENDBRANCH   3   4
ENDBRANCH   2   3
ENDBRANCH   1   2
BRANCH   1  13
ATOM     13  C   UNL     1       6.706  18.294  49.201  1.00  0.00     0.000 C 
BRANCH  13  14
ATOM     14  C   UNL     1       5.553  18.448  48.183  1.00  0.00     0.000 C 
BRANCH  14  15
ATOM     15  C   UNL     1       5.886  17.986  46.749  1.00  0.00     0.000 C 
BRANCH  15  16
ATOM     16  C   UNL     1       6.183  16.480  46.585  1.00  0.00     0.000 C 
BRANCH  16  17
ATOM     17  C   UNL     1       7.425  16.140  45.741  1.00  0.00     0.000 C 
BRANCH  17  18
ATOM     18  C   UNL     1       8.712  16.050  46.582  1.00  0.00     0.000 C 
BRANCH  18  19
ATOM     19  C   UNL     1       9.774  15.140  45.932  1.00  0.00     0.000 C 
BRANCH  19  20
ATOM     20  C   UNL     1       9.583  14.947  44.418  1.00  0.00     0.006 C 
BRANCH  20  21
ATOM     21  C   UNL     1       9.421  13.476  44.020  1.00  0.00     0.053 C 
BRANCH  21  22
ATOM     22  C   UNL     1      10.372  13.123  42.921  1.00  0.00     0.041 C 
ATOM     23  O   UNL     1      11.608  13.051  43.151  1.00  0.00    -0.550 OA
ATOM     24  O   UNL     1       9.900  12.922  41.630  1.00  0.00    -0.550 OA
ENDBRANCH  21  22
ENDBRANCH  20  21
ENDBRANCH  19  20
ENDBRANCH  18  19
ENDBRANCH  17  18
ENDBRANCH  16  17
ENDBRANCH  15  16
ENDBRANCH  14  15
ENDBRANCH  13  14
ENDBRANCH   1  13
TORSDOF 20
ENDMDL
