MODEL 1
REMARK VINA RESULT:    -4.945      0.000      0.000
REMARK INTER + INTRA:          -5.599
REMARK INTER:                  -5.379
REMARK INTRA:                  -0.220
REMARK UNBOUND:                -0.220
REMARK SMILES O=C([O-])c1ccccc1O
REMARK SMILES IDX 4 1 9 2 5 3 8 4 6 5 7 6 2 7 1 8 3 9 10 10
REMARK H PARENT 10 11
REMARK Flexibility Score: inf
ROOT
ATOM      1  C   UNL     1      25.540  12.893  17.564  1.00  0.00     0.039 A 
ATOM      2  C   UNL     1      25.953  11.680  18.172  1.00  0.00     0.124 A 
ATOM      3  C   UNL     1      25.792  14.108  18.230  1.00  0.00     0.014 A 
ATOM      4  C   UNL     1      26.655  11.716  19.384  1.00  0.00     0.047 A 
ATOM      5  C   UNL     1      26.475  14.124  19.448  1.00  0.00     0.001 A 
ATOM      6  C   UNL     1      26.914  12.931  20.019  1.00  0.00     0.004 A 
ENDROOT
BRANCH   1   7
ATOM      7  C   UNL     1      24.886  12.935  16.238  1.00  0.00     0.075 C 
ATOM      8  O   UNL     1      24.271  11.925  15.804  1.00  0.00    -0.545 OA
ATOM      9  O   UNL     1      24.882  14.102  15.484  1.00  0.00    -0.545 OA
ENDBRANCH   1   7
BRANCH   2  10
ATOM     10  O   UNL     1      25.656  10.428  17.629  1.00  0.00    -0.507 OA
ATOM     11  H   UNL     1      26.089  10.070  16.789  1.00  0.00     0.293 HD
ENDBRANCH   2  10
TORSDOF 2
ENDMDL
MODEL 2
REMARK VINA RESULT:    -4.857      1.937      3.533
REMARK INTER + INTRA:          -5.503
REMARK INTER:                  -5.298
REMARK INTRA:                  -0.205
REMARK UNBOUND:                -0.220
REMARK SMILES O=C([O-])c1ccccc1O
REMARK SMILES IDX 4 1 9 2 5 3 8 4 6 5 7 6 2 7 1 8 3 9 10 10
REMARK H PARENT 10 11
REMARK Flexibility Score: inf
ROOT
ATOM      1  C   UNL     1      26.087  12.620  18.222  1.00  0.00     0.039 A 
ATOM      2  C   UNL     1      25.710  11.519  17.412  1.00  0.00     0.124 A 
ATOM      3  C   UNL     1      25.756  13.922  17.798  1.00  0.00     0.014 A 
ATOM      4  C   UNL     1      24.965  11.740  16.246  1.00  0.00     0.047 A 
ATOM      5  C   UNL     1      25.031  14.125  16.623  1.00  0.00     0.001 A 
ATOM      6  C   UNL     1      24.627  13.035  15.852  1.00  0.00     0.004 A 
ENDROOT
BRANCH   1   7
ATOM      7  C   UNL     1      26.784  12.452  19.516  1.00  0.00     0.075 C 
ATOM      8  O   UNL     1      26.871  13.420  20.317  1.00  0.00    -0.545 OA
ATOM      9  O   UNL     1      27.290  11.215  19.896  1.00  0.00    -0.545 OA
ENDBRANCH   1   7
BRANCH   2  10
ATOM     10  O   UNL     1      26.083  10.206  17.706  1.00  0.00    -0.507 OA
ATOM     11  H   UNL     1      26.914   9.968  18.229  1.00  0.00     0.293 HD
ENDBRANCH   2  10
TORSDOF 2
ENDMDL
MODEL 3
REMARK VINA RESULT:    -4.242     17.559     18.650
REMARK INTER + INTRA:          -4.834
REMARK INTER:                  -4.581
REMARK INTRA:                  -0.252
REMARK UNBOUND:                -0.220
REMARK SMILES O=C([O-])c1ccccc1O
REMARK SMILES IDX 4 1 9 2 5 3 8 4 6 5 7 6 2 7 1 8 3 9 10 10
REMARK H PARENT 10 11
REMARK Flexibility Score: inf
ROOT
ATOM      1  C   UNL     1      19.022  -4.180  13.943  1.00  0.00     0.039 A 
ATOM      2  C   UNL     1      18.861  -5.037  15.061  1.00  0.00     0.124 A 
ATOM      3  C   UNL     1      19.975  -3.145  14.012  1.00  0.00     0.014 A 
ATOM      4  C   UNL     1      19.690  -4.881  16.180  1.00  0.00     0.047 A 
ATOM      5  C   UNL     1      20.779  -2.990  15.143  1.00  0.00     0.001 A 
ATOM      6  C   UNL     1      20.643  -3.862  16.222  1.00  0.00     0.004 A 
ENDROOT
BRANCH   1   7
ATOM      7  C   UNL     1      18.254  -4.353  12.692  1.00  0.00     0.075 C 
ATOM      8  O   UNL     1      17.875  -3.346  12.037  1.00  0.00    -0.545 OA
ATOM      9  O   UNL     1      17.998  -5.621  12.185  1.00  0.00    -0.545 OA
ENDBRANCH   1   7
BRANCH   2  10
ATOM     10  O   UNL     1      17.875  -6.024  15.116  1.00  0.00    -0.507 OA
ATOM     11  H   UNL     1      18.053  -6.999  14.920  1.00  0.00     0.293 HD
ENDBRANCH   2  10
TORSDOF 2
ENDMDL
MODEL 4
REMARK VINA RESULT:    -4.228     17.067     18.411
REMARK INTER + INTRA:          -4.819
REMARK INTER:                  -4.574
REMARK INTRA:                  -0.245
REMARK UNBOUND:                -0.220
REMARK SMILES O=C([O-])c1ccccc1O
REMARK SMILES IDX 4 1 9 2 5 3 8 4 6 5 7 6 2 7 1 8 3 9 10 10
REMARK H PARENT 10 11
REMARK Flexibility Score: inf
ROOT
ATOM      1  C   UNL     1      19.609  -3.849  14.682  1.00  0.00     0.039 A 
ATOM      2  C   UNL     1      18.538  -4.542  14.062  1.00  0.00     0.124 A 
ATOM      3  C   UNL     1      20.245  -2.810  13.977  1.00  0.00     0.014 A 
ATOM      4  C   UNL     1      18.095  -4.141  12.794  1.00  0.00     0.047 A 
ATOM      5  C   UNL     1      19.805  -2.437  12.706  1.00  0.00     0.001 A 
ATOM      6  C   UNL     1      18.725  -3.095  12.119  1.00  0.00     0.004 A 
ENDROOT
BRANCH   1   7
ATOM      7  C   UNL     1      20.059  -4.152  16.058  1.00  0.00     0.075 C 
ATOM      8  O   UNL     1      20.355  -5.333  16.381  1.00  0.00    -0.545 OA
ATOM      9  O   UNL     1      20.227  -3.136  16.991  1.00  0.00    -0.545 OA
ENDBRANCH   1   7
BRANCH   2  10
ATOM     10  O   UNL     1      17.916  -5.646  14.648  1.00  0.00    -0.507 OA
ATOM     11  H   UNL     1      17.300  -5.579  15.446  1.00  0.00     0.293 HD
ENDBRANCH   2  10
TORSDOF 2
ENDMDL
MODEL 5
REMARK VINA RESULT:    -4.212     17.222     18.363
REMARK INTER + INTRA:          -4.802
REMARK INTER:                  -4.552
REMARK INTRA:                  -0.249
REMARK UNBOUND:                -0.220
REMARK SMILES O=C([O-])c1ccccc1O
REMARK SMILES IDX 4 1 9 2 5 3 8 4 6 5 7 6 2 7 1 8 3 9 10 10
REMARK H PARENT 10 11
REMARK Flexibility Score: inf
ROOT
ATOM      1  C   UNL     1      18.981  -4.059  13.662  1.00  0.00     0.039 A 
ATOM      2  C   UNL     1      20.027  -3.148  13.961  1.00  0.00     0.124 A 
ATOM      3  C   UNL     1      18.625  -5.025  14.623  1.00  0.00     0.014 A 
ATOM      4  C   UNL     1      20.639  -3.186  15.221  1.00  0.00     0.047 A 
ATOM      5  C   UNL     1      19.260  -5.061  15.866  1.00  0.00     0.001 A 
ATOM      6  C   UNL     1      20.259  -4.137  16.168  1.00  0.00     0.004 A 
ENDROOT
BRANCH   1   7
ATOM      7  C   UNL     1      18.223  -4.008  12.393  1.00  0.00     0.075 C 
ATOM      8  O   UNL     1      17.937  -2.898  11.871  1.00  0.00    -0.545 OA
ATOM      9  O   UNL     1      17.876  -5.177  11.726  1.00  0.00    -0.545 OA
ENDBRANCH   1   7
BRANCH   2  10
ATOM     10  O   UNL     1      20.508  -2.225  13.031  1.00  0.00    -0.507 OA
ATOM     11  H   UNL     1      19.943  -1.837  12.289  1.00  0.00     0.293 HD
ENDBRANCH   2  10
TORSDOF 2
ENDMDL
MODEL 6
REMARK VINA RESULT:    -4.148     16.757     17.869
REMARK INTER + INTRA:          -4.732
REMARK INTER:                  -4.501
REMARK INTRA:                  -0.230
REMARK UNBOUND:                -0.220
REMARK SMILES O=C([O-])c1ccccc1O
REMARK SMILES IDX 4 1 9 2 5 3 8 4 6 5 7 6 2 7 1 8 3 9 10 10
REMARK H PARENT 10 11
REMARK Flexibility Score: inf
ROOT
ATOM      1  C   UNL     1      19.729  -3.168  13.685  1.00  0.00     0.039 A 
ATOM      2  C   UNL     1      18.753  -4.195  13.626  1.00  0.00     0.124 A 
ATOM      3  C   UNL     1      20.507  -3.034  14.852  1.00  0.00     0.014 A 
ATOM      4  C   UNL     1      18.624  -5.091  14.696  1.00  0.00     0.047 A 
ATOM      5  C   UNL     1      20.351  -3.923  15.917  1.00  0.00     0.001 A 
ATOM      6  C   UNL     1      19.418  -4.955  15.836  1.00  0.00     0.004 A 
ENDROOT
BRANCH   1   7
ATOM      7  C   UNL     1      19.989  -2.253  12.552  1.00  0.00     0.075 C 
ATOM      8  O   UNL     1      20.063  -1.011  12.746  1.00  0.00    -0.545 OA
ATOM      9  O   UNL     1      20.223  -2.751  11.276  1.00  0.00    -0.545 OA
ENDBRANCH   1   7
BRANCH   2  10
ATOM     10  O   UNL     1      17.875  -4.337  12.550  1.00  0.00    -0.507 OA
ATOM     11  H   UNL     1      16.927  -3.985  12.556  1.00  0.00     0.293 HD
ENDBRANCH   2  10
TORSDOF 2
ENDMDL
MODEL 7
REMARK VINA RESULT:    -4.067     17.264     18.664
REMARK INTER + INTRA:          -4.643
REMARK INTER:                  -4.399
REMARK INTRA:                  -0.244
REMARK UNBOUND:                -0.220
REMARK SMILES O=C([O-])c1ccccc1O
REMARK SMILES IDX 4 1 9 2 5 3 8 4 6 5 7 6 2 7 1 8 3 9 10 10
REMARK H PARENT 10 11
REMARK Flexibility Score: inf
ROOT
ATOM      1  C   UNL     1      19.563  -4.180  14.951  1.00  0.00     0.039 A 
ATOM      2  C   UNL     1      19.213  -3.624  13.694  1.00  0.00     0.124 A 
ATOM      3  C   UNL     1      19.018  -5.426  15.319  1.00  0.00     0.014 A 
ATOM      4  C   UNL     1      18.389  -4.348  12.821  1.00  0.00     0.047 A 
ATOM      5  C   UNL     1      18.182  -6.124  14.446  1.00  0.00     0.001 A 
ATOM      6  C   UNL     1      17.875  -5.590  13.195  1.00  0.00     0.004 A 
ENDROOT
BRANCH   1   7
ATOM      7  C   UNL     1      20.509  -3.519  15.876  1.00  0.00     0.075 C 
ATOM      8  O   UNL     1      21.617  -3.096  15.451  1.00  0.00    -0.545 OA
ATOM      9  O   UNL     1      20.165  -3.293  17.203  1.00  0.00    -0.545 OA
ENDBRANCH   1   7
BRANCH   2  10
ATOM     10  O   UNL     1      19.628  -2.353  13.292  1.00  0.00    -0.507 OA
ATOM     11  H   UNL     1      19.537  -1.530  13.871  1.00  0.00     0.293 HD
ENDBRANCH   2  10
TORSDOF 2
ENDMDL
MODEL 8
REMARK VINA RESULT:    -3.993      2.161      3.671
REMARK INTER + INTRA:          -4.563
REMARK INTER:                  -4.332
REMARK INTRA:                  -0.231
REMARK UNBOUND:                -0.220
REMARK SMILES O=C([O-])c1ccccc1O
REMARK SMILES IDX 4 1 9 2 5 3 8 4 6 5 7 6 2 7 1 8 3 9 10 10
REMARK H PARENT 10 11
REMARK Flexibility Score: inf
ROOT
ATOM      1  C   UNL     1      25.745  11.723  17.662  1.00  0.00     0.039 A 
ATOM      2  C   UNL     1      25.714  13.014  18.248  1.00  0.00     0.124 A 
ATOM      3  C   UNL     1      25.363  11.578  16.314  1.00  0.00     0.014 A 
ATOM      4  C   UNL     1      25.369  14.123  17.463  1.00  0.00     0.047 A 
ATOM      5  C   UNL     1      25.001  12.691  15.553  1.00  0.00     0.001 A 
ATOM      6  C   UNL     1      25.013  13.963  16.124  1.00  0.00     0.004 A 
ENDROOT
BRANCH   1   7
ATOM      7  C   UNL     1      26.199  10.526  18.402  1.00  0.00     0.075 C 
ATOM      8  O   UNL     1      25.941   9.374  17.961  1.00  0.00    -0.545 OA
ATOM      9  O   UNL     1      26.970  10.651  19.551  1.00  0.00    -0.545 OA
ENDBRANCH   1   7
BRANCH   2  10
ATOM     10  O   UNL     1      25.982  13.233  19.600  1.00  0.00    -0.507 OA
ATOM     11  H   UNL     1      26.910  13.400  19.964  1.00  0.00     0.293 HD
ENDBRANCH   2  10
TORSDOF 2
ENDMDL
MODEL 9
REMARK VINA RESULT:    -2.192      0.967      2.400
REMARK INTER + INTRA:          -2.604
REMARK INTER:                  -2.398
REMARK INTRA:                  -0.206
REMARK UNBOUND:                -0.220
REMARK SMILES O=C([O-])c1ccccc1O
REMARK SMILES IDX 4 1 9 2 5 3 8 4 6 5 7 6 2 7 1 8 3 9 10 10
REMARK H PARENT 10 11
REMARK Flexibility Score: inf
ROOT
ATOM      1  C   UNL     1      25.982  11.928  18.035  1.00  0.00     0.039 A 
ATOM      2  C   UNL     1      25.777  13.331  17.980  1.00  0.00     0.124 A 
ATOM      3  C   UNL     1      26.591  11.374  19.177  1.00  0.00     0.014 A 
ATOM      4  C   UNL     1      26.124  14.125  19.081  1.00  0.00     0.047 A 
ATOM      5  C   UNL     1      26.950  12.183  20.257  1.00  0.00     0.001 A 
ATOM      6  C   UNL     1      26.708  13.555  20.213  1.00  0.00     0.004 A 
ENDROOT
BRANCH   1   7
ATOM      7  C   UNL     1      25.545  11.019  16.953  1.00  0.00     0.075 C 
ATOM      8  O   UNL     1      25.748   9.780  17.048  1.00  0.00    -0.545 OA
ATOM      9  O   UNL     1      24.848  11.505  15.854  1.00  0.00    -0.545 OA
ENDBRANCH   1   7
BRANCH   2  10
ATOM     10  O   UNL     1      25.271  13.973  16.849  1.00  0.00    -0.507 OA
ATOM     11  H   UNL     1      25.081  13.497  15.978  1.00  0.00     0.293 HD
ENDBRANCH   2  10
TORSDOF 2
ENDMDL
