MODEL 1
REMARK VINA RESULT:    22.237      0.000      0.000
REMARK INTER + INTRA:          33.285
REMARK INTER:                  33.937
REMARK INTRA:                  -0.652
REMARK UNBOUND:                -0.652
REMARK SMILES COc1cc(C=CC(=O)CC(=O)C=Cc2ccc(O)c(OC)c2)ccc1O
REMARK SMILES IDX 10 1 8 2 9 3 7 4 6 5 5 6 3 7 26 8 4 9 25 10 24 11 2 12 1 13
REMARK SMILES IDX 27 14 11 16 12 17 13 18 14 19 15 20 23 21 16 22 20 23 17 24
REMARK SMILES IDX 18 25 21 26 22 27 19 28
REMARK H PARENT 27 15 19 29
REMARK Flexibility Score: inf
ROOT
ATOM      1  C   UNL     1     -28.326  31.228  -2.290  1.00  0.00     0.160 C 
ENDROOT
BRANCH   1   2
ATOM      2  C   UNL     1     -29.247  32.413  -2.378  1.00  0.00     0.163 C 
ATOM      3  O   UNL     1     -28.756  33.575  -2.402  1.00  0.00    -0.294 OA
BRANCH   2   4
ATOM      4  C   UNL     1     -30.710  32.213  -2.389  1.00  0.00     0.048 C 
ATOM      5  C   UNL     1     -31.263  30.995  -2.476  1.00  0.00     0.012 C 
BRANCH   5   6
ATOM      6  C   UNL     1     -32.728  30.756  -2.508  1.00  0.00    -0.022 A 
ATOM      7  C   UNL     1     -34.913  30.550  -1.419  1.00  0.00     0.161 A 
ATOM      8  C   UNL     1     -35.498  30.269  -2.661  1.00  0.00     0.157 A 
ATOM      9  C   UNL     1     -33.525  30.787  -1.346  1.00  0.00     0.058 A 
ATOM     10  C   UNL     1     -34.705  30.216  -3.814  1.00  0.00     0.051 A 
ATOM     11  C   UNL     1     -33.332  30.453  -3.737  1.00  0.00     0.012 A 
BRANCH   7  12
ATOM     12  O   UNL     1     -35.740  30.581  -0.285  1.00  0.00    -0.493 OA
ATOM     13  C   UNL     1     -35.290  30.878   1.034  1.00  0.00     0.278 C 
ENDBRANCH   7  12
BRANCH   8  14
ATOM     14  O   UNL     1     -36.870  30.040  -2.741  1.00  0.00    -0.504 OA
ATOM     15  H   UNL     1     -37.283  29.566  -3.534  1.00  0.00     0.293 HD
ENDBRANCH   8  14
ENDBRANCH   5   6
ENDBRANCH   2   4
ENDBRANCH   1   2
BRANCH   1  16
ATOM     16  C   UNL     1     -26.969  31.507  -2.891  1.00  0.00     0.163 C 
ATOM     17  O   UNL     1     -25.950  31.556  -2.149  1.00  0.00    -0.294 OA
BRANCH  16  18
ATOM     18  C   UNL     1     -26.780  31.712  -4.343  1.00  0.00     0.048 C 
ATOM     19  C   UNL     1     -26.208  30.801  -5.147  1.00  0.00     0.012 C 
BRANCH  19  20
ATOM     20  C   UNL     1     -26.005  31.005  -6.602  1.00  0.00    -0.022 A 
ATOM     21  C   UNL     1     -24.710  31.277  -7.072  1.00  0.00     0.058 A 
ATOM     22  C   UNL     1     -27.057  30.895  -7.531  1.00  0.00     0.012 A 
ATOM     23  C   UNL     1     -24.463  31.467  -8.445  1.00  0.00     0.161 A 
ATOM     24  C   UNL     1     -26.817  31.081  -8.894  1.00  0.00     0.051 A 
ATOM     25  C   UNL     1     -25.526  31.370  -9.353  1.00  0.00     0.157 A 
BRANCH  23  26
ATOM     26  O   UNL     1     -23.183  31.751  -8.945  1.00  0.00    -0.493 OA
ATOM     27  C   UNL     1     -22.618  33.056  -9.022  1.00  0.00     0.278 C 
ENDBRANCH  23  26
BRANCH  25  28
ATOM     28  O   UNL     1     -25.290  31.558 -10.715  1.00  0.00    -0.504 OA
ATOM     29  H   UNL     1     -25.942  31.225 -11.417  1.00  0.00     0.293 HD
ENDBRANCH  25  28
ENDBRANCH  19  20
ENDBRANCH  16  18
ENDBRANCH   1  16
TORSDOF 10
ENDMDL
MODEL 2
REMARK VINA RESULT:    22.455      0.145     10.137
REMARK INTER + INTRA:          33.618
REMARK INTER:                  34.213
REMARK INTRA:                  -0.595
REMARK UNBOUND:                -0.652
REMARK SMILES COc1cc(C=CC(=O)CC(=O)C=Cc2ccc(O)c(OC)c2)ccc1O
REMARK SMILES IDX 10 1 8 2 9 3 7 4 6 5 5 6 3 7 26 8 4 9 25 10 24 11 2 12 1 13
REMARK SMILES IDX 27 14 11 16 12 17 13 18 14 19 15 20 23 21 16 22 20 23 17 24
REMARK SMILES IDX 18 25 21 26 22 27 19 28
REMARK H PARENT 27 15 19 29
REMARK Flexibility Score: inf
ROOT
ATOM      1  C   UNL     1     -28.314  31.161  -2.217  1.00  0.00     0.160 C 
ENDROOT
BRANCH   1   2
ATOM      2  C   UNL     1     -26.942  31.493  -2.734  1.00  0.00     0.163 C 
ATOM      3  O   UNL     1     -25.987  31.608  -1.918  1.00  0.00    -0.294 OA
BRANCH   2   4
ATOM      4  C   UNL     1     -26.733  31.725  -4.177  1.00  0.00     0.048 C 
ATOM      5  C   UNL     1     -26.211  30.790  -4.983  1.00  0.00     0.012 C 
BRANCH   5   6
ATOM      6  C   UNL     1     -25.970  30.993  -6.434  1.00  0.00    -0.022 A 
ATOM      7  C   UNL     1     -24.503  31.446  -8.342  1.00  0.00     0.161 A 
ATOM      8  C   UNL     1     -25.610  31.389  -9.199  1.00  0.00     0.157 A 
ATOM      9  C   UNL     1     -24.688  31.253  -6.958  1.00  0.00     0.058 A 
ATOM     10  C   UNL     1     -26.889  31.153  -8.678  1.00  0.00     0.051 A 
ATOM     11  C   UNL     1     -27.067  30.961  -7.307  1.00  0.00     0.012 A 
BRANCH   7  12
ATOM     12  O   UNL     1     -23.240  31.698  -8.902  1.00  0.00    -0.493 OA
ATOM     13  C   UNL     1     -22.691  32.997  -9.104  1.00  0.00     0.278 C 
ENDBRANCH   7  12
BRANCH   8  14
ATOM     14  O   UNL     1     -25.433  31.572 -10.569  1.00  0.00    -0.504 OA
ATOM     15  H   UNL     1     -26.013  32.211 -11.098  1.00  0.00     0.293 HD
ENDBRANCH   8  14
ENDBRANCH   5   6
ENDBRANCH   2   4
ENDBRANCH   1   2
BRANCH   1  16
ATOM     16  C   UNL     1     -29.279  32.314  -2.363  1.00  0.00     0.163 C 
ATOM     17  O   UNL     1     -28.843  33.497  -2.411  1.00  0.00    -0.294 OA
BRANCH  16  18
ATOM     18  C   UNL     1     -30.739  32.106  -2.470  1.00  0.00     0.048 C 
ATOM     19  C   UNL     1     -31.321  30.901  -2.371  1.00  0.00     0.012 C 
BRANCH  19  20
ATOM     20  C   UNL     1     -32.784  30.684  -2.490  1.00  0.00    -0.022 A 
ATOM     21  C   UNL     1     -33.578  30.798  -1.337  1.00  0.00     0.058 A 
ATOM     22  C   UNL     1     -33.406  30.409  -3.722  1.00  0.00     0.012 A 
ATOM     23  C   UNL     1     -34.973  30.613  -1.400  1.00  0.00     0.161 A 
ATOM     24  C   UNL     1     -34.789  30.227  -3.789  1.00  0.00     0.051 A 
ATOM     25  C   UNL     1     -35.573  30.324  -2.633  1.00  0.00     0.157 A 
BRANCH  23  26
ATOM     26  O   UNL     1     -35.794  30.710  -0.265  1.00  0.00    -0.493 OA
ATOM     27  C   UNL     1     -35.313  30.841   1.069  1.00  0.00     0.278 C 
ENDBRANCH  23  26
BRANCH  25  28
ATOM     28  O   UNL     1     -36.953  30.139  -2.702  1.00  0.00    -0.504 OA
ATOM     29  H   UNL     1     -37.591  30.686  -2.136  1.00  0.00     0.293 HD
ENDBRANCH  25  28
ENDBRANCH  19  20
ENDBRANCH  16  18
ENDBRANCH   1  16
TORSDOF 10
ENDMDL
