MODEL 1
REMARK VINA RESULT:    -5.334      0.000      0.000
REMARK INTER + INTRA:         -11.861
REMARK INTER:                  -9.076
REMARK INTRA:                  -2.785
REMARK UNBOUND:                -2.785
REMARK SMILES OC[C@H]1O[C@H](Oc2cc(O)cc3[o+]c(-c4ccc(O)cc4)c(O[C@H]4O[C@H](CO)[C@H](O)[C@@H](O)[C@@H]4O)cc23)[C@@H](O)[C@@H](O)[C@H]1O.[Cl-]
REMARK SMILES IDX 14 1 22 2 35 3 36 4 7 5 8 6 9 7 11 8 12 9 13 10 15 11 16 12
REMARK SMILES IDX 17 13 18 14 21 15 20 16 19 17 23 19 24 20 33 21 25 22 31 23
REMARK SMILES IDX 26 24 29 25 34 26 32 28 27 30 28 31 30 33 6 35 5 36 37 37
REMARK SMILES IDX 4 38 39 39 3 40 41 41 38 42 40 44 2 46 1 47 42 49 10 51
REMARK H PARENT 19 18 34 27 32 29 28 32 30 34 38 43 40 45 1 48 42 50 10 52
REMARK Flexibility Score: inf
ROOT
ATOM      1  C   UNL     1      40.163 -34.129  -6.657  1.00  0.00     0.402 A 
ATOM      2  C   UNL     1      39.361 -35.307  -6.664  1.00  0.00     0.229 A 
ATOM      3  C   UNL     1      39.717 -36.338  -5.791  1.00  0.00     0.079 A 
ATOM      4  C   UNL     1      40.828 -36.213  -4.950  1.00  0.00     0.126 A 
ATOM      5  C   UNL     1      41.186 -37.224  -4.036  1.00  0.00     0.143 A 
ATOM      6  C   UNL     1      42.287 -37.020  -3.184  1.00  0.00     0.094 A 
ATOM      7  C   UNL     1      43.029 -35.833  -3.254  1.00  0.00     0.128 A 
ATOM      8  C   UNL     1      42.671 -34.839  -4.168  1.00  0.00     0.162 A 
ATOM      9  C   UNL     1      41.570 -35.020  -5.009  1.00  0.00     0.368 A 
ATOM     10  O   UNL     1      41.217 -34.053  -5.847  1.00  0.00    -0.202 OA
ENDROOT
BRANCH   1  11
ATOM     11  C   UNL     1      39.884 -32.928  -7.455  1.00  0.00     0.084 A 
ATOM     12  C   UNL     1      39.837 -31.675  -6.830  1.00  0.00     0.022 A 
ATOM     13  C   UNL     1      39.656 -30.515  -7.589  1.00  0.00     0.047 A 
ATOM     14  C   UNL     1      39.564 -30.597  -8.985  1.00  0.00     0.115 A 
ATOM     15  C   UNL     1      39.859 -33.000  -8.857  1.00  0.00     0.022 A 
ATOM     16  C   UNL     1      39.675 -31.840  -9.616  1.00  0.00     0.047 A 
BRANCH  14  17
ATOM     17  O   UNL     1      39.372 -29.450  -9.751  1.00  0.00    -0.508 OA
ATOM     18  H   UNL     1      39.990 -29.218 -10.520  1.00  0.00     0.293 HD
ENDBRANCH  14  17
ENDBRANCH   1  11
BRANCH   2  19
ATOM     19  O   UNL     1      38.216 -35.542  -7.450  1.00  0.00    -0.452 OA
BRANCH  19  20
ATOM     20  C   UNL     1      38.123 -36.106  -8.761  1.00  0.00     0.339 C 
ATOM     21  C   UNL     1      36.687 -35.984  -9.320  1.00  0.00     0.214 C 
ATOM     22  O   UNL     1      38.564 -37.456  -8.748  1.00  0.00    -0.332 OA
ATOM     23  C   UNL     1      35.708 -36.955  -8.625  1.00  0.00     0.180 C 
ATOM     24  C   UNL     1      37.753 -38.269  -7.916  1.00  0.00     0.179 C 
ATOM     25  C   UNL     1      36.314 -38.363  -8.476  1.00  0.00     0.177 C 
BRANCH  21  26
ATOM     26  O   UNL     1      36.709 -36.213 -10.706  1.00  0.00    -0.384 OA
ATOM     27  H   UNL     1      36.759 -37.194 -10.838  1.00  0.00     0.211 HD
ENDBRANCH  21  26
BRANCH  23  28
ATOM     28  O   UNL     1      35.382 -36.443  -7.357  1.00  0.00    -0.387 OA
ATOM     29  H   UNL     1      36.148 -36.641  -6.759  1.00  0.00     0.211 HD
ENDBRANCH  23  28
BRANCH  24  30
ATOM     30  C   UNL     1      38.390 -39.657  -7.797  1.00  0.00     0.191 C 
BRANCH  30  31
ATOM     31  O   UNL     1      38.996 -40.002  -9.010  1.00  0.00    -0.394 OA
ATOM     32  H   UNL     1      38.894 -40.986  -9.097  1.00  0.00     0.210 HD
ENDBRANCH  30  31
ENDBRANCH  24  30
BRANCH  25  33
ATOM     33  O   UNL     1      36.258 -39.067  -9.696  1.00  0.00    -0.387 OA
ATOM     34  H   UNL     1      37.166 -39.080 -10.092  1.00  0.00     0.211 HD
ENDBRANCH  25  33
ENDBRANCH  19  20
ENDBRANCH   2  19
BRANCH   5  35
ATOM     35  O   UNL     1      40.426 -38.405  -3.998  1.00  0.00    -0.461 OA
BRANCH  35  36
ATOM     36  C   UNL     1      39.650 -38.845  -2.879  1.00  0.00     0.339 C 
ATOM     37  C   UNL     1      39.361 -40.350  -3.003  1.00  0.00     0.214 C 
ATOM     38  O   UNL     1      38.446 -38.097  -2.761  1.00  0.00    -0.332 OA
ATOM     39  C   UNL     1      38.407 -40.609  -4.191  1.00  0.00     0.180 C 
ATOM     40  C   UNL     1      37.636 -38.233  -3.921  1.00  0.00     0.179 C 
ATOM     41  C   UNL     1      37.174 -39.698  -4.109  1.00  0.00     0.177 C 
BRANCH  37  42
ATOM     42  O   UNL     1      38.795 -40.809  -1.801  1.00  0.00    -0.384 OA
ATOM     43  H   UNL     1      39.398 -41.514  -1.447  1.00  0.00     0.211 HD
ENDBRANCH  37  42
BRANCH  39  44
ATOM     44  O   UNL     1      38.003 -41.953  -4.223  1.00  0.00    -0.387 OA
ATOM     45  H   UNL     1      37.765 -42.156  -5.165  1.00  0.00     0.211 HD
ENDBRANCH  39  44
BRANCH  40  46
ATOM     46  C   UNL     1      36.441 -37.281  -3.808  1.00  0.00     0.191 C 
BRANCH  46  47
ATOM     47  O   UNL     1      35.498 -37.585  -4.801  1.00  0.00    -0.394 OA
ATOM     48  H   UNL     1      34.742 -38.030  -4.336  1.00  0.00     0.210 HD
ENDBRANCH  46  47
ENDBRANCH  40  46
BRANCH  41  49
ATOM     49  O   UNL     1      36.357 -40.100  -3.035  1.00  0.00    -0.387 OA
ATOM     50  H   UNL     1      36.909 -40.679  -2.445  1.00  0.00     0.211 HD
ENDBRANCH  41  49
ENDBRANCH  35  36
ENDBRANCH   5  35
BRANCH   7  51
ATOM     51  O   UNL     1      44.124 -35.631  -2.417  1.00  0.00    -0.507 OA
ATOM     52  H   UNL     1      44.999 -36.124  -2.562  1.00  0.00     0.293 HD
ENDBRANCH   7  51
TORSDOF 17
ENDMDL
MODEL 2
REMARK VINA RESULT:    -5.202      1.533      5.737
REMARK INTER + INTRA:         -11.636
REMARK INTER:                  -9.513
REMARK INTRA:                  -2.124
REMARK UNBOUND:                -2.785
REMARK SMILES OC[C@H]1O[C@H](Oc2cc(O)cc3[o+]c(-c4ccc(O)cc4)c(O[C@H]4O[C@H](CO)[C@H](O)[C@@H](O)[C@@H]4O)cc23)[C@@H](O)[C@@H](O)[C@H]1O.[Cl-]
REMARK SMILES IDX 14 1 22 2 35 3 36 4 7 5 8 6 9 7 11 8 12 9 13 10 15 11 16 12
REMARK SMILES IDX 17 13 18 14 21 15 20 16 19 17 23 19 24 20 33 21 25 22 31 23
REMARK SMILES IDX 26 24 29 25 34 26 32 28 27 30 28 31 30 33 6 35 5 36 37 37
REMARK SMILES IDX 4 38 39 39 3 40 41 41 38 42 40 44 2 46 1 47 42 49 10 51
REMARK H PARENT 19 18 34 27 32 29 28 32 30 34 38 43 40 45 1 48 42 50 10 52
REMARK Flexibility Score: inf
ROOT
ATOM      1  C   UNL     1      39.412 -35.051  -6.832  1.00  0.00     0.402 A 
ATOM      2  C   UNL     1      39.961 -35.872  -5.804  1.00  0.00     0.229 A 
ATOM      3  C   UNL     1      39.559 -37.209  -5.759  1.00  0.00     0.079 A 
ATOM      4  C   UNL     1      38.642 -37.714  -6.688  1.00  0.00     0.126 A 
ATOM      5  C   UNL     1      38.250 -39.067  -6.686  1.00  0.00     0.143 A 
ATOM      6  C   UNL     1      37.360 -39.524  -7.675  1.00  0.00     0.094 A 
ATOM      7  C   UNL     1      36.858 -38.643  -8.642  1.00  0.00     0.128 A 
ATOM      8  C   UNL     1      37.249 -37.302  -8.633  1.00  0.00     0.162 A 
ATOM      9  C   UNL     1      38.144 -36.836  -7.668  1.00  0.00     0.368 A 
ATOM     10  O   UNL     1      38.536 -35.568  -7.692  1.00  0.00    -0.202 OA
ENDROOT
BRANCH   1  11
ATOM     11  C   UNL     1      39.784 -33.650  -7.066  1.00  0.00     0.084 A 
ATOM     12  C   UNL     1      39.638 -33.098  -8.344  1.00  0.00     0.022 A 
ATOM     13  C   UNL     1      39.909 -31.743  -8.562  1.00  0.00     0.047 A 
ATOM     14  C   UNL     1      40.286 -30.922  -7.491  1.00  0.00     0.115 A 
ATOM     15  C   UNL     1      40.096 -32.811  -5.984  1.00  0.00     0.022 A 
ATOM     16  C   UNL     1      40.370 -31.458  -6.201  1.00  0.00     0.047 A 
BRANCH  14  17
ATOM     17  O   UNL     1      40.569 -29.574  -7.697  1.00  0.00    -0.508 OA
ATOM     18  H   UNL     1      39.851 -28.921  -7.986  1.00  0.00     0.293 HD
ENDBRANCH  14  17
ENDBRANCH   1  11
BRANCH   2  19
ATOM     19  O   UNL     1      40.898 -35.484  -4.827  1.00  0.00    -0.452 OA
BRANCH  19  20
ATOM     20  C   UNL     1      40.857 -35.682  -3.410  1.00  0.00     0.339 C 
ATOM     21  C   UNL     1      41.680 -34.601  -2.672  1.00  0.00     0.214 C 
ATOM     22  O   UNL     1      41.304 -36.991  -3.085  1.00  0.00    -0.332 OA
ATOM     23  C   UNL     1      43.200 -34.806  -2.850  1.00  0.00     0.180 C 
ATOM     24  C   UNL     1      42.653 -37.199  -3.469  1.00  0.00     0.179 C 
ATOM     25  C   UNL     1      43.602 -36.281  -2.662  1.00  0.00     0.177 C 
BRANCH  21  26
ATOM     26  O   UNL     1      41.336 -34.609  -1.310  1.00  0.00    -0.384 OA
ATOM     27  H   UNL     1      41.573 -33.718  -0.946  1.00  0.00     0.211 HD
ENDBRANCH  21  26
BRANCH  23  28
ATOM     28  O   UNL     1      43.570 -34.374  -4.136  1.00  0.00    -0.387 OA
ATOM     29  H   UNL     1      43.737 -33.399  -4.078  1.00  0.00     0.211 HD
ENDBRANCH  23  28
BRANCH  24  30
ATOM     30  C   UNL     1      43.010 -38.675  -3.265  1.00  0.00     0.191 C 
BRANCH  30  31
ATOM     31  O   UNL     1      43.036 -39.328  -4.502  1.00  0.00    -0.394 OA
ATOM     32  H   UNL     1      42.423 -38.820  -5.093  1.00  0.00     0.210 HD
ENDBRANCH  30  31
ENDBRANCH  24  30
BRANCH  25  33
ATOM     33  O   UNL     1      43.644 -36.620  -1.295  1.00  0.00    -0.387 OA
ATOM     34  H   UNL     1      44.251 -35.987  -0.834  1.00  0.00     0.211 HD
ENDBRANCH  25  33
ENDBRANCH  19  20
ENDBRANCH   2  19
BRANCH   5  35
ATOM     35  O   UNL     1      38.765 -39.921  -5.696  1.00  0.00    -0.461 OA
BRANCH  35  36
ATOM     36  C   UNL     1      37.975 -40.719  -4.810  1.00  0.00     0.339 C 
ATOM     37  C   UNL     1      36.796 -39.891  -4.271  1.00  0.00     0.214 C 
ATOM     38  O   UNL     1      38.763 -41.244  -3.749  1.00  0.00    -0.332 OA
ATOM     39  C   UNL     1      37.318 -38.774  -3.338  1.00  0.00     0.180 C 
ATOM     40  C   UNL     1      39.352 -40.206  -2.977  1.00  0.00     0.179 C 
ATOM     41  C   UNL     1      38.268 -39.350  -2.278  1.00  0.00     0.177 C 
BRANCH  37  42
ATOM     42  O   UNL     1      35.913 -40.742  -3.583  1.00  0.00    -0.384 OA
ATOM     43  H   UNL     1      35.386 -41.228  -4.270  1.00  0.00     0.211 HD
ENDBRANCH  37  42
BRANCH  39  44
ATOM     44  O   UNL     1      36.252 -38.111  -2.709  1.00  0.00    -0.387 OA
ATOM     45  H   UNL     1      36.488 -37.146  -2.693  1.00  0.00     0.211 HD
ENDBRANCH  39  44
BRANCH  40  46
ATOM     46  C   UNL     1      40.315 -40.826  -1.960  1.00  0.00     0.191 C 
BRANCH  46  47
ATOM     47  O   UNL     1      39.680 -41.880  -1.289  1.00  0.00    -0.394 OA
ATOM     48  H   UNL     1      39.758 -41.676  -0.320  1.00  0.00     0.210 HD
ENDBRANCH  46  47
ENDBRANCH  40  46
BRANCH  41  49
ATOM     49  O   UNL     1      37.540 -40.129  -1.359  1.00  0.00    -0.387 OA
ATOM     50  H   UNL     1      37.038 -40.809  -1.882  1.00  0.00     0.211 HD
ENDBRANCH  41  49
ENDBRANCH  35  36
ENDBRANCH   5  35
BRANCH   7  51
ATOM     51  O   UNL     1      35.971 -39.092  -9.618  1.00  0.00    -0.507 OA
ATOM     52  H   UNL     1      35.415 -38.445 -10.166  1.00  0.00     0.293 HD
ENDBRANCH   7  51
TORSDOF 17
ENDMDL
MODEL 3
REMARK VINA RESULT:    -5.098      3.775      8.315
REMARK INTER + INTRA:         -11.460
REMARK INTER:                  -9.101
REMARK INTRA:                  -2.358
REMARK UNBOUND:                -2.785
REMARK SMILES OC[C@H]1O[C@H](Oc2cc(O)cc3[o+]c(-c4ccc(O)cc4)c(O[C@H]4O[C@H](CO)[C@H](O)[C@@H](O)[C@@H]4O)cc23)[C@@H](O)[C@@H](O)[C@H]1O.[Cl-]
REMARK SMILES IDX 14 1 22 2 35 3 36 4 7 5 8 6 9 7 11 8 12 9 13 10 15 11 16 12
REMARK SMILES IDX 17 13 18 14 21 15 20 16 19 17 23 19 24 20 33 21 25 22 31 23
REMARK SMILES IDX 26 24 29 25 34 26 32 28 27 30 28 31 30 33 6 35 5 36 37 37
REMARK SMILES IDX 4 38 39 39 3 40 41 41 38 42 40 44 2 46 1 47 42 49 10 51
REMARK H PARENT 19 18 34 27 32 29 28 32 30 34 38 43 40 45 1 48 42 50 10 52
REMARK Flexibility Score: inf
ROOT
ATOM      1  C   UNL     1      39.417 -38.897  -4.788  1.00  0.00     0.402 A 
ATOM      2  C   UNL     1      38.792 -38.490  -3.573  1.00  0.00     0.229 A 
ATOM      3  C   UNL     1      37.615 -37.744  -3.667  1.00  0.00     0.079 A 
ATOM      4  C   UNL     1      37.080 -37.405  -4.914  1.00  0.00     0.126 A 
ATOM      5  C   UNL     1      35.875 -36.685  -5.035  1.00  0.00     0.143 A 
ATOM      6  C   UNL     1      35.364 -36.413  -6.318  1.00  0.00     0.094 A 
ATOM      7  C   UNL     1      36.052 -36.840  -7.462  1.00  0.00     0.128 A 
ATOM      8  C   UNL     1      37.249 -37.548  -7.332  1.00  0.00     0.162 A 
ATOM      9  C   UNL     1      37.761 -37.840  -6.066  1.00  0.00     0.368 A 
ATOM     10  O   UNL     1      38.880 -38.545  -5.955  1.00  0.00    -0.202 OA
ENDROOT
BRANCH   1  11
ATOM     11  C   UNL     1      40.613 -39.745  -4.866  1.00  0.00     0.084 A 
ATOM     12  C   UNL     1      40.587 -40.910  -5.642  1.00  0.00     0.022 A 
ATOM     13  C   UNL     1      41.744 -41.682  -5.793  1.00  0.00     0.047 A 
ATOM     14  C   UNL     1      42.945 -41.269  -5.202  1.00  0.00     0.115 A 
ATOM     15  C   UNL     1      41.833 -39.298  -4.333  1.00  0.00     0.022 A 
ATOM     16  C   UNL     1      42.988 -40.071  -4.481  1.00  0.00     0.047 A 
BRANCH  14  17
ATOM     17  O   UNL     1      44.101 -42.035  -5.336  1.00  0.00    -0.508 OA
ATOM     18  H   UNL     1      44.147 -42.815  -5.980  1.00  0.00     0.293 HD
ENDBRANCH  14  17
ENDBRANCH   1  11
BRANCH   2  19
ATOM     19  O   UNL     1      39.226 -38.783  -2.265  1.00  0.00    -0.452 OA
BRANCH  19  20
ATOM     20  C   UNL     1      39.104 -40.003  -1.526  1.00  0.00     0.339 C 
ATOM     21  C   UNL     1      38.462 -39.755  -0.143  1.00  0.00     0.214 C 
ATOM     22  O   UNL     1      40.372 -40.633  -1.409  1.00  0.00    -0.332 OA
ATOM     23  C   UNL     1      39.428 -39.041   0.827  1.00  0.00     0.180 C 
ATOM     24  C   UNL     1      41.295 -39.833  -0.689  1.00  0.00     0.179 C 
ATOM     25  C   UNL     1      40.840 -39.655   0.779  1.00  0.00     0.177 C 
BRANCH  21  26
ATOM     26  O   UNL     1      38.038 -40.982   0.396  1.00  0.00    -0.384 OA
ATOM     27  H   UNL     1      38.811 -41.367   0.883  1.00  0.00     0.211 HD
ENDBRANCH  21  26
BRANCH  23  28
ATOM     28  O   UNL     1      39.492 -37.679   0.484  1.00  0.00    -0.387 OA
ATOM     29  H   UNL     1      40.205 -37.584  -0.198  1.00  0.00     0.211 HD
ENDBRANCH  23  28
BRANCH  24  30
ATOM     30  C   UNL     1      42.682 -40.479  -0.761  1.00  0.00     0.191 C 
BRANCH  30  31
ATOM     31  O   UNL     1      43.368 -40.256   0.437  1.00  0.00    -0.394 OA
ATOM     32  H   UNL     1      42.685 -39.960   1.093  1.00  0.00     0.210 HD
ENDBRANCH  30  31
ENDBRANCH  24  30
BRANCH  25  33
ATOM     33  O   UNL     1      40.889 -40.861   1.506  1.00  0.00    -0.387 OA
ATOM     34  H   UNL     1      40.640 -40.670   2.447  1.00  0.00     0.211 HD
ENDBRANCH  25  33
ENDBRANCH  19  20
ENDBRANCH   2  19
BRANCH   5  35
ATOM     35  O   UNL     1      35.216 -36.264  -3.868  1.00  0.00    -0.461 OA
BRANCH  35  36
ATOM     36  C   UNL     1      35.410 -35.000  -3.228  1.00  0.00     0.339 C 
ATOM     37  C   UNL     1      35.023 -35.101  -1.743  1.00  0.00     0.214 C 
ATOM     38  O   UNL     1      34.677 -33.972  -3.883  1.00  0.00    -0.332 OA
ATOM     39  C   UNL     1      33.497 -35.311  -1.607  1.00  0.00     0.180 C 
ATOM     40  C   UNL     1      33.281 -34.244  -3.873  1.00  0.00     0.179 C 
ATOM     41  C   UNL     1      32.728 -34.264  -2.427  1.00  0.00     0.177 C 
BRANCH  37  42
ATOM     42  O   UNL     1      35.424 -33.926  -1.083  1.00  0.00    -0.384 OA
ATOM     43  H   UNL     1      35.203 -34.044  -0.122  1.00  0.00     0.211 HD
ENDBRANCH  37  42
BRANCH  39  44
ATOM     44  O   UNL     1      33.102 -35.244  -0.262  1.00  0.00    -0.387 OA
ATOM     45  H   UNL     1      33.499 -36.033   0.190  1.00  0.00     0.211 HD
ENDBRANCH  39  44
BRANCH  40  46
ATOM     46  C   UNL     1      32.564 -33.197  -4.730  1.00  0.00     0.191 C 
BRANCH  46  47
ATOM     47  O   UNL     1      33.005 -31.914  -4.378  1.00  0.00    -0.394 OA
ATOM     48  H   UNL     1      33.372 -31.511  -5.208  1.00  0.00     0.210 HD
ENDBRANCH  46  47
ENDBRANCH  40  46
BRANCH  41  49
ATOM     49  O   UNL     1      32.865 -32.998  -1.829  1.00  0.00    -0.387 OA
ATOM     50  H   UNL     1      32.691 -32.318  -2.533  1.00  0.00     0.211 HD
ENDBRANCH  41  49
ENDBRANCH  35  36
ENDBRANCH   5  35
BRANCH   7  51
ATOM     51  O   UNL     1      35.552 -36.567  -8.733  1.00  0.00    -0.507 OA
ATOM     52  H   UNL     1      35.803 -37.135  -9.535  1.00  0.00     0.293 HD
ENDBRANCH   7  51
TORSDOF 17
ENDMDL
MODEL 4
REMARK VINA RESULT:    -5.054      3.166      6.507
REMARK INTER + INTRA:         -11.384
REMARK INTER:                  -8.576
REMARK INTRA:                  -2.808
REMARK UNBOUND:                -2.785
REMARK SMILES OC[C@H]1O[C@H](Oc2cc(O)cc3[o+]c(-c4ccc(O)cc4)c(O[C@H]4O[C@H](CO)[C@H](O)[C@@H](O)[C@@H]4O)cc23)[C@@H](O)[C@@H](O)[C@H]1O.[Cl-]
REMARK SMILES IDX 14 1 22 2 35 3 36 4 7 5 8 6 9 7 11 8 12 9 13 10 15 11 16 12
REMARK SMILES IDX 17 13 18 14 21 15 20 16 19 17 23 19 24 20 33 21 25 22 31 23
REMARK SMILES IDX 26 24 29 25 34 26 32 28 27 30 28 31 30 33 6 35 5 36 37 37
REMARK SMILES IDX 4 38 39 39 3 40 41 41 38 42 40 44 2 46 1 47 42 49 10 51
REMARK H PARENT 19 18 34 27 32 29 28 32 30 34 38 43 40 45 1 48 42 50 10 52
REMARK Flexibility Score: inf
ROOT
ATOM      1  C   UNL     1      40.670 -39.490  -3.899  1.00  0.00     0.402 A 
ATOM      2  C   UNL     1      39.714 -38.574  -4.428  1.00  0.00     0.229 A 
ATOM      3  C   UNL     1      39.027 -37.760  -3.524  1.00  0.00     0.079 A 
ATOM      4  C   UNL     1      39.268 -37.855  -2.149  1.00  0.00     0.126 A 
ATOM      5  C   UNL     1      38.615 -37.021  -1.220  1.00  0.00     0.143 A 
ATOM      6  C   UNL     1      38.934 -37.133   0.146  1.00  0.00     0.094 A 
ATOM      7  C   UNL     1      39.879 -38.072   0.581  1.00  0.00     0.128 A 
ATOM      8  C   UNL     1      40.517 -38.900  -0.347  1.00  0.00     0.162 A 
ATOM      9  C   UNL     1      40.223 -38.789  -1.708  1.00  0.00     0.368 A 
ATOM     10  O   UNL     1      40.863 -39.555  -2.583  1.00  0.00    -0.202 OA
ENDROOT
BRANCH   1  11
ATOM     11  C   UNL     1      41.527 -40.360  -4.714  1.00  0.00     0.084 A 
ATOM     12  C   UNL     1      42.898 -40.440  -4.436  1.00  0.00     0.022 A 
ATOM     13  C   UNL     1      43.711 -41.327  -5.149  1.00  0.00     0.047 A 
ATOM     14  C   UNL     1      43.149 -42.172  -6.115  1.00  0.00     0.115 A 
ATOM     15  C   UNL     1      40.957 -41.255  -5.634  1.00  0.00     0.022 A 
ATOM     16  C   UNL     1      41.771 -42.140  -6.348  1.00  0.00     0.047 A 
BRANCH  14  17
ATOM     17  O   UNL     1      43.950 -43.052  -6.839  1.00  0.00    -0.508 OA
ATOM     18  H   UNL     1      44.264 -42.831  -7.777  1.00  0.00     0.293 HD
ENDBRANCH  14  17
ENDBRANCH   1  11
BRANCH   2  19
ATOM     19  O   UNL     1      39.398 -38.378  -5.786  1.00  0.00    -0.452 OA
BRANCH  19  20
ATOM     20  C   UNL     1      38.417 -39.042  -6.589  1.00  0.00     0.339 C 
ATOM     21  C   UNL     1      38.688 -38.823  -8.095  1.00  0.00     0.214 C 
ATOM     22  O   UNL     1      37.113 -38.613  -6.225  1.00  0.00    -0.332 OA
ATOM     23  C   UNL     1      38.356 -37.383  -8.541  1.00  0.00     0.180 C 
ATOM     24  C   UNL     1      36.930 -37.225  -6.456  1.00  0.00     0.179 C 
ATOM     25  C   UNL     1      37.009 -36.905  -7.967  1.00  0.00     0.177 C 
BRANCH  21  26
ATOM     26  O   UNL     1      37.944 -39.755  -8.838  1.00  0.00    -0.384 OA
ATOM     27  H   UNL     1      38.124 -40.648  -8.448  1.00  0.00     0.211 HD
ENDBRANCH  21  26
BRANCH  23  28
ATOM     28  O   UNL     1      39.385 -36.525  -8.114  1.00  0.00    -0.387 OA
ATOM     29  H   UNL     1      39.000 -35.938  -7.413  1.00  0.00     0.211 HD
ENDBRANCH  23  28
BRANCH  24  30
ATOM     30  C   UNL     1      35.581 -36.794  -5.871  1.00  0.00     0.191 C 
BRANCH  30  31
ATOM     31  O   UNL     1      35.476 -37.241  -4.550  1.00  0.00    -0.394 OA
ATOM     32  H   UNL     1      36.102 -36.681  -4.021  1.00  0.00     0.210 HD
ENDBRANCH  30  31
ENDBRANCH  24  30
BRANCH  25  33
ATOM     33  O   UNL     1      35.931 -37.454  -8.690  1.00  0.00    -0.387 OA
ATOM     34  H   UNL     1      35.464 -36.718  -9.163  1.00  0.00     0.211 HD
ENDBRANCH  25  33
ENDBRANCH  19  20
ENDBRANCH   2  19
BRANCH   5  35
ATOM     35  O   UNL     1      37.667 -36.096  -1.688  1.00  0.00    -0.461 OA
BRANCH  35  36
ATOM     36  C   UNL     1      37.803 -34.674  -1.614  1.00  0.00     0.339 C 
ATOM     37  C   UNL     1      36.415 -34.021  -1.506  1.00  0.00     0.214 C 
ATOM     38  O   UNL     1      38.526 -34.167  -2.729  1.00  0.00    -0.332 OA
ATOM     39  C   UNL     1      35.637 -34.211  -2.828  1.00  0.00     0.180 C 
ATOM     40  C   UNL     1      37.869 -34.469  -3.954  1.00  0.00     0.179 C 
ATOM     41  C   UNL     1      36.488 -33.774  -4.029  1.00  0.00     0.177 C 
BRANCH  37  42
ATOM     42  O   UNL     1      36.573 -32.654  -1.214  1.00  0.00    -0.384 OA
ATOM     43  H   UNL     1      36.853 -32.591  -0.264  1.00  0.00     0.211 HD
ENDBRANCH  37  42
BRANCH  39  44
ATOM     44  O   UNL     1      34.435 -33.486  -2.808  1.00  0.00    -0.387 OA
ATOM     45  H   UNL     1      34.536 -32.787  -2.110  1.00  0.00     0.211 HD
ENDBRANCH  39  44
BRANCH  40  46
ATOM     46  C   UNL     1      38.769 -34.048  -5.119  1.00  0.00     0.191 C 
BRANCH  46  47
ATOM     47  O   UNL     1      39.477 -35.161  -5.596  1.00  0.00    -0.394 OA
ATOM     48  H   UNL     1      39.661 -35.730  -4.804  1.00  0.00     0.210 HD
ENDBRANCH  46  47
ENDBRANCH  40  46
BRANCH  41  49
ATOM     49  O   UNL     1      36.637 -32.375  -4.022  1.00  0.00    -0.387 OA
ATOM     50  H   UNL     1      37.495 -32.172  -3.562  1.00  0.00     0.211 HD
ENDBRANCH  41  49
ENDBRANCH  35  36
ENDBRANCH   5  35
BRANCH   7  51
ATOM     51  O   UNL     1      40.191 -38.190   1.932  1.00  0.00    -0.507 OA
ATOM     52  H   UNL     1      41.149 -38.136   2.262  1.00  0.00     0.293 HD
ENDBRANCH   7  51
TORSDOF 17
ENDMDL
MODEL 5
REMARK VINA RESULT:    -5.026      3.061      6.724
REMARK INTER + INTRA:         -11.337
REMARK INTER:                  -8.280
REMARK INTRA:                  -3.057
REMARK UNBOUND:                -2.785
REMARK SMILES OC[C@H]1O[C@H](Oc2cc(O)cc3[o+]c(-c4ccc(O)cc4)c(O[C@H]4O[C@H](CO)[C@H](O)[C@@H](O)[C@@H]4O)cc23)[C@@H](O)[C@@H](O)[C@H]1O.[Cl-]
REMARK SMILES IDX 14 1 22 2 35 3 36 4 7 5 8 6 9 7 11 8 12 9 13 10 15 11 16 12
REMARK SMILES IDX 17 13 18 14 21 15 20 16 19 17 23 19 24 20 33 21 25 22 31 23
REMARK SMILES IDX 26 24 29 25 34 26 32 28 27 30 28 31 30 33 6 35 5 36 37 37
REMARK SMILES IDX 4 38 39 39 3 40 41 41 38 42 40 44 2 46 1 47 42 49 10 51
REMARK H PARENT 19 18 34 27 32 29 28 32 30 34 38 43 40 45 1 48 42 50 10 52
REMARK Flexibility Score: inf
ROOT
ATOM      1  C   UNL     1      39.163 -38.730  -3.691  1.00  0.00     0.402 A 
ATOM      2  C   UNL     1      38.255 -37.978  -4.491  1.00  0.00     0.229 A 
ATOM      3  C   UNL     1      37.232 -37.287  -3.837  1.00  0.00     0.079 A 
ATOM      4  C   UNL     1      37.107 -37.344  -2.444  1.00  0.00     0.126 A 
ATOM      5  C   UNL     1      36.107 -36.627  -1.758  1.00  0.00     0.143 A 
ATOM      6  C   UNL     1      36.061 -36.689  -0.353  1.00  0.00     0.094 A 
ATOM      7  C   UNL     1      36.988 -37.465   0.356  1.00  0.00     0.128 A 
ATOM      8  C   UNL     1      37.972 -38.178  -0.334  1.00  0.00     0.162 A 
ATOM      9  C   UNL     1      38.041 -38.114  -1.728  1.00  0.00     0.368 A 
ATOM     10  O   UNL     1      39.003 -38.765  -2.369  1.00  0.00    -0.202 OA
ENDROOT
BRANCH   1  11
ATOM     11  C   UNL     1      40.332 -39.450  -4.211  1.00  0.00     0.084 A 
ATOM     12  C   UNL     1      41.607 -39.154  -3.714  1.00  0.00     0.022 A 
ATOM     13  C   UNL     1      42.718 -39.889  -4.139  1.00  0.00     0.047 A 
ATOM     14  C   UNL     1      42.554 -40.955  -5.034  1.00  0.00     0.115 A 
ATOM     15  C   UNL     1      40.162 -40.560  -5.054  1.00  0.00     0.022 A 
ATOM     16  C   UNL     1      41.273 -41.293  -5.482  1.00  0.00     0.047 A 
BRANCH  14  17
ATOM     17  O   UNL     1      43.654 -41.687  -5.473  1.00  0.00    -0.508 OA
ATOM     18  H   UNL     1      44.498 -41.230  -5.797  1.00  0.00     0.293 HD
ENDBRANCH  14  17
ENDBRANCH   1  11
BRANCH   2  19
ATOM     19  O   UNL     1      38.289 -37.833  -5.892  1.00  0.00    -0.452 OA
BRANCH  19  20
ATOM     20  C   UNL     1      37.679 -38.648  -6.898  1.00  0.00     0.339 C 
ATOM     21  C   UNL     1      38.529 -38.669  -8.189  1.00  0.00     0.214 C 
ATOM     22  O   UNL     1      36.354 -38.204  -7.153  1.00  0.00    -0.332 OA
ATOM     23  C   UNL     1      38.454 -37.332  -8.956  1.00  0.00     0.180 C 
ATOM     24  C   UNL     1      36.328 -36.879  -7.657  1.00  0.00     0.179 C 
ATOM     25  C   UNL     1      37.009 -36.806  -9.045  1.00  0.00     0.177 C 
BRANCH  21  26
ATOM     26  O   UNL     1      38.104 -39.731  -9.005  1.00  0.00    -0.384 OA
ATOM     27  H   UNL     1      37.307 -40.130  -8.571  1.00  0.00     0.211 HD
ENDBRANCH  21  26
BRANCH  23  28
ATOM     28  O   UNL     1      39.263 -36.385  -8.301  1.00  0.00    -0.387 OA
ATOM     29  H   UNL     1      40.199 -36.568  -8.571  1.00  0.00     0.211 HD
ENDBRANCH  23  28
BRANCH  24  30
ATOM     30  C   UNL     1      34.876 -36.398  -7.730  1.00  0.00     0.191 C 
BRANCH  30  31
ATOM     31  O   UNL     1      34.772 -35.353  -8.655  1.00  0.00    -0.394 OA
ATOM     32  H   UNL     1      34.373 -34.590  -8.162  1.00  0.00     0.210 HD
ENDBRANCH  30  31
ENDBRANCH  24  30
BRANCH  25  33
ATOM     33  O   UNL     1      36.283 -37.497 -10.036  1.00  0.00    -0.387 OA
ATOM     34  H   UNL     1      35.577 -38.033  -9.590  1.00  0.00     0.211 HD
ENDBRANCH  25  33
ENDBRANCH  19  20
ENDBRANCH   2  19
BRANCH   5  35
ATOM     35  O   UNL     1      35.188 -35.865  -2.499  1.00  0.00    -0.461 OA
BRANCH  35  36
ATOM     36  C   UNL     1      35.050 -34.444  -2.422  1.00  0.00     0.339 C 
ATOM     37  C   UNL     1      33.578 -34.049  -2.620  1.00  0.00     0.214 C 
ATOM     38  O   UNL     1      35.891 -33.793  -3.367  1.00  0.00    -0.332 OA
ATOM     39  C   UNL     1      33.142 -34.346  -4.074  1.00  0.00     0.180 C 
ATOM     40  C   UNL     1      35.571 -34.180  -4.697  1.00  0.00     0.179 C 
ATOM     41  C   UNL     1      34.136 -33.740  -5.075  1.00  0.00     0.177 C 
BRANCH  37  42
ATOM     42  O   UNL     1      33.425 -32.683  -2.325  1.00  0.00    -0.384 OA
ATOM     43  H   UNL     1      33.963 -32.501  -1.510  1.00  0.00     0.211 HD
ENDBRANCH  37  42
BRANCH  39  44
ATOM     44  O   UNL     1      31.854 -33.846  -4.321  1.00  0.00    -0.387 OA
ATOM     45  H   UNL     1      31.481 -34.378  -5.071  1.00  0.00     0.211 HD
ENDBRANCH  39  44
BRANCH  40  46
ATOM     46  C   UNL     1      36.608 -33.581  -5.653  1.00  0.00     0.191 C 
BRANCH  46  47
ATOM     47  O   UNL     1      35.995 -33.255  -6.871  1.00  0.00    -0.394 OA
ATOM     48  H   UNL     1      35.294 -33.941  -7.019  1.00  0.00     0.210 HD
ENDBRANCH  46  47
ENDBRANCH  40  46
BRANCH  41  49
ATOM     49  O   UNL     1      34.030 -32.336  -5.060  1.00  0.00    -0.387 OA
ATOM     50  H   UNL     1      33.722 -32.054  -5.962  1.00  0.00     0.211 HD
ENDBRANCH  41  49
ENDBRANCH  35  36
ENDBRANCH   5  35
BRANCH   7  51
ATOM     51  O   UNL     1      36.939 -37.534   1.746  1.00  0.00    -0.507 OA
ATOM     52  H   UNL     1      36.353 -38.210   2.223  1.00  0.00     0.293 HD
ENDBRANCH   7  51
TORSDOF 17
ENDMDL
MODEL 6
REMARK VINA RESULT:    -4.997      2.162      8.462
REMARK INTER + INTRA:         -11.288
REMARK INTER:                  -8.197
REMARK INTRA:                  -3.090
REMARK UNBOUND:                -2.785
REMARK SMILES OC[C@H]1O[C@H](Oc2cc(O)cc3[o+]c(-c4ccc(O)cc4)c(O[C@H]4O[C@H](CO)[C@H](O)[C@@H](O)[C@@H]4O)cc23)[C@@H](O)[C@@H](O)[C@H]1O.[Cl-]
REMARK SMILES IDX 14 1 22 2 35 3 36 4 7 5 8 6 9 7 11 8 12 9 13 10 15 11 16 12
REMARK SMILES IDX 17 13 18 14 21 15 20 16 19 17 23 19 24 20 33 21 25 22 31 23
REMARK SMILES IDX 26 24 29 25 34 26 32 28 27 30 28 31 30 33 6 35 5 36 37 37
REMARK SMILES IDX 4 38 39 39 3 40 41 41 38 42 40 44 2 46 1 47 42 49 10 51
REMARK H PARENT 19 18 34 27 32 29 28 32 30 34 38 43 40 45 1 48 42 50 10 52
REMARK Flexibility Score: inf
ROOT
ATOM      1  C   UNL     1      40.152 -38.759  -4.811  1.00  0.00     0.402 A 
ATOM      2  C   UNL     1      40.087 -37.349  -5.013  1.00  0.00     0.229 A 
ATOM      3  C   UNL     1      39.311 -36.882  -6.076  1.00  0.00     0.079 A 
ATOM      4  C   UNL     1      38.632 -37.773  -6.914  1.00  0.00     0.126 A 
ATOM      5  C   UNL     1      37.814 -37.325  -7.970  1.00  0.00     0.143 A 
ATOM      6  C   UNL     1      37.120 -38.269  -8.749  1.00  0.00     0.094 A 
ATOM      7  C   UNL     1      37.251 -39.640  -8.488  1.00  0.00     0.128 A 
ATOM      8  C   UNL     1      38.069 -40.075  -7.442  1.00  0.00     0.162 A 
ATOM      9  C   UNL     1      38.752 -39.149  -6.650  1.00  0.00     0.368 A 
ATOM     10  O   UNL     1      39.496 -39.574  -5.636  1.00  0.00    -0.202 OA
ENDROOT
BRANCH   1  11
ATOM     11  C   UNL     1      40.858 -39.409  -3.700  1.00  0.00     0.084 A 
ATOM     12  C   UNL     1      42.248 -39.567  -3.759  1.00  0.00     0.022 A 
ATOM     13  C   UNL     1      42.943 -40.107  -2.673  1.00  0.00     0.047 A 
ATOM     14  C   UNL     1      42.255 -40.455  -1.503  1.00  0.00     0.115 A 
ATOM     15  C   UNL     1      40.182 -39.695  -2.503  1.00  0.00     0.022 A 
ATOM     16  C   UNL     1      40.876 -40.240  -1.418  1.00  0.00     0.047 A 
BRANCH  14  17
ATOM     17  O   UNL     1      42.934 -41.006  -0.418  1.00  0.00    -0.508 OA
ATOM     18  H   UNL     1      43.174 -41.990  -0.388  1.00  0.00     0.293 HD
ENDBRANCH  14  17
ENDBRANCH   1  11
BRANCH   2  19
ATOM     19  O   UNL     1      40.711 -36.358  -4.231  1.00  0.00    -0.452 OA
BRANCH  19  20
ATOM     20  C   UNL     1      41.856 -35.556  -4.538  1.00  0.00     0.339 C 
ATOM     21  C   UNL     1      42.754 -35.368  -3.294  1.00  0.00     0.214 C 
ATOM     22  O   UNL     1      41.451 -34.308  -5.083  1.00  0.00    -0.332 OA
ATOM     23  C   UNL     1      42.122 -34.410  -2.261  1.00  0.00     0.180 C 
ATOM     24  C   UNL     1      40.683 -33.554  -4.159  1.00  0.00     0.179 C 
ATOM     25  C   UNL     1      41.537 -33.154  -2.933  1.00  0.00     0.177 C 
BRANCH  21  26
ATOM     26  O   UNL     1      44.013 -34.895  -3.700  1.00  0.00    -0.384 OA
ATOM     27  H   UNL     1      44.077 -35.041  -4.678  1.00  0.00     0.211 HD
ENDBRANCH  21  26
BRANCH  23  28
ATOM     28  O   UNL     1      41.107 -35.093  -1.568  1.00  0.00    -0.387 OA
ATOM     29  H   UNL     1      40.283 -34.548  -1.650  1.00  0.00     0.211 HD
ENDBRANCH  23  28
BRANCH  24  30
ATOM     30  C   UNL     1      40.122 -32.316  -4.868  1.00  0.00     0.191 C 
BRANCH  30  31
ATOM     31  O   UNL     1      41.075 -31.813  -5.761  1.00  0.00    -0.394 OA
ATOM     32  H   UNL     1      41.924 -31.753  -5.250  1.00  0.00     0.210 HD
ENDBRANCH  30  31
ENDBRANCH  24  30
BRANCH  25  33
ATOM     33  O   UNL     1      42.556 -32.239  -3.263  1.00  0.00    -0.387 OA
ATOM     34  H   UNL     1      42.280 -31.743  -4.076  1.00  0.00     0.211 HD
ENDBRANCH  25  33
ENDBRANCH  19  20
ENDBRANCH   2  19
BRANCH   5  35
ATOM     35  O   UNL     1      37.712 -35.944  -8.210  1.00  0.00    -0.461 OA
BRANCH  35  36
ATOM     36  C   UNL     1      37.905 -35.316  -9.481  1.00  0.00     0.339 C 
ATOM     37  C   UNL     1      39.270 -35.719 -10.061  1.00  0.00     0.214 C 
ATOM     38  O   UNL     1      37.783 -33.903  -9.381  1.00  0.00    -0.332 OA
ATOM     39  C   UNL     1      40.407 -35.105  -9.212  1.00  0.00     0.180 C 
ATOM     40  C   UNL     1      38.748 -33.361  -8.488  1.00  0.00     0.179 C 
ATOM     41  C   UNL     1      40.185 -33.599  -9.011  1.00  0.00     0.177 C 
BRANCH  37  42
ATOM     42  O   UNL     1      39.351 -35.277 -11.394  1.00  0.00    -0.384 OA
ATOM     43  H   UNL     1      38.420 -35.180 -11.723  1.00  0.00     0.211 HD
ENDBRANCH  37  42
BRANCH  39  44
ATOM     44  O   UNL     1      41.655 -35.325  -9.815  1.00  0.00    -0.387 OA
ATOM     45  H   UNL     1      42.239 -34.569  -9.545  1.00  0.00     0.211 HD
ENDBRANCH  39  44
BRANCH  40  46
ATOM     46  C   UNL     1      38.465 -31.869  -8.293  1.00  0.00     0.191 C 
BRANCH  46  47
ATOM     47  O   UNL     1      39.675 -31.165  -8.205  1.00  0.00    -0.394 OA
ATOM     48  H   UNL     1      39.431 -30.203  -8.172  1.00  0.00     0.210 HD
ENDBRANCH  46  47
ENDBRANCH  40  46
BRANCH  41  49
ATOM     49  O   UNL     1      40.385 -32.923 -10.230  1.00  0.00    -0.387 OA
ATOM     50  H   UNL     1      40.649 -33.603 -10.905  1.00  0.00     0.211 HD
ENDBRANCH  41  49
ENDBRANCH  35  36
ENDBRANCH   5  35
BRANCH   7  51
ATOM     51  O   UNL     1      36.571 -40.577  -9.262  1.00  0.00    -0.507 OA
ATOM     52  H   UNL     1      36.352 -40.400 -10.237  1.00  0.00     0.293 HD
ENDBRANCH   7  51
TORSDOF 17
ENDMDL
MODEL 7
REMARK VINA RESULT:    -4.977      4.132      8.554
REMARK INTER + INTRA:         -11.254
REMARK INTER:                  -8.342
REMARK INTRA:                  -2.911
REMARK UNBOUND:                -2.785
REMARK SMILES OC[C@H]1O[C@H](Oc2cc(O)cc3[o+]c(-c4ccc(O)cc4)c(O[C@H]4O[C@H](CO)[C@H](O)[C@@H](O)[C@@H]4O)cc23)[C@@H](O)[C@@H](O)[C@H]1O.[Cl-]
REMARK SMILES IDX 14 1 22 2 35 3 36 4 7 5 8 6 9 7 11 8 12 9 13 10 15 11 16 12
REMARK SMILES IDX 17 13 18 14 21 15 20 16 19 17 23 19 24 20 33 21 25 22 31 23
REMARK SMILES IDX 26 24 29 25 34 26 32 28 27 30 28 31 30 33 6 35 5 36 37 37
REMARK SMILES IDX 4 38 39 39 3 40 41 41 38 42 40 44 2 46 1 47 42 49 10 51
REMARK H PARENT 19 18 34 27 32 29 28 32 30 34 38 43 40 45 1 48 42 50 10 52
REMARK Flexibility Score: inf
ROOT
ATOM      1  C   UNL     1      39.969 -39.526  -4.454  1.00  0.00     0.402 A 
ATOM      2  C   UNL     1      39.727 -39.204  -3.087  1.00  0.00     0.229 A 
ATOM      3  C   UNL     1      38.622 -38.400  -2.796  1.00  0.00     0.079 A 
ATOM      4  C   UNL     1      37.794 -37.924  -3.819  1.00  0.00     0.126 A 
ATOM      5  C   UNL     1      36.654 -37.142  -3.549  1.00  0.00     0.143 A 
ATOM      6  C   UNL     1      35.834 -36.731  -4.617  1.00  0.00     0.094 A 
ATOM      7  C   UNL     1      36.155 -37.084  -5.935  1.00  0.00     0.128 A 
ATOM      8  C   UNL     1      37.292 -37.854  -6.193  1.00  0.00     0.162 A 
ATOM      9  C   UNL     1      38.106 -38.283  -5.142  1.00  0.00     0.368 A 
ATOM     10  O   UNL     1      39.162 -39.046  -5.398  1.00  0.00    -0.202 OA
ENDROOT
BRANCH   1  11
ATOM     11  C   UNL     1      41.038 -40.417  -4.922  1.00  0.00     0.084 A 
ATOM     12  C   UNL     1      40.746 -41.421  -5.854  1.00  0.00     0.022 A 
ATOM     13  C   UNL     1      41.769 -42.221  -6.371  1.00  0.00     0.047 A 
ATOM     14  C   UNL     1      43.098 -41.995  -5.991  1.00  0.00     0.115 A 
ATOM     15  C   UNL     1      42.377 -40.149  -4.595  1.00  0.00     0.022 A 
ATOM     16  C   UNL     1      43.400 -40.952  -5.109  1.00  0.00     0.047 A 
BRANCH  14  17
ATOM     17  O   UNL     1      44.125 -42.793  -6.490  1.00  0.00    -0.508 OA
ATOM     18  H   UNL     1      43.995 -43.786  -6.645  1.00  0.00     0.293 HD
ENDBRANCH  14  17
ENDBRANCH   1  11
BRANCH   2  19
ATOM     19  O   UNL     1      40.476 -39.634  -1.974  1.00  0.00    -0.452 OA
BRANCH  19  20
ATOM     20  C   UNL     1      40.544 -39.072  -0.660  1.00  0.00     0.339 C 
ATOM     21  C   UNL     1      41.993 -38.674  -0.298  1.00  0.00     0.214 C 
ATOM     22  O   UNL     1      39.998 -39.975   0.289  1.00  0.00    -0.332 OA
ATOM     23  C   UNL     1      42.882 -39.906  -0.024  1.00  0.00     0.180 C 
ATOM     24  C   UNL     1      40.731 -41.188   0.347  1.00  0.00     0.179 C 
ATOM     25  C   UNL     1      42.166 -40.938   0.868  1.00  0.00     0.177 C 
BRANCH  21  26
ATOM     26  O   UNL     1      41.973 -37.821   0.818  1.00  0.00    -0.384 OA
ATOM     27  H   UNL     1      41.621 -38.348   1.580  1.00  0.00     0.211 HD
ENDBRANCH  21  26
BRANCH  23  28
ATOM     28  O   UNL     1      43.229 -40.500  -1.250  1.00  0.00    -0.387 OA
ATOM     29  H   UNL     1      44.197 -40.709  -1.208  1.00  0.00     0.211 HD
ENDBRANCH  23  28
BRANCH  24  30
ATOM     30  C   UNL     1      39.985 -42.182   1.243  1.00  0.00     0.191 C 
BRANCH  30  31
ATOM     31  O   UNL     1      39.135 -41.488   2.111  1.00  0.00    -0.394 OA
ATOM     32  H   UNL     1      38.233 -41.526   1.699  1.00  0.00     0.210 HD
ENDBRANCH  30  31
ENDBRANCH  24  30
BRANCH  25  33
ATOM     33  O   UNL     1      42.185 -40.535   2.218  1.00  0.00    -0.387 OA
ATOM     34  H   UNL     1      41.564 -39.769   2.325  1.00  0.00     0.211 HD
ENDBRANCH  25  33
ENDBRANCH  19  20
ENDBRANCH   2  19
BRANCH   5  35
ATOM     35  O   UNL     1      36.365 -36.799  -2.217  1.00  0.00    -0.461 OA
BRANCH  35  36
ATOM     36  C   UNL     1      35.129 -37.070  -1.550  1.00  0.00     0.339 C 
ATOM     37  C   UNL     1      34.800 -35.927  -0.576  1.00  0.00     0.214 C 
ATOM     38  O   UNL     1      35.170 -38.324  -0.880  1.00  0.00    -0.332 OA
ATOM     39  C   UNL     1      35.812 -35.919   0.593  1.00  0.00     0.180 C 
ATOM     40  C   UNL     1      36.199 -38.354   0.102  1.00  0.00     0.179 C 
ATOM     41  C   UNL     1      35.932 -37.317   1.219  1.00  0.00     0.177 C 
BRANCH  37  42
ATOM     42  O   UNL     1      33.488 -36.097  -0.096  1.00  0.00    -0.384 OA
ATOM     43  H   UNL     1      33.222 -35.240   0.328  1.00  0.00     0.211 HD
ENDBRANCH  37  42
BRANCH  39  44
ATOM     44  O   UNL     1      35.435 -34.990   1.574  1.00  0.00    -0.387 OA
ATOM     45  H   UNL     1      35.924 -35.236   2.402  1.00  0.00     0.211 HD
ENDBRANCH  39  44
BRANCH  40  46
ATOM     46  C   UNL     1      36.303 -39.772   0.670  1.00  0.00     0.191 C 
BRANCH  46  47
ATOM     47  O   UNL     1      37.243 -40.509  -0.064  1.00  0.00    -0.394 OA
ATOM     48  H   UNL     1      38.135 -40.178   0.221  1.00  0.00     0.210 HD
ENDBRANCH  46  47
ENDBRANCH  40  46
BRANCH  41  49
ATOM     49  O   UNL     1      34.747 -37.630   1.912  1.00  0.00    -0.387 OA
ATOM     50  H   UNL     1      34.250 -38.291   1.361  1.00  0.00     0.211 HD
ENDBRANCH  41  49
ENDBRANCH  35  36
ENDBRANCH   5  35
BRANCH   7  51
ATOM     51  O   UNL     1      35.350 -36.673  -6.994  1.00  0.00    -0.507 OA
ATOM     52  H   UNL     1      35.451 -35.753  -7.411  1.00  0.00     0.293 HD
ENDBRANCH   7  51
TORSDOF 17
ENDMDL
MODEL 8
REMARK VINA RESULT:    -4.965      2.971      6.326
REMARK INTER + INTRA:         -11.232
REMARK INTER:                  -8.577
REMARK INTRA:                  -2.656
REMARK UNBOUND:                -2.785
REMARK SMILES OC[C@H]1O[C@H](Oc2cc(O)cc3[o+]c(-c4ccc(O)cc4)c(O[C@H]4O[C@H](CO)[C@H](O)[C@@H](O)[C@@H]4O)cc23)[C@@H](O)[C@@H](O)[C@H]1O.[Cl-]
REMARK SMILES IDX 14 1 22 2 35 3 36 4 7 5 8 6 9 7 11 8 12 9 13 10 15 11 16 12
REMARK SMILES IDX 17 13 18 14 21 15 20 16 19 17 23 19 24 20 33 21 25 22 31 23
REMARK SMILES IDX 26 24 29 25 34 26 32 28 27 30 28 31 30 33 6 35 5 36 37 37
REMARK SMILES IDX 4 38 39 39 3 40 41 41 38 42 40 44 2 46 1 47 42 49 10 51
REMARK H PARENT 19 18 34 27 32 29 28 32 30 34 38 43 40 45 1 48 42 50 10 52
REMARK Flexibility Score: inf
ROOT
ATOM      1  C   UNL     1      39.726 -38.812  -3.970  1.00  0.00     0.402 A 
ATOM      2  C   UNL     1      38.595 -38.358  -4.710  1.00  0.00     0.229 A 
ATOM      3  C   UNL     1      37.785 -37.383  -4.122  1.00  0.00     0.079 A 
ATOM      4  C   UNL     1      38.077 -36.882  -2.849  1.00  0.00     0.126 A 
ATOM      5  C   UNL     1      37.297 -35.873  -2.250  1.00  0.00     0.143 A 
ATOM      6  C   UNL     1      37.667 -35.378  -0.986  1.00  0.00     0.094 A 
ATOM      7  C   UNL     1      38.790 -35.892  -0.323  1.00  0.00     0.128 A 
ATOM      8  C   UNL     1      39.553 -36.897  -0.921  1.00  0.00     0.162 A 
ATOM      9  C   UNL     1      39.208 -37.387  -2.183  1.00  0.00     0.368 A 
ATOM     10  O   UNL     1      39.963 -38.316  -2.757  1.00  0.00    -0.202 OA
ENDROOT
BRANCH   1  11
ATOM     11  C   UNL     1      40.717 -39.774  -4.470  1.00  0.00     0.084 A 
ATOM     12  C   UNL     1      40.315 -40.794  -5.341  1.00  0.00     0.022 A 
ATOM     13  C   UNL     1      41.261 -41.664  -5.891  1.00  0.00     0.047 A 
ATOM     14  C   UNL     1      42.622 -41.492  -5.607  1.00  0.00     0.115 A 
ATOM     15  C   UNL     1      42.086 -39.562  -4.242  1.00  0.00     0.022 A 
ATOM     16  C   UNL     1      43.032 -40.434  -4.789  1.00  0.00     0.047 A 
BRANCH  14  17
ATOM     17  O   UNL     1      43.573 -42.360  -6.140  1.00  0.00    -0.508 OA
ATOM     18  H   UNL     1      43.303 -43.169  -6.686  1.00  0.00     0.293 HD
ENDBRANCH  14  17
ENDBRANCH   1  11
BRANCH   2  19
ATOM     19  O   UNL     1      38.211 -38.773  -5.999  1.00  0.00    -0.452 OA
BRANCH  19  20
ATOM     20  C   UNL     1      38.538 -38.197  -7.268  1.00  0.00     0.339 C 
ATOM     21  C   UNL     1      37.789 -36.863  -7.484  1.00  0.00     0.214 C 
ATOM     22  O   UNL     1      38.270 -39.122  -8.312  1.00  0.00    -0.332 OA
ATOM     23  C   UNL     1      36.285 -37.079  -7.756  1.00  0.00     0.180 C 
ATOM     24  C   UNL     1      36.893 -39.456  -8.380  1.00  0.00     0.179 C 
ATOM     25  C   UNL     1      36.046 -38.219  -8.763  1.00  0.00     0.177 C 
BRANCH  21  26
ATOM     26  O   UNL     1      38.387 -36.163  -8.545  1.00  0.00    -0.384 OA
ATOM     27  H   UNL     1      37.752 -36.190  -9.305  1.00  0.00     0.211 HD
ENDBRANCH  21  26
BRANCH  23  28
ATOM     28  O   UNL     1      35.641 -37.377  -6.542  1.00  0.00    -0.387 OA
ATOM     29  H   UNL     1      36.325 -37.765  -5.938  1.00  0.00     0.211 HD
ENDBRANCH  23  28
BRANCH  24  30
ATOM     30  C   UNL     1      36.702 -40.590  -9.392  1.00  0.00     0.191 C 
BRANCH  30  31
ATOM     31  O   UNL     1      35.433 -40.493  -9.973  1.00  0.00    -0.394 OA
ATOM     32  H   UNL     1      35.403 -39.607 -10.418  1.00  0.00     0.210 HD
ENDBRANCH  30  31
ENDBRANCH  24  30
BRANCH  25  33
ATOM     33  O   UNL     1      36.295 -37.786 -10.081  1.00  0.00    -0.387 OA
ATOM     34  H   UNL     1      37.077 -38.284 -10.432  1.00  0.00     0.211 HD
ENDBRANCH  25  33
ENDBRANCH  19  20
ENDBRANCH   2  19
BRANCH   5  35
ATOM     35  O   UNL     1      36.173 -35.386  -2.939  1.00  0.00    -0.461 OA
BRANCH  35  36
ATOM     36  C   UNL     1      35.843 -34.003  -3.095  1.00  0.00     0.339 C 
ATOM     37  C   UNL     1      34.361 -33.858  -3.475  1.00  0.00     0.214 C 
ATOM     38  O   UNL     1      36.685 -33.378  -4.057  1.00  0.00    -0.332 OA
ATOM     39  C   UNL     1      34.121 -34.419  -4.895  1.00  0.00     0.180 C 
ATOM     40  C   UNL     1      36.559 -33.993  -5.333  1.00  0.00     0.179 C 
ATOM     41  C   UNL     1      35.126 -33.824  -5.893  1.00  0.00     0.177 C 
BRANCH  37  42
ATOM     42  O   UNL     1      34.000 -32.500  -3.409  1.00  0.00    -0.384 OA
ATOM     43  H   UNL     1      33.125 -32.455  -2.943  1.00  0.00     0.211 HD
ENDBRANCH  37  42
BRANCH  39  44
ATOM     44  O   UNL     1      32.811 -34.151  -5.323  1.00  0.00    -0.387 OA
ATOM     45  H   UNL     1      32.730 -34.522  -6.240  1.00  0.00     0.211 HD
ENDBRANCH  39  44
BRANCH  40  46
ATOM     46  C   UNL     1      37.602 -33.393  -6.280  1.00  0.00     0.191 C 
BRANCH  46  47
ATOM     47  O   UNL     1      37.146 -33.481  -7.603  1.00  0.00    -0.394 OA
ATOM     48  H   UNL     1      37.017 -34.449  -7.786  1.00  0.00     0.210 HD
ENDBRANCH  46  47
ENDBRANCH  40  46
BRANCH  41  49
ATOM     49  O   UNL     1      34.836 -32.463  -6.105  1.00  0.00    -0.387 OA
ATOM     50  H   UNL     1      33.927 -32.295  -5.740  1.00  0.00     0.211 HD
ENDBRANCH  41  49
ENDBRANCH  35  36
ENDBRANCH   5  35
BRANCH   7  51
ATOM     51  O   UNL     1      39.154 -35.409   0.931  1.00  0.00    -0.507 OA
ATOM     52  H   UNL     1      38.532 -35.483   1.729  1.00  0.00     0.293 HD
ENDBRANCH   7  51
TORSDOF 17
ENDMDL
MODEL 9
REMARK VINA RESULT:    -4.926      3.382      7.504
REMARK INTER + INTRA:         -11.167
REMARK INTER:                  -8.392
REMARK INTRA:                  -2.775
REMARK UNBOUND:                -2.785
REMARK SMILES OC[C@H]1O[C@H](Oc2cc(O)cc3[o+]c(-c4ccc(O)cc4)c(O[C@H]4O[C@H](CO)[C@H](O)[C@@H](O)[C@@H]4O)cc23)[C@@H](O)[C@@H](O)[C@H]1O.[Cl-]
REMARK SMILES IDX 14 1 22 2 35 3 36 4 7 5 8 6 9 7 11 8 12 9 13 10 15 11 16 12
REMARK SMILES IDX 17 13 18 14 21 15 20 16 19 17 23 19 24 20 33 21 25 22 31 23
REMARK SMILES IDX 26 24 29 25 34 26 32 28 27 30 28 31 30 33 6 35 5 36 37 37
REMARK SMILES IDX 4 38 39 39 3 40 41 41 38 42 40 44 2 46 1 47 42 49 10 51
REMARK H PARENT 19 18 34 27 32 29 28 32 30 34 38 43 40 45 1 48 42 50 10 52
REMARK Flexibility Score: inf
ROOT
ATOM      1  C   UNL     1      36.685 -38.886  -3.849  1.00  0.00     0.402 A 
ATOM      2  C   UNL     1      37.684 -38.612  -2.870  1.00  0.00     0.229 A 
ATOM      3  C   UNL     1      37.409 -38.963  -1.546  1.00  0.00     0.079 A 
ATOM      4  C   UNL     1      36.188 -39.554  -1.201  1.00  0.00     0.126 A 
ATOM      5  C   UNL     1      35.902 -39.950   0.120  1.00  0.00     0.143 A 
ATOM      6  C   UNL     1      34.674 -40.581   0.396  1.00  0.00     0.094 A 
ATOM      7  C   UNL     1      33.742 -40.801  -0.627  1.00  0.00     0.128 A 
ATOM      8  C   UNL     1      34.033 -40.398  -1.933  1.00  0.00     0.162 A 
ATOM      9  C   UNL     1      35.253 -39.786  -2.226  1.00  0.00     0.368 A 
ATOM     10  O   UNL     1      35.533 -39.442  -3.477  1.00  0.00    -0.202 OA
ENDROOT
BRANCH   1  11
ATOM     11  C   UNL     1      36.843 -38.650  -5.289  1.00  0.00     0.084 A 
ATOM     12  C   UNL     1      36.316 -37.486  -5.864  1.00  0.00     0.022 A 
ATOM     13  C   UNL     1      36.533 -37.208  -7.217  1.00  0.00     0.047 A 
ATOM     14  C   UNL     1      37.315 -38.072  -7.995  1.00  0.00     0.115 A 
ATOM     15  C   UNL     1      37.682 -39.477  -6.054  1.00  0.00     0.022 A 
ATOM     16  C   UNL     1      37.895 -39.201  -7.408  1.00  0.00     0.047 A 
BRANCH  14  17
ATOM     17  O   UNL     1      37.528 -37.811  -9.346  1.00  0.00    -0.508 OA
ATOM     18  H   UNL     1      38.411 -38.028  -9.794  1.00  0.00     0.293 HD
ENDBRANCH  14  17
ENDBRANCH   1  11
BRANCH   2  19
ATOM     19  O   UNL     1      38.950 -38.039  -3.098  1.00  0.00    -0.452 OA
BRANCH  19  20
ATOM     20  C   UNL     1      40.084 -37.980  -2.226  1.00  0.00     0.339 C 
ATOM     21  C   UNL     1      40.838 -36.640  -2.381  1.00  0.00     0.214 C 
ATOM     22  O   UNL     1      40.939 -39.091  -2.457  1.00  0.00    -0.332 OA
ATOM     23  C   UNL     1      41.617 -36.563  -3.712  1.00  0.00     0.180 C 
ATOM     24  C   UNL     1      41.462 -39.089  -3.776  1.00  0.00     0.179 C 
ATOM     25  C   UNL     1      42.384 -37.867  -3.999  1.00  0.00     0.177 C 
BRANCH  21  26
ATOM     26  O   UNL     1      41.706 -36.469  -1.290  1.00  0.00    -0.384 OA
ATOM     27  H   UNL     1      41.291 -36.925  -0.514  1.00  0.00     0.211 HD
ENDBRANCH  21  26
BRANCH  23  28
ATOM     28  O   UNL     1      40.711 -36.306  -4.756  1.00  0.00    -0.387 OA
ATOM     29  H   UNL     1      40.193 -37.139  -4.902  1.00  0.00     0.211 HD
ENDBRANCH  23  28
BRANCH  24  30
ATOM     30  C   UNL     1      42.216 -40.401  -4.018  1.00  0.00     0.191 C 
BRANCH  30  31
ATOM     31  O   UNL     1      43.327 -40.161  -4.833  1.00  0.00    -0.394 OA
ATOM     32  H   UNL     1      43.193 -39.257  -5.220  1.00  0.00     0.210 HD
ENDBRANCH  30  31
ENDBRANCH  24  30
BRANCH  25  33
ATOM     33  O   UNL     1      43.563 -37.937  -3.230  1.00  0.00    -0.387 OA
ATOM     34  H   UNL     1      43.382 -37.535  -2.342  1.00  0.00     0.211 HD
ENDBRANCH  25  33
ENDBRANCH  19  20
ENDBRANCH   2  19
BRANCH   5  35
ATOM     35  O   UNL     1      36.855 -39.708   1.123  1.00  0.00    -0.461 OA
BRANCH  35  36
ATOM     36  C   UNL     1      37.470 -40.716   1.931  1.00  0.00     0.339 C 
ATOM     37  C   UNL     1      38.334 -40.059   3.019  1.00  0.00     0.214 C 
ATOM     38  O   UNL     1      38.235 -41.615   1.138  1.00  0.00    -0.332 OA
ATOM     39  C   UNL     1      39.553 -39.360   2.376  1.00  0.00     0.180 C 
ATOM     40  C   UNL     1      39.272 -40.937   0.440  1.00  0.00     0.179 C 
ATOM     41  C   UNL     1      40.290 -40.314   1.425  1.00  0.00     0.177 C 
BRANCH  37  42
ATOM     42  O   UNL     1      38.750 -41.045   3.932  1.00  0.00    -0.384 OA
ATOM     43  H   UNL     1      37.943 -41.336   4.432  1.00  0.00     0.211 HD
ENDBRANCH  37  42
BRANCH  39  44
ATOM     44  O   UNL     1      40.438 -38.894   3.361  1.00  0.00    -0.387 OA
ATOM     45  H   UNL     1      39.922 -38.270   3.935  1.00  0.00     0.211 HD
ENDBRANCH  39  44
BRANCH  40  46
ATOM     46  C   UNL     1      39.952 -41.919  -0.518  1.00  0.00     0.191 C 
BRANCH  46  47
ATOM     47  O   UNL     1      39.537 -41.662  -1.833  1.00  0.00    -0.394 OA
ATOM     48  H   UNL     1      40.179 -41.000  -2.200  1.00  0.00     0.210 HD
ENDBRANCH  46  47
ENDBRANCH  40  46
BRANCH  41  49
ATOM     49  O   UNL     1      40.937 -41.320   2.168  1.00  0.00    -0.387 OA
ATOM     50  H   UNL     1      40.325 -42.103   2.200  1.00  0.00     0.211 HD
ENDBRANCH  41  49
ENDBRANCH  35  36
ENDBRANCH   5  35
BRANCH   7  51
ATOM     51  O   UNL     1      32.524 -41.418  -0.355  1.00  0.00    -0.507 OA
ATOM     52  H   UNL     1      32.438 -42.128   0.365  1.00  0.00     0.293 HD
ENDBRANCH   7  51
TORSDOF 17
ENDMDL
