MODEL 1
REMARK VINA RESULT:    -6.266      0.000      0.000
REMARK INTER + INTRA:          -7.687
REMARK INTER:                  -7.365
REMARK INTRA:                  -0.322
REMARK UNBOUND:                -0.322
REMARK SMILES Oc1ccc(-c2[o+]c3cc(O)cc(O)c3cc2O)cc1
REMARK SMILES IDX 6 1 7 2 8 3 9 4 10 5 12 6 13 7 15 8 16 9 17 10 5 11 4 12
REMARK SMILES IDX 3 13 2 14 19 15 20 16 1 17 18 19 11 21 14 23
REMARK H PARENT 1 18 18 20 11 22 14 24
REMARK Flexibility Score: inf
ROOT
ATOM      1  C   UNL     1      -7.361  28.219  56.041  1.00  0.00     0.401 A 
ATOM      2  O   UNL     1      -6.341  28.517  56.840  1.00  0.00    -0.202 OA
ATOM      3  C   UNL     1      -6.331  29.571  57.650  1.00  0.00     0.368 A 
ATOM      4  C   UNL     1      -5.212  29.799  58.455  1.00  0.00     0.162 A 
ATOM      5  C   UNL     1      -5.176  30.899  59.318  1.00  0.00     0.128 A 
ATOM      6  C   UNL     1      -6.264  31.774  59.375  1.00  0.00     0.093 A 
ATOM      7  C   UNL     1      -7.397  31.567  58.578  1.00  0.00     0.136 A 
ATOM      8  C   UNL     1      -7.437  30.453  57.699  1.00  0.00     0.125 A 
ATOM      9  C   UNL     1      -8.524  30.176  56.854  1.00  0.00     0.078 A 
ATOM     10  C   UNL     1      -8.489  29.061  56.011  1.00  0.00     0.223 A 
ENDROOT
BRANCH   1  11
ATOM     11  C   UNL     1      -7.257  27.011  55.192  1.00  0.00     0.084 A 
ATOM     12  C   UNL     1      -7.726  25.760  55.634  1.00  0.00     0.022 A 
ATOM     13  C   UNL     1      -7.595  24.628  54.824  1.00  0.00     0.047 A 
ATOM     14  C   UNL     1      -6.981  24.729  53.569  1.00  0.00     0.115 A 
ATOM     15  C   UNL     1      -6.624  27.098  53.941  1.00  0.00     0.022 A 
ATOM     16  C   UNL     1      -6.496  25.965  53.132  1.00  0.00     0.047 A 
BRANCH  14  17
ATOM     17  O   UNL     1      -6.846  23.609  52.752  1.00  0.00    -0.508 OA
ATOM     18  H   UNL     1      -7.605  23.290  52.160  1.00  0.00     0.293 HD
ENDBRANCH  14  17
ENDBRANCH   1  11
BRANCH  10  19
ATOM     19  O   UNL     1      -9.547  28.813  55.135  1.00  0.00    -0.500 OA
ATOM     20  H   UNL     1     -10.384  28.327  55.435  1.00  0.00     0.294 HD
ENDBRANCH  10  19
BRANCH   5  21
ATOM     21  O   UNL     1      -4.065  31.133  60.124  1.00  0.00    -0.507 OA
ATOM     22  H   UNL     1      -4.125  31.088  61.134  1.00  0.00     0.293 HD
ENDBRANCH   5  21
BRANCH   7  23
ATOM     23  O   UNL     1      -8.444  32.485  58.697  1.00  0.00    -0.507 OA
ATOM     24  H   UNL     1      -8.425  33.297  59.297  1.00  0.00     0.293 HD
ENDBRANCH   7  23
TORSDOF 5
ENDMDL
MODEL 2
REMARK VINA RESULT:    -5.338     11.488     13.644
REMARK INTER + INTRA:          -6.596
REMARK INTER:                  -6.400
REMARK INTRA:                  -0.196
REMARK UNBOUND:                -0.322
REMARK SMILES Oc1ccc(-c2[o+]c3cc(O)cc(O)c3cc2O)cc1
REMARK SMILES IDX 6 1 7 2 8 3 9 4 10 5 12 6 13 7 15 8 16 9 17 10 5 11 4 12
REMARK SMILES IDX 3 13 2 14 19 15 20 16 1 17 18 19 11 21 14 23
REMARK H PARENT 1 18 18 20 11 22 14 24
REMARK Flexibility Score: inf
ROOT
ATOM      1  C   UNL     1       4.159  29.659  52.133  1.00  0.00     0.401 A 
ATOM      2  O   UNL     1       4.136  28.678  51.235  1.00  0.00    -0.202 OA
ATOM      3  C   UNL     1       3.917  28.879  49.939  1.00  0.00     0.368 A 
ATOM      4  C   UNL     1       3.914  27.782  49.073  1.00  0.00     0.162 A 
ATOM      5  C   UNL     1       3.689  27.965  47.705  1.00  0.00     0.128 A 
ATOM      6  C   UNL     1       3.466  29.249  47.202  1.00  0.00     0.093 A 
ATOM      7  C   UNL     1       3.464  30.364  48.051  1.00  0.00     0.136 A 
ATOM      8  C   UNL     1       3.690  30.183  49.440  1.00  0.00     0.125 A 
ATOM      9  C   UNL     1       3.691  31.240  50.366  1.00  0.00     0.078 A 
ATOM     10  C   UNL     1       3.917  30.983  51.722  1.00  0.00     0.223 A 
ENDROOT
BRANCH   1  11
ATOM     11  C   UNL     1       4.424  29.309  53.547  1.00  0.00     0.084 A 
ATOM     12  C   UNL     1       5.576  29.767  54.213  1.00  0.00     0.022 A 
ATOM     13  C   UNL     1       5.816  29.403  55.542  1.00  0.00     0.047 A 
ATOM     14  C   UNL     1       4.917  28.567  56.216  1.00  0.00     0.115 A 
ATOM     15  C   UNL     1       3.539  28.454  54.224  1.00  0.00     0.022 A 
ATOM     16  C   UNL     1       3.781  28.093  55.553  1.00  0.00     0.047 A 
BRANCH  14  17
ATOM     17  O   UNL     1       5.144  28.198  57.540  1.00  0.00    -0.508 OA
ATOM     18  H   UNL     1       4.575  28.563  58.296  1.00  0.00     0.293 HD
ENDBRANCH  14  17
ENDBRANCH   1  11
BRANCH  10  19
ATOM     19  O   UNL     1       3.869  32.025  52.648  1.00  0.00    -0.500 OA
ATOM     20  H   UNL     1       3.130  32.090  53.338  1.00  0.00     0.294 HD
ENDBRANCH  10  19
BRANCH   5  21
ATOM     21  O   UNL     1       3.685  26.878  46.835  1.00  0.00    -0.507 OA
ATOM     22  H   UNL     1       4.544  26.413  46.565  1.00  0.00     0.293 HD
ENDBRANCH   5  21
BRANCH   7  23
ATOM     23  O   UNL     1       3.237  31.614  47.469  1.00  0.00    -0.507 OA
ATOM     24  H   UNL     1       2.356  31.909  47.073  1.00  0.00     0.293 HD
ENDBRANCH   7  23
TORSDOF 5
ENDMDL
MODEL 3
REMARK VINA RESULT:    -5.315      3.536      7.481
REMARK INTER + INTRA:          -6.569
REMARK INTER:                  -6.272
REMARK INTRA:                  -0.297
REMARK UNBOUND:                -0.322
REMARK SMILES Oc1ccc(-c2[o+]c3cc(O)cc(O)c3cc2O)cc1
REMARK SMILES IDX 6 1 7 2 8 3 9 4 10 5 12 6 13 7 15 8 16 9 17 10 5 11 4 12
REMARK SMILES IDX 3 13 2 14 19 15 20 16 1 17 18 19 11 21 14 23
REMARK H PARENT 1 18 18 20 11 22 14 24
REMARK Flexibility Score: inf
ROOT
ATOM      1  C   UNL     1      -9.875  32.404  58.292  1.00  0.00     0.401 A 
ATOM      2  O   UNL     1      -8.755  32.375  59.009  1.00  0.00    -0.202 OA
ATOM      3  C   UNL     1      -7.740  31.557  58.744  1.00  0.00     0.368 A 
ATOM      4  C   UNL     1      -6.603  31.602  59.555  1.00  0.00     0.162 A 
ATOM      5  C   UNL     1      -5.520  30.755  59.297  1.00  0.00     0.128 A 
ATOM      6  C   UNL     1      -5.576  29.861  58.225  1.00  0.00     0.093 A 
ATOM      7  C   UNL     1      -6.705  29.798  57.399  1.00  0.00     0.136 A 
ATOM      8  C   UNL     1      -7.807  30.653  57.658  1.00  0.00     0.125 A 
ATOM      9  C   UNL     1      -8.984  30.649  56.891  1.00  0.00     0.078 A 
ATOM     10  C   UNL     1     -10.031  31.519  57.210  1.00  0.00     0.223 A 
ENDROOT
BRANCH   1  11
ATOM     11  C   UNL     1     -10.930  33.368  58.682  1.00  0.00     0.084 A 
ATOM     12  C   UNL     1     -10.867  34.720  58.297  1.00  0.00     0.022 A 
ATOM     13  C   UNL     1     -11.863  35.616  58.697  1.00  0.00     0.047 A 
ATOM     14  C   UNL     1     -12.926  35.176  59.496  1.00  0.00     0.115 A 
ATOM     15  C   UNL     1     -11.988  32.940  59.500  1.00  0.00     0.022 A 
ATOM     16  C   UNL     1     -12.984  33.838  59.898  1.00  0.00     0.047 A 
BRANCH  14  17
ATOM     17  O   UNL     1     -13.925  36.059  59.900  1.00  0.00    -0.508 OA
ATOM     18  H   UNL     1     -14.416  36.643  59.232  1.00  0.00     0.293 HD
ENDBRANCH  14  17
ENDBRANCH   1  11
BRANCH  10  19
ATOM     19  O   UNL     1     -11.220  31.480  56.480  1.00  0.00    -0.500 OA
ATOM     20  H   UNL     1     -11.850  32.272  56.446  1.00  0.00     0.294 HD
ENDBRANCH  10  19
BRANCH   5  21
ATOM     21  O   UNL     1      -4.383  30.793  60.100  1.00  0.00    -0.507 OA
ATOM     22  H   UNL     1      -3.716  30.031  60.110  1.00  0.00     0.293 HD
ENDBRANCH   5  21
BRANCH   7  23
ATOM     23  O   UNL     1      -6.680  28.879  56.346  1.00  0.00    -0.507 OA
ATOM     24  H   UNL     1      -7.488  28.377  56.007  1.00  0.00     0.293 HD
ENDBRANCH   7  23
TORSDOF 5
ENDMDL
MODEL 4
REMARK VINA RESULT:    -5.185      3.865      6.434
REMARK INTER + INTRA:          -6.416
REMARK INTER:                  -6.131
REMARK INTRA:                  -0.285
REMARK UNBOUND:                -0.322
REMARK SMILES Oc1ccc(-c2[o+]c3cc(O)cc(O)c3cc2O)cc1
REMARK SMILES IDX 6 1 7 2 8 3 9 4 10 5 12 6 13 7 15 8 16 9 17 10 5 11 4 12
REMARK SMILES IDX 3 13 2 14 19 15 20 16 1 17 18 19 11 21 14 23
REMARK H PARENT 1 18 18 20 11 22 14 24
REMARK Flexibility Score: inf
ROOT
ATOM      1  C   UNL     1      -8.287  32.906  57.895  1.00  0.00     0.401 A 
ATOM      2  O   UNL     1      -7.849  33.942  57.186  1.00  0.00    -0.202 OA
ATOM      3  C   UNL     1      -8.586  35.020  56.937  1.00  0.00     0.368 A 
ATOM      4  C   UNL     1      -8.035  36.060  56.183  1.00  0.00     0.162 A 
ATOM      5  C   UNL     1      -8.788  37.207  55.909  1.00  0.00     0.128 A 
ATOM      6  C   UNL     1     -10.094  37.313  56.392  1.00  0.00     0.093 A 
ATOM      7  C   UNL     1     -10.668  36.285  57.150  1.00  0.00     0.136 A 
ATOM      8  C   UNL     1      -9.909  35.118  57.428  1.00  0.00     0.125 A 
ATOM      9  C   UNL     1     -10.407  34.032  58.167  1.00  0.00     0.078 A 
ATOM     10  C   UNL     1      -9.601  32.913  58.398  1.00  0.00     0.223 A 
ENDROOT
BRANCH   1  11
ATOM     11  C   UNL     1      -7.367  31.766  58.112  1.00  0.00     0.084 A 
ATOM     12  C   UNL     1      -6.344  31.822  59.077  1.00  0.00     0.022 A 
ATOM     13  C   UNL     1      -5.472  30.742  59.247  1.00  0.00     0.047 A 
ATOM     14  C   UNL     1      -5.602  29.600  58.446  1.00  0.00     0.115 A 
ATOM     15  C   UNL     1      -7.476  30.626  57.300  1.00  0.00     0.022 A 
ATOM     16  C   UNL     1      -6.604  29.546  57.472  1.00  0.00     0.047 A 
BRANCH  14  17
ATOM     17  O   UNL     1      -4.740  28.517  58.607  1.00  0.00    -0.508 OA
ATOM     18  H   UNL     1      -4.745  27.958  59.453  1.00  0.00     0.293 HD
ENDBRANCH  14  17
ENDBRANCH   1  11
BRANCH  10  19
ATOM     19  O   UNL     1     -10.112  31.814  59.089  1.00  0.00    -0.500 OA
ATOM     20  H   UNL     1      -9.937  30.864  58.782  1.00  0.00     0.294 HD
ENDBRANCH  10  19
BRANCH   5  21
ATOM     21  O   UNL     1      -8.246  38.247  55.158  1.00  0.00    -0.507 OA
ATOM     22  H   UNL     1      -7.426  38.111  54.579  1.00  0.00     0.293 HD
ENDBRANCH   5  21
BRANCH   7  23
ATOM     23  O   UNL     1     -11.978  36.471  57.599  1.00  0.00    -0.507 OA
ATOM     24  H   UNL     1     -12.565  37.250  57.340  1.00  0.00     0.293 HD
ENDBRANCH   7  23
TORSDOF 5
ENDMDL
MODEL 5
REMARK VINA RESULT:    -5.152      3.745      6.526
REMARK INTER + INTRA:          -6.377
REMARK INTER:                  -6.070
REMARK INTRA:                  -0.307
REMARK UNBOUND:                -0.322
REMARK SMILES Oc1ccc(-c2[o+]c3cc(O)cc(O)c3cc2O)cc1
REMARK SMILES IDX 6 1 7 2 8 3 9 4 10 5 12 6 13 7 15 8 16 9 17 10 5 11 4 12
REMARK SMILES IDX 3 13 2 14 19 15 20 16 1 17 18 19 11 21 14 23
REMARK H PARENT 1 18 18 20 11 22 14 24
REMARK Flexibility Score: inf
ROOT
ATOM      1  C   UNL     1      -8.589  32.605  57.985  1.00  0.00     0.401 A 
ATOM      2  O   UNL     1      -9.707  32.492  58.696  1.00  0.00    -0.202 OA
ATOM      3  C   UNL     1     -10.712  33.360  58.620  1.00  0.00     0.368 A 
ATOM      4  C   UNL     1     -11.848  33.154  59.407  1.00  0.00     0.162 A 
ATOM      5  C   UNL     1     -12.921  34.049  59.344  1.00  0.00     0.128 A 
ATOM      6  C   UNL     1     -12.856  35.154  58.492  1.00  0.00     0.093 A 
ATOM      7  C   UNL     1     -11.727  35.382  57.694  1.00  0.00     0.136 A 
ATOM      8  C   UNL     1     -10.635  34.477  57.756  1.00  0.00     0.125 A 
ATOM      9  C   UNL     1      -9.460  34.634  57.003  1.00  0.00     0.078 A 
ATOM     10  C   UNL     1      -8.423  33.703  57.120  1.00  0.00     0.223 A 
ENDROOT
BRANCH   1  11
ATOM     11  C   UNL     1      -7.546  31.568  58.150  1.00  0.00     0.084 A 
ATOM     12  C   UNL     1      -6.469  31.745  59.039  1.00  0.00     0.022 A 
ATOM     13  C   UNL     1      -5.483  30.761  59.161  1.00  0.00     0.047 A 
ATOM     14  C   UNL     1      -5.553  29.596  58.387  1.00  0.00     0.115 A 
ATOM     15  C   UNL     1      -7.596  30.406  57.363  1.00  0.00     0.022 A 
ATOM     16  C   UNL     1      -6.610  29.422  57.488  1.00  0.00     0.047 A 
BRANCH  14  17
ATOM     17  O   UNL     1      -4.578  28.607  58.499  1.00  0.00    -0.508 OA
ATOM     18  H   UNL     1      -4.307  28.232  59.401  1.00  0.00     0.293 HD
ENDBRANCH  14  17
ENDBRANCH   1  11
BRANCH  10  19
ATOM     19  O   UNL     1      -7.236  33.886  56.411  1.00  0.00    -0.500 OA
ATOM     20  H   UNL     1      -7.089  34.694  55.818  1.00  0.00     0.294 HD
ENDBRANCH  10  19
BRANCH   5  21
ATOM     21  O   UNL     1     -14.057  33.851  60.125  1.00  0.00    -0.507 OA
ATOM     22  H   UNL     1     -14.055  33.210  60.910  1.00  0.00     0.293 HD
ENDBRANCH   5  21
BRANCH   7  23
ATOM     23  O   UNL     1     -11.742  36.508  56.866  1.00  0.00    -0.507 OA
ATOM     24  H   UNL     1     -10.986  36.775  56.252  1.00  0.00     0.293 HD
ENDBRANCH   7  23
TORSDOF 5
ENDMDL
MODEL 6
REMARK VINA RESULT:    -5.133      1.485      6.969
REMARK INTER + INTRA:          -6.355
REMARK INTER:                  -6.053
REMARK INTRA:                  -0.302
REMARK UNBOUND:                -0.322
REMARK SMILES Oc1ccc(-c2[o+]c3cc(O)cc(O)c3cc2O)cc1
REMARK SMILES IDX 6 1 7 2 8 3 9 4 10 5 12 6 13 7 15 8 16 9 17 10 5 11 4 12
REMARK SMILES IDX 3 13 2 14 19 15 20 16 1 17 18 19 11 21 14 23
REMARK H PARENT 1 18 18 20 11 22 14 24
REMARK Flexibility Score: inf
ROOT
ATOM      1  C   UNL     1      -6.869  27.709  56.301  1.00  0.00     0.401 A 
ATOM      2  O   UNL     1      -6.468  27.769  55.035  1.00  0.00    -0.202 OA
ATOM      3  C   UNL     1      -6.636  26.775  54.168  1.00  0.00     0.368 A 
ATOM      4  C   UNL     1      -6.181  26.934  52.856  1.00  0.00     0.162 A 
ATOM      5  C   UNL     1      -6.347  25.905  51.923  1.00  0.00     0.128 A 
ATOM      6  C   UNL     1      -6.970  24.714  52.304  1.00  0.00     0.093 A 
ATOM      7  C   UNL     1      -7.434  24.531  53.613  1.00  0.00     0.136 A 
ATOM      8  C   UNL     1      -7.265  25.571  54.565  1.00  0.00     0.125 A 
ATOM      9  C   UNL     1      -7.686  25.471  55.901  1.00  0.00     0.078 A 
ATOM     10  C   UNL     1      -7.481  26.537  56.782  1.00  0.00     0.223 A 
ENDROOT
BRANCH   1  11
ATOM     11  C   UNL     1      -6.634  28.888  57.167  1.00  0.00     0.084 A 
ATOM     12  C   UNL     1      -5.517  28.960  58.020  1.00  0.00     0.022 A 
ATOM     13  C   UNL     1      -5.329  30.073  58.846  1.00  0.00     0.047 A 
ATOM     14  C   UNL     1      -6.261  31.119  58.839  1.00  0.00     0.115 A 
ATOM     15  C   UNL     1      -7.573  29.931  57.183  1.00  0.00     0.022 A 
ATOM     16  C   UNL     1      -7.382  31.044  58.008  1.00  0.00     0.047 A 
BRANCH  14  17
ATOM     17  O   UNL     1      -6.084  32.233  59.657  1.00  0.00    -0.508 OA
ATOM     18  H   UNL     1      -6.758  32.475  60.374  1.00  0.00     0.293 HD
ENDBRANCH  14  17
ENDBRANCH   1  11
BRANCH  10  19
ATOM     19  O   UNL     1      -7.854  26.418  58.121  1.00  0.00    -0.500 OA
ATOM     20  H   UNL     1      -7.612  25.602  58.671  1.00  0.00     0.294 HD
ENDBRANCH  10  19
BRANCH   5  21
ATOM     21  O   UNL     1      -5.897  26.055  50.614  1.00  0.00    -0.507 OA
ATOM     22  H   UNL     1      -6.481  25.810  49.822  1.00  0.00     0.293 HD
ENDBRANCH   5  21
BRANCH   7  23
ATOM     23  O   UNL     1      -8.049  23.313  53.914  1.00  0.00    -0.507 OA
ATOM     24  H   UNL     1      -7.648  22.407  53.717  1.00  0.00     0.293 HD
ENDBRANCH   7  23
TORSDOF 5
ENDMDL
MODEL 7
REMARK VINA RESULT:    -5.033     10.215     11.777
REMARK INTER + INTRA:          -6.237
REMARK INTER:                  -5.965
REMARK INTRA:                  -0.272
REMARK UNBOUND:                -0.322
REMARK SMILES Oc1ccc(-c2[o+]c3cc(O)cc(O)c3cc2O)cc1
REMARK SMILES IDX 6 1 7 2 8 3 9 4 10 5 12 6 13 7 15 8 16 9 17 10 5 11 4 12
REMARK SMILES IDX 3 13 2 14 19 15 20 16 1 17 18 19 11 21 14 23
REMARK H PARENT 1 18 18 20 11 22 14 24
REMARK Flexibility Score: inf
ROOT
ATOM      1  C   UNL     1       3.769  29.885  53.390  1.00  0.00     0.401 A 
ATOM      2  O   UNL     1       2.539  29.882  53.894  1.00  0.00    -0.202 OA
ATOM      3  C   UNL     1       2.235  29.350  55.074  1.00  0.00     0.368 A 
ATOM      4  C   UNL     1       0.911  29.398  55.520  1.00  0.00     0.162 A 
ATOM      5  C   UNL     1       0.564  28.848  56.758  1.00  0.00     0.128 A 
ATOM      6  C   UNL     1       1.544  28.249  57.553  1.00  0.00     0.093 A 
ATOM      7  C   UNL     1       2.878  28.189  57.128  1.00  0.00     0.136 A 
ATOM      8  C   UNL     1       3.234  28.743  55.870  1.00  0.00     0.125 A 
ATOM      9  C   UNL     1       4.542  28.715  55.358  1.00  0.00     0.078 A 
ATOM     10  C   UNL     1       4.816  29.278  54.108  1.00  0.00     0.223 A 
ENDROOT
BRANCH   1  11
ATOM     11  C   UNL     1       3.983  30.518  52.068  1.00  0.00     0.084 A 
ATOM     12  C   UNL     1       4.128  29.747  50.900  1.00  0.00     0.022 A 
ATOM     13  C   UNL     1       4.353  30.367  49.667  1.00  0.00     0.047 A 
ATOM     14  C   UNL     1       4.449  31.762  49.588  1.00  0.00     0.115 A 
ATOM     15  C   UNL     1       4.101  31.915  51.983  1.00  0.00     0.022 A 
ATOM     16  C   UNL     1       4.325  32.533  50.748  1.00  0.00     0.047 A 
BRANCH  14  17
ATOM     17  O   UNL     1       4.671  32.392  48.365  1.00  0.00    -0.508 OA
ATOM     18  H   UNL     1       4.903  33.377  48.312  1.00  0.00     0.293 HD
ENDBRANCH  14  17
ENDBRANCH   1  11
BRANCH  10  19
ATOM     19  O   UNL     1       6.104  29.207  53.576  1.00  0.00    -0.500 OA
ATOM     20  H   UNL     1       6.318  29.557  52.650  1.00  0.00     0.294 HD
ENDBRANCH  10  19
BRANCH   5  21
ATOM     21  O   UNL     1      -0.753  28.892  57.210  1.00  0.00    -0.507 OA
ATOM     22  H   UNL     1      -1.132  28.166  57.806  1.00  0.00     0.293 HD
ENDBRANCH   5  21
BRANCH   7  23
ATOM     23  O   UNL     1       3.798  27.576  57.982  1.00  0.00    -0.507 OA
ATOM     24  H   UNL     1       4.698  27.965  58.226  1.00  0.00     0.293 HD
ENDBRANCH   7  23
TORSDOF 5
ENDMDL
MODEL 8
REMARK VINA RESULT:    -5.003     12.556     14.882
REMARK INTER + INTRA:          -6.202
REMARK INTER:                  -5.918
REMARK INTRA:                  -0.284
REMARK UNBOUND:                -0.322
REMARK SMILES Oc1ccc(-c2[o+]c3cc(O)cc(O)c3cc2O)cc1
REMARK SMILES IDX 6 1 7 2 8 3 9 4 10 5 12 6 13 7 15 8 16 9 17 10 5 11 4 12
REMARK SMILES IDX 3 13 2 14 19 15 20 16 1 17 18 19 11 21 14 23
REMARK H PARENT 1 18 18 20 11 22 14 24
REMARK Flexibility Score: inf
ROOT
ATOM      1  C   UNL     1      -7.671  34.977  44.747  1.00  0.00     0.401 A 
ATOM      2  O   UNL     1      -8.100  34.179  43.773  1.00  0.00    -0.202 OA
ATOM      3  C   UNL     1      -8.606  32.968  43.991  1.00  0.00     0.368 A 
ATOM      4  C   UNL     1      -9.032  32.204  42.901  1.00  0.00     0.162 A 
ATOM      5  C   UNL     1      -9.570  30.929  43.102  1.00  0.00     0.128 A 
ATOM      6  C   UNL     1      -9.682  30.417  44.397  1.00  0.00     0.093 A 
ATOM      7  C   UNL     1      -9.261  31.163  45.505  1.00  0.00     0.136 A 
ATOM      8  C   UNL     1      -8.712  32.457  45.306  1.00  0.00     0.125 A 
ATOM      9  C   UNL     1      -8.252  33.270  46.355  1.00  0.00     0.078 A 
ATOM     10  C   UNL     1      -7.719  34.533  46.081  1.00  0.00     0.223 A 
ENDROOT
BRANCH   1  11
ATOM     11  C   UNL     1      -7.138  36.308  44.377  1.00  0.00     0.084 A 
ATOM     12  C   UNL     1      -7.889  37.481  44.578  1.00  0.00     0.022 A 
ATOM     13  C   UNL     1      -7.373  38.724  44.199  1.00  0.00     0.047 A 
ATOM     14  C   UNL     1      -6.109  38.809  43.603  1.00  0.00     0.115 A 
ATOM     15  C   UNL     1      -5.880  36.401  43.760  1.00  0.00     0.022 A 
ATOM     16  C   UNL     1      -5.366  37.646  43.383  1.00  0.00     0.047 A 
BRANCH  14  17
ATOM     17  O   UNL     1      -5.583  40.042  43.222  1.00  0.00    -0.508 OA
ATOM     18  H   UNL     1      -5.125  40.168  42.327  1.00  0.00     0.293 HD
ENDBRANCH  14  17
ENDBRANCH   1  11
BRANCH  10  19
ATOM     19  O   UNL     1      -7.216  35.319  47.118  1.00  0.00    -0.500 OA
ATOM     20  H   UNL     1      -6.442  35.010  47.694  1.00  0.00     0.294 HD
ENDBRANCH  10  19
BRANCH   5  21
ATOM     21  O   UNL     1      -9.998  30.162  42.021  1.00  0.00    -0.507 OA
ATOM     22  H   UNL     1     -10.932  29.770  41.987  1.00  0.00     0.293 HD
ENDBRANCH   5  21
BRANCH   7  23
ATOM     23  O   UNL     1      -9.410  30.581  46.766  1.00  0.00    -0.507 OA
ATOM     24  H   UNL     1     -10.166  29.963  47.024  1.00  0.00     0.293 HD
ENDBRANCH   7  23
TORSDOF 5
ENDMDL
MODEL 9
REMARK VINA RESULT:    -4.949      1.648      6.734
REMARK INTER + INTRA:          -6.138
REMARK INTER:                  -6.214
REMARK INTRA:                   0.076
REMARK UNBOUND:                -0.322
REMARK SMILES Oc1ccc(-c2[o+]c3cc(O)cc(O)c3cc2O)cc1
REMARK SMILES IDX 6 1 7 2 8 3 9 4 10 5 12 6 13 7 15 8 16 9 17 10 5 11 4 12
REMARK SMILES IDX 3 13 2 14 19 15 20 16 1 17 18 19 11 21 14 23
REMARK H PARENT 1 18 18 20 11 22 14 24
REMARK Flexibility Score: inf
ROOT
ATOM      1  C   UNL     1      -7.898  28.217  56.153  1.00  0.00     0.401 A 
ATOM      2  O   UNL     1      -7.190  27.304  55.495  1.00  0.00    -0.202 OA
ATOM      3  C   UNL     1      -7.734  26.412  54.673  1.00  0.00     0.368 A 
ATOM      4  C   UNL     1      -6.906  25.492  54.023  1.00  0.00     0.162 A 
ATOM      5  C   UNL     1      -7.452  24.545  53.151  1.00  0.00     0.128 A 
ATOM      6  C   UNL     1      -8.831  24.518  52.928  1.00  0.00     0.093 A 
ATOM      7  C   UNL     1      -9.681  25.429  53.567  1.00  0.00     0.136 A 
ATOM      8  C   UNL     1      -9.132  26.390  54.455  1.00  0.00     0.125 A 
ATOM      9  C   UNL     1      -9.910  27.332  55.149  1.00  0.00     0.078 A 
ATOM     10  C   UNL     1      -9.297  28.247  56.012  1.00  0.00     0.223 A 
ENDROOT
BRANCH   1  11
ATOM     11  C   UNL     1      -7.174  29.163  57.033  1.00  0.00     0.084 A 
ATOM     12  C   UNL     1      -7.521  30.526  57.088  1.00  0.00     0.022 A 
ATOM     13  C   UNL     1      -6.807  31.405  57.908  1.00  0.00     0.047 A 
ATOM     14  C   UNL     1      -5.731  30.937  58.673  1.00  0.00     0.115 A 
ATOM     15  C   UNL     1      -6.081  28.707  57.787  1.00  0.00     0.022 A 
ATOM     16  C   UNL     1      -5.369  29.588  58.608  1.00  0.00     0.047 A 
BRANCH  14  17
ATOM     17  O   UNL     1      -5.013  31.802  59.495  1.00  0.00    -0.508 OA
ATOM     18  H   UNL     1      -4.021  31.675  59.658  1.00  0.00     0.293 HD
ENDBRANCH  14  17
ENDBRANCH   1  11
BRANCH  10  19
ATOM     19  O   UNL     1     -10.074  29.149  56.740  1.00  0.00    -0.500 OA
ATOM     20  H   UNL     1      -9.771  30.102  56.902  1.00  0.00     0.294 HD
ENDBRANCH  10  19
BRANCH   5  21
ATOM     21  O   UNL     1      -6.633  23.626  52.500  1.00  0.00    -0.507 OA
ATOM     22  H   UNL     1      -6.470  23.677  51.501  1.00  0.00     0.293 HD
ENDBRANCH   5  21
BRANCH   7  23
ATOM     23  O   UNL     1     -11.047  25.338  53.288  1.00  0.00    -0.507 OA
ATOM     24  H   UNL     1     -11.699  24.764  53.804  1.00  0.00     0.293 HD
ENDBRANCH   7  23
TORSDOF 5
ENDMDL
