MODEL 1
REMARK VINA RESULT:    -5.515      0.000      0.000
REMARK INTER + INTRA:          -6.788
REMARK INTER:                  -6.644
REMARK INTRA:                  -0.144
REMARK UNBOUND:                -0.144
REMARK SMILES O=c1c(O)c(-c2ccc(O)c(O)c2)oc2cc(O)cc(O)c12
REMARK SMILES IDX 5 1 3 2 2 3 1 4 22 5 20 6 19 7 17 8 16 9 15 10 14 11 6 12
REMARK SMILES IDX 7 13 8 14 9 15 13 16 11 17 10 18 12 20 4 22 21 24 18 26
REMARK H PARENT 10 19 12 21 4 23 21 25 18 27
REMARK Flexibility Score: inf
ROOT
ATOM      1  C   UNL     1      -2.500 -15.753  11.495  1.00  0.00     0.180 A 
ATOM      2  C   UNL     1      -2.289 -14.402  11.161  1.00  0.00     0.208 A 
ATOM      3  C   UNL     1      -2.827 -13.906   9.961  1.00  0.00     0.238 A 
ATOM      4  O   UNL     1      -2.634 -12.701   9.646  1.00  0.00    -0.285 OA
ATOM      5  C   UNL     1      -3.581 -14.761   9.131  1.00  0.00     0.111 A 
ATOM      6  C   UNL     1      -4.161 -14.340   7.910  1.00  0.00     0.134 A 
ATOM      7  C   UNL     1      -4.906 -15.249   7.144  1.00  0.00     0.093 A 
ATOM      8  C   UNL     1      -5.084 -16.566   7.574  1.00  0.00     0.123 A 
ATOM      9  C   UNL     1      -4.513 -16.988   8.780  1.00  0.00     0.094 A 
ATOM     10  C   UNL     1      -3.765 -16.098   9.556  1.00  0.00     0.146 A 
ATOM     11  O   UNL     1      -3.230 -16.525  10.694  1.00  0.00    -0.452 OA
ENDROOT
BRANCH   1  12
ATOM     12  C   UNL     1      -1.949 -16.353  12.731  1.00  0.00     0.025 A 
ATOM     13  C   UNL     1      -2.338 -15.897  14.003  1.00  0.00     0.016 A 
ATOM     14  C   UNL     1      -1.786 -16.462  15.155  1.00  0.00     0.051 A 
ATOM     15  C   UNL     1      -0.828 -17.479  15.054  1.00  0.00     0.157 A 
ATOM     16  C   UNL     1      -0.973 -17.358  12.635  1.00  0.00     0.062 A 
ATOM     17  C   UNL     1      -0.418 -17.927  13.787  1.00  0.00     0.158 A 
BRANCH  15  18
ATOM     18  O   UNL     1      -0.280 -18.042  16.206  1.00  0.00    -0.504 OA
ATOM     19  H   UNL     1      -0.337 -17.576  17.104  1.00  0.00     0.293 HD
ENDBRANCH  15  18
BRANCH  17  20
ATOM     20  O   UNL     1       0.539 -18.933  13.653  1.00  0.00    -0.504 OA
ATOM     21  H   UNL     1       1.201 -19.147  14.389  1.00  0.00     0.293 HD
ENDBRANCH  17  20
ENDBRANCH   1  12
BRANCH   2  22
ATOM     22  O   UNL     1      -1.579 -13.563  12.024  1.00  0.00    -0.502 OA
ATOM     23  H   UNL     1      -1.855 -13.418  12.988  1.00  0.00     0.293 HD
ENDBRANCH   2  22
BRANCH   6  24
ATOM     24  O   UNL     1      -4.003 -13.031   7.453  1.00  0.00    -0.507 OA
ATOM     25  H   UNL     1      -3.155 -12.727   6.989  1.00  0.00     0.293 HD
ENDBRANCH   6  24
BRANCH   8  26
ATOM     26  O   UNL     1      -5.829 -17.448   6.796  1.00  0.00    -0.508 OA
ATOM     27  H   UNL     1      -5.386 -18.176   6.248  1.00  0.00     0.293 HD
ENDBRANCH   8  26
TORSDOF 6
ENDMDL
MODEL 2
REMARK VINA RESULT:    -4.047      1.559      2.929
REMARK INTER + INTRA:          -5.019
REMARK INTER:                  -5.534
REMARK INTRA:                   0.515
REMARK UNBOUND:                -0.144
REMARK SMILES O=c1c(O)c(-c2ccc(O)c(O)c2)oc2cc(O)cc(O)c12
REMARK SMILES IDX 5 1 3 2 2 3 1 4 22 5 20 6 19 7 17 8 16 9 15 10 14 11 6 12
REMARK SMILES IDX 7 13 8 14 9 15 13 16 11 17 10 18 12 20 4 22 21 24 18 26
REMARK H PARENT 10 19 12 21 4 23 21 25 18 27
REMARK Flexibility Score: inf
ROOT
ATOM      1  C   UNL     1      -2.949 -16.210  10.454  1.00  0.00     0.180 A 
ATOM      2  C   UNL     1      -2.834 -17.357   9.645  1.00  0.00     0.208 A 
ATOM      3  C   UNL     1      -3.284 -17.299   8.316  1.00  0.00     0.238 A 
ATOM      4  O   UNL     1      -3.196 -18.323   7.586  1.00  0.00    -0.285 OA
ATOM      5  C   UNL     1      -3.819 -16.094   7.814  1.00  0.00     0.111 A 
ATOM      6  C   UNL     1      -4.290 -15.950   6.487  1.00  0.00     0.134 A 
ATOM      7  C   UNL     1      -4.801 -14.715   6.060  1.00  0.00     0.093 A 
ATOM      8  C   UNL     1      -4.848 -13.624   6.930  1.00  0.00     0.123 A 
ATOM      9  C   UNL     1      -4.384 -13.761   8.244  1.00  0.00     0.094 A 
ATOM     10  C   UNL     1      -3.874 -14.984   8.689  1.00  0.00     0.146 A 
ATOM     11  O   UNL     1      -3.445 -15.087   9.941  1.00  0.00    -0.452 OA
ENDROOT
BRANCH   1  12
ATOM     12  C   UNL     1      -2.515 -16.199  11.869  1.00  0.00     0.025 A 
ATOM     13  C   UNL     1      -2.814 -15.119  12.719  1.00  0.00     0.016 A 
ATOM     14  C   UNL     1      -2.372 -15.121  14.045  1.00  0.00     0.051 A 
ATOM     15  C   UNL     1      -1.615 -16.192  14.536  1.00  0.00     0.157 A 
ATOM     16  C   UNL     1      -1.738 -17.260  12.361  1.00  0.00     0.062 A 
ATOM     17  C   UNL     1      -1.294 -17.265  13.689  1.00  0.00     0.158 A 
BRANCH  15  18
ATOM     18  O   UNL     1      -1.178 -16.191  15.861  1.00  0.00    -0.504 OA
ATOM     19  H   UNL     1      -1.081 -15.331  16.387  1.00  0.00     0.293 HD
ENDBRANCH  15  18
BRANCH  17  20
ATOM     20  O   UNL     1      -0.535 -18.343  14.146  1.00  0.00    -0.504 OA
ATOM     21  H   UNL     1      -0.623 -19.270  13.749  1.00  0.00     0.293 HD
ENDBRANCH  17  20
ENDBRANCH   1  12
BRANCH   2  22
ATOM     22  O   UNL     1      -2.255 -18.523  10.152  1.00  0.00    -0.502 OA
ATOM     23  H   UNL     1      -1.672 -18.524  10.981  1.00  0.00     0.293 HD
ENDBRANCH   2  22
BRANCH   6  24
ATOM     24  O   UNL     1      -4.255 -17.021   5.592  1.00  0.00    -0.507 OA
ATOM     25  H   UNL     1      -5.083 -17.329   5.096  1.00  0.00     0.293 HD
ENDBRANCH   6  24
BRANCH   8  26
ATOM     26  O   UNL     1      -5.358 -12.409   6.481  1.00  0.00    -0.508 OA
ATOM     27  H   UNL     1      -5.592 -11.662   7.125  1.00  0.00     0.293 HD
ENDBRANCH   8  26
TORSDOF 6
ENDMDL
MODEL 3
REMARK VINA RESULT:    -3.812      1.833      7.068
REMARK INTER + INTRA:          -4.736
REMARK INTER:                  -4.404
REMARK INTRA:                  -0.332
REMARK UNBOUND:                -0.144
REMARK SMILES O=c1c(O)c(-c2ccc(O)c(O)c2)oc2cc(O)cc(O)c12
REMARK SMILES IDX 5 1 3 2 2 3 1 4 22 5 20 6 19 7 17 8 16 9 15 10 14 11 6 12
REMARK SMILES IDX 7 13 8 14 9 15 13 16 11 17 10 18 12 20 4 22 21 24 18 26
REMARK H PARENT 10 19 12 21 4 23 21 25 18 27
REMARK Flexibility Score: inf
ROOT
ATOM      1  C   UNL     1      -2.410 -16.898  11.600  1.00  0.00     0.180 A 
ATOM      2  C   UNL     1      -3.169 -16.369  12.662  1.00  0.00     0.208 A 
ATOM      3  C   UNL     1      -2.694 -16.515  13.975  1.00  0.00     0.238 A 
ATOM      4  O   UNL     1      -3.371 -16.056  14.935  1.00  0.00    -0.285 OA
ATOM      5  C   UNL     1      -1.464 -17.167  14.202  1.00  0.00     0.111 A 
ATOM      6  C   UNL     1      -0.913 -17.351  15.493  1.00  0.00     0.134 A 
ATOM      7  C   UNL     1       0.322 -18.001  15.636  1.00  0.00     0.093 A 
ATOM      8  C   UNL     1       1.016 -18.468  14.517  1.00  0.00     0.123 A 
ATOM      9  C   UNL     1       0.475 -18.288  13.239  1.00  0.00     0.094 A 
ATOM     10  C   UNL     1      -0.755 -17.645  13.076  1.00  0.00     0.146 A 
ATOM     11  O   UNL     1      -1.247 -17.492  11.852  1.00  0.00    -0.452 OA
ENDROOT
BRANCH   1  12
ATOM     12  C   UNL     1      -2.854 -16.801  10.191  1.00  0.00     0.025 A 
ATOM     13  C   UNL     1      -3.715 -17.758   9.626  1.00  0.00     0.016 A 
ATOM     14  C   UNL     1      -4.101 -17.657   8.287  1.00  0.00     0.051 A 
ATOM     15  C   UNL     1      -3.622 -16.611   7.490  1.00  0.00     0.157 A 
ATOM     16  C   UNL     1      -2.359 -15.765   9.382  1.00  0.00     0.062 A 
ATOM     17  C   UNL     1      -2.744 -15.661   8.040  1.00  0.00     0.158 A 
BRANCH  15  18
ATOM     18  O   UNL     1      -4.010 -16.513   6.154  1.00  0.00    -0.504 OA
ATOM     19  H   UNL     1      -4.856 -16.024   5.882  1.00  0.00     0.293 HD
ENDBRANCH  15  18
BRANCH  17  20
ATOM     20  O   UNL     1      -2.243 -14.611   7.270  1.00  0.00    -0.504 OA
ATOM     21  H   UNL     1      -2.847 -13.914   6.853  1.00  0.00     0.293 HD
ENDBRANCH  17  20
ENDBRANCH   1  12
BRANCH   2  22
ATOM     22  O   UNL     1      -4.361 -15.686  12.406  1.00  0.00    -0.502 OA
ATOM     23  H   UNL     1      -4.867 -15.785  11.534  1.00  0.00     0.293 HD
ENDBRANCH   2  22
BRANCH   6  24
ATOM     24  O   UNL     1      -1.580 -16.896  16.632  1.00  0.00    -0.507 OA
ATOM     25  H   UNL     1      -2.319 -17.434  17.068  1.00  0.00     0.293 HD
ENDBRANCH   6  24
BRANCH   8  26
ATOM     26  O   UNL     1       2.241 -19.109  14.686  1.00  0.00    -0.508 OA
ATOM     27  H   UNL     1       2.881 -19.238  13.912  1.00  0.00     0.293 HD
ENDBRANCH   8  26
TORSDOF 6
ENDMDL
MODEL 4
REMARK VINA RESULT:    -3.672      1.921      7.064
REMARK INTER + INTRA:          -4.568
REMARK INTER:                  -4.503
REMARK INTRA:                  -0.065
REMARK UNBOUND:                -0.144
REMARK SMILES O=c1c(O)c(-c2ccc(O)c(O)c2)oc2cc(O)cc(O)c12
REMARK SMILES IDX 5 1 3 2 2 3 1 4 22 5 20 6 19 7 17 8 16 9 15 10 14 11 6 12
REMARK SMILES IDX 7 13 8 14 9 15 13 16 11 17 10 18 12 20 4 22 21 24 18 26
REMARK H PARENT 10 19 12 21 4 23 21 25 18 27
REMARK Flexibility Score: inf
ROOT
ATOM      1  C   UNL     1      -2.373 -16.657  11.572  1.00  0.00     0.180 A 
ATOM      2  C   UNL     1      -3.159 -16.152  12.625  1.00  0.00     0.208 A 
ATOM      3  C   UNL     1      -2.740 -16.366  13.948  1.00  0.00     0.238 A 
ATOM      4  O   UNL     1      -3.442 -15.927  14.900  1.00  0.00    -0.285 OA
ATOM      5  C   UNL     1      -1.538 -17.060  14.194  1.00  0.00     0.111 A 
ATOM      6  C   UNL     1      -1.043 -17.314  15.497  1.00  0.00     0.134 A 
ATOM      7  C   UNL     1       0.167 -18.004  15.658  1.00  0.00     0.093 A 
ATOM      8  C   UNL     1       0.892 -18.443  14.548  1.00  0.00     0.123 A 
ATOM      9  C   UNL     1       0.408 -18.196  13.259  1.00  0.00     0.094 A 
ATOM     10  C   UNL     1      -0.797 -17.511  13.077  1.00  0.00     0.146 A 
ATOM     11  O   UNL     1      -1.237 -17.293  11.842  1.00  0.00    -0.452 OA
ENDROOT
BRANCH   1  12
ATOM     12  C   UNL     1      -2.758 -16.488  10.152  1.00  0.00     0.025 A 
ATOM     13  C   UNL     1      -1.919 -15.825   9.239  1.00  0.00     0.016 A 
ATOM     14  C   UNL     1      -2.315 -15.657   7.910  1.00  0.00     0.051 A 
ATOM     15  C   UNL     1      -3.559 -16.134   7.477  1.00  0.00     0.157 A 
ATOM     16  C   UNL     1      -4.012 -16.947   9.718  1.00  0.00     0.062 A 
ATOM     17  C   UNL     1      -4.412 -16.780   8.387  1.00  0.00     0.158 A 
BRANCH  15  18
ATOM     18  O   UNL     1      -3.950 -15.967   6.149  1.00  0.00    -0.504 OA
ATOM     19  H   UNL     1      -3.552 -15.239   5.566  1.00  0.00     0.293 HD
ENDBRANCH  15  18
BRANCH  17  20
ATOM     20  O   UNL     1      -5.660 -17.260   7.989  1.00  0.00    -0.504 OA
ATOM     21  H   UNL     1      -6.398 -16.644   7.674  1.00  0.00     0.293 HD
ENDBRANCH  17  20
ENDBRANCH   1  12
BRANCH   2  22
ATOM     22  O   UNL     1      -4.321 -15.425  12.353  1.00  0.00    -0.502 OA
ATOM     23  H   UNL     1      -4.874 -14.992  13.083  1.00  0.00     0.293 HD
ENDBRANCH   2  22
BRANCH   6  24
ATOM     24  O   UNL     1      -1.742 -16.888  16.627  1.00  0.00    -0.507 OA
ATOM     25  H   UNL     1      -1.701 -17.395  17.502  1.00  0.00     0.293 HD
ENDBRANCH   6  24
BRANCH   8  26
ATOM     26  O   UNL     1       2.092 -19.125  14.736  1.00  0.00    -0.508 OA
ATOM     27  H   UNL     1       2.840 -19.079  14.054  1.00  0.00     0.293 HD
ENDBRANCH   8  26
TORSDOF 6
ENDMDL
MODEL 5
REMARK VINA RESULT:    -3.665      2.432      2.662
REMARK INTER + INTRA:          -4.559
REMARK INTER:                  -5.021
REMARK INTRA:                   0.462
REMARK UNBOUND:                -0.144
REMARK SMILES O=c1c(O)c(-c2ccc(O)c(O)c2)oc2cc(O)cc(O)c12
REMARK SMILES IDX 5 1 3 2 2 3 1 4 22 5 20 6 19 7 17 8 16 9 15 10 14 11 6 12
REMARK SMILES IDX 7 13 8 14 9 15 13 16 11 17 10 18 12 20 4 22 21 24 18 26
REMARK H PARENT 10 19 12 21 4 23 21 25 18 27
REMARK Flexibility Score: inf
ROOT
ATOM      1  C   UNL     1      -2.239 -17.300  12.712  1.00  0.00     0.180 A 
ATOM      2  C   UNL     1      -3.384 -16.521  12.968  1.00  0.00     0.208 A 
ATOM      3  C   UNL     1      -4.315 -16.324  11.936  1.00  0.00     0.238 A 
ATOM      4  O   UNL     1      -5.339 -15.619  12.150  1.00  0.00    -0.285 OA
ATOM      5  C   UNL     1      -4.098 -16.923  10.677  1.00  0.00     0.111 A 
ATOM      6  C   UNL     1      -4.989 -16.778   9.586  1.00  0.00     0.134 A 
ATOM      7  C   UNL     1      -4.706 -17.413   8.368  1.00  0.00     0.093 A 
ATOM      8  C   UNL     1      -3.555 -18.191   8.220  1.00  0.00     0.123 A 
ATOM      9  C   UNL     1      -2.671 -18.337   9.295  1.00  0.00     0.094 A 
ATOM     10  C   UNL     1      -2.934 -17.710  10.516  1.00  0.00     0.146 A 
ATOM     11  O   UNL     1      -2.076 -17.862  11.518  1.00  0.00    -0.452 OA
ENDROOT
BRANCH   1  12
ATOM     12  C   UNL     1      -1.203 -17.537  13.743  1.00  0.00     0.025 A 
ATOM     13  C   UNL     1      -1.379 -17.108  15.071  1.00  0.00     0.016 A 
ATOM     14  C   UNL     1      -0.376 -17.322  16.020  1.00  0.00     0.051 A 
ATOM     15  C   UNL     1       0.819 -17.953  15.656  1.00  0.00     0.157 A 
ATOM     16  C   UNL     1       0.006 -18.151  13.378  1.00  0.00     0.062 A 
ATOM     17  C   UNL     1       1.012 -18.368  14.327  1.00  0.00     0.158 A 
BRANCH  15  18
ATOM     18  O   UNL     1       1.817 -18.167  16.607  1.00  0.00    -0.504 OA
ATOM     19  H   UNL     1       2.419 -17.415  16.923  1.00  0.00     0.293 HD
ENDBRANCH  15  18
BRANCH  17  20
ATOM     20  O   UNL     1       2.195 -18.993  13.931  1.00  0.00    -0.504 OA
ATOM     21  H   UNL     1       2.892 -19.298  14.599  1.00  0.00     0.293 HD
ENDBRANCH  17  20
ENDBRANCH   1  12
BRANCH   2  22
ATOM     22  O   UNL     1      -3.600 -15.979  14.237  1.00  0.00    -0.502 OA
ATOM     23  H   UNL     1      -3.016 -16.208  15.032  1.00  0.00     0.293 HD
ENDBRANCH   2  22
BRANCH   6  24
ATOM     24  O   UNL     1      -6.148 -16.009   9.703  1.00  0.00    -0.507 OA
ATOM     25  H   UNL     1      -6.122 -14.997   9.675  1.00  0.00     0.293 HD
ENDBRANCH   6  24
BRANCH   8  26
ATOM     26  O   UNL     1      -3.299 -18.813   7.000  1.00  0.00    -0.508 OA
ATOM     27  H   UNL     1      -3.816 -18.570   6.164  1.00  0.00     0.293 HD
ENDBRANCH   8  26
TORSDOF 6
ENDMDL
MODEL 6
REMARK VINA RESULT:    -2.992      1.817      7.303
REMARK INTER + INTRA:          -3.748
REMARK INTER:                  -4.209
REMARK INTRA:                   0.461
REMARK UNBOUND:                -0.144
REMARK SMILES O=c1c(O)c(-c2ccc(O)c(O)c2)oc2cc(O)cc(O)c12
REMARK SMILES IDX 5 1 3 2 2 3 1 4 22 5 20 6 19 7 17 8 16 9 15 10 14 11 6 12
REMARK SMILES IDX 7 13 8 14 9 15 13 16 11 17 10 18 12 20 4 22 21 24 18 26
REMARK H PARENT 10 19 12 21 4 23 21 25 18 27
REMARK Flexibility Score: inf
ROOT
ATOM      1  C   UNL     1      -3.527 -16.209   9.655  1.00  0.00     0.180 A 
ATOM      2  C   UNL     1      -3.127 -17.505  10.031  1.00  0.00     0.208 A 
ATOM      3  C   UNL     1      -2.634 -17.715  11.330  1.00  0.00     0.238 A 
ATOM      4  O   UNL     1      -2.262 -18.870  11.674  1.00  0.00    -0.285 OA
ATOM      5  C   UNL     1      -2.571 -16.634  12.233  1.00  0.00     0.111 A 
ATOM      6  C   UNL     1      -2.092 -16.760  13.560  1.00  0.00     0.134 A 
ATOM      7  C   UNL     1      -2.069 -15.638  14.401  1.00  0.00     0.093 A 
ATOM      8  C   UNL     1      -2.515 -14.396  13.945  1.00  0.00     0.123 A 
ATOM      9  C   UNL     1      -2.988 -14.264  12.634  1.00  0.00     0.094 A 
ATOM     10  C   UNL     1      -3.017 -15.370  11.780  1.00  0.00     0.146 A 
ATOM     11  O   UNL     1      -3.467 -15.217  10.540  1.00  0.00    -0.452 OA
ENDROOT
BRANCH   1  12
ATOM     12  C   UNL     1      -4.038 -15.906   8.300  1.00  0.00     0.025 A 
ATOM     13  C   UNL     1      -4.061 -16.883   7.290  1.00  0.00     0.016 A 
ATOM     14  C   UNL     1      -4.525 -16.566   6.010  1.00  0.00     0.051 A 
ATOM     15  C   UNL     1      -4.958 -15.268   5.717  1.00  0.00     0.157 A 
ATOM     16  C   UNL     1      -4.454 -14.599   7.995  1.00  0.00     0.062 A 
ATOM     17  C   UNL     1      -4.920 -14.279   6.715  1.00  0.00     0.158 A 
BRANCH  15  18
ATOM     18  O   UNL     1      -5.423 -14.956   4.440  1.00  0.00    -0.504 OA
ATOM     19  H   UNL     1      -5.755 -14.026   4.208  1.00  0.00     0.293 HD
ENDBRANCH  15  18
BRANCH  17  20
ATOM     20  O   UNL     1      -5.338 -12.974   6.452  1.00  0.00    -0.504 OA
ATOM     21  H   UNL     1      -4.792 -12.168   6.731  1.00  0.00     0.293 HD
ENDBRANCH  17  20
ENDBRANCH   1  12
BRANCH   2  22
ATOM     22  O   UNL     1      -3.245 -18.569   9.133  1.00  0.00    -0.502 OA
ATOM     23  H   UNL     1      -3.220 -19.537   9.431  1.00  0.00     0.293 HD
ENDBRANCH   2  22
BRANCH   6  24
ATOM     24  O   UNL     1      -1.641 -17.988  14.047  1.00  0.00    -0.507 OA
ATOM     25  H   UNL     1      -1.855 -18.860  13.576  1.00  0.00     0.293 HD
ENDBRANCH   6  24
BRANCH   8  26
ATOM     26  O   UNL     1      -2.483 -13.298  14.801  1.00  0.00    -0.508 OA
ATOM     27  H   UNL     1      -3.297 -12.711  14.940  1.00  0.00     0.293 HD
ENDBRANCH   8  26
TORSDOF 6
ENDMDL
