MODEL 1
REMARK VINA RESULT:    -4.707      0.000      0.000
REMARK INTER + INTRA:          -5.461
REMARK INTER:                  -5.257
REMARK INTRA:                  -0.204
REMARK UNBOUND:                -0.204
REMARK SMILES O=C([O-])c1ccccc1C(=O)[O-]
REMARK SMILES IDX 4 1 9 2 5 3 8 4 6 5 7 6 2 7 1 8 3 9 10 10 11 11 12 12
REMARK H PARENT
REMARK Flexibility Score: inf
ROOT
ATOM      1  C   UNL     1      22.575 -25.188  20.740  1.00  0.00     0.006 A 
ATOM      2  C   UNL     1      22.520 -24.531  22.001  1.00  0.00     0.006 A 
ATOM      3  C   UNL     1      23.490 -24.735  19.771  1.00  0.00     0.010 A 
ATOM      4  C   UNL     1      23.426 -23.488  22.269  1.00  0.00     0.010 A 
ATOM      5  C   UNL     1      24.364 -23.684  20.051  1.00  0.00     0.001 A 
ATOM      6  C   UNL     1      24.340 -23.070  21.301  1.00  0.00     0.001 A 
ENDROOT
BRANCH   1   7
ATOM      7  C   UNL     1      21.757 -26.382  20.426  1.00  0.00     0.072 C 
ATOM      8  O   UNL     1      22.246 -27.537  20.554  1.00  0.00    -0.545 OA
ATOM      9  O   UNL     1      20.425 -26.251  20.052  1.00  0.00    -0.545 OA
ENDBRANCH   1   7
BRANCH   2  10
ATOM     10  C   UNL     1      21.497 -24.850  23.023  1.00  0.00     0.072 C 
ATOM     11  O   UNL     1      21.805 -25.531  24.037  1.00  0.00    -0.545 OA
ATOM     12  O   UNL     1      20.205 -24.350  22.912  1.00  0.00    -0.545 OA
ENDBRANCH   2  10
TORSDOF 2
ENDMDL
MODEL 2
REMARK VINA RESULT:    -4.701      0.051      2.861
REMARK INTER + INTRA:          -5.454
REMARK INTER:                  -5.245
REMARK INTRA:                  -0.210
REMARK UNBOUND:                -0.204
REMARK SMILES O=C([O-])c1ccccc1C(=O)[O-]
REMARK SMILES IDX 4 1 9 2 5 3 8 4 6 5 7 6 2 7 1 8 3 9 10 10 11 11 12 12
REMARK H PARENT
REMARK Flexibility Score: inf
ROOT
ATOM      1  C   UNL     1      22.546 -24.532  21.993  1.00  0.00     0.006 A 
ATOM      2  C   UNL     1      22.607 -25.204  20.741  1.00  0.00     0.006 A 
ATOM      3  C   UNL     1      23.434 -23.469  22.244  1.00  0.00     0.010 A 
ATOM      4  C   UNL     1      23.511 -24.747  19.762  1.00  0.00     0.010 A 
ATOM      5  C   UNL     1      24.337 -23.047  21.268  1.00  0.00     0.001 A 
ATOM      6  C   UNL     1      24.367 -23.677  20.025  1.00  0.00     0.001 A 
ENDROOT
BRANCH   1   7
ATOM      7  C   UNL     1      21.533 -24.856  23.023  1.00  0.00     0.072 C 
ATOM      8  O   UNL     1      21.855 -25.524  24.042  1.00  0.00    -0.545 OA
ATOM      9  O   UNL     1      20.233 -24.375  22.916  1.00  0.00    -0.545 OA
ENDBRANCH   1   7
BRANCH   2  10
ATOM     10  C   UNL     1      21.810 -26.416  20.446  1.00  0.00     0.072 C 
ATOM     11  O   UNL     1      22.313 -27.560  20.609  1.00  0.00    -0.545 OA
ATOM     12  O   UNL     1      20.482 -26.312  20.049  1.00  0.00    -0.545 OA
ENDBRANCH   2  10
TORSDOF 2
ENDMDL
MODEL 3
REMARK VINA RESULT:    -4.509      1.754      2.965
REMARK INTER + INTRA:          -5.240
REMARK INTER:                  -5.047
REMARK INTRA:                  -0.192
REMARK UNBOUND:                -0.204
REMARK SMILES O=C([O-])c1ccccc1C(=O)[O-]
REMARK SMILES IDX 4 1 9 2 5 3 8 4 6 5 7 6 2 7 1 8 3 9 10 10 11 11 12 12
REMARK H PARENT
REMARK Flexibility Score: inf
ROOT
ATOM      1  C   UNL     1      22.721 -24.626  21.716  1.00  0.00     0.006 A 
ATOM      2  C   UNL     1      23.620 -23.524  21.676  1.00  0.00     0.006 A 
ATOM      3  C   UNL     1      22.563 -25.423  20.566  1.00  0.00     0.010 A 
ATOM      4  C   UNL     1      24.374 -23.298  20.509  1.00  0.00     0.010 A 
ATOM      5  C   UNL     1      23.304 -25.167  19.413  1.00  0.00     0.001 A 
ATOM      6  C   UNL     1      24.217 -24.114  19.388  1.00  0.00     0.001 A 
ENDROOT
BRANCH   1   7
ATOM      7  C   UNL     1      21.996 -25.019  22.946  1.00  0.00     0.072 C 
ATOM      8  O   UNL     1      20.779 -24.721  23.087  1.00  0.00    -0.545 OA
ATOM      9  O   UNL     1      22.623 -25.777  23.928  1.00  0.00    -0.545 OA
ENDBRANCH   1   7
BRANCH   2  10
ATOM     10  C   UNL     1      23.744 -22.555  22.788  1.00  0.00     0.072 C 
ATOM     11  O   UNL     1      24.811 -22.487  23.454  1.00  0.00    -0.545 OA
ATOM     12  O   UNL     1      22.715 -21.664  23.070  1.00  0.00    -0.545 OA
ENDBRANCH   2  10
TORSDOF 2
ENDMDL
MODEL 4
REMARK VINA RESULT:    -4.424      1.665      3.426
REMARK INTER + INTRA:          -5.145
REMARK INTER:                  -4.916
REMARK INTRA:                  -0.229
REMARK UNBOUND:                -0.204
REMARK SMILES O=C([O-])c1ccccc1C(=O)[O-]
REMARK SMILES IDX 4 1 9 2 5 3 8 4 6 5 7 6 2 7 1 8 3 9 10 10 11 11 12 12
REMARK H PARENT
REMARK Flexibility Score: inf
ROOT
ATOM      1  C   UNL     1      23.544 -23.396  21.999  1.00  0.00     0.006 A 
ATOM      2  C   UNL     1      22.685 -24.529  21.954  1.00  0.00     0.006 A 
ATOM      3  C   UNL     1      24.360 -23.112  20.888  1.00  0.00     0.010 A 
ATOM      4  C   UNL     1      22.627 -25.298  20.777  1.00  0.00     0.010 A 
ATOM      5  C   UNL     1      24.303 -23.902  19.740  1.00  0.00     0.001 A 
ATOM      6  C   UNL     1      23.430 -24.985  19.680  1.00  0.00     0.001 A 
ENDROOT
BRANCH   1   7
ATOM      7  C   UNL     1      23.563 -22.454  23.141  1.00  0.00     0.072 C 
ATOM      8  O   UNL     1      22.725 -21.514  23.202  1.00  0.00    -0.545 OA
ATOM      9  O   UNL     1      24.457 -22.630  24.191  1.00  0.00    -0.545 OA
ENDBRANCH   1   7
BRANCH   2  10
ATOM     10  C   UNL     1      21.898 -24.980  23.125  1.00  0.00     0.072 C 
ATOM     11  O   UNL     1      22.438 -25.688  24.016  1.00  0.00    -0.545 OA
ATOM     12  O   UNL     1      20.578 -24.578  23.290  1.00  0.00    -0.545 OA
ENDBRANCH   2  10
TORSDOF 2
ENDMDL
MODEL 5
REMARK VINA RESULT:    -4.361      3.058      5.128
REMARK INTER + INTRA:          -5.075
REMARK INTER:                  -4.876
REMARK INTRA:                  -0.199
REMARK UNBOUND:                -0.204
REMARK SMILES O=C([O-])c1ccccc1C(=O)[O-]
REMARK SMILES IDX 4 1 9 2 5 3 8 4 6 5 7 6 2 7 1 8 3 9 10 10 11 11 12 12
REMARK H PARENT
REMARK Flexibility Score: inf
ROOT
ATOM      1  C   UNL     1      20.293 -27.674  21.096  1.00  0.00     0.006 A 
ATOM      2  C   UNL     1      21.471 -28.447  21.294  1.00  0.00     0.006 A 
ATOM      3  C   UNL     1      19.049 -28.328  21.024  1.00  0.00     0.010 A 
ATOM      4  C   UNL     1      21.353 -29.838  21.476  1.00  0.00     0.010 A 
ATOM      5  C   UNL     1      18.958 -29.711  21.184  1.00  0.00     0.001 A 
ATOM      6  C   UNL     1      20.107 -30.463  21.422  1.00  0.00     0.001 A 
ENDROOT
BRANCH   1   7
ATOM      7  C   UNL     1      20.311 -26.195  21.036  1.00  0.00     0.072 C 
ATOM      8  O   UNL     1      20.502 -25.606  19.937  1.00  0.00    -0.545 OA
ATOM      9  O   UNL     1      20.053 -25.435  22.171  1.00  0.00    -0.545 OA
ENDBRANCH   1   7
BRANCH   2  10
ATOM     10  C   UNL     1      22.829 -27.860  21.243  1.00  0.00     0.072 C 
ATOM     11  O   UNL     1      23.495 -27.710  22.302  1.00  0.00    -0.545 OA
ATOM     12  O   UNL     1      23.412 -27.528  20.026  1.00  0.00    -0.545 OA
ENDBRANCH   2  10
TORSDOF 2
ENDMDL
MODEL 6
REMARK VINA RESULT:    -4.356     10.924     11.414
REMARK INTER + INTRA:          -5.069
REMARK INTER:                  -4.862
REMARK INTRA:                  -0.207
REMARK UNBOUND:                -0.204
REMARK SMILES O=C([O-])c1ccccc1C(=O)[O-]
REMARK SMILES IDX 4 1 9 2 5 3 8 4 6 5 7 6 2 7 1 8 3 9 10 10 11 11 12 12
REMARK H PARENT
REMARK Flexibility Score: inf
ROOT
ATOM      1  C   UNL     1      14.590 -32.998  21.563  1.00  0.00     0.006 A 
ATOM      2  C   UNL     1      14.648 -32.733  22.960  1.00  0.00     0.006 A 
ATOM      3  C   UNL     1      13.590 -32.377  20.790  1.00  0.00     0.010 A 
ATOM      4  C   UNL     1      13.746 -31.810  23.520  1.00  0.00     0.010 A 
ATOM      5  C   UNL     1      12.692 -31.482  21.371  1.00  0.00     0.001 A 
ATOM      6  C   UNL     1      12.777 -31.190  22.731  1.00  0.00     0.001 A 
ENDROOT
BRANCH   1   7
ATOM      7  C   UNL     1      15.586 -33.845  20.870  1.00  0.00     0.072 C 
ATOM      8  O   UNL     1      16.696 -33.361  20.519  1.00  0.00    -0.545 OA
ATOM      9  O   UNL     1      15.342 -35.197  20.654  1.00  0.00    -0.545 OA
ENDBRANCH   1   7
BRANCH   2  10
ATOM     10  C   UNL     1      15.574 -33.447  23.869  1.00  0.00     0.072 C 
ATOM     11  O   UNL     1      15.330 -34.632  24.220  1.00  0.00    -0.545 OA
ATOM     12  O   UNL     1      16.753 -32.847  24.294  1.00  0.00    -0.545 OA
ENDBRANCH   2  10
TORSDOF 2
ENDMDL
MODEL 7
REMARK VINA RESULT:    -4.334      9.762     11.400
REMARK INTER + INTRA:          -5.044
REMARK INTER:                  -4.830
REMARK INTRA:                  -0.214
REMARK UNBOUND:                -0.204
REMARK SMILES O=C([O-])c1ccccc1C(=O)[O-]
REMARK SMILES IDX 4 1 9 2 5 3 8 4 6 5 7 6 2 7 1 8 3 9 10 10 11 11 12 12
REMARK H PARENT
REMARK Flexibility Score: inf
ROOT
ATOM      1  C   UNL     1      17.209 -34.226  20.692  1.00  0.00     0.006 A 
ATOM      2  C   UNL     1      18.134 -35.198  20.219  1.00  0.00     0.006 A 
ATOM      3  C   UNL     1      17.660 -32.917  20.942  1.00  0.00     0.010 A 
ATOM      4  C   UNL     1      19.461 -34.809  19.954  1.00  0.00     0.010 A 
ATOM      5  C   UNL     1      18.985 -32.558  20.694  1.00  0.00     0.001 A 
ATOM      6  C   UNL     1      19.881 -33.499  20.189  1.00  0.00     0.001 A 
ENDROOT
BRANCH   1   7
ATOM      7  C   UNL     1      15.767 -34.515  20.862  1.00  0.00     0.072 C 
ATOM      8  O   UNL     1      15.329 -34.927  21.970  1.00  0.00    -0.545 OA
ATOM      9  O   UNL     1      14.868 -34.273  19.830  1.00  0.00    -0.545 OA
ENDBRANCH   1   7
BRANCH   2  10
ATOM     10  C   UNL     1      17.780 -36.627  20.063  1.00  0.00     0.072 C 
ATOM     11  O   UNL     1      17.415 -37.071  18.942  1.00  0.00    -0.545 OA
ATOM     12  O   UNL     1      17.908 -37.510  21.129  1.00  0.00    -0.545 OA
ENDBRANCH   2  10
TORSDOF 2
ENDMDL
MODEL 8
REMARK VINA RESULT:    -4.330      9.083     10.267
REMARK INTER + INTRA:          -5.040
REMARK INTER:                  -4.830
REMARK INTRA:                  -0.210
REMARK UNBOUND:                -0.204
REMARK SMILES O=C([O-])c1ccccc1C(=O)[O-]
REMARK SMILES IDX 4 1 9 2 5 3 8 4 6 5 7 6 2 7 1 8 3 9 10 10 11 11 12 12
REMARK H PARENT
REMARK Flexibility Score: inf
ROOT
ATOM      1  C   UNL     1      15.811 -32.558  21.358  1.00  0.00     0.006 A 
ATOM      2  C   UNL     1      14.932 -31.511  21.755  1.00  0.00     0.006 A 
ATOM      3  C   UNL     1      17.166 -32.261  21.120  1.00  0.00     0.010 A 
ATOM      4  C   UNL     1      15.455 -30.220  21.961  1.00  0.00     0.010 A 
ATOM      5  C   UNL     1      17.658 -30.969  21.309  1.00  0.00     0.001 A 
ATOM      6  C   UNL     1      16.806 -29.954  21.740  1.00  0.00     0.001 A 
ENDROOT
BRANCH   1   7
ATOM      7  C   UNL     1      15.374 -33.969  21.255  1.00  0.00     0.072 C 
ATOM      8  O   UNL     1      15.385 -34.712  22.272  1.00  0.00    -0.545 OA
ATOM      9  O   UNL     1      14.886 -34.475  20.055  1.00  0.00    -0.545 OA
ENDBRANCH   1   7
BRANCH   2  10
ATOM     10  C   UNL     1      13.471 -31.704  21.890  1.00  0.00     0.072 C 
ATOM     11  O   UNL     1      12.931 -31.683  23.028  1.00  0.00    -0.545 OA
ATOM     12  O   UNL     1      12.667 -31.844  20.765  1.00  0.00    -0.545 OA
ENDBRANCH   2  10
TORSDOF 2
ENDMDL
MODEL 9
REMARK VINA RESULT:    -4.311      9.151     10.665
REMARK INTER + INTRA:          -5.019
REMARK INTER:                  -4.799
REMARK INTRA:                  -0.220
REMARK UNBOUND:                -0.204
REMARK SMILES O=C([O-])c1ccccc1C(=O)[O-]
REMARK SMILES IDX 4 1 9 2 5 3 8 4 6 5 7 6 2 7 1 8 3 9 10 10 11 11 12 12
REMARK H PARENT
REMARK Flexibility Score: inf
ROOT
ATOM      1  C   UNL     1      15.184 -31.784  23.023  1.00  0.00     0.006 A 
ATOM      2  C   UNL     1      15.668 -32.469  21.874  1.00  0.00     0.006 A 
ATOM      3  C   UNL     1      15.944 -30.729  23.563  1.00  0.00     0.010 A 
ATOM      4  C   UNL     1      16.862 -32.033  21.270  1.00  0.00     0.010 A 
ATOM      5  C   UNL     1      17.137 -30.328  22.961  1.00  0.00     0.001 A 
ATOM      6  C   UNL     1      17.589 -30.971  21.810  1.00  0.00     0.001 A 
ENDROOT
BRANCH   1   7
ATOM      7  C   UNL     1      13.870 -32.085  23.637  1.00  0.00     0.072 C 
ATOM      8  O   UNL     1      13.802 -32.810  24.665  1.00  0.00    -0.545 OA
ATOM      9  O   UNL     1      12.704 -31.522  23.130  1.00  0.00    -0.545 OA
ENDBRANCH   1   7
BRANCH   2  10
ATOM     10  C   UNL     1      15.006 -33.675  21.326  1.00  0.00     0.072 C 
ATOM     11  O   UNL     1      14.212 -33.574  20.353  1.00  0.00    -0.545 OA
ATOM     12  O   UNL     1      15.300 -34.936  21.830  1.00  0.00    -0.545 OA
ENDBRANCH   2  10
TORSDOF 2
ENDMDL
