MODEL 1
REMARK VINA RESULT:    -7.351      0.000      0.000
REMARK INTER + INTRA:          -9.374
REMARK INTER:                  -9.070
REMARK INTRA:                  -0.304
REMARK UNBOUND:                -0.304
REMARK SMILES COc1cc(-c2oc3cc(O)cc(O)c3c(=O)c2O)ccc1O
REMARK SMILES IDX 6 1 18 2 16 3 17 4 15 5 13 6 12 7 10 8 9 9 8 10 7 11 5 12
REMARK SMILES IDX 3 13 22 14 4 15 21 16 20 17 2 18 1 19 23 20 19 22 14 24
REMARK SMILES IDX 11 26
REMARK H PARENT 23 21 19 23 14 25 11 27
REMARK Flexibility Score: inf
ROOT
ATOM      1  C   UNL     1      15.061 -32.529 -19.859  1.00  0.00     0.180 A 
ATOM      2  C   UNL     1      15.184 -31.135 -19.982  1.00  0.00     0.208 A 
ATOM      3  C   UNL     1      16.347 -30.601 -20.560  1.00  0.00     0.238 A 
ATOM      4  O   UNL     1      16.429 -29.356 -20.717  1.00  0.00    -0.285 OA
ATOM      5  C   UNL     1      17.379 -31.469 -20.994  1.00  0.00     0.111 A 
ATOM      6  C   UNL     1      18.617 -31.038 -21.557  1.00  0.00     0.134 A 
ATOM      7  C   UNL     1      19.509 -31.986 -22.072  1.00  0.00     0.093 A 
ATOM      8  C   UNL     1      19.237 -33.354 -21.984  1.00  0.00     0.123 A 
ATOM      9  C   UNL     1      18.058 -33.787 -21.382  1.00  0.00     0.094 A 
ATOM     10  C   UNL     1      17.132 -32.863 -20.892  1.00  0.00     0.146 A 
ATOM     11  O   UNL     1      16.016 -33.319 -20.336  1.00  0.00    -0.452 OA
ENDROOT
BRANCH   1  12
ATOM     12  C   UNL     1      13.875 -33.163 -19.237  1.00  0.00     0.025 A 
ATOM     13  C   UNL     1      11.510 -33.781 -19.295  1.00  0.00     0.161 A 
ATOM     14  C   UNL     1      11.629 -34.326 -17.993  1.00  0.00     0.157 A 
ATOM     15  C   UNL     1      12.635 -33.201 -19.897  1.00  0.00     0.062 A 
ATOM     16  C   UNL     1      12.863 -34.268 -17.329  1.00  0.00     0.051 A 
ATOM     17  C   UNL     1      13.973 -33.685 -17.941  1.00  0.00     0.016 A 
BRANCH  13  18
ATOM     18  O   UNL     1      10.316 -33.775 -20.038  1.00  0.00    -0.493 OA
ATOM     19  C   UNL     1       9.665 -32.628 -20.573  1.00  0.00     0.278 C 
ENDBRANCH  13  18
BRANCH  14  20
ATOM     20  O   UNL     1      10.544 -34.920 -17.352  1.00  0.00    -0.504 OA
ATOM     21  H   UNL     1      10.449 -35.927 -17.283  1.00  0.00     0.293 HD
ENDBRANCH  14  20
ENDBRANCH   1  12
BRANCH   2  22
ATOM     22  O   UNL     1      14.145 -30.297 -19.566  1.00  0.00    -0.502 OA
ATOM     23  H   UNL     1      13.995 -30.056 -18.594  1.00  0.00     0.293 HD
ENDBRANCH   2  22
BRANCH   6  24
ATOM     24  O   UNL     1      19.027 -29.702 -21.611  1.00  0.00    -0.507 OA
ATOM     25  H   UNL     1      19.828 -29.367 -22.124  1.00  0.00     0.293 HD
ENDBRANCH   6  24
BRANCH   8  26
ATOM     26  O   UNL     1      20.138 -34.291 -22.484  1.00  0.00    -0.508 OA
ATOM     27  H   UNL     1      20.310 -35.169 -22.008  1.00  0.00     0.293 HD
ENDBRANCH   8  26
TORSDOF 6
ENDMDL
MODEL 2
REMARK VINA RESULT:    -7.156      1.637      7.031
REMARK INTER + INTRA:          -9.134
REMARK INTER:                  -9.313
REMARK INTRA:                   0.179
REMARK UNBOUND:                -0.304
REMARK SMILES COc1cc(-c2oc3cc(O)cc(O)c3c(=O)c2O)ccc1O
REMARK SMILES IDX 6 1 18 2 16 3 17 4 15 5 13 6 12 7 10 8 9 9 8 10 7 11 5 12
REMARK SMILES IDX 3 13 22 14 4 15 21 16 20 17 2 18 1 19 23 20 19 22 14 24
REMARK SMILES IDX 11 26
REMARK H PARENT 23 21 19 23 14 25 11 27
REMARK Flexibility Score: inf
ROOT
ATOM      1  C   UNL     1      14.308 -32.090 -20.123  1.00  0.00     0.180 A 
ATOM      2  C   UNL     1      13.411 -31.009 -20.098  1.00  0.00     0.208 A 
ATOM      3  C   UNL     1      12.069 -31.244 -19.756  1.00  0.00     0.238 A 
ATOM      4  O   UNL     1      11.282 -30.265 -19.683  1.00  0.00    -0.285 OA
ATOM      5  C   UNL     1      11.638 -32.560 -19.460  1.00  0.00     0.111 A 
ATOM      6  C   UNL     1      10.295 -32.920 -19.141  1.00  0.00     0.134 A 
ATOM      7  C   UNL     1      10.009 -34.230 -18.737  1.00  0.00     0.093 A 
ATOM      8  C   UNL     1      11.006 -35.209 -18.704  1.00  0.00     0.123 A 
ATOM      9  C   UNL     1      12.309 -34.880 -19.070  1.00  0.00     0.094 A 
ATOM     10  C   UNL     1      12.632 -33.573 -19.444  1.00  0.00     0.146 A 
ATOM     11  O   UNL     1      13.889 -33.301 -19.775  1.00  0.00    -0.452 OA
ENDROOT
BRANCH   1  12
ATOM     12  C   UNL     1      15.731 -31.924 -20.497  1.00  0.00     0.025 A 
ATOM     13  C   UNL     1      17.778 -30.588 -20.560  1.00  0.00     0.161 A 
ATOM     14  C   UNL     1      18.422 -31.623 -21.281  1.00  0.00     0.157 A 
ATOM     15  C   UNL     1      16.439 -30.751 -20.183  1.00  0.00     0.062 A 
ATOM     16  C   UNL     1      17.707 -32.784 -21.612  1.00  0.00     0.051 A 
ATOM     17  C   UNL     1      16.372 -32.930 -21.231  1.00  0.00     0.016 A 
BRANCH  13  18
ATOM     18  O   UNL     1      18.401 -29.381 -20.193  1.00  0.00    -0.493 OA
ATOM     19  C   UNL     1      18.221 -28.682 -18.967  1.00  0.00     0.278 C 
ENDBRANCH  13  18
BRANCH  14  20
ATOM     20  O   UNL     1      19.754 -31.515 -21.674  1.00  0.00    -0.504 OA
ATOM     21  H   UNL     1      20.504 -31.417 -20.999  1.00  0.00     0.293 HD
ENDBRANCH  14  20
ENDBRANCH   1  12
BRANCH   2  22
ATOM     22  O   UNL     1      13.861 -29.714 -20.373  1.00  0.00    -0.502 OA
ATOM     23  H   UNL     1      13.830 -29.313 -21.302  1.00  0.00     0.293 HD
ENDBRANCH   2  22
BRANCH   6  24
ATOM     24  O   UNL     1       9.210 -32.044 -19.230  1.00  0.00    -0.507 OA
ATOM     25  H   UNL     1       9.286 -31.042 -19.314  1.00  0.00     0.293 HD
ENDBRANCH   6  24
BRANCH   8  26
ATOM     26  O   UNL     1      10.709 -36.513 -18.316  1.00  0.00    -0.508 OA
ATOM     27  H   UNL     1       9.973 -37.045 -18.765  1.00  0.00     0.293 HD
ENDBRANCH   8  26
TORSDOF 6
ENDMDL
MODEL 3
REMARK VINA RESULT:    -7.074      0.750      1.897
REMARK INTER + INTRA:          -9.032
REMARK INTER:                  -8.698
REMARK INTRA:                  -0.335
REMARK UNBOUND:                -0.304
REMARK SMILES COc1cc(-c2oc3cc(O)cc(O)c3c(=O)c2O)ccc1O
REMARK SMILES IDX 6 1 18 2 16 3 17 4 15 5 13 6 12 7 10 8 9 9 8 10 7 11 5 12
REMARK SMILES IDX 3 13 22 14 4 15 21 16 20 17 2 18 1 19 23 20 19 22 14 24
REMARK SMILES IDX 11 26
REMARK H PARENT 23 21 19 23 14 25 11 27
REMARK Flexibility Score: inf
ROOT
ATOM      1  C   UNL     1      14.830 -32.410 -19.966  1.00  0.00     0.180 A 
ATOM      2  C   UNL     1      15.022 -31.021 -20.055  1.00  0.00     0.208 A 
ATOM      3  C   UNL     1      16.240 -30.531 -20.554  1.00  0.00     0.238 A 
ATOM      4  O   UNL     1      16.386 -29.288 -20.682  1.00  0.00    -0.285 OA
ATOM      5  C   UNL     1      17.256 -31.437 -20.944  1.00  0.00     0.111 A 
ATOM      6  C   UNL     1      18.543 -31.053 -21.425  1.00  0.00     0.134 A 
ATOM      7  C   UNL     1      19.421 -32.033 -21.905  1.00  0.00     0.093 A 
ATOM      8  C   UNL     1      19.085 -33.388 -21.858  1.00  0.00     0.123 A 
ATOM      9  C   UNL     1      17.854 -33.777 -21.335  1.00  0.00     0.094 A 
ATOM     10  C   UNL     1      16.942 -32.821 -20.882  1.00  0.00     0.146 A 
ATOM     11  O   UNL     1      15.776 -33.234 -20.401  1.00  0.00    -0.452 OA
ENDROOT
BRANCH   1  12
ATOM     12  C   UNL     1      13.583 -33.000 -19.427  1.00  0.00     0.025 A 
ATOM     13  C   UNL     1      12.368 -34.167 -17.654  1.00  0.00     0.161 A 
ATOM     14  C   UNL     1      11.204 -34.163 -18.462  1.00  0.00     0.157 A 
ATOM     15  C   UNL     1      13.544 -33.589 -18.151  1.00  0.00     0.062 A 
ATOM     16  C   UNL     1      11.252 -33.593 -19.743  1.00  0.00     0.051 A 
ATOM     17  C   UNL     1      12.432 -33.024 -20.224  1.00  0.00     0.016 A 
BRANCH  13  18
ATOM     18  O   UNL     1      12.428 -34.726 -16.365  1.00  0.00    -0.493 OA
ATOM     19  C   UNL     1      12.110 -34.063 -15.147  1.00  0.00     0.278 C 
ENDBRANCH  13  18
BRANCH  14  20
ATOM     20  O   UNL     1      10.007 -34.718 -18.013  1.00  0.00    -0.504 OA
ATOM     21  H   UNL     1       9.449 -34.273 -17.293  1.00  0.00     0.293 HD
ENDBRANCH  14  20
ENDBRANCH   1  12
BRANCH   2  22
ATOM     22  O   UNL     1      13.998 -30.144 -19.685  1.00  0.00    -0.502 OA
ATOM     23  H   UNL     1      13.099 -30.129 -20.151  1.00  0.00     0.293 HD
ENDBRANCH   2  22
BRANCH   6  24
ATOM     24  O   UNL     1      19.014 -29.737 -21.430  1.00  0.00    -0.507 OA
ATOM     25  H   UNL     1      19.974 -29.470 -21.280  1.00  0.00     0.293 HD
ENDBRANCH   6  24
BRANCH   8  26
ATOM     26  O   UNL     1      19.971 -34.357 -22.323  1.00  0.00    -0.508 OA
ATOM     27  H   UNL     1      19.793 -34.873 -23.177  1.00  0.00     0.293 HD
ENDBRANCH   8  26
TORSDOF 6
ENDMDL
MODEL 4
REMARK VINA RESULT:    -6.890      3.233      7.650
REMARK INTER + INTRA:          -8.805
REMARK INTER:                  -8.410
REMARK INTRA:                  -0.395
REMARK UNBOUND:                -0.304
REMARK SMILES COc1cc(-c2oc3cc(O)cc(O)c3c(=O)c2O)ccc1O
REMARK SMILES IDX 6 1 18 2 16 3 17 4 15 5 13 6 12 7 10 8 9 9 8 10 7 11 5 12
REMARK SMILES IDX 3 13 22 14 4 15 21 16 20 17 2 18 1 19 23 20 19 22 14 24
REMARK SMILES IDX 11 26
REMARK H PARENT 23 21 19 23 14 25 11 27
REMARK Flexibility Score: inf
ROOT
ATOM      1  C   UNL     1      17.632 -29.513 -21.430  1.00  0.00     0.180 A 
ATOM      2  C   UNL     1      17.743 -29.368 -20.036  1.00  0.00     0.208 A 
ATOM      3  C   UNL     1      16.991 -30.209 -19.201  1.00  0.00     0.238 A 
ATOM      4  O   UNL     1      17.135 -30.111 -17.955  1.00  0.00    -0.285 OA
ATOM      5  C   UNL     1      16.123 -31.173 -19.769  1.00  0.00     0.111 A 
ATOM      6  C   UNL     1      15.283 -32.049 -19.020  1.00  0.00     0.134 A 
ATOM      7  C   UNL     1      14.565 -33.052 -19.683  1.00  0.00     0.093 A 
ATOM      8  C   UNL     1      14.604 -33.166 -21.075  1.00  0.00     0.123 A 
ATOM      9  C   UNL     1      15.375 -32.278 -21.820  1.00  0.00     0.094 A 
ATOM     10  C   UNL     1      16.132 -31.290 -21.184  1.00  0.00     0.146 A 
ATOM     11  O   UNL     1      16.861 -30.470 -21.932  1.00  0.00    -0.452 OA
ENDROOT
BRANCH   1  12
ATOM     12  C   UNL     1      18.375 -28.647 -22.373  1.00  0.00     0.025 A 
ATOM     13  C   UNL     1      18.557 -26.600 -23.700  1.00  0.00     0.161 A 
ATOM     14  C   UNL     1      19.795 -27.056 -24.217  1.00  0.00     0.157 A 
ATOM     15  C   UNL     1      17.862 -27.406 -22.788  1.00  0.00     0.062 A 
ATOM     16  C   UNL     1      20.295 -28.304 -23.817  1.00  0.00     0.051 A 
ATOM     17  C   UNL     1      19.588 -29.096 -22.911  1.00  0.00     0.016 A 
BRANCH  13  18
ATOM     18  O   UNL     1      17.963 -25.374 -24.048  1.00  0.00    -0.493 OA
ATOM     19  C   UNL     1      16.616 -25.181 -24.464  1.00  0.00     0.278 C 
ENDBRANCH  13  18
BRANCH  14  20
ATOM     20  O   UNL     1      20.530 -26.291 -25.120  1.00  0.00    -0.504 OA
ATOM     21  H   UNL     1      20.623 -26.557 -26.094  1.00  0.00     0.293 HD
ENDBRANCH  14  20
ENDBRANCH   1  12
BRANCH   2  22
ATOM     22  O   UNL     1      18.622 -28.424 -19.495  1.00  0.00    -0.502 OA
ATOM     23  H   UNL     1      19.158 -28.599 -18.654  1.00  0.00     0.293 HD
ENDBRANCH   2  22
BRANCH   6  24
ATOM     24  O   UNL     1      15.100 -31.962 -17.636  1.00  0.00    -0.507 OA
ATOM     25  H   UNL     1      14.726 -32.698 -17.059  1.00  0.00     0.293 HD
ENDBRANCH   6  24
BRANCH   8  26
ATOM     26  O   UNL     1      13.874 -34.157 -21.727  1.00  0.00    -0.508 OA
ATOM     27  H   UNL     1      13.213 -33.931 -22.461  1.00  0.00     0.293 HD
ENDBRANCH   8  26
TORSDOF 6
ENDMDL
MODEL 5
REMARK VINA RESULT:    -6.845      1.508      7.372
REMARK INTER + INTRA:          -8.749
REMARK INTER:                  -8.384
REMARK INTRA:                  -0.365
REMARK UNBOUND:                -0.304
REMARK SMILES COc1cc(-c2oc3cc(O)cc(O)c3c(=O)c2O)ccc1O
REMARK SMILES IDX 6 1 18 2 16 3 17 4 15 5 13 6 12 7 10 8 9 9 8 10 7 11 5 12
REMARK SMILES IDX 3 13 22 14 4 15 21 16 20 17 2 18 1 19 23 20 19 22 14 24
REMARK SMILES IDX 11 26
REMARK H PARENT 23 21 19 23 14 25 11 27
REMARK Flexibility Score: inf
ROOT
ATOM      1  C   UNL     1      14.476 -32.918 -19.608  1.00  0.00     0.180 A 
ATOM      2  C   UNL     1      14.400 -33.719 -18.456  1.00  0.00     0.208 A 
ATOM      3  C   UNL     1      13.139 -34.128 -17.992  1.00  0.00     0.238 A 
ATOM      4  O   UNL     1      13.079 -34.890 -16.992  1.00  0.00    -0.285 OA
ATOM      5  C   UNL     1      11.970 -33.715 -18.676  1.00  0.00     0.111 A 
ATOM      6  C   UNL     1      10.640 -34.035 -18.271  1.00  0.00     0.134 A 
ATOM      7  C   UNL     1       9.564 -33.683 -19.097  1.00  0.00     0.093 A 
ATOM      8  C   UNL     1       9.766 -32.966 -20.278  1.00  0.00     0.123 A 
ATOM      9  C   UNL     1      11.056 -32.597 -20.651  1.00  0.00     0.094 A 
ATOM     10  C   UNL     1      12.153 -32.965 -19.867  1.00  0.00     0.146 A 
ATOM     11  O   UNL     1      13.366 -32.602 -20.264  1.00  0.00    -0.452 OA
ENDROOT
BRANCH   1  12
ATOM     12  C   UNL     1      15.768 -32.429 -20.142  1.00  0.00     0.025 A 
ATOM     13  C   UNL     1      17.418 -30.648 -20.437  1.00  0.00     0.161 A 
ATOM     14  C   UNL     1      18.206 -31.520 -21.227  1.00  0.00     0.157 A 
ATOM     15  C   UNL     1      16.206 -31.114 -19.910  1.00  0.00     0.062 A 
ATOM     16  C   UNL     1      17.756 -32.826 -21.476  1.00  0.00     0.051 A 
ATOM     17  C   UNL     1      16.546 -33.273 -20.945  1.00  0.00     0.016 A 
BRANCH  13  18
ATOM     18  O   UNL     1      17.771 -29.318 -20.144  1.00  0.00    -0.493 OA
ATOM     19  C   UNL     1      18.198 -28.822 -18.880  1.00  0.00     0.278 C 
ENDBRANCH  13  18
BRANCH  14  20
ATOM     20  O   UNL     1      19.422 -31.109 -21.770  1.00  0.00    -0.504 OA
ATOM     21  H   UNL     1      20.060 -31.764 -22.208  1.00  0.00     0.293 HD
ENDBRANCH  14  20
ENDBRANCH   1  12
BRANCH   2  22
ATOM     22  O   UNL     1      15.568 -34.134 -17.808  1.00  0.00    -0.502 OA
ATOM     23  H   UNL     1      15.680 -35.067 -17.434  1.00  0.00     0.293 HD
ENDBRANCH   2  22
BRANCH   6  24
ATOM     24  O   UNL     1      10.321 -34.668 -17.066  1.00  0.00    -0.507 OA
ATOM     25  H   UNL     1       9.415 -34.638 -16.624  1.00  0.00     0.293 HD
ENDBRANCH   6  24
BRANCH   8  26
ATOM     26  O   UNL     1       8.689 -32.607 -21.085  1.00  0.00    -0.508 OA
ATOM     27  H   UNL     1       7.865 -32.158 -20.701  1.00  0.00     0.293 HD
ENDBRANCH   8  26
TORSDOF 6
ENDMDL
MODEL 6
REMARK VINA RESULT:    -6.737      1.789      3.224
REMARK INTER + INTRA:          -8.617
REMARK INTER:                  -8.222
REMARK INTRA:                  -0.395
REMARK UNBOUND:                -0.304
REMARK SMILES COc1cc(-c2oc3cc(O)cc(O)c3c(=O)c2O)ccc1O
REMARK SMILES IDX 6 1 18 2 16 3 17 4 15 5 13 6 12 7 10 8 9 9 8 10 7 11 5 12
REMARK SMILES IDX 3 13 22 14 4 15 21 16 20 17 2 18 1 19 23 20 19 22 14 24
REMARK SMILES IDX 11 26
REMARK H PARENT 23 21 19 23 14 25 11 27
REMARK Flexibility Score: inf
ROOT
ATOM      1  C   UNL     1      14.688 -32.359 -19.538  1.00  0.00     0.180 A 
ATOM      2  C   UNL     1      15.578 -32.641 -20.587  1.00  0.00     0.208 A 
ATOM      3  C   UNL     1      16.727 -31.847 -20.738  1.00  0.00     0.238 A 
ATOM      4  O   UNL     1      17.548 -32.137 -21.646  1.00  0.00    -0.285 OA
ATOM      5  C   UNL     1      16.962 -30.772 -19.847  1.00  0.00     0.111 A 
ATOM      6  C   UNL     1      18.070 -29.878 -19.931  1.00  0.00     0.134 A 
ATOM      7  C   UNL     1      18.272 -28.931 -18.918  1.00  0.00     0.093 A 
ATOM      8  C   UNL     1      17.368 -28.803 -17.861  1.00  0.00     0.123 A 
ATOM      9  C   UNL     1      16.250 -29.632 -17.802  1.00  0.00     0.094 A 
ATOM     10  C   UNL     1      16.041 -30.610 -18.778  1.00  0.00     0.146 A 
ATOM     11  O   UNL     1      14.969 -31.386 -18.679  1.00  0.00    -0.452 OA
ENDROOT
BRANCH   1  12
ATOM     12  C   UNL     1      13.444 -33.136 -19.331  1.00  0.00     0.025 A 
ATOM     13  C   UNL     1      11.089 -33.566 -19.831  1.00  0.00     0.161 A 
ATOM     14  C   UNL     1      11.082 -34.602 -18.864  1.00  0.00     0.157 A 
ATOM     15  C   UNL     1      12.270 -32.844 -20.046  1.00  0.00     0.062 A 
ATOM     16  C   UNL     1      12.249 -34.877 -18.136  1.00  0.00     0.051 A 
ATOM     17  C   UNL     1      13.416 -34.147 -18.361  1.00  0.00     0.016 A 
BRANCH  13  18
ATOM     18  O   UNL     1       9.970 -33.202 -20.600  1.00  0.00    -0.493 OA
ATOM     19  C   UNL     1       9.247 -31.979 -20.505  1.00  0.00     0.278 C 
ENDBRANCH  13  18
BRANCH  14  20
ATOM     20  O   UNL     1       9.936 -35.355 -18.616  1.00  0.00    -0.504 OA
ATOM     21  H   UNL     1       9.440 -35.298 -17.734  1.00  0.00     0.293 HD
ENDBRANCH  14  20
ENDBRANCH   1  12
BRANCH   2  22
ATOM     22  O   UNL     1      15.339 -33.720 -21.443  1.00  0.00    -0.502 OA
ATOM     23  H   UNL     1      15.318 -33.622 -22.450  1.00  0.00     0.293 HD
ENDBRANCH   2  22
BRANCH   6  24
ATOM     24  O   UNL     1      18.981 -29.860 -20.992  1.00  0.00    -0.507 OA
ATOM     25  H   UNL     1      18.953 -29.210 -21.761  1.00  0.00     0.293 HD
ENDBRANCH   6  24
BRANCH   8  26
ATOM     26  O   UNL     1      17.568 -27.849 -16.866  1.00  0.00    -0.508 OA
ATOM     27  H   UNL     1      17.784 -28.115 -15.912  1.00  0.00     0.293 HD
ENDBRANCH   8  26
TORSDOF 6
ENDMDL
MODEL 7
REMARK VINA RESULT:    -6.699     11.441     13.935
REMARK INTER + INTRA:          -8.569
REMARK INTER:                  -8.177
REMARK INTRA:                  -0.392
REMARK UNBOUND:                -0.304
REMARK SMILES COc1cc(-c2oc3cc(O)cc(O)c3c(=O)c2O)ccc1O
REMARK SMILES IDX 6 1 18 2 16 3 17 4 15 5 13 6 12 7 10 8 9 9 8 10 7 11 5 12
REMARK SMILES IDX 3 13 22 14 4 15 21 16 20 17 2 18 1 19 23 20 19 22 14 24
REMARK SMILES IDX 11 26
REMARK H PARENT 23 21 19 23 14 25 11 27
REMARK Flexibility Score: inf
ROOT
ATOM      1  C   UNL     1       8.094 -24.118 -13.779  1.00  0.00     0.180 A 
ATOM      2  C   UNL     1       6.986 -23.631 -13.066  1.00  0.00     0.208 A 
ATOM      3  C   UNL     1       6.328 -22.481 -13.531  1.00  0.00     0.238 A 
ATOM      4  O   UNL     1       5.304 -22.080 -12.920  1.00  0.00    -0.285 OA
ATOM      5  C   UNL     1       6.798 -21.823 -14.694  1.00  0.00     0.111 A 
ATOM      6  C   UNL     1       6.234 -20.628 -15.232  1.00  0.00     0.134 A 
ATOM      7  C   UNL     1       6.697 -20.139 -16.460  1.00  0.00     0.093 A 
ATOM      8  C   UNL     1       7.747 -20.764 -17.136  1.00  0.00     0.123 A 
ATOM      9  C   UNL     1       8.343 -21.898 -16.589  1.00  0.00     0.094 A 
ATOM     10  C   UNL     1       7.880 -22.431 -15.383  1.00  0.00     0.146 A 
ATOM     11  O   UNL     1       8.470 -23.519 -14.902  1.00  0.00    -0.452 OA
ENDROOT
BRANCH   1  12
ATOM     12  C   UNL     1       8.853 -25.311 -13.336  1.00  0.00     0.025 A 
ATOM     13  C   UNL     1      10.625 -26.337 -11.999  1.00  0.00     0.161 A 
ATOM     14  C   UNL     1      10.310 -27.597 -12.565  1.00  0.00     0.157 A 
ATOM     15  C   UNL     1       9.894 -25.210 -12.398  1.00  0.00     0.062 A 
ATOM     16  C   UNL     1       9.285 -27.692 -13.517  1.00  0.00     0.051 A 
ATOM     17  C   UNL     1       8.568 -26.559 -13.905  1.00  0.00     0.016 A 
BRANCH  13  18
ATOM     18  O   UNL     1      11.643 -26.133 -11.050  1.00  0.00    -0.493 OA
ATOM     19  C   UNL     1      11.509 -25.452  -9.808  1.00  0.00     0.278 C 
ENDBRANCH  13  18
BRANCH  14  20
ATOM     20  O   UNL     1      11.001 -28.750 -12.198  1.00  0.00    -0.504 OA
ATOM     21  H   UNL     1      11.814 -28.717 -11.593  1.00  0.00     0.293 HD
ENDBRANCH  14  20
ENDBRANCH   1  12
BRANCH   2  22
ATOM     22  O   UNL     1       6.525 -24.308 -11.932  1.00  0.00    -0.502 OA
ATOM     23  H   UNL     1       5.553 -24.302 -11.653  1.00  0.00     0.293 HD
ENDBRANCH   2  22
BRANCH   6  24
ATOM     24  O   UNL     1       5.244 -19.875 -14.593  1.00  0.00    -0.507 OA
ATOM     25  H   UNL     1       4.893 -20.057 -13.666  1.00  0.00     0.293 HD
ENDBRANCH   6  24
BRANCH   8  26
ATOM     26  O   UNL     1       8.211 -20.262 -18.349  1.00  0.00    -0.508 OA
ATOM     27  H   UNL     1       9.037 -20.640 -18.799  1.00  0.00     0.293 HD
ENDBRANCH   8  26
TORSDOF 6
ENDMDL
MODEL 8
REMARK VINA RESULT:    -6.655      1.979      7.275
REMARK INTER + INTRA:          -8.516
REMARK INTER:                  -8.221
REMARK INTRA:                  -0.294
REMARK UNBOUND:                -0.304
REMARK SMILES COc1cc(-c2oc3cc(O)cc(O)c3c(=O)c2O)ccc1O
REMARK SMILES IDX 6 1 18 2 16 3 17 4 15 5 13 6 12 7 10 8 9 9 8 10 7 11 5 12
REMARK SMILES IDX 3 13 22 14 4 15 21 16 20 17 2 18 1 19 23 20 19 22 14 24
REMARK SMILES IDX 11 26
REMARK H PARENT 23 21 19 23 14 25 11 27
REMARK Flexibility Score: inf
ROOT
ATOM      1  C   UNL     1      14.981 -33.120 -19.111  1.00  0.00     0.180 A 
ATOM      2  C   UNL     1      13.782 -33.601 -19.664  1.00  0.00     0.208 A 
ATOM      3  C   UNL     1      12.730 -33.959 -18.805  1.00  0.00     0.238 A 
ATOM      4  O   UNL     1      11.641 -34.338 -19.307  1.00  0.00    -0.285 OA
ATOM      5  C   UNL     1      12.898 -33.848 -17.403  1.00  0.00     0.111 A 
ATOM      6  C   UNL     1      11.915 -34.220 -16.438  1.00  0.00     0.134 A 
ATOM      7  C   UNL     1      12.139 -33.943 -15.083  1.00  0.00     0.093 A 
ATOM      8  C   UNL     1      13.337 -33.368 -14.653  1.00  0.00     0.123 A 
ATOM      9  C   UNL     1      14.327 -33.056 -15.582  1.00  0.00     0.094 A 
ATOM     10  C   UNL     1      14.118 -33.287 -16.944  1.00  0.00     0.146 A 
ATOM     11  O   UNL     1      15.084 -32.964 -17.797  1.00  0.00    -0.452 OA
ENDROOT
BRANCH   1  12
ATOM     12  C   UNL     1      16.142 -32.747 -19.952  1.00  0.00     0.025 A 
ATOM     13  C   UNL     1      17.592 -31.053 -20.956  1.00  0.00     0.161 A 
ATOM     14  C   UNL     1      18.322 -32.076 -21.608  1.00  0.00     0.157 A 
ATOM     15  C   UNL     1      16.507 -31.403 -20.140  1.00  0.00     0.062 A 
ATOM     16  C   UNL     1      17.941 -33.415 -21.436  1.00  0.00     0.051 A 
ATOM     17  C   UNL     1      16.857 -33.747 -20.622  1.00  0.00     0.016 A 
BRANCH  13  18
ATOM     18  O   UNL     1      17.882 -29.682 -21.076  1.00  0.00    -0.493 OA
ATOM     19  C   UNL     1      18.366 -28.832 -20.042  1.00  0.00     0.278 C 
ENDBRANCH  13  18
BRANCH  14  20
ATOM     20  O   UNL     1      19.412 -31.783 -22.425  1.00  0.00    -0.504 OA
ATOM     21  H   UNL     1      20.287 -32.289 -22.350  1.00  0.00     0.293 HD
ENDBRANCH  14  20
ENDBRANCH   1  12
BRANCH   2  22
ATOM     22  O   UNL     1      13.630 -33.683 -21.052  1.00  0.00    -0.502 OA
ATOM     23  H   UNL     1      12.723 -33.679 -21.501  1.00  0.00     0.293 HD
ENDBRANCH   2  22
BRANCH   6  24
ATOM     24  O   UNL     1      10.724 -34.882 -16.752  1.00  0.00    -0.507 OA
ATOM     25  H   UNL     1      10.034 -35.173 -16.077  1.00  0.00     0.293 HD
ENDBRANCH   6  24
BRANCH   8  26
ATOM     26  O   UNL     1      13.557 -33.111 -13.302  1.00  0.00    -0.508 OA
ATOM     27  H   UNL     1      14.415 -32.682 -12.977  1.00  0.00     0.293 HD
ENDBRANCH   8  26
TORSDOF 6
ENDMDL
MODEL 9
REMARK VINA RESULT:    -6.614      6.254      7.873
REMARK INTER + INTRA:          -8.465
REMARK INTER:                  -8.131
REMARK INTRA:                  -0.334
REMARK UNBOUND:                -0.304
REMARK SMILES COc1cc(-c2oc3cc(O)cc(O)c3c(=O)c2O)ccc1O
REMARK SMILES IDX 6 1 18 2 16 3 17 4 15 5 13 6 12 7 10 8 9 9 8 10 7 11 5 12
REMARK SMILES IDX 3 13 22 14 4 15 21 16 20 17 2 18 1 19 23 20 19 22 14 24
REMARK SMILES IDX 11 26
REMARK H PARENT 23 21 19 23 14 25 11 27
REMARK Flexibility Score: inf
ROOT
ATOM      1  C   UNL     1      11.177 -33.884 -15.359  1.00  0.00     0.180 A 
ATOM      2  C   UNL     1      10.613 -34.549 -14.257  1.00  0.00     0.208 A 
ATOM      3  C   UNL     1      11.426 -34.842 -13.149  1.00  0.00     0.238 A 
ATOM      4  O   UNL     1      10.904 -35.389 -12.144  1.00  0.00    -0.285 OA
ATOM      5  C   UNL     1      12.795 -34.481 -13.166  1.00  0.00     0.111 A 
ATOM      6  C   UNL     1      13.720 -34.764 -12.117  1.00  0.00     0.134 A 
ATOM      7  C   UNL     1      15.019 -34.245 -12.183  1.00  0.00     0.093 A 
ATOM      8  C   UNL     1      15.445 -33.508 -13.291  1.00  0.00     0.123 A 
ATOM      9  C   UNL     1      14.567 -33.277 -14.347  1.00  0.00     0.094 A 
ATOM     10  C   UNL     1      13.254 -33.752 -14.294  1.00  0.00     0.146 A 
ATOM     11  O   UNL     1      12.447 -33.500 -15.317  1.00  0.00    -0.452 OA
ENDROOT
BRANCH   1  12
ATOM     12  C   UNL     1      10.389 -33.564 -16.572  1.00  0.00     0.025 A 
ATOM     13  C   UNL     1       8.707 -32.218 -17.729  1.00  0.00     0.161 A 
ATOM     14  C   UNL     1       8.867 -33.025 -18.882  1.00  0.00     0.157 A 
ATOM     15  C   UNL     1       9.467 -32.503 -16.587  1.00  0.00     0.062 A 
ATOM     16  C   UNL     1       9.772 -34.096 -18.858  1.00  0.00     0.051 A 
ATOM     17  C   UNL     1      10.520 -34.368 -17.711  1.00  0.00     0.016 A 
BRANCH  13  18
ATOM     18  O   UNL     1       7.816 -31.133 -17.647  1.00  0.00    -0.493 OA
ATOM     19  C   UNL     1       8.097 -29.856 -17.084  1.00  0.00     0.278 C 
ENDBRANCH  13  18
BRANCH  14  20
ATOM     20  O   UNL     1       8.141 -32.780 -20.046  1.00  0.00    -0.504 OA
ATOM     21  H   UNL     1       7.131 -32.699 -20.039  1.00  0.00     0.293 HD
ENDBRANCH  14  20
ENDBRANCH   1  12
BRANCH   2  22
ATOM     22  O   UNL     1       9.254 -34.878 -14.252  1.00  0.00    -0.502 OA
ATOM     23  H   UNL     1       8.916 -35.798 -14.504  1.00  0.00     0.293 HD
ENDBRANCH   2  22
BRANCH   6  24
ATOM     24  O   UNL     1      13.424 -35.566 -11.011  1.00  0.00    -0.507 OA
ATOM     25  H   UNL     1      12.602 -35.471 -10.435  1.00  0.00     0.293 HD
ENDBRANCH   6  24
BRANCH   8  26
ATOM     26  O   UNL     1      16.743 -33.008 -13.355  1.00  0.00    -0.508 OA
ATOM     27  H   UNL     1      17.284 -32.827 -12.517  1.00  0.00     0.293 HD
ENDBRANCH   8  26
TORSDOF 6
ENDMDL
