MODEL 1
REMARK VINA RESULT:     0.000      0.000      0.000
REMARK INTER + INTRA:          -0.437
REMARK INTER:                   0.000
REMARK INTRA:                  -0.437
REMARK UNBOUND:                -0.437
REMARK SMILES CC1=CCC[C@H](C)C(=O)C[C@@H](C(C)C)C(=O)C1
REMARK SMILES IDX 8 1 9 2 6 3 7 4 5 5 4 6 3 7 2 8 1 9 10 11 11 12 15 13 16 14
REMARK SMILES IDX 17 15 12 17 13 18 14 19
REMARK H PARENT
REMARK Flexibility Score: 70.00
ROOT
ATOM      1  C   UNL     1     132.597 127.116 126.705  1.00  0.00     0.136 C 
ATOM      2  O   UNL     1     132.133 126.030 127.024  1.00  0.00    -0.299 OA
ENDROOT
BRANCH   1   3
ATOM      3  C   UNL     1     131.805 128.392 126.959  1.00  0.00     0.053 C 
ATOM      4  C   UNL     1     130.290 128.133 127.033  1.00  0.00     0.016 C 
BRANCH   3   5
ATOM      5  C   UNL     1     132.300 129.146 128.213  1.00  0.00     0.015 C 
BRANCH   5   6
ATOM      6  C   UNL     1     133.039 130.457 127.882  1.00  0.00     0.028 C 
BRANCH   6   7
ATOM      7  C   UNL     1     134.328 130.608 128.646  1.00  0.00    -0.028 C 
ATOM      8  C   UNL     1     135.540 130.128 128.269  1.00  0.00    -0.070 CG0
ATOM      9  C   UNL     1     136.682 130.307 129.242  1.00  0.00     0.039 C 
ATOM     10  G   UNL     1     135.834 129.481 126.916  1.00  0.00     0.000 G0
ENDBRANCH   6   7
ENDBRANCH   5   6
ENDBRANCH   3   5
ENDBRANCH   1   3
BRANCH   1  11
ATOM     11  C   UNL     1     133.945 127.163 126.024  1.00  0.00     0.087 C 
BRANCH  11  12
ATOM     12  C   UNL     1     135.125 126.896 126.997  1.00  0.00     0.066 C 
BRANCH  12  13
ATOM     13  C   UNL     1     136.184 127.997 127.007  1.00  0.00     0.140 C 
ATOM     14  O   UNL     1     137.363 127.672 126.972  1.00  0.00    -0.299 OA
BRANCH  13  15
ATOM     15  C   UNL     1     135.841 129.466 126.920  1.00  0.00     0.106 CG0
ATOM     16  G   UNL     1     135.554 130.129 128.266  1.00  0.00     0.000 G0
ENDBRANCH  13  15
ENDBRANCH  12  13
BRANCH  12  17
ATOM     17  C   UNL     1     135.720 125.462 126.820  1.00  0.00    -0.006 C 
ATOM     18  C   UNL     1     135.306 124.455 127.906  1.00  0.00     0.008 C 
ATOM     19  C   UNL     1     135.423 124.891 125.426  1.00  0.00     0.008 C 
ENDBRANCH  12  17
ENDBRANCH  11  12
ENDBRANCH   1  11
TORSDOF 1
ENDMDL
MODEL 2
REMARK VINA RESULT:     0.012      7.671      9.596
REMARK INTER + INTRA:          -0.419
REMARK INTER:                   0.000
REMARK INTRA:                  -0.419
REMARK UNBOUND:                -0.437
REMARK SMILES CC1=CCC[C@H](C)C(=O)C[C@@H](C(C)C)C(=O)C1
REMARK SMILES IDX 8 1 9 2 6 3 7 4 5 5 4 6 3 7 2 8 1 9 10 11 11 12 15 13 16 14
REMARK SMILES IDX 17 15 12 17 13 18 14 19
REMARK H PARENT
REMARK Flexibility Score: 70.00
ROOT
ATOM      1  C   UNL     1     129.540 135.661 130.959  1.00  0.00     0.136 C 
ATOM      2  O   UNL     1     129.402 136.403 131.923  1.00  0.00    -0.299 OA
ENDROOT
BRANCH   1   3
ATOM      3  C   UNL     1     128.320 135.153 130.203  1.00  0.00     0.053 C 
ATOM      4  C   UNL     1     127.323 134.429 131.123  1.00  0.00     0.016 C 
BRANCH   3   5
ATOM      5  C   UNL     1     127.622 136.274 129.401  1.00  0.00     0.015 C 
BRANCH   5   6
ATOM      6  C   UNL     1     128.215 136.473 127.993  1.00  0.00     0.028 C 
BRANCH   6   7
ATOM      7  C   UNL     1     128.624 135.176 127.344  1.00  0.00    -0.028 C 
ATOM      8  C   UNL     1     129.848 134.891 126.832  1.00  0.00    -0.070 CG0
ATOM      9  C   UNL     1     130.007 133.561 126.134  1.00  0.00     0.039 C 
ATOM     10  G   UNL     1     131.075 135.791 126.967  1.00  0.00     0.000 G0
ENDBRANCH   6   7
ENDBRANCH   5   6
ENDBRANCH   3   5
ENDBRANCH   1   3
BRANCH   1  11
ATOM     11  C   UNL     1     130.934 135.232 130.562  1.00  0.00     0.087 C 
BRANCH  11  12
ATOM     12  C   UNL     1     131.599 136.202 129.546  1.00  0.00     0.066 C 
BRANCH  12  13
ATOM     13  C   UNL     1     131.916 135.563 128.194  1.00  0.00     0.140 C 
ATOM     14  O   UNL     1     132.820 134.740 128.137  1.00  0.00    -0.299 OA
BRANCH  13  15
ATOM     15  C   UNL     1     131.079 135.800 126.959  1.00  0.00     0.106 CG0
ATOM     16  G   UNL     1     129.854 134.894 126.843  1.00  0.00     0.000 G0
ENDBRANCH  13  15
ENDBRANCH  12  13
BRANCH  12  17
ATOM     17  C   UNL     1     132.808 136.968 130.171  1.00  0.00    -0.006 C 
ATOM     18  C   UNL     1     132.581 138.477 130.368  1.00  0.00     0.008 C 
ATOM     19  C   UNL     1     133.271 136.325 131.487  1.00  0.00     0.008 C 
ENDBRANCH  12  17
ENDBRANCH  11  12
ENDBRANCH   1  11
TORSDOF 1
ENDMDL
MODEL 3
REMARK VINA RESULT:     0.024      2.968      5.648
REMARK INTER + INTRA:          -0.400
REMARK INTER:                   0.000
REMARK INTRA:                  -0.400
REMARK UNBOUND:                -0.437
REMARK SMILES CC1=CCC[C@H](C)C(=O)C[C@@H](C(C)C)C(=O)C1
REMARK SMILES IDX 8 1 9 2 6 3 7 4 5 5 4 6 3 7 2 8 1 9 10 11 11 12 15 13 16 14
REMARK SMILES IDX 17 15 12 17 13 18 14 19
REMARK H PARENT
REMARK Flexibility Score: 70.00
ROOT
ATOM      1  C   UNL     1     135.877 130.361 131.078  1.00  0.00     0.136 C 
ATOM      2  O   UNL     1     135.394 130.671 132.159  1.00  0.00    -0.299 OA
ENDROOT
BRANCH   1   3
ATOM      3  C   UNL     1     136.126 128.897 130.742  1.00  0.00     0.053 C 
ATOM      4  C   UNL     1     137.137 128.243 131.700  1.00  0.00     0.016 C 
BRANCH   3   5
ATOM      5  C   UNL     1     134.816 128.082 130.677  1.00  0.00     0.015 C 
BRANCH   5   6
ATOM      6  C   UNL     1     134.139 128.128 129.293  1.00  0.00     0.028 C 
BRANCH   6   7
ATOM      7  C   UNL     1     135.107 127.887 128.164  1.00  0.00    -0.028 C 
ATOM      8  C   UNL     1     135.320 128.710 127.107  1.00  0.00    -0.070 CG0
ATOM      9  C   UNL     1     136.266 128.220 126.035  1.00  0.00     0.039 C 
ATOM     10  G   UNL     1     134.722 130.109 126.962  1.00  0.00     0.000 G0
ENDBRANCH   6   7
ENDBRANCH   5   6
ENDBRANCH   3   5
ENDBRANCH   1   3
BRANCH   1  11
ATOM     11  C   UNL     1     136.253 131.455 130.105  1.00  0.00     0.087 C 
BRANCH  11  12
ATOM     12  C   UNL     1     135.154 131.723 129.040  1.00  0.00     0.066 C 
BRANCH  12  13
ATOM     13  C   UNL     1     135.505 131.212 127.643  1.00  0.00     0.140 C 
ATOM     14  O   UNL     1     136.525 131.629 127.110  1.00  0.00    -0.299 OA
BRANCH  13  15
ATOM     15  C   UNL     1     134.727 130.119 126.950  1.00  0.00     0.106 CG0
ATOM     16  G   UNL     1     135.322 128.720 127.109  1.00  0.00     0.000 G0
ENDBRANCH  13  15
ENDBRANCH  12  13
BRANCH  12  17
ATOM     17  C   UNL     1     134.670 133.208 129.056  1.00  0.00    -0.006 C 
ATOM     18  C   UNL     1     133.678 133.572 127.938  1.00  0.00     0.008 C 
ATOM     19  C   UNL     1     134.095 133.605 130.425  1.00  0.00     0.008 C 
ENDBRANCH  12  17
ENDBRANCH  11  12
ENDBRANCH   1  11
TORSDOF 1
ENDMDL
MODEL 4
REMARK VINA RESULT:     0.026      9.080     11.042
REMARK INTER + INTRA:          -0.397
REMARK INTER:                   0.000
REMARK INTRA:                  -0.397
REMARK UNBOUND:                -0.437
REMARK SMILES CC1=CCC[C@H](C)C(=O)C[C@@H](C(C)C)C(=O)C1
REMARK SMILES IDX 8 1 9 2 6 3 7 4 5 5 4 6 3 7 2 8 1 9 10 11 11 12 15 13 16 14
REMARK SMILES IDX 17 15 12 17 13 18 14 19
REMARK H PARENT
REMARK Flexibility Score: 70.00
ROOT
ATOM      1  C   UNL     1     132.352 134.508 134.308  1.00  0.00     0.136 C 
ATOM      2  O   UNL     1     132.696 133.497 134.905  1.00  0.00    -0.299 OA
ENDROOT
BRANCH   1   3
ATOM      3  C   UNL     1     131.037 135.193 134.656  1.00  0.00     0.053 C 
ATOM      4  C   UNL     1     129.833 134.244 134.523  1.00  0.00     0.016 C 
BRANCH   3   5
ATOM      5  C   UNL     1     131.073 135.850 136.053  1.00  0.00     0.015 C 
BRANCH   5   6
ATOM      6  C   UNL     1     131.896 137.152 136.092  1.00  0.00     0.028 C 
BRANCH   6   7
ATOM      7  C   UNL     1     131.560 138.087 134.959  1.00  0.00    -0.028 C 
ATOM      8  C   UNL     1     132.451 138.725 134.159  1.00  0.00    -0.070 CG0
ATOM      9  C   UNL     1     131.892 139.699 133.149  1.00  0.00     0.039 C 
ATOM     10  G   UNL     1     133.959 138.478 134.172  1.00  0.00     0.000 G0
ENDBRANCH   6   7
ENDBRANCH   5   6
ENDBRANCH   3   5
ENDBRANCH   1   3
BRANCH   1  11
ATOM     11  C   UNL     1     133.233 135.039 133.201  1.00  0.00     0.087 C 
BRANCH  11  12
ATOM     12  C   UNL     1     134.429 135.879 133.728  1.00  0.00     0.066 C 
BRANCH  12  13
ATOM     13  C   UNL     1     134.411 137.338 133.275  1.00  0.00     0.140 C 
ATOM     14  O   UNL     1     134.664 137.587 132.104  1.00  0.00    -0.299 OA
BRANCH  13  15
ATOM     15  C   UNL     1     133.963 138.470 134.170  1.00  0.00     0.106 CG0
ATOM     16  G   UNL     1     132.456 138.724 134.163  1.00  0.00     0.000 G0
ENDBRANCH  13  15
ENDBRANCH  12  13
BRANCH  12  17
ATOM     17  C   UNL     1     135.799 135.169 133.485  1.00  0.00    -0.006 C 
ATOM     18  C   UNL     1     136.435 134.553 134.742  1.00  0.00     0.008 C 
ATOM     19  C   UNL     1     135.705 134.118 132.369  1.00  0.00     0.008 C 
ENDBRANCH  12  17
ENDBRANCH  11  12
ENDBRANCH   1  11
TORSDOF 1
ENDMDL
MODEL 5
REMARK VINA RESULT:     0.035     10.313     12.611
REMARK INTER + INTRA:          -0.384
REMARK INTER:                   0.000
REMARK INTRA:                  -0.384
REMARK UNBOUND:                -0.437
REMARK SMILES CC1=CCC[C@H](C)C(=O)C[C@@H](C(C)C)C(=O)C1
REMARK SMILES IDX 8 1 9 2 6 3 7 4 5 5 4 6 3 7 2 8 1 9 10 11 11 12 15 13 16 14
REMARK SMILES IDX 17 15 12 17 13 18 14 19
REMARK H PARENT
REMARK Flexibility Score: 70.00
ROOT
ATOM      1  C   UNL     1     122.503 124.841 130.290  1.00  0.00     0.136 C 
ATOM      2  O   UNL     1     121.351 125.176 130.526  1.00  0.00    -0.299 OA
ENDROOT
BRANCH   1   3
ATOM      3  C   UNL     1     123.489 124.629 131.431  1.00  0.00     0.053 C 
ATOM      4  C   UNL     1     123.592 125.859 132.348  1.00  0.00     0.016 C 
BRANCH   3   5
ATOM      5  C   UNL     1     123.172 123.355 132.246  1.00  0.00     0.015 C 
BRANCH   5   6
ATOM      6  C   UNL     1     123.859 122.092 131.692  1.00  0.00     0.028 C 
BRANCH   6   7
ATOM      7  C   UNL     1     125.249 122.364 131.178  1.00  0.00    -0.028 C 
ATOM      8  C   UNL     1     125.718 122.055 129.942  1.00  0.00    -0.070 CG0
ATOM      9  C   UNL     1     127.180 122.327 129.675  1.00  0.00     0.039 C 
ATOM     10  G   UNL     1     124.859 121.514 128.800  1.00  0.00     0.000 G0
ENDBRANCH   6   7
ENDBRANCH   5   6
ENDBRANCH   3   5
ENDBRANCH   1   3
BRANCH   1  11
ATOM     11  C   UNL     1     122.937 124.680 128.851  1.00  0.00     0.087 C 
BRANCH  11  12
ATOM     12  C   UNL     1     122.843 123.212 128.350  1.00  0.00     0.066 C 
BRANCH  12  13
ATOM     13  C   UNL     1     124.190 122.599 127.969  1.00  0.00     0.140 C 
ATOM     14  O   UNL     1     124.798 123.074 127.020  1.00  0.00    -0.299 OA
BRANCH  13  15
ATOM     15  C   UNL     1     124.865 121.525 128.790  1.00  0.00     0.106 CG0
ATOM     16  G   UNL     1     125.719 122.054 129.941  1.00  0.00     0.000 G0
ENDBRANCH  13  15
ENDBRANCH  12  13
BRANCH  12  17
ATOM     17  C   UNL     1     121.746 123.034 127.254  1.00  0.00    -0.006 C 
ATOM     18  C   UNL     1     120.362 122.629 127.789  1.00  0.00     0.008 C 
ATOM     19  C   UNL     1     121.625 124.279 126.361  1.00  0.00     0.008 C 
ENDBRANCH  12  17
ENDBRANCH  11  12
ENDBRANCH   1  11
TORSDOF 1
ENDMDL
MODEL 6
REMARK VINA RESULT:     0.044     15.139     16.289
REMARK INTER + INTRA:          -0.370
REMARK INTER:                   0.000
REMARK INTRA:                  -0.370
REMARK UNBOUND:                -0.437
REMARK SMILES CC1=CCC[C@H](C)C(=O)C[C@@H](C(C)C)C(=O)C1
REMARK SMILES IDX 8 1 9 2 6 3 7 4 5 5 4 6 3 7 2 8 1 9 10 11 11 12 15 13 16 14
REMARK SMILES IDX 17 15 12 17 13 18 14 19
REMARK H PARENT
REMARK Flexibility Score: 70.00
ROOT
ATOM      1  C   UNL     1     124.995 137.933 135.470  1.00  0.00     0.136 C 
ATOM      2  O   UNL     1     123.841 138.282 135.679  1.00  0.00    -0.299 OA
ENDROOT
BRANCH   1   3
ATOM      3  C   UNL     1     125.958 138.866 134.749  1.00  0.00     0.053 C 
ATOM      4  C   UNL     1     125.298 139.578 133.555  1.00  0.00     0.016 C 
BRANCH   3   5
ATOM      5  C   UNL     1     126.612 139.884 135.708  1.00  0.00     0.015 C 
BRANCH   5   6
ATOM      6  C   UNL     1     127.812 139.305 136.484  1.00  0.00     0.028 C 
BRANCH   6   7
ATOM      7  C   UNL     1     127.605 139.328 137.976  1.00  0.00    -0.028 C 
ATOM      8  C   UNL     1     127.309 138.259 138.757  1.00  0.00    -0.070 CG0
ATOM      9  C   UNL     1     127.043 138.530 140.219  1.00  0.00     0.039 C 
ATOM     10  G   UNL     1     127.288 136.810 138.272  1.00  0.00     0.000 G0
ENDBRANCH   6   7
ENDBRANCH   5   6
ENDBRANCH   3   5
ENDBRANCH   1   3
BRANCH   1  11
ATOM     11  C   UNL     1     125.431 136.553 135.904  1.00  0.00     0.087 C 
BRANCH  11  12
ATOM     12  C   UNL     1     124.885 136.157 137.303  1.00  0.00     0.066 C 
BRANCH  12  13
ATOM     13  C   UNL     1     125.952 136.110 138.396  1.00  0.00     0.140 C 
ATOM     14  O   UNL     1     125.760 135.391 139.367  1.00  0.00    -0.299 OA
BRANCH  13  15
ATOM     15  C   UNL     1     127.288 136.803 138.268  1.00  0.00     0.106 CG0
ATOM     16  G   UNL     1     127.298 138.253 138.751  1.00  0.00     0.000 G0
ENDBRANCH  13  15
ENDBRANCH  12  13
BRANCH  12  17
ATOM     17  C   UNL     1     123.997 134.873 137.246  1.00  0.00    -0.006 C 
ATOM     18  C   UNL     1     122.482 135.139 137.237  1.00  0.00     0.008 C 
ATOM     19  C   UNL     1     124.383 133.966 136.068  1.00  0.00     0.008 C 
ENDBRANCH  12  17
ENDBRANCH  11  12
ENDBRANCH   1  11
TORSDOF 1
ENDMDL
MODEL 7
REMARK VINA RESULT:     0.048     10.853     12.320
REMARK INTER + INTRA:          -0.364
REMARK INTER:                   0.000
REMARK INTRA:                  -0.364
REMARK UNBOUND:                -0.437
REMARK SMILES CC1=CCC[C@H](C)C(=O)C[C@@H](C(C)C)C(=O)C1
REMARK SMILES IDX 8 1 9 2 6 3 7 4 5 5 4 6 3 7 2 8 1 9 10 11 11 12 15 13 16 14
REMARK SMILES IDX 17 15 12 17 13 18 14 19
REMARK H PARENT
REMARK Flexibility Score: 70.00
ROOT
ATOM      1  C   UNL     1     132.126 130.501 137.409  1.00  0.00     0.136 C 
ATOM      2  O   UNL     1     131.013 129.993 137.369  1.00  0.00    -0.299 OA
ENDROOT
BRANCH   1   3
ATOM      3  C   UNL     1     132.447 131.711 136.542  1.00  0.00     0.053 C 
ATOM      4  C   UNL     1     132.336 131.398 135.040  1.00  0.00     0.016 C 
BRANCH   3   5
ATOM      5  C   UNL     1     131.591 132.941 136.916  1.00  0.00     0.015 C 
BRANCH   5   6
ATOM      6  C   UNL     1     132.124 133.702 138.146  1.00  0.00     0.028 C 
BRANCH   6   7
ATOM      7  C   UNL     1     133.607 133.958 138.073  1.00  0.00    -0.028 C 
ATOM      8  C   UNL     1     134.519 133.640 139.026  1.00  0.00    -0.070 CG0
ATOM      9  C   UNL     1     135.944 134.084 138.787  1.00  0.00     0.039 C 
ATOM     10  G   UNL     1     134.215 132.820 140.279  1.00  0.00     0.000 G0
ENDBRANCH   6   7
ENDBRANCH   5   6
ENDBRANCH   3   5
ENDBRANCH   1   3
BRANCH   1  11
ATOM     11  C   UNL     1     133.179 129.884 138.300  1.00  0.00     0.087 C 
BRANCH  11  12
ATOM     12  C   UNL     1     133.142 130.436 139.752  1.00  0.00     0.066 C 
BRANCH  12  13
ATOM     13  C   UNL     1     134.331 131.327 140.108  1.00  0.00     0.140 C 
ATOM     14  O   UNL     1     135.446 130.825 140.141  1.00  0.00    -0.299 OA
BRANCH  13  15
ATOM     15  C   UNL     1     134.211 132.822 140.287  1.00  0.00     0.106 CG0
ATOM     16  G   UNL     1     134.530 133.637 139.034  1.00  0.00     0.000 G0
ENDBRANCH  13  15
ENDBRANCH  12  13
BRANCH  12  17
ATOM     17  C   UNL     1     132.872 129.311 140.801  1.00  0.00    -0.006 C 
ATOM     18  C   UNL     1     131.709 129.598 141.767  1.00  0.00     0.008 C 
ATOM     19  C   UNL     1     132.679 127.942 140.132  1.00  0.00     0.008 C 
ENDBRANCH  12  17
ENDBRANCH  11  12
ENDBRANCH   1  11
TORSDOF 1
ENDMDL
MODEL 8
REMARK VINA RESULT:     0.051     10.076     11.929
REMARK INTER + INTRA:          -0.359
REMARK INTER:                   0.000
REMARK INTRA:                  -0.359
REMARK UNBOUND:                -0.437
REMARK SMILES CC1=CCC[C@H](C)C(=O)C[C@@H](C(C)C)C(=O)C1
REMARK SMILES IDX 8 1 9 2 6 3 7 4 5 5 4 6 3 7 2 8 1 9 10 11 11 12 15 13 16 14
REMARK SMILES IDX 17 15 12 17 13 18 14 19
REMARK H PARENT
REMARK Flexibility Score: 70.00
ROOT
ATOM      1  C   UNL     1     133.116 122.585 136.747  1.00  0.00     0.136 C 
ATOM      2  O   UNL     1     133.123 121.757 137.648  1.00  0.00    -0.299 OA
ENDROOT
BRANCH   1   3
ATOM      3  C   UNL     1     133.692 122.237 135.382  1.00  0.00     0.053 C 
ATOM      4  C   UNL     1     135.146 121.740 135.472  1.00  0.00     0.016 C 
BRANCH   3   5
ATOM      5  C   UNL     1     132.809 121.229 134.616  1.00  0.00     0.015 C 
BRANCH   5   6
ATOM      6  C   UNL     1     131.750 121.904 133.723  1.00  0.00     0.028 C 
BRANCH   6   7
ATOM      7  C   UNL     1     130.343 121.672 134.211  1.00  0.00    -0.028 C 
ATOM      8  C   UNL     1     129.606 122.533 134.958  1.00  0.00    -0.070 CG0
ATOM      9  C   UNL     1     128.252 122.051 135.424  1.00  0.00     0.039 C 
ATOM     10  G   UNL     1     130.025 123.962 135.300  1.00  0.00     0.000 G0
ENDBRANCH   6   7
ENDBRANCH   5   6
ENDBRANCH   3   5
ENDBRANCH   1   3
BRANCH   1  11
ATOM     11  C   UNL     1     132.563 123.964 137.027  1.00  0.00     0.087 C 
BRANCH  11  12
ATOM     12  C   UNL     1     131.169 123.930 137.712  1.00  0.00     0.066 C 
BRANCH  12  13
ATOM     13  C   UNL     1     130.010 124.283 136.781  1.00  0.00     0.140 C 
ATOM     14  O   UNL     1     129.086 124.949 137.228  1.00  0.00    -0.299 OA
BRANCH  13  15
ATOM     15  C   UNL     1     130.017 123.964 135.304  1.00  0.00     0.106 CG0
ATOM     16  G   UNL     1     129.606 122.532 134.964  1.00  0.00     0.000 G0
ENDBRANCH  13  15
ENDBRANCH  12  13
BRANCH  12  17
ATOM     17  C   UNL     1     131.154 124.728 139.054  1.00  0.00    -0.006 C 
ATOM     18  C   UNL     1     131.250 123.860 140.320  1.00  0.00     0.008 C 
ATOM     19  C   UNL     1     132.233 125.822 139.078  1.00  0.00     0.008 C 
ENDBRANCH  12  17
ENDBRANCH  11  12
ENDBRANCH   1  11
TORSDOF 1
ENDMDL
MODEL 9
REMARK VINA RESULT:     0.061      8.416     10.023
REMARK INTER + INTRA:          -0.344
REMARK INTER:                   0.000
REMARK INTRA:                  -0.344
REMARK UNBOUND:                -0.437
REMARK SMILES CC1=CCC[C@H](C)C(=O)C[C@@H](C(C)C)C(=O)C1
REMARK SMILES IDX 8 1 9 2 6 3 7 4 5 5 4 6 3 7 2 8 1 9 10 11 11 12 15 13 16 14
REMARK SMILES IDX 17 15 12 17 13 18 14 19
REMARK H PARENT
REMARK Flexibility Score: 70.00
ROOT
ATOM      1  C   UNL     1     134.505 125.717 135.947  1.00  0.00     0.136 C 
ATOM      2  O   UNL     1     133.555 126.261 136.493  1.00  0.00    -0.299 OA
ENDROOT
BRANCH   1   3
ATOM      3  C   UNL     1     135.879 125.733 136.605  1.00  0.00     0.053 C 
ATOM      4  C   UNL     1     136.379 127.163 136.876  1.00  0.00     0.016 C 
BRANCH   3   5
ATOM      5  C   UNL     1     135.920 124.879 137.890  1.00  0.00     0.015 C 
BRANCH   5   6
ATOM      6  C   UNL     1     136.363 123.424 137.640  1.00  0.00     0.028 C 
BRANCH   6   7
ATOM      7  C   UNL     1     137.523 123.325 136.684  1.00  0.00    -0.028 C 
ATOM      8  C   UNL     1     137.548 122.612 135.530  1.00  0.00    -0.070 CG0
ATOM      9  C   UNL     1     138.856 122.572 134.776  1.00  0.00     0.039 C 
ATOM     10  G   UNL     1     136.337 121.905 134.921  1.00  0.00     0.000 G0
ENDBRANCH   6   7
ENDBRANCH   5   6
ENDBRANCH   3   5
ENDBRANCH   1   3
BRANCH   1  11
ATOM     11  C   UNL     1     134.298 125.066 134.599  1.00  0.00     0.087 C 
BRANCH  11  12
ATOM     12  C   UNL     1     134.219 123.517 134.680  1.00  0.00     0.066 C 
BRANCH  12  13
ATOM     13  C   UNL     1     135.437 122.801 134.096  1.00  0.00     0.140 C 
ATOM     14  O   UNL     1     135.763 123.053 132.943  1.00  0.00    -0.299 OA
BRANCH  13  15
ATOM     15  C   UNL     1     136.333 121.904 134.917  1.00  0.00     0.106 CG0
ATOM     16  G   UNL     1     137.547 122.607 135.523  1.00  0.00     0.000 G0
ENDBRANCH  13  15
ENDBRANCH  12  13
BRANCH  12  17
ATOM     17  C   UNL     1     132.859 122.969 134.143  1.00  0.00    -0.006 C 
ATOM     18  C   UNL     1     132.026 122.191 135.176  1.00  0.00     0.008 C 
ATOM     19  C   UNL     1     132.010 124.079 133.505  1.00  0.00     0.008 C 
ENDBRANCH  12  17
ENDBRANCH  11  12
ENDBRANCH   1  11
TORSDOF 1
ENDMDL
