MODEL 1
REMARK VINA RESULT:    -3.654      0.000      0.000
REMARK INTER + INTRA:          -5.106
REMARK INTER:                  -4.935
REMARK INTRA:                  -0.171
REMARK UNBOUND:                -0.171
REMARK SMILES CCCCCCCC(=O)[O-]
REMARK SMILES IDX 5 1 6 2 7 3 8 4 9 5 10 6 4 7 3 8 2 9 1 10
REMARK H PARENT
REMARK Flexibility Score: inf
ROOT
ATOM      1  C   UNL     1      42.550  50.956   8.418  1.00  0.00     0.000 C 
ENDROOT
BRANCH   1   2
ATOM      2  C   UNL     1      42.752  49.476   8.768  1.00  0.00     0.006 C 
BRANCH   2   3
ATOM      3  C   UNL     1      44.136  48.991   8.325  1.00  0.00     0.053 C 
BRANCH   3   4
ATOM      4  C   UNL     1      44.461  47.679   8.969  1.00  0.00     0.041 C 
ATOM      5  O   UNL     1      44.544  46.635   8.270  1.00  0.00    -0.550 OA
ATOM      6  O   UNL     1      44.623  47.602  10.346  1.00  0.00    -0.550 OA
ENDBRANCH   3   4
ENDBRANCH   2   3
ENDBRANCH   1   2
BRANCH   1   7
ATOM      7  C   UNL     1      41.128  51.415   8.774  1.00  0.00     0.000 C 
BRANCH   7   8
ATOM      8  C   UNL     1      40.955  52.939   8.670  1.00  0.00    -0.000 C 
BRANCH   8   9
ATOM      9  C   UNL     1      42.247  53.653   8.246  1.00  0.00    -0.003 C 
ATOM     10  C   UNL     1      42.163  54.127   6.798  1.00  0.00     0.004 C 
ENDBRANCH   8   9
ENDBRANCH   7   8
ENDBRANCH   1   7
TORSDOF 6
ENDMDL
MODEL 2
REMARK VINA RESULT:    -3.441     19.526     20.499
REMARK INTER + INTRA:          -4.820
REMARK INTER:                  -4.341
REMARK INTRA:                  -0.479
REMARK UNBOUND:                -0.171
REMARK SMILES CCCCCCCC(=O)[O-]
REMARK SMILES IDX 5 1 6 2 7 3 8 4 9 5 10 6 4 7 3 8 2 9 1 10
REMARK H PARENT
REMARK Flexibility Score: inf
ROOT
ATOM      1  C   UNL     1      29.670  51.507  24.638  1.00  0.00     0.000 C 
ENDROOT
BRANCH   1   2
ATOM      2  C   UNL     1      31.097  51.082  24.271  1.00  0.00     0.006 C 
BRANCH   2   3
ATOM      3  C   UNL     1      31.922  50.785  25.527  1.00  0.00     0.053 C 
BRANCH   3   4
ATOM      4  C   UNL     1      33.261  51.448  25.442  1.00  0.00     0.041 C 
ATOM      5  O   UNL     1      33.357  52.697  25.569  1.00  0.00    -0.550 OA
ATOM      6  O   UNL     1      34.395  50.693  25.175  1.00  0.00    -0.550 OA
ENDBRANCH   3   4
ENDBRANCH   2   3
ENDBRANCH   1   2
BRANCH   1   7
ATOM      7  C   UNL     1      29.663  52.360  25.916  1.00  0.00     0.000 C 
BRANCH   7   8
ATOM      8  C   UNL     1      29.087  53.766  25.685  1.00  0.00    -0.000 C 
BRANCH   8   9
ATOM      9  C   UNL     1      30.175  54.848  25.626  1.00  0.00    -0.003 C 
ATOM     10  C   UNL     1      30.890  54.836  24.278  1.00  0.00     0.004 C 
ENDBRANCH   8   9
ENDBRANCH   7   8
ENDBRANCH   1   7
TORSDOF 6
ENDMDL
MODEL 3
REMARK VINA RESULT:    -3.327     18.754     19.425
REMARK INTER + INTRA:          -4.665
REMARK INTER:                  -4.329
REMARK INTRA:                  -0.336
REMARK UNBOUND:                -0.171
REMARK SMILES CCCCCCCC(=O)[O-]
REMARK SMILES IDX 5 1 6 2 7 3 8 4 9 5 10 6 4 7 3 8 2 9 1 10
REMARK H PARENT
REMARK Flexibility Score: inf
ROOT
ATOM      1  C   UNL     1      34.253  50.275  24.898  1.00  0.00     0.000 C 
ENDROOT
BRANCH   1   2
ATOM      2  C   UNL     1      34.603  49.057  25.763  1.00  0.00     0.006 C 
BRANCH   2   3
ATOM      3  C   UNL     1      33.416  48.094  25.860  1.00  0.00     0.053 C 
BRANCH   3   4
ATOM      4  C   UNL     1      33.862  46.687  25.609  1.00  0.00     0.041 C 
ATOM      5  O   UNL     1      35.079  46.381  25.715  1.00  0.00    -0.550 OA
ATOM      6  O   UNL     1      32.942  45.727  25.209  1.00  0.00    -0.550 OA
ENDBRANCH   3   4
ENDBRANCH   2   3
ENDBRANCH   1   2
BRANCH   1   7
ATOM      7  C   UNL     1      33.683  51.413  25.759  1.00  0.00     0.000 C 
BRANCH   7   8
ATOM      8  C   UNL     1      32.324  51.917  25.248  1.00  0.00    -0.000 C 
BRANCH   8   9
ATOM      9  C   UNL     1      31.679  50.958  24.237  1.00  0.00    -0.003 C 
ATOM     10  C   UNL     1      30.276  51.423  23.857  1.00  0.00     0.004 C 
ENDBRANCH   8   9
ENDBRANCH   7   8
ENDBRANCH   1   7
TORSDOF 6
ENDMDL
MODEL 4
REMARK VINA RESULT:    -3.285     19.262     20.243
REMARK INTER + INTRA:          -4.608
REMARK INTER:                  -4.286
REMARK INTRA:                  -0.322
REMARK UNBOUND:                -0.171
REMARK SMILES CCCCCCCC(=O)[O-]
REMARK SMILES IDX 5 1 6 2 7 3 8 4 9 5 10 6 4 7 3 8 2 9 1 10
REMARK H PARENT
REMARK Flexibility Score: inf
ROOT
ATOM      1  C   UNL     1      31.583  50.614  25.560  1.00  0.00     0.000 C 
ENDROOT
BRANCH   1   2
ATOM      2  C   UNL     1      30.463  51.276  24.748  1.00  0.00     0.006 C 
BRANCH   2   3
ATOM      3  C   UNL     1      31.022  52.374  23.837  1.00  0.00     0.053 C 
BRANCH   3   4
ATOM      4  C   UNL     1      31.389  53.583  24.640  1.00  0.00     0.041 C 
ATOM      5  O   UNL     1      30.513  54.439  24.931  1.00  0.00    -0.550 OA
ATOM      6  O   UNL     1      32.707  53.787  25.025  1.00  0.00    -0.550 OA
ENDBRANCH   3   4
ENDBRANCH   2   3
ENDBRANCH   1   2
BRANCH   1   7
ATOM      7  C   UNL     1      32.736  50.170  24.647  1.00  0.00     0.000 C 
BRANCH   7   8
ATOM      8  C   UNL     1      34.116  50.402  25.282  1.00  0.00    -0.000 C 
BRANCH   8   9
ATOM      9  C   UNL     1      34.968  49.125  25.328  1.00  0.00    -0.003 C 
ATOM     10  C   UNL     1      34.088  47.879  25.371  1.00  0.00     0.004 C 
ENDBRANCH   8   9
ENDBRANCH   7   8
ENDBRANCH   1   7
TORSDOF 6
ENDMDL
MODEL 5
REMARK VINA RESULT:    -3.273     12.638     13.905
REMARK INTER + INTRA:          -4.592
REMARK INTER:                  -3.999
REMARK INTRA:                  -0.593
REMARK UNBOUND:                -0.171
REMARK SMILES CCCCCCCC(=O)[O-]
REMARK SMILES IDX 5 1 6 2 7 3 8 4 9 5 10 6 4 7 3 8 2 9 1 10
REMARK H PARENT
REMARK Flexibility Score: inf
ROOT
ATOM      1  C   UNL     1      29.220  46.634   8.142  1.00  0.00     0.000 C 
ENDROOT
BRANCH   1   2
ATOM      2  C   UNL     1      28.967  47.587   9.317  1.00  0.00     0.006 C 
BRANCH   2   3
ATOM      3  C   UNL     1      27.974  48.686   8.929  1.00  0.00     0.053 C 
BRANCH   3   4
ATOM      4  C   UNL     1      28.701  49.896   8.431  1.00  0.00     0.041 C 
ATOM      5  O   UNL     1      29.257  50.679   9.245  1.00  0.00    -0.550 OA
ATOM      6  O   UNL     1      28.724  50.183   7.073  1.00  0.00    -0.550 OA
ENDBRANCH   3   4
ENDBRANCH   2   3
ENDBRANCH   1   2
BRANCH   1   7
ATOM      7  C   UNL     1      30.704  46.247   8.058  1.00  0.00     0.000 C 
BRANCH   7   8
ATOM      8  C   UNL     1      31.640  47.412   8.418  1.00  0.00    -0.000 C 
BRANCH   8   9
ATOM      9  C   UNL     1      31.878  48.366   7.239  1.00  0.00    -0.003 C 
ATOM     10  C   UNL     1      32.318  49.744   7.727  1.00  0.00     0.004 C 
ENDBRANCH   8   9
ENDBRANCH   7   8
ENDBRANCH   1   7
TORSDOF 6
ENDMDL
MODEL 6
REMARK VINA RESULT:    -3.232     12.315     13.600
REMARK INTER + INTRA:          -4.537
REMARK INTER:                  -3.917
REMARK INTRA:                  -0.620
REMARK UNBOUND:                -0.171
REMARK SMILES CCCCCCCC(=O)[O-]
REMARK SMILES IDX 5 1 6 2 7 3 8 4 9 5 10 6 4 7 3 8 2 9 1 10
REMARK H PARENT
REMARK Flexibility Score: inf
ROOT
ATOM      1  C   UNL     1      31.683  47.426   8.483  1.00  0.00     0.000 C 
ENDROOT
BRANCH   1   2
ATOM      2  C   UNL     1      31.959  48.321   7.268  1.00  0.00     0.006 C 
BRANCH   2   3
ATOM      3  C   UNL     1      31.940  49.802   7.660  1.00  0.00     0.053 C 
BRANCH   3   4
ATOM      4  C   UNL     1      30.532  50.307   7.726  1.00  0.00     0.041 C 
ATOM      5  O   UNL     1      30.126  50.914   8.751  1.00  0.00    -0.550 OA
ATOM      6  O   UNL     1      29.657  50.064   6.676  1.00  0.00    -0.550 OA
ENDBRANCH   3   4
ENDBRANCH   2   3
ENDBRANCH   1   2
BRANCH   1   7
ATOM      7  C   UNL     1      30.836  46.208   8.087  1.00  0.00     0.000 C 
BRANCH   7   8
ATOM      8  C   UNL     1      29.326  46.485   8.171  1.00  0.00    -0.000 C 
BRANCH   8   9
ATOM      9  C   UNL     1      28.963  47.446   9.312  1.00  0.00    -0.003 C 
ATOM     10  C   UNL     1      27.674  48.202   9.004  1.00  0.00     0.004 C 
ENDBRANCH   8   9
ENDBRANCH   7   8
ENDBRANCH   1   7
TORSDOF 6
ENDMDL
MODEL 7
REMARK VINA RESULT:    -3.194     19.181     20.389
REMARK INTER + INTRA:          -4.485
REMARK INTER:                  -4.197
REMARK INTRA:                  -0.289
REMARK UNBOUND:                -0.171
REMARK SMILES CCCCCCCC(=O)[O-]
REMARK SMILES IDX 5 1 6 2 7 3 8 4 9 5 10 6 4 7 3 8 2 9 1 10
REMARK H PARENT
REMARK Flexibility Score: inf
ROOT
ATOM      1  C   UNL     1      33.065  50.166  24.841  1.00  0.00     0.000 C 
ENDROOT
BRANCH   1   2
ATOM      2  C   UNL     1      32.633  51.385  25.667  1.00  0.00     0.006 C 
BRANCH   2   3
ATOM      3  C   UNL     1      31.612  52.233  24.903  1.00  0.00     0.053 C 
BRANCH   3   4
ATOM      4  C   UNL     1      30.363  51.446  24.652  1.00  0.00     0.041 C 
ATOM      5  O   UNL     1      29.967  51.248  23.473  1.00  0.00    -0.550 OA
ATOM      6  O   UNL     1      29.612  50.975  25.720  1.00  0.00    -0.550 OA
ENDBRANCH   3   4
ENDBRANCH   2   3
ENDBRANCH   1   2
BRANCH   1   7
ATOM      7  C   UNL     1      34.544  49.833  25.085  1.00  0.00     0.000 C 
BRANCH   7   8
ATOM      8  C   UNL     1      34.773  48.345  25.394  1.00  0.00    -0.000 C 
BRANCH   8   9
ATOM      9  C   UNL     1      33.532  47.668  25.994  1.00  0.00    -0.003 C 
ATOM     10  C   UNL     1      33.390  46.235  25.488  1.00  0.00     0.004 C 
ENDBRANCH   8   9
ENDBRANCH   7   8
ENDBRANCH   1   7
TORSDOF 6
ENDMDL
