MODEL 1
REMARK VINA RESULT:    -4.095      0.000      0.000
REMARK INTER + INTRA:          -4.523
REMARK INTER:                  -4.454
REMARK INTRA:                  -0.069
REMARK UNBOUND:                -0.069
REMARK SMILES CCc1cccc(O)c1
REMARK SMILES IDX 3 1 9 2 7 3 6 4 5 5 4 6 2 7 1 8 8 9
REMARK H PARENT 8 10
REMARK Flexibility Score: inf
ROOT
ATOM      1  C   UNL     1     176.718 176.299 181.754  1.00  0.00    -0.045 A 
ATOM      2  C   UNL     1     176.915 175.482 180.628  1.00  0.00     0.049 A 
ATOM      3  C   UNL     1     176.452 174.161 180.623  1.00  0.00     0.115 A 
ATOM      4  C   UNL     1     175.782 173.654 181.744  1.00  0.00     0.046 A 
ATOM      5  C   UNL     1     175.572 174.465 182.862  1.00  0.00     0.004 A 
ATOM      6  C   UNL     1     176.032 175.785 182.867  1.00  0.00     0.004 A 
ENDROOT
BRANCH   1   7
ATOM      7  C   UNL     1     177.186 177.730 181.745  1.00  0.00     0.032 C 
ATOM      8  C   UNL     1     177.739 178.125 183.110  1.00  0.00     0.009 C 
ENDBRANCH   1   7
BRANCH   3   9
ATOM      9  O   UNL     1     176.661 173.364 179.500  1.00  0.00    -0.508 OA
ATOM     10  H   UNL     1     177.093 172.450 179.572  1.00  0.00     0.293 HD
ENDBRANCH   3   9
TORSDOF 2
ENDMDL
MODEL 2
REMARK VINA RESULT:    -4.062      1.279      2.366
REMARK INTER + INTRA:          -4.488
REMARK INTER:                  -4.416
REMARK INTRA:                  -0.072
REMARK UNBOUND:                -0.069
REMARK SMILES CCc1cccc(O)c1
REMARK SMILES IDX 3 1 9 2 7 3 6 4 5 5 4 6 2 7 1 8 8 9
REMARK H PARENT 8 10
REMARK Flexibility Score: inf
ROOT
ATOM      1  C   UNL     1     176.717 176.490 181.403  1.00  0.00    -0.045 A 
ATOM      2  C   UNL     1     176.718 175.137 181.022  1.00  0.00     0.049 A 
ATOM      3  C   UNL     1     176.650 174.784 179.670  1.00  0.00     0.115 A 
ATOM      4  C   UNL     1     176.589 175.784 178.690  1.00  0.00     0.046 A 
ATOM      5  C   UNL     1     176.600 177.130 179.062  1.00  0.00     0.004 A 
ATOM      6  C   UNL     1     176.670 177.485 180.412  1.00  0.00     0.004 A 
ENDROOT
BRANCH   1   7
ATOM      7  C   UNL     1     176.824 176.870 182.855  1.00  0.00     0.032 C 
ATOM      8  C   UNL     1     177.675 178.124 183.024  1.00  0.00     0.009 C 
ENDBRANCH   1   7
BRANCH   3   9
ATOM      9  O   UNL     1     176.646 173.437 179.311  1.00  0.00    -0.508 OA
ATOM     10  H   UNL     1     177.183 173.099 178.522  1.00  0.00     0.293 HD
ENDBRANCH   3   9
TORSDOF 2
ENDMDL
MODEL 3
REMARK VINA RESULT:    -4.021      1.592      3.393
REMARK INTER + INTRA:          -4.442
REMARK INTER:                  -4.396
REMARK INTRA:                  -0.046
REMARK UNBOUND:                -0.069
REMARK SMILES CCc1cccc(O)c1
REMARK SMILES IDX 3 1 9 2 7 3 6 4 5 5 4 6 2 7 1 8 8 9
REMARK H PARENT 8 10
REMARK Flexibility Score: inf
ROOT
ATOM      1  C   UNL     1     176.309 175.950 182.519  1.00  0.00    -0.045 A 
ATOM      2  C   UNL     1     176.460 175.913 181.122  1.00  0.00     0.049 A 
ATOM      3  C   UNL     1     177.063 176.981 180.448  1.00  0.00     0.115 A 
ATOM      4  C   UNL     1     177.528 178.088 181.171  1.00  0.00     0.046 A 
ATOM      5  C   UNL     1     177.393 178.125 182.561  1.00  0.00     0.004 A 
ATOM      6  C   UNL     1     176.791 177.058 183.236  1.00  0.00     0.004 A 
ENDROOT
BRANCH   1   7
ATOM      7  C   UNL     1     175.691 174.787 183.247  1.00  0.00     0.032 C 
ATOM      8  C   UNL     1     174.294 174.494 182.709  1.00  0.00     0.009 C 
ENDBRANCH   1   7
BRANCH   3   9
ATOM      9  O   UNL     1     177.199 176.931 179.062  1.00  0.00    -0.508 OA
ATOM     10  H   UNL     1     178.110 176.898 178.621  1.00  0.00     0.293 HD
ENDBRANCH   3   9
TORSDOF 2
ENDMDL
MODEL 4
REMARK VINA RESULT:    -3.967      1.649      3.418
REMARK INTER + INTRA:          -4.385
REMARK INTER:                  -4.335
REMARK INTRA:                  -0.050
REMARK UNBOUND:                -0.069
REMARK SMILES CCc1cccc(O)c1
REMARK SMILES IDX 3 1 9 2 7 3 6 4 5 5 4 6 2 7 1 8 8 9
REMARK H PARENT 8 10
REMARK Flexibility Score: inf
ROOT
ATOM      1  C   UNL     1     176.300 174.818 181.941  1.00  0.00    -0.045 A 
ATOM      2  C   UNL     1     176.701 175.391 180.722  1.00  0.00     0.049 A 
ATOM      3  C   UNL     1     177.081 176.737 180.664  1.00  0.00     0.115 A 
ATOM      4  C   UNL     1     177.069 177.515 181.829  1.00  0.00     0.046 A 
ATOM      5  C   UNL     1     176.684 176.948 183.047  1.00  0.00     0.004 A 
ATOM      6  C   UNL     1     176.306 175.603 183.106  1.00  0.00     0.004 A 
ENDROOT
BRANCH   1   7
ATOM      7  C   UNL     1     175.925 173.362 182.009  1.00  0.00     0.032 C 
ATOM      8  C   UNL     1     177.089 172.483 181.563  1.00  0.00     0.009 C 
ENDBRANCH   1   7
BRANCH   3   9
ATOM      9  O   UNL     1     177.470 177.289 179.445  1.00  0.00    -0.508 OA
ATOM     10  H   UNL     1     176.872 177.933 178.942  1.00  0.00     0.293 HD
ENDBRANCH   3   9
TORSDOF 2
ENDMDL
MODEL 5
REMARK VINA RESULT:    -3.931      2.676      3.417
REMARK INTER + INTRA:          -4.345
REMARK INTER:                  -4.276
REMARK INTRA:                  -0.069
REMARK UNBOUND:                -0.069
REMARK SMILES CCc1cccc(O)c1
REMARK SMILES IDX 3 1 9 2 7 3 6 4 5 5 4 6 2 7 1 8 8 9
REMARK H PARENT 8 10
REMARK Flexibility Score: inf
ROOT
ATOM      1  C   UNL     1     174.301 176.964 181.498  1.00  0.00    -0.045 A 
ATOM      2  C   UNL     1     175.105 177.055 180.349  1.00  0.00     0.049 A 
ATOM      3  C   UNL     1     176.499 176.984 180.455  1.00  0.00     0.115 A 
ATOM      4  C   UNL     1     177.095 176.813 181.711  1.00  0.00     0.046 A 
ATOM      5  C   UNL     1     176.300 176.710 182.856  1.00  0.00     0.004 A 
ATOM      6  C   UNL     1     174.907 176.779 182.751  1.00  0.00     0.004 A 
ENDROOT
BRANCH   1   7
ATOM      7  C   UNL     1     172.801 177.007 181.380  1.00  0.00     0.032 C 
ATOM      8  C   UNL     1     172.189 177.778 182.546  1.00  0.00     0.009 C 
ENDBRANCH   1   7
BRANCH   3   9
ATOM      9  O   UNL     1     177.281 177.081 179.305  1.00  0.00    -0.508 OA
ATOM     10  H   UNL     1     178.137 176.550 179.201  1.00  0.00     0.293 HD
ENDBRANCH   3   9
TORSDOF 2
ENDMDL
MODEL 6
REMARK VINA RESULT:    -3.868      1.673      2.208
REMARK INTER + INTRA:          -4.276
REMARK INTER:                  -4.221
REMARK INTRA:                  -0.055
REMARK UNBOUND:                -0.069
REMARK SMILES CCc1cccc(O)c1
REMARK SMILES IDX 3 1 9 2 7 3 6 4 5 5 4 6 2 7 1 8 8 9
REMARK H PARENT 8 10
REMARK Flexibility Score: inf
ROOT
ATOM      1  C   UNL     1     176.362 176.590 180.855  1.00  0.00    -0.045 A 
ATOM      2  C   UNL     1     177.026 175.392 180.541  1.00  0.00     0.049 A 
ATOM      3  C   UNL     1     177.227 174.417 181.525  1.00  0.00     0.115 A 
ATOM      4  C   UNL     1     176.755 174.632 182.826  1.00  0.00     0.046 A 
ATOM      5  C   UNL     1     176.082 175.816 183.141  1.00  0.00     0.004 A 
ATOM      6  C   UNL     1     175.880 176.790 182.159  1.00  0.00     0.004 A 
ENDROOT
BRANCH   1   7
ATOM      7  C   UNL     1     176.117 177.624 179.789  1.00  0.00     0.032 C 
ATOM      8  C   UNL     1     174.751 177.419 179.141  1.00  0.00     0.009 C 
ENDBRANCH   1   7
BRANCH   3   9
ATOM      9  O   UNL     1     177.894 173.238 181.197  1.00  0.00    -0.508 OA
ATOM     10  H   UNL     1     178.169 172.571 181.908  1.00  0.00     0.293 HD
ENDBRANCH   3   9
TORSDOF 2
ENDMDL
MODEL 7
REMARK VINA RESULT:    -3.841      3.087      4.094
REMARK INTER + INTRA:          -4.247
REMARK INTER:                  -4.196
REMARK INTRA:                  -0.051
REMARK UNBOUND:                -0.069
REMARK SMILES CCc1cccc(O)c1
REMARK SMILES IDX 3 1 9 2 7 3 6 4 5 5 4 6 2 7 1 8 8 9
REMARK H PARENT 8 10
REMARK Flexibility Score: inf
ROOT
ATOM      1  C   UNL     1     174.204 176.975 181.297  1.00  0.00    -0.045 A 
ATOM      2  C   UNL     1     174.907 176.900 182.511  1.00  0.00     0.049 A 
ATOM      3  C   UNL     1     176.306 176.950 182.523  1.00  0.00     0.115 A 
ATOM      4  C   UNL     1     177.008 177.086 181.317  1.00  0.00     0.046 A 
ATOM      5  C   UNL     1     176.314 177.175 180.108  1.00  0.00     0.004 A 
ATOM      6  C   UNL     1     174.917 177.126 180.096  1.00  0.00     0.004 A 
ENDROOT
BRANCH   1   7
ATOM      7  C   UNL     1     172.699 176.955 181.288  1.00  0.00     0.032 C 
ATOM      8  C   UNL     1     172.142 177.679 182.509  1.00  0.00     0.009 C 
ENDBRANCH   1   7
BRANCH   3   9
ATOM      9  O   UNL     1     176.987 176.868 183.736  1.00  0.00    -0.508 OA
ATOM     10  H   UNL     1     176.969 176.024 184.296  1.00  0.00     0.293 HD
ENDBRANCH   3   9
TORSDOF 2
ENDMDL
MODEL 8
REMARK VINA RESULT:    -3.807      2.974      3.746
REMARK INTER + INTRA:          -4.210
REMARK INTER:                  -4.163
REMARK INTRA:                  -0.046
REMARK UNBOUND:                -0.069
REMARK SMILES CCc1cccc(O)c1
REMARK SMILES IDX 3 1 9 2 7 3 6 4 5 5 4 6 2 7 1 8 8 9
REMARK H PARENT 8 10
REMARK Flexibility Score: inf
ROOT
ATOM      1  C   UNL     1     173.871 176.400 182.393  1.00  0.00    -0.045 A 
ATOM      2  C   UNL     1     175.001 177.176 182.704  1.00  0.00     0.049 A 
ATOM      3  C   UNL     1     176.182 176.562 183.137  1.00  0.00     0.115 A 
ATOM      4  C   UNL     1     176.241 175.167 183.253  1.00  0.00     0.046 A 
ATOM      5  C   UNL     1     175.125 174.390 182.933  1.00  0.00     0.004 A 
ATOM      6  C   UNL     1     173.945 175.001 182.499  1.00  0.00     0.004 A 
ENDROOT
BRANCH   1   7
ATOM      7  C   UNL     1     172.612 177.058 181.896  1.00  0.00     0.032 C 
ATOM      8  C   UNL     1     172.136 178.125 182.877  1.00  0.00     0.009 C 
ENDBRANCH   1   7
BRANCH   3   9
ATOM      9  O   UNL     1     177.291 177.347 183.447  1.00  0.00    -0.508 OA
ATOM     10  H   UNL     1     178.098 177.387 182.836  1.00  0.00     0.293 HD
ENDBRANCH   3   9
TORSDOF 2
ENDMDL
MODEL 9
REMARK VINA RESULT:    -3.728      2.566      3.207
REMARK INTER + INTRA:          -4.124
REMARK INTER:                  -4.054
REMARK INTRA:                  -0.071
REMARK UNBOUND:                -0.069
REMARK SMILES CCc1cccc(O)c1
REMARK SMILES IDX 3 1 9 2 7 3 6 4 5 5 4 6 2 7 1 8 8 9
REMARK H PARENT 8 10
REMARK Flexibility Score: inf
ROOT
ATOM      1  C   UNL     1     175.174 176.006 182.813  1.00  0.00    -0.045 A 
ATOM      2  C   UNL     1     174.752 174.673 182.950  1.00  0.00     0.049 A 
ATOM      3  C   UNL     1     173.396 174.346 182.841  1.00  0.00     0.115 A 
ATOM      4  C   UNL     1     172.455 175.353 182.585  1.00  0.00     0.046 A 
ATOM      5  C   UNL     1     172.870 176.678 182.435  1.00  0.00     0.004 A 
ATOM      6  C   UNL     1     174.225 177.005 182.542  1.00  0.00     0.004 A 
ENDROOT
BRANCH   1   7
ATOM      7  C   UNL     1     176.637 176.352 182.897  1.00  0.00     0.032 C 
ATOM      8  C   UNL     1     177.020 177.347 181.806  1.00  0.00     0.009 C 
ENDBRANCH   1   7
BRANCH   3   9
ATOM      9  O   UNL     1     172.995 173.019 182.986  1.00  0.00    -0.508 OA
ATOM     10  H   UNL     1     172.179 172.770 183.532  1.00  0.00     0.293 HD
ENDBRANCH   3   9
TORSDOF 2
ENDMDL
