MODEL 1
REMARK VINA RESULT:    -4.140      0.000      0.000
REMARK INTER + INTRA:          -5.787
REMARK INTER:                  -5.591
REMARK INTRA:                  -0.195
REMARK UNBOUND:                -0.195
REMARK SMILES CCCCCCCC(=O)[O-]
REMARK SMILES IDX 5 1 6 2 7 3 8 4 9 5 10 6 4 7 3 8 2 9 1 10
REMARK H PARENT
REMARK Flexibility Score: inf
ROOT
ATOM      1  C   UNL     1      -2.249 -35.945  21.222  1.00  0.00     0.000 C 
ENDROOT
BRANCH   1   2
ATOM      2  C   UNL     1      -2.491 -35.031  22.439  1.00  0.00     0.006 C 
BRANCH   2   3
ATOM      3  C   UNL     1      -1.382 -33.995  22.682  1.00  0.00     0.053 C 
BRANCH   3   4
ATOM      4  C   UNL     1      -1.816 -32.918  23.626  1.00  0.00     0.041 C 
ATOM      5  O   UNL     1      -2.982 -32.447  23.558  1.00  0.00    -0.550 OA
ATOM      6  O   UNL     1      -0.944 -32.457  24.604  1.00  0.00    -0.550 OA
ENDBRANCH   3   4
ENDBRANCH   2   3
ENDBRANCH   1   2
BRANCH   1   7
ATOM      7  C   UNL     1      -3.038 -37.260  21.299  1.00  0.00     0.000 C 
BRANCH   7   8
ATOM      8  C   UNL     1      -3.402 -37.763  19.894  1.00  0.00    -0.000 C 
BRANCH   8   9
ATOM      9  C   UNL     1      -3.641 -36.617  18.899  1.00  0.00    -0.003 C 
ATOM     10  C   UNL     1      -4.374 -37.073  17.637  1.00  0.00     0.004 C 
ENDBRANCH   8   9
ENDBRANCH   7   8
ENDBRANCH   1   7
TORSDOF 6
ENDMDL
MODEL 2
REMARK VINA RESULT:    -3.969      3.065      3.581
REMARK INTER + INTRA:          -5.556
REMARK INTER:                  -5.248
REMARK INTRA:                  -0.308
REMARK UNBOUND:                -0.195
REMARK SMILES CCCCCCCC(=O)[O-]
REMARK SMILES IDX 5 1 6 2 7 3 8 4 9 5 10 6 4 7 3 8 2 9 1 10
REMARK H PARENT
REMARK Flexibility Score: inf
ROOT
ATOM      1  C   UNL     1      -2.505 -36.030  21.276  1.00  0.00     0.000 C 
ENDROOT
BRANCH   1   2
ATOM      2  C   UNL     1      -1.061 -35.493  21.252  1.00  0.00     0.006 C 
BRANCH   2   3
ATOM      3  C   UNL     1       0.014 -36.579  21.087  1.00  0.00     0.053 C 
BRANCH   3   4
ATOM      4  C   UNL     1       1.360 -35.997  20.790  1.00  0.00     0.041 C 
ATOM      5  O   UNL     1       2.237 -35.934  21.692  1.00  0.00    -0.550 OA
ATOM      6  O   UNL     1       1.660 -35.555  19.508  1.00  0.00    -0.550 OA
ENDBRANCH   3   4
ENDBRANCH   2   3
ENDBRANCH   1   2
BRANCH   1   7
ATOM      7  C   UNL     1      -2.582 -37.545  21.033  1.00  0.00     0.000 C 
BRANCH   7   8
ATOM      8  C   UNL     1      -3.587 -37.870  19.917  1.00  0.00    -0.000 C 
BRANCH   8   9
ATOM      9  C   UNL     1      -3.636 -36.785  18.830  1.00  0.00    -0.003 C 
ATOM     10  C   UNL     1      -4.350 -37.251  17.562  1.00  0.00     0.004 C 
ENDBRANCH   8   9
ENDBRANCH   7   8
ENDBRANCH   1   7
TORSDOF 6
ENDMDL
MODEL 3
REMARK VINA RESULT:    -3.964      1.975      3.049
REMARK INTER + INTRA:          -5.550
REMARK INTER:                  -5.333
REMARK INTRA:                  -0.217
REMARK UNBOUND:                -0.195
REMARK SMILES CCCCCCCC(=O)[O-]
REMARK SMILES IDX 5 1 6 2 7 3 8 4 9 5 10 6 4 7 3 8 2 9 1 10
REMARK H PARENT
REMARK Flexibility Score: inf
ROOT
ATOM      1  C   UNL     1      -2.658 -35.528  22.110  1.00  0.00     0.000 C 
ENDROOT
BRANCH   1   2
ATOM      2  C   UNL     1      -1.642 -34.430  22.475  1.00  0.00     0.006 C 
BRANCH   2   3
ATOM      3  C   UNL     1      -2.265 -33.182  23.121  1.00  0.00     0.053 C 
BRANCH   3   4
ATOM      4  C   UNL     1      -1.432 -32.656  24.248  1.00  0.00     0.041 C 
ATOM      5  O   UNL     1      -0.589 -31.743  24.040  1.00  0.00    -0.550 OA
ATOM      6  O   UNL     1      -1.610 -33.147  25.534  1.00  0.00    -0.550 OA
ENDBRANCH   3   4
ENDBRANCH   2   3
ENDBRANCH   1   2
BRANCH   1   7
ATOM      7  C   UNL     1      -2.118 -36.515  21.064  1.00  0.00     0.000 C 
BRANCH   7   8
ATOM      8  C   UNL     1      -0.585 -36.453  20.993  1.00  0.00    -0.000 C 
BRANCH   8   9
ATOM      9  C   UNL     1       0.066 -37.844  21.054  1.00  0.00    -0.003 C 
ATOM     10  C   UNL     1       1.592 -37.780  21.098  1.00  0.00     0.004 C 
ENDBRANCH   8   9
ENDBRANCH   7   8
ENDBRANCH   1   7
TORSDOF 6
ENDMDL
MODEL 4
REMARK VINA RESULT:    -3.949      3.847      4.590
REMARK INTER + INTRA:          -5.530
REMARK INTER:                  -5.208
REMARK INTRA:                  -0.322
REMARK UNBOUND:                -0.195
REMARK SMILES CCCCCCCC(=O)[O-]
REMARK SMILES IDX 5 1 6 2 7 3 8 4 9 5 10 6 4 7 3 8 2 9 1 10
REMARK H PARENT
REMARK Flexibility Score: inf
ROOT
ATOM      1  C   UNL     1       0.732 -37.418  20.900  1.00  0.00     0.000 C 
ENDROOT
BRANCH   1   2
ATOM      2  C   UNL     1      -0.750 -37.010  21.001  1.00  0.00     0.006 C 
BRANCH   2   3
ATOM      3  C   UNL     1      -0.980 -35.498  21.155  1.00  0.00     0.053 C 
BRANCH   3   4
ATOM      4  C   UNL     1      -2.120 -35.194  22.076  1.00  0.00     0.041 C 
ATOM      5  O   UNL     1      -3.124 -35.954  22.115  1.00  0.00    -0.550 OA
ATOM      6  O   UNL     1      -2.059 -34.091  22.918  1.00  0.00    -0.550 OA
ENDBRANCH   3   4
ENDBRANCH   2   3
ENDBRANCH   1   2
BRANCH   1   7
ATOM      7  C   UNL     1       1.689 -36.225  21.042  1.00  0.00     0.000 C 
BRANCH   7   8
ATOM      8  C   UNL     1       2.935 -36.415  20.163  1.00  0.00    -0.000 C 
BRANCH   8   9
ATOM      9  C   UNL     1       2.750 -35.851  18.746  1.00  0.00    -0.003 C 
ATOM     10  C   UNL     1       2.694 -36.944  17.679  1.00  0.00     0.004 C 
ENDBRANCH   8   9
ENDBRANCH   7   8
ENDBRANCH   1   7
TORSDOF 6
ENDMDL
MODEL 5
REMARK VINA RESULT:    -3.828      3.328      4.749
REMARK INTER + INTRA:          -5.366
REMARK INTER:                  -5.058
REMARK INTRA:                  -0.309
REMARK UNBOUND:                -0.195
REMARK SMILES CCCCCCCC(=O)[O-]
REMARK SMILES IDX 5 1 6 2 7 3 8 4 9 5 10 6 4 7 3 8 2 9 1 10
REMARK H PARENT
REMARK Flexibility Score: inf
ROOT
ATOM      1  C   UNL     1      -1.243 -36.931  20.650  1.00  0.00     0.000 C 
ENDROOT
BRANCH   1   2
ATOM      2  C   UNL     1      -0.220 -37.950  21.186  1.00  0.00     0.006 C 
BRANCH   2   3
ATOM      3  C   UNL     1       1.229 -37.679  20.753  1.00  0.00     0.053 C 
BRANCH   3   4
ATOM      4  C   UNL     1       1.531 -36.214  20.685  1.00  0.00     0.041 C 
ATOM      5  O   UNL     1       1.679 -35.548  21.745  1.00  0.00    -0.550 OA
ATOM      6  O   UNL     1       1.685 -35.591  19.454  1.00  0.00    -0.550 OA
ENDBRANCH   3   4
ENDBRANCH   2   3
ENDBRANCH   1   2
BRANCH   1   7
ATOM      7  C   UNL     1      -2.611 -37.040  21.340  1.00  0.00     0.000 C 
BRANCH   7   8
ATOM      8  C   UNL     1      -2.950 -35.745  22.093  1.00  0.00    -0.000 C 
BRANCH   8   9
ATOM      9  C   UNL     1      -1.762 -34.772  22.159  1.00  0.00    -0.003 C 
ATOM     10  C   UNL     1      -1.962 -33.666  23.195  1.00  0.00     0.004 C 
ENDBRANCH   8   9
ENDBRANCH   7   8
ENDBRANCH   1   7
TORSDOF 6
ENDMDL
MODEL 6
REMARK VINA RESULT:    -3.774      4.344      5.747
REMARK INTER + INTRA:          -5.294
REMARK INTER:                  -4.828
REMARK INTRA:                  -0.466
REMARK UNBOUND:                -0.195
REMARK SMILES CCCCCCCC(=O)[O-]
REMARK SMILES IDX 5 1 6 2 7 3 8 4 9 5 10 6 4 7 3 8 2 9 1 10
REMARK H PARENT
REMARK Flexibility Score: inf
ROOT
ATOM      1  C   UNL     1       1.571 -37.440  19.945  1.00  0.00     0.000 C 
ENDROOT
BRANCH   1   2
ATOM      2  C   UNL     1       0.363 -37.202  20.870  1.00  0.00     0.006 C 
BRANCH   2   3
ATOM      3  C   UNL     1       0.020 -35.720  21.094  1.00  0.00     0.053 C 
BRANCH   3   4
ATOM      4  C   UNL     1      -1.451 -35.503  21.267  1.00  0.00     0.041 C 
ATOM      5  O   UNL     1      -1.879 -34.784  22.209  1.00  0.00    -0.550 OA
ATOM      6  O   UNL     1      -2.348 -36.064  20.368  1.00  0.00    -0.550 OA
ENDBRANCH   3   4
ENDBRANCH   2   3
ENDBRANCH   1   2
BRANCH   1   7
ATOM      7  C   UNL     1       2.135 -36.138  19.355  1.00  0.00     0.000 C 
BRANCH   7   8
ATOM      8  C   UNL     1       3.609 -35.953  19.748  1.00  0.00    -0.000 C 
BRANCH   8   9
ATOM      9  C   UNL     1       3.915 -36.474  21.161  1.00  0.00    -0.003 C 
ATOM     10  C   UNL     1       3.677 -35.421  22.243  1.00  0.00     0.004 C 
ENDBRANCH   8   9
ENDBRANCH   7   8
ENDBRANCH   1   7
TORSDOF 6
ENDMDL
MODEL 7
REMARK VINA RESULT:    -3.712      3.824      4.625
REMARK INTER + INTRA:          -5.209
REMARK INTER:                  -4.959
REMARK INTRA:                  -0.250
REMARK UNBOUND:                -0.195
REMARK SMILES CCCCCCCC(=O)[O-]
REMARK SMILES IDX 5 1 6 2 7 3 8 4 9 5 10 6 4 7 3 8 2 9 1 10
REMARK H PARENT
REMARK Flexibility Score: inf
ROOT
ATOM      1  C   UNL     1       0.141 -36.518  20.808  1.00  0.00     0.000 C 
ENDROOT
BRANCH   1   2
ATOM      2  C   UNL     1       1.488 -35.832  20.511  1.00  0.00     0.006 C 
BRANCH   2   3
ATOM      3  C   UNL     1       2.713 -36.577  21.065  1.00  0.00     0.053 C 
BRANCH   3   4
ATOM      4  C   UNL     1       3.410 -35.796  22.135  1.00  0.00     0.041 C 
ATOM      5  O   UNL     1       4.613 -36.043  22.417  1.00  0.00    -0.550 OA
ATOM      6  O   UNL     1       2.745 -34.772  22.796  1.00  0.00    -0.550 OA
ENDBRANCH   3   4
ENDBRANCH   2   3
ENDBRANCH   1   2
BRANCH   1   7
ATOM      7  C   UNL     1      -0.898 -35.555  21.402  1.00  0.00     0.000 C 
BRANCH   7   8
ATOM      8  C   UNL     1      -2.311 -36.154  21.316  1.00  0.00    -0.000 C 
BRANCH   8   9
ATOM      9  C   UNL     1      -2.298 -37.654  20.985  1.00  0.00    -0.003 C 
ATOM     10  C   UNL     1      -3.592 -38.125  20.322  1.00  0.00     0.004 C 
ENDBRANCH   8   9
ENDBRANCH   7   8
ENDBRANCH   1   7
TORSDOF 6
ENDMDL
MODEL 8
REMARK VINA RESULT:    -3.686      5.661      6.364
REMARK INTER + INTRA:          -5.175
REMARK INTER:                  -4.681
REMARK INTRA:                  -0.494
REMARK UNBOUND:                -0.195
REMARK SMILES CCCCCCCC(=O)[O-]
REMARK SMILES IDX 5 1 6 2 7 3 8 4 9 5 10 6 4 7 3 8 2 9 1 10
REMARK H PARENT
REMARK Flexibility Score: inf
ROOT
ATOM      1  C   UNL     1       1.285 -37.701  19.480  1.00  0.00     0.000 C 
ENDROOT
BRANCH   1   2
ATOM      2  C   UNL     1       1.756 -37.423  20.920  1.00  0.00     0.006 C 
BRANCH   2   3
ATOM      3  C   UNL     1       1.660 -35.948  21.343  1.00  0.00     0.053 C 
BRANCH   3   4
ATOM      4  C   UNL     1       2.861 -35.506  22.119  1.00  0.00     0.041 C 
ATOM      5  O   UNL     1       3.991 -36.011  21.881  1.00  0.00    -0.550 OA
ATOM      6  O   UNL     1       2.741 -34.512  23.081  1.00  0.00    -0.550 OA
ENDBRANCH   3   4
ENDBRANCH   2   3
ENDBRANCH   1   2
BRANCH   1   7
ATOM      7  C   UNL     1       2.438 -38.079  18.539  1.00  0.00     0.000 C 
BRANCH   7   8
ATOM      8  C   UNL     1       2.714 -36.953  17.531  1.00  0.00    -0.000 C 
BRANCH   8   9
ATOM      9  C   UNL     1       3.966 -36.136  17.885  1.00  0.00    -0.003 C 
ATOM     10  C   UNL     1       5.027 -36.964  18.608  1.00  0.00     0.004 C 
ENDBRANCH   8   9
ENDBRANCH   7   8
ENDBRANCH   1   7
TORSDOF 6
ENDMDL
MODEL 9
REMARK VINA RESULT:    -3.649      5.269      5.916
REMARK INTER + INTRA:          -5.124
REMARK INTER:                  -4.982
REMARK INTRA:                  -0.142
REMARK UNBOUND:                -0.195
REMARK SMILES CCCCCCCC(=O)[O-]
REMARK SMILES IDX 5 1 6 2 7 3 8 4 9 5 10 6 4 7 3 8 2 9 1 10
REMARK H PARENT
REMARK Flexibility Score: inf
ROOT
ATOM      1  C   UNL     1       0.931 -35.875  21.217  1.00  0.00     0.000 C 
ENDROOT
BRANCH   1   2
ATOM      2  C   UNL     1       2.123 -36.392  20.389  1.00  0.00     0.006 C 
BRANCH   2   3
ATOM      3  C   UNL     1       2.371 -35.617  19.085  1.00  0.00     0.053 C 
BRANCH   3   4
ATOM      4  C   UNL     1       3.209 -36.395  18.119  1.00  0.00     0.041 C 
ATOM      5  O   UNL     1       2.664 -37.056  17.196  1.00  0.00    -0.550 OA
ATOM      6  O   UNL     1       4.594 -36.363  18.217  1.00  0.00    -0.550 OA
ENDBRANCH   3   4
ENDBRANCH   2   3
ENDBRANCH   1   2
BRANCH   1   7
ATOM      7  C   UNL     1      -0.342 -36.711  21.014  1.00  0.00     0.000 C 
BRANCH   7   8
ATOM      8  C   UNL     1      -1.587 -35.812  20.976  1.00  0.00    -0.000 C 
BRANCH   8   9
ATOM      9  C   UNL     1      -2.830 -36.498  21.564  1.00  0.00    -0.003 C 
ATOM     10  C   UNL     1      -3.281 -37.707  20.745  1.00  0.00     0.004 C 
ENDBRANCH   8   9
ENDBRANCH   7   8
ENDBRANCH   1   7
TORSDOF 6
ENDMDL
