MODEL 1
REMARK VINA RESULT:    -3.691      0.000      0.000
REMARK INTER + INTRA:          -4.766
REMARK INTER:                  -4.554
REMARK INTRA:                  -0.212
REMARK UNBOUND:                -0.212
REMARK SMILES [NH3+][C@H](Cc1ccc(O)cc1)C(=O)[O-]
REMARK SMILES IDX 3 1 2 2 1 3 11 7 12 8 13 9 4 10 5 11 10 12 6 13 9 14 7 15
REMARK SMILES IDX 8 16
REMARK H PARENT 1 4 1 5 1 6 8 17
REMARK Flexibility Score: inf
ROOT
ATOM      1  C   UNL     1      16.413  10.474  31.072  1.00  0.00     0.107 C 
ENDROOT
BRANCH   1   2
ATOM      2  C   UNL     1      17.270  11.753  31.168  1.00  0.00     0.232 C 
BRANCH   2   3
ATOM      3  N   UNL     1      17.289  12.257  32.546  1.00  0.00    -0.350 N 
ATOM      4  H   UNL     1      17.506  13.281  32.563  1.00  0.00     0.345 HD
ATOM      5  H   UNL     1      18.012  11.745  33.101  1.00  0.00     0.345 HD
ATOM      6  H   UNL     1      16.358  12.096  32.995  1.00  0.00     0.345 HD
ENDBRANCH   2   3
BRANCH   2   7
ATOM      7  C   UNL     1      18.676  11.501  30.685  1.00  0.00     0.099 C 
ATOM      8  O   UNL     1      18.886  11.107  29.507  1.00  0.00    -0.544 OA
ATOM      9  O   UNL     1      19.751  11.728  31.534  1.00  0.00    -0.544 OA
ENDBRANCH   2   7
ENDBRANCH   1   2
BRANCH   1  10
ATOM     10  C   UNL     1      15.469  10.520  29.896  1.00  0.00    -0.041 A 
ATOM     11  C   UNL     1      15.737   9.770  28.739  1.00  0.00     0.008 A 
ATOM     12  C   UNL     1      14.336  11.348  29.932  1.00  0.00     0.008 A 
ATOM     13  C   UNL     1      14.876   9.839  27.639  1.00  0.00     0.046 A 
ATOM     14  C   UNL     1      13.476  11.416  28.832  1.00  0.00     0.046 A 
ATOM     15  C   UNL     1      13.742  10.662  27.684  1.00  0.00     0.115 A 
BRANCH  15  16
ATOM     16  O   UNL     1      12.877  10.738  26.595  1.00  0.00    -0.508 OA
ATOM     17  H   UNL     1      13.020  11.411  25.851  1.00  0.00     0.293 HD
ENDBRANCH  15  16
ENDBRANCH   1  10
TORSDOF 5
ENDMDL
MODEL 2
REMARK VINA RESULT:    -3.631      2.983      5.530
REMARK INTER + INTRA:          -4.692
REMARK INTER:                  -4.603
REMARK INTRA:                  -0.089
REMARK UNBOUND:                -0.212
REMARK SMILES [NH3+][C@H](Cc1ccc(O)cc1)C(=O)[O-]
REMARK SMILES IDX 3 1 2 2 1 3 11 7 12 8 13 9 4 10 5 11 10 12 6 13 9 14 7 15
REMARK SMILES IDX 8 16
REMARK H PARENT 1 4 1 5 1 6 8 17
REMARK Flexibility Score: inf
ROOT
ATOM      1  C   UNL     1      13.951  11.000  26.476  1.00  0.00     0.107 C 
ENDROOT
BRANCH   1   2
ATOM      2  C   UNL     1      13.990  12.428  25.893  1.00  0.00     0.232 C 
BRANCH   2   3
ATOM      3  N   UNL     1      15.257  13.088  26.234  1.00  0.00    -0.350 N 
ATOM      4  H   UNL     1      15.152  13.668  27.098  1.00  0.00     0.345 HD
ATOM      5  H   UNL     1      15.559  13.703  25.444  1.00  0.00     0.345 HD
ATOM      6  H   UNL     1      16.000  12.368  26.390  1.00  0.00     0.345 HD
ENDBRANCH   2   3
BRANCH   2   7
ATOM      7  C   UNL     1      13.797  12.410  24.398  1.00  0.00     0.099 C 
ATOM      8  O   UNL     1      12.911  13.125  23.860  1.00  0.00    -0.544 OA
ATOM      9  O   UNL     1      14.616  11.618  23.603  1.00  0.00    -0.544 OA
ENDBRANCH   2   7
ENDBRANCH   1   2
BRANCH   1  10
ATOM     10  C   UNL     1      14.374  10.975  27.924  1.00  0.00    -0.041 A 
ATOM     11  C   UNL     1      15.486  10.220  28.327  1.00  0.00     0.008 A 
ATOM     12  C   UNL     1      13.629  11.673  28.889  1.00  0.00     0.008 A 
ATOM     13  C   UNL     1      15.857  10.175  29.675  1.00  0.00     0.046 A 
ATOM     14  C   UNL     1      14.001  11.626  30.236  1.00  0.00     0.046 A 
ATOM     15  C   UNL     1      15.114  10.879  30.633  1.00  0.00     0.115 A 
BRANCH  15  16
ATOM     16  O   UNL     1      15.474  10.842  31.978  1.00  0.00    -0.508 OA
ATOM     17  H   UNL     1      15.724   9.973  32.436  1.00  0.00     0.293 HD
ENDBRANCH  15  16
ENDBRANCH   1  10
TORSDOF 5
ENDMDL
MODEL 3
REMARK VINA RESULT:    -3.631      1.813      2.346
REMARK INTER + INTRA:          -4.692
REMARK INTER:                  -4.464
REMARK INTRA:                  -0.228
REMARK UNBOUND:                -0.212
REMARK SMILES [NH3+][C@H](Cc1ccc(O)cc1)C(=O)[O-]
REMARK SMILES IDX 3 1 2 2 1 3 11 7 12 8 13 9 4 10 5 11 10 12 6 13 9 14 7 15
REMARK SMILES IDX 8 16
REMARK H PARENT 1 4 1 5 1 6 8 17
REMARK Flexibility Score: inf
ROOT
ATOM      1  C   UNL     1      15.773  10.158  29.531  1.00  0.00     0.107 C 
ENDROOT
BRANCH   1   2
ATOM      2  C   UNL     1      16.000  11.180  30.664  1.00  0.00     0.232 C 
BRANCH   2   3
ATOM      3  N   UNL     1      15.167  10.851  31.827  1.00  0.00    -0.350 N 
ATOM      4  H   UNL     1      15.417  11.454  32.645  1.00  0.00     0.345 HD
ATOM      5  H   UNL     1      15.304   9.848  32.089  1.00  0.00     0.345 HD
ATOM      6  H   UNL     1      14.158  10.992  31.592  1.00  0.00     0.345 HD
ENDBRANCH   2   3
BRANCH   2   7
ATOM      7  C   UNL     1      17.453  11.235  31.062  1.00  0.00     0.099 C 
ATOM      8  O   UNL     1      17.783  11.248  32.277  1.00  0.00    -0.544 OA
ATOM      9  O   UNL     1      18.439  11.245  30.084  1.00  0.00    -0.544 OA
ENDBRANCH   2   7
ENDBRANCH   1   2
BRANCH   1  10
ATOM     10  C   UNL     1      15.242  10.817  28.282  1.00  0.00    -0.041 A 
ATOM     11  C   UNL     1      15.638  12.121  27.942  1.00  0.00     0.008 A 
ATOM     12  C   UNL     1      14.311  10.147  27.471  1.00  0.00     0.008 A 
ATOM     13  C   UNL     1      15.120  12.740  26.800  1.00  0.00     0.046 A 
ATOM     14  C   UNL     1      13.795  10.767  26.330  1.00  0.00     0.046 A 
ATOM     15  C   UNL     1      14.197  12.063  25.991  1.00  0.00     0.115 A 
BRANCH  15  16
ATOM     16  O   UNL     1      13.675  12.670  24.850  1.00  0.00    -0.508 OA
ATOM     17  H   UNL     1      12.963  12.217  24.288  1.00  0.00     0.293 HD
ENDBRANCH  15  16
ENDBRANCH   1  10
TORSDOF 5
ENDMDL
MODEL 4
REMARK VINA RESULT:    -3.623      1.810      2.222
REMARK INTER + INTRA:          -4.683
REMARK INTER:                  -4.458
REMARK INTRA:                  -0.225
REMARK UNBOUND:                -0.212
REMARK SMILES [NH3+][C@H](Cc1ccc(O)cc1)C(=O)[O-]
REMARK SMILES IDX 3 1 2 2 1 3 11 7 12 8 13 9 4 10 5 11 10 12 6 13 9 14 7 15
REMARK SMILES IDX 8 16
REMARK H PARENT 1 4 1 5 1 6 8 17
REMARK Flexibility Score: inf
ROOT
ATOM      1  C   UNL     1      15.779  10.152  29.508  1.00  0.00     0.107 C 
ENDROOT
BRANCH   1   2
ATOM      2  C   UNL     1      16.027  11.154  30.654  1.00  0.00     0.232 C 
BRANCH   2   3
ATOM      3  N   UNL     1      15.225  10.799  31.831  1.00  0.00    -0.350 N 
ATOM      4  H   UNL     1      14.294  10.417  31.543  1.00  0.00     0.345 HD
ATOM      5  H   UNL     1      15.077  11.644  32.428  1.00  0.00     0.345 HD
ATOM      6  H   UNL     1      15.730  10.081  32.401  1.00  0.00     0.345 HD
ENDBRANCH   2   3
BRANCH   2   7
ATOM      7  C   UNL     1      17.489  11.213  31.017  1.00  0.00     0.099 C 
ATOM      8  O   UNL     1      17.847  11.257  32.224  1.00  0.00    -0.544 OA
ATOM      9  O   UNL     1      18.453  11.192  30.017  1.00  0.00    -0.544 OA
ENDBRANCH   2   7
ENDBRANCH   1   2
BRANCH   1  10
ATOM     10  C   UNL     1      15.211  10.828  28.285  1.00  0.00    -0.041 A 
ATOM     11  C   UNL     1      14.326  10.142  27.439  1.00  0.00     0.008 A 
ATOM     12  C   UNL     1      15.599  12.138  27.959  1.00  0.00     0.008 A 
ATOM     13  C   UNL     1      13.825  10.762  26.289  1.00  0.00     0.046 A 
ATOM     14  C   UNL     1      15.098  12.757  26.810  1.00  0.00     0.046 A 
ATOM     15  C   UNL     1      14.210  12.072  25.973  1.00  0.00     0.115 A 
BRANCH  15  16
ATOM     16  O   UNL     1      13.718  12.701  24.831  1.00  0.00    -0.508 OA
ATOM     17  H   UNL     1      13.421  13.669  24.846  1.00  0.00     0.293 HD
ENDBRANCH  15  16
ENDBRANCH   1  10
TORSDOF 5
ENDMDL
MODEL 5
REMARK VINA RESULT:    -3.571      2.127      2.701
REMARK INTER + INTRA:          -4.619
REMARK INTER:                  -4.406
REMARK INTRA:                  -0.213
REMARK UNBOUND:                -0.212
REMARK SMILES [NH3+][C@H](Cc1ccc(O)cc1)C(=O)[O-]
REMARK SMILES IDX 3 1 2 2 1 3 11 7 12 8 13 9 4 10 5 11 10 12 6 13 9 14 7 15
REMARK SMILES IDX 8 16
REMARK H PARENT 1 4 1 5 1 6 8 17
REMARK Flexibility Score: inf
ROOT
ATOM      1  C   UNL     1      15.487  11.287  30.962  1.00  0.00     0.107 C 
ENDROOT
BRANCH   1   2
ATOM      2  C   UNL     1      16.701  10.517  31.523  1.00  0.00     0.232 C 
BRANCH   2   3
ATOM      3  N   UNL     1      17.730  11.452  31.993  1.00  0.00    -0.350 N 
ATOM      4  H   UNL     1      17.953  11.281  33.002  1.00  0.00     0.345 HD
ATOM      5  H   UNL     1      17.394  12.435  31.879  1.00  0.00     0.345 HD
ATOM      6  H   UNL     1      18.601  11.336  31.425  1.00  0.00     0.345 HD
ENDBRANCH   2   3
BRANCH   2   7
ATOM      7  C   UNL     1      16.288   9.591  32.639  1.00  0.00     0.099 C 
ATOM      8  O   UNL     1      15.127   9.653  33.124  1.00  0.00    -0.544 OA
ATOM      9  O   UNL     1      17.182   8.643  33.120  1.00  0.00    -0.544 OA
ENDBRANCH   2   7
ENDBRANCH   1   2
BRANCH   1  10
ATOM     10  C   UNL     1      15.081  10.777  29.601  1.00  0.00    -0.041 A 
ATOM     11  C   UNL     1      13.931  11.276  28.969  1.00  0.00     0.008 A 
ATOM     12  C   UNL     1      15.828   9.766  28.975  1.00  0.00     0.008 A 
ATOM     13  C   UNL     1      13.542  10.780  27.721  1.00  0.00     0.046 A 
ATOM     14  C   UNL     1      15.436   9.271  27.728  1.00  0.00     0.046 A 
ATOM     15  C   UNL     1      14.295   9.776  27.097  1.00  0.00     0.115 A 
BRANCH  15  16
ATOM     16  O   UNL     1      13.916   9.274  25.854  1.00  0.00    -0.508 OA
ATOM     17  H   UNL     1      14.062   9.803  25.002  1.00  0.00     0.293 HD
ENDBRANCH  15  16
ENDBRANCH   1  10
TORSDOF 5
ENDMDL
MODEL 6
REMARK VINA RESULT:    -3.542      2.233      5.345
REMARK INTER + INTRA:          -4.583
REMARK INTER:                  -4.360
REMARK INTRA:                  -0.223
REMARK UNBOUND:                -0.212
REMARK SMILES [NH3+][C@H](Cc1ccc(O)cc1)C(=O)[O-]
REMARK SMILES IDX 3 1 2 2 1 3 11 7 12 8 13 9 4 10 5 11 10 12 6 13 9 14 7 15
REMARK SMILES IDX 8 16
REMARK H PARENT 1 4 1 5 1 6 8 17
REMARK Flexibility Score: inf
ROOT
ATOM      1  C   UNL     1      16.312  11.868  28.799  1.00  0.00     0.107 C 
ENDROOT
BRANCH   1   2
ATOM      2  C   UNL     1      15.460  10.645  29.199  1.00  0.00     0.232 C 
BRANCH   2   3
ATOM      3  N   UNL     1      14.056  11.034  29.377  1.00  0.00    -0.350 N 
ATOM      4  H   UNL     1      13.961  12.076  29.408  1.00  0.00     0.345 HD
ATOM      5  H   UNL     1      13.687  10.631  30.269  1.00  0.00     0.345 HD
ATOM      6  H   UNL     1      13.481  10.660  28.587  1.00  0.00     0.345 HD
ENDBRANCH   2   3
BRANCH   2   7
ATOM      7  C   UNL     1      15.571   9.548  28.171  1.00  0.00     0.099 C 
ATOM      8  O   UNL     1      16.497   8.696  28.244  1.00  0.00    -0.544 OA
ATOM      9  O   UNL     1      14.633   9.456  27.151  1.00  0.00    -0.544 OA
ENDBRANCH   2   7
ENDBRANCH   1   2
BRANCH   1  10
ATOM     10  C   UNL     1      17.711  11.782  29.360  1.00  0.00    -0.041 A 
ATOM     11  C   UNL     1      18.793  11.460  28.525  1.00  0.00     0.008 A 
ATOM     12  C   UNL     1      17.935  11.981  30.732  1.00  0.00     0.008 A 
ATOM     13  C   UNL     1      20.083  11.351  29.054  1.00  0.00     0.046 A 
ATOM     14  C   UNL     1      19.225  11.873  31.258  1.00  0.00     0.046 A 
ATOM     15  C   UNL     1      20.302  11.559  30.423  1.00  0.00     0.115 A 
BRANCH  15  16
ATOM     16  O   UNL     1      21.583  11.454  30.961  1.00  0.00    -0.508 OA
ATOM     17  H   UNL     1      21.738  11.081  31.890  1.00  0.00     0.293 HD
ENDBRANCH  15  16
ENDBRANCH   1  10
TORSDOF 5
ENDMDL
MODEL 7
REMARK VINA RESULT:    -3.465     20.552     22.164
REMARK INTER + INTRA:          -4.488
REMARK INTER:                  -4.285
REMARK INTRA:                  -0.203
REMARK UNBOUND:                -0.212
REMARK SMILES [NH3+][C@H](Cc1ccc(O)cc1)C(=O)[O-]
REMARK SMILES IDX 3 1 2 2 1 3 11 7 12 8 13 9 4 10 5 11 10 12 6 13 9 14 7 15
REMARK SMILES IDX 8 16
REMARK H PARENT 1 4 1 5 1 6 8 17
REMARK Flexibility Score: inf
ROOT
ATOM      1  C   UNL     1      19.470  -6.775  17.710  1.00  0.00     0.107 C 
ENDROOT
BRANCH   1   2
ATOM      2  C   UNL     1      18.472  -6.014  16.814  1.00  0.00     0.232 C 
BRANCH   2   3
ATOM      3  N   UNL     1      17.588  -6.954  16.115  1.00  0.00    -0.350 N 
ATOM      4  H   UNL     1      17.785  -7.938  16.411  1.00  0.00     0.345 HD
ATOM      5  H   UNL     1      17.730  -6.873  15.082  1.00  0.00     0.345 HD
ATOM      6  H   UNL     1      16.589  -6.726  16.326  1.00  0.00     0.345 HD
ENDBRANCH   2   3
BRANCH   2   7
ATOM      7  C   UNL     1      17.659  -5.032  17.619  1.00  0.00     0.099 C 
ATOM      8  O   UNL     1      18.116  -3.889  17.883  1.00  0.00    -0.544 OA
ATOM      9  O   UNL     1      16.385  -5.379  18.052  1.00  0.00    -0.544 OA
ENDBRANCH   2   7
ENDBRANCH   1   2
BRANCH   1  10
ATOM     10  C   UNL     1      20.899  -6.511  17.307  1.00  0.00    -0.041 A 
ATOM     11  C   UNL     1      21.441  -7.125  16.165  1.00  0.00     0.008 A 
ATOM     12  C   UNL     1      21.714  -5.684  18.096  1.00  0.00     0.008 A 
ATOM     13  C   UNL     1      22.776  -6.902  15.811  1.00  0.00     0.046 A 
ATOM     14  C   UNL     1      23.048  -5.462  17.741  1.00  0.00     0.046 A 
ATOM     15  C   UNL     1      23.582  -6.068  16.599  1.00  0.00     0.115 A 
BRANCH  15  16
ATOM     16  O   UNL     1      24.913  -5.838  16.256  1.00  0.00    -0.508 OA
ATOM     17  H   UNL     1      25.278  -6.099  15.348  1.00  0.00     0.293 HD
ENDBRANCH  15  16
ENDBRANCH   1  10
TORSDOF 5
ENDMDL
MODEL 8
REMARK VINA RESULT:    -3.433      2.059      2.359
REMARK INTER + INTRA:          -4.448
REMARK INTER:                  -4.207
REMARK INTRA:                  -0.241
REMARK UNBOUND:                -0.212
REMARK SMILES [NH3+][C@H](Cc1ccc(O)cc1)C(=O)[O-]
REMARK SMILES IDX 3 1 2 2 1 3 11 7 12 8 13 9 4 10 5 11 10 12 6 13 9 14 7 15
REMARK SMILES IDX 8 16
REMARK H PARENT 1 4 1 5 1 6 8 17
REMARK Flexibility Score: inf
ROOT
ATOM      1  C   UNL     1      18.029  12.480  28.623  1.00  0.00     0.107 C 
ENDROOT
BRANCH   1   2
ATOM      2  C   UNL     1      18.867  11.416  29.362  1.00  0.00     0.232 C 
BRANCH   2   3
ATOM      3  N   UNL     1      20.183  11.268  28.730  1.00  0.00    -0.350 N 
ATOM      4  H   UNL     1      20.468  10.262  28.699  1.00  0.00     0.345 HD
ATOM      5  H   UNL     1      20.898  11.808  29.269  1.00  0.00     0.345 HD
ATOM      6  H   UNL     1      20.153  11.647  27.755  1.00  0.00     0.345 HD
ENDBRANCH   2   3
BRANCH   2   7
ATOM      7  C   UNL     1      19.024  11.766  30.820  1.00  0.00     0.099 C 
ATOM      8  O   UNL     1      18.061  11.621  31.619  1.00  0.00    -0.544 OA
ATOM      9  O   UNL     1      20.245  12.227  31.294  1.00  0.00    -0.544 OA
ENDBRANCH   2   7
ENDBRANCH   1   2
BRANCH   1  10
ATOM     10  C   UNL     1      16.683  11.942  28.205  1.00  0.00    -0.041 A 
ATOM     11  C   UNL     1      16.316  10.623  28.519  1.00  0.00     0.008 A 
ATOM     12  C   UNL     1      15.803  12.742  27.459  1.00  0.00     0.008 A 
ATOM     13  C   UNL     1      15.079  10.118  28.103  1.00  0.00     0.046 A 
ATOM     14  C   UNL     1      14.568  12.236  27.044  1.00  0.00     0.046 A 
ATOM     15  C   UNL     1      14.202  10.925  27.365  1.00  0.00     0.115 A 
BRANCH  15  16
ATOM     16  O   UNL     1      12.968  10.432  26.946  1.00  0.00    -0.508 OA
ATOM     17  H   UNL     1      12.186  10.351  27.585  1.00  0.00     0.293 HD
ENDBRANCH  15  16
ENDBRANCH   1  10
TORSDOF 5
ENDMDL
MODEL 9
REMARK VINA RESULT:    -3.427      2.706      5.697
REMARK INTER + INTRA:          -4.441
REMARK INTER:                  -4.202
REMARK INTRA:                  -0.239
REMARK UNBOUND:                -0.212
REMARK SMILES [NH3+][C@H](Cc1ccc(O)cc1)C(=O)[O-]
REMARK SMILES IDX 3 1 2 2 1 3 11 7 12 8 13 9 4 10 5 11 10 12 6 13 9 14 7 15
REMARK SMILES IDX 8 16
REMARK H PARENT 1 4 1 5 1 6 8 17
REMARK Flexibility Score: inf
ROOT
ATOM      1  C   UNL     1      17.037  12.270  28.250  1.00  0.00     0.107 C 
ENDROOT
BRANCH   1   2
ATOM      2  C   UNL     1      16.269  11.338  29.210  1.00  0.00     0.232 C 
BRANCH   2   3
ATOM      3  N   UNL     1      15.179  12.067  29.870  1.00  0.00    -0.350 N 
ATOM      4  H   UNL     1      15.365  12.164  30.895  1.00  0.00     0.345 HD
ATOM      5  H   UNL     1      14.277  11.555  29.735  1.00  0.00     0.345 HD
ATOM      6  H   UNL     1      15.080  13.018  29.446  1.00  0.00     0.345 HD
ENDBRANCH   2   3
BRANCH   2   7
ATOM      7  C   UNL     1      15.727  10.135  28.481  1.00  0.00     0.099 C 
ATOM      8  O   UNL     1      16.453   9.125  28.286  1.00  0.00    -0.544 OA
ATOM      9  O   UNL     1      14.409  10.127  28.041  1.00  0.00    -0.544 OA
ENDBRANCH   2   7
ENDBRANCH   1   2
BRANCH   1  10
ATOM     10  C   UNL     1      18.507  12.332  28.587  1.00  0.00    -0.041 A 
ATOM     11  C   UNL     1      19.386  13.093  27.800  1.00  0.00     0.008 A 
ATOM     12  C   UNL     1      19.015  11.591  29.667  1.00  0.00     0.008 A 
ATOM     13  C   UNL     1      20.752  13.123  28.098  1.00  0.00     0.046 A 
ATOM     14  C   UNL     1      20.381  11.622  29.962  1.00  0.00     0.046 A 
ATOM     15  C   UNL     1      21.252  12.388  29.181  1.00  0.00     0.115 A 
BRANCH  15  16
ATOM     16  O   UNL     1      22.611  12.411  29.487  1.00  0.00    -0.508 OA
ATOM     17  H   UNL     1      23.297  12.753  28.825  1.00  0.00     0.293 HD
ENDBRANCH  15  16
ENDBRANCH   1  10
TORSDOF 5
ENDMDL
