MODEL 1
REMARK VINA RESULT:    -4.351      0.000      0.000
REMARK INTER + INTRA:         -16.496
REMARK INTER:                 -11.473
REMARK INTRA:                  -5.023
REMARK UNBOUND:                -5.023
REMARK SMILES CCCCCCCCCCCCCCCCCCCCCCCCCCCCCC(=O)[O-]
REMARK SMILES IDX 16 1 17 2 18 3 19 4 20 5 21 6 22 7 23 8 24 9 25 10 26 11
REMARK SMILES IDX 27 12 28 13 29 14 30 15 31 16 32 17 15 18 14 19 13 20 12 21
REMARK SMILES IDX 11 22 10 23 9 24 8 25 7 26 6 27 5 28 4 29 3 30 2 31 1 32
REMARK H PARENT
REMARK Flexibility Score: inf
ROOT
ATOM      1  C   UNL     1      -2.543  29.956  59.318  1.00  0.00     0.000 C 
ENDROOT
BRANCH   1   2
ATOM      2  C   UNL     1      -1.961  28.545  59.502  1.00  0.00     0.000 C 
BRANCH   2   3
ATOM      3  C   UNL     1      -2.997  27.440  59.226  1.00  0.00     0.000 C 
BRANCH   3   4
ATOM      4  C   UNL     1      -2.610  26.549  58.035  1.00  0.00     0.000 C 
BRANCH   4   5
ATOM      5  C   UNL     1      -1.509  27.168  57.161  1.00  0.00     0.000 C 
BRANCH   5   6
ATOM      6  C   UNL     1      -0.897  26.121  56.223  1.00  0.00     0.000 C 
BRANCH   6   7
ATOM      7  C   UNL     1      -1.441  24.723  56.531  1.00  0.00     0.000 C 
BRANCH   7   8
ATOM      8  C   UNL     1      -1.743  23.948  55.243  1.00  0.00     0.000 C 
BRANCH   8   9
ATOM      9  C   UNL     1      -3.254  23.896  54.977  1.00  0.00     0.000 C 
BRANCH   9  10
ATOM     10  C   UNL     1      -3.716  24.998  54.001  1.00  0.00     0.000 C 
BRANCH  10  11
ATOM     11  C   UNL     1      -4.280  26.248  54.702  1.00  0.00     0.000 C 
BRANCH  11  12
ATOM     12  C   UNL     1      -5.758  26.143  55.119  1.00  0.00     0.000 C 
BRANCH  12  13
ATOM     13  C   UNL     1      -5.993  26.567  56.578  1.00  0.00     0.006 C 
BRANCH  13  14
ATOM     14  C   UNL     1      -6.196  25.344  57.479  1.00  0.00     0.053 C 
BRANCH  14  15
ATOM     15  C   UNL     1      -7.619  24.875  57.432  1.00  0.00     0.041 C 
ATOM     16  O   UNL     1      -8.501  25.455  58.120  1.00  0.00    -0.550 OA
ATOM     17  O   UNL     1      -7.980  23.826  56.594  1.00  0.00    -0.550 OA
ENDBRANCH  14  15
ENDBRANCH  13  14
ENDBRANCH  12  13
ENDBRANCH  11  12
ENDBRANCH  10  11
ENDBRANCH   9  10
ENDBRANCH   8   9
ENDBRANCH   7   8
ENDBRANCH   6   7
ENDBRANCH   5   6
ENDBRANCH   4   5
ENDBRANCH   3   4
ENDBRANCH   2   3
ENDBRANCH   1   2
BRANCH   1  18
ATOM     18  C   UNL     1      -2.447  30.451  57.867  1.00  0.00     0.000 C 
BRANCH  18  19
ATOM     19  C   UNL     1      -3.843  30.720  57.285  1.00  0.00     0.000 C 
BRANCH  19  20
ATOM     20  C   UNL     1      -4.267  29.663  56.254  1.00  0.00     0.000 C 
BRANCH  20  21
ATOM     21  C   UNL     1      -5.567  30.037  55.519  1.00  0.00     0.000 C 
BRANCH  21  22
ATOM     22  C   UNL     1      -6.052  31.452  55.871  1.00  0.00     0.000 C 
BRANCH  22  23
ATOM     23  C   UNL     1      -7.375  31.811  55.175  1.00  0.00     0.000 C 
BRANCH  23  24
ATOM     24  C   UNL     1      -7.192  32.823  54.031  1.00  0.00    -0.000 C 
BRANCH  24  25
ATOM     25  C   UNL     1      -5.738  33.286  53.799  1.00  0.00    -0.000 C 
BRANCH  25  26
ATOM     26  C   UNL     1      -5.476  34.780  54.068  1.00  0.00    -0.000 C 
BRANCH  26  27
ATOM     27  C   UNL     1      -4.005  35.142  54.345  1.00  0.00    -0.000 C 
BRANCH  27  28
ATOM     28  C   UNL     1      -3.217  34.030  55.071  1.00  0.00    -0.000 C 
BRANCH  28  29
ATOM     29  C   UNL     1      -1.948  33.608  54.308  1.00  0.00    -0.000 C 
BRANCH  29  30
ATOM     30  C   UNL     1      -2.105  32.258  53.585  1.00  0.00    -0.000 C 
BRANCH  30  31
ATOM     31  C   UNL     1      -1.547  31.045  54.352  1.00  0.00    -0.003 C 
ATOM     32  C   UNL     1      -1.715  29.729  53.592  1.00  0.00     0.004 C 
ENDBRANCH  30  31
ENDBRANCH  29  30
ENDBRANCH  28  29
ENDBRANCH  27  28
ENDBRANCH  26  27
ENDBRANCH  25  26
ENDBRANCH  24  25
ENDBRANCH  23  24
ENDBRANCH  22  23
ENDBRANCH  21  22
ENDBRANCH  20  21
ENDBRANCH  19  20
ENDBRANCH  18  19
ENDBRANCH   1  18
TORSDOF 28
ENDMDL
MODEL 2
REMARK VINA RESULT:    -4.310      2.390      6.892
REMARK INTER + INTRA:         -16.387
REMARK INTER:                 -11.169
REMARK INTRA:                  -5.219
REMARK UNBOUND:                -5.023
REMARK SMILES CCCCCCCCCCCCCCCCCCCCCCCCCCCCCC(=O)[O-]
REMARK SMILES IDX 16 1 17 2 18 3 19 4 20 5 21 6 22 7 23 8 24 9 25 10 26 11
REMARK SMILES IDX 27 12 28 13 29 14 30 15 31 16 32 17 15 18 14 19 13 20 12 21
REMARK SMILES IDX 11 22 10 23 9 24 8 25 7 26 6 27 5 28 4 29 3 30 2 31 1 32
REMARK H PARENT
REMARK Flexibility Score: inf
ROOT
ATOM      1  C   UNL     1      -7.198  24.883  58.000  1.00  0.00     0.000 C 
ENDROOT
BRANCH   1   2
ATOM      2  C   UNL     1      -6.743  26.348  58.102  1.00  0.00     0.000 C 
BRANCH   2   3
ATOM      3  C   UNL     1      -5.407  26.499  58.852  1.00  0.00     0.000 C 
BRANCH   3   4
ATOM      4  C   UNL     1      -4.429  25.351  58.555  1.00  0.00     0.000 C 
BRANCH   4   5
ATOM      5  C   UNL     1      -3.043  25.848  58.118  1.00  0.00     0.000 C 
BRANCH   5   6
ATOM      6  C   UNL     1      -2.805  27.292  58.576  1.00  0.00     0.000 C 
BRANCH   6   7
ATOM      7  C   UNL     1      -1.548  27.875  57.922  1.00  0.00     0.000 C 
BRANCH   7   8
ATOM      8  C   UNL     1      -1.112  29.171  58.614  1.00  0.00     0.000 C 
BRANCH   8   9
ATOM      9  C   UNL     1      -1.053  30.333  57.613  1.00  0.00     0.000 C 
BRANCH   9  10
ATOM     10  C   UNL     1      -2.438  30.668  57.021  1.00  0.00     0.000 C 
BRANCH  10  11
ATOM     11  C   UNL     1      -2.393  31.728  55.905  1.00  0.00     0.000 C 
BRANCH  11  12
ATOM     12  C   UNL     1      -3.731  32.437  55.632  1.00  0.00     0.000 C 
BRANCH  12  13
ATOM     13  C   UNL     1      -4.744  31.535  54.909  1.00  0.00     0.006 C 
BRANCH  13  14
ATOM     14  C   UNL     1      -5.932  31.204  55.820  1.00  0.00     0.053 C 
BRANCH  14  15
ATOM     15  C   UNL     1      -7.224  31.629  55.189  1.00  0.00     0.041 C 
ATOM     16  O   UNL     1      -7.241  32.049  54.001  1.00  0.00    -0.550 OA
ATOM     17  O   UNL     1      -8.414  31.520  55.898  1.00  0.00    -0.550 OA
ENDBRANCH  14  15
ENDBRANCH  13  14
ENDBRANCH  12  13
ENDBRANCH  11  12
ENDBRANCH  10  11
ENDBRANCH   9  10
ENDBRANCH   8   9
ENDBRANCH   7   8
ENDBRANCH   6   7
ENDBRANCH   5   6
ENDBRANCH   4   5
ENDBRANCH   3   4
ENDBRANCH   2   3
ENDBRANCH   1   2
BRANCH   1  18
ATOM     18  C   UNL     1      -7.383  24.421  56.547  1.00  0.00     0.000 C 
BRANCH  18  19
ATOM     19  C   UNL     1      -6.720  25.403  55.570  1.00  0.00     0.000 C 
BRANCH  19  20
ATOM     20  C   UNL     1      -5.491  24.802  54.871  1.00  0.00     0.000 C 
BRANCH  20  21
ATOM     21  C   UNL     1      -4.463  25.869  54.455  1.00  0.00     0.000 C 
BRANCH  21  22
ATOM     22  C   UNL     1      -4.622  27.176  55.246  1.00  0.00     0.000 C 
BRANCH  22  23
ATOM     23  C   UNL     1      -3.687  28.288  54.741  1.00  0.00     0.000 C 
BRANCH  23  24
ATOM     24  C   UNL     1      -2.791  27.831  53.577  1.00  0.00    -0.000 C 
BRANCH  24  25
ATOM     25  C   UNL     1      -1.281  27.799  53.893  1.00  0.00    -0.000 C 
BRANCH  25  26
ATOM     26  C   UNL     1      -0.668  26.391  54.015  1.00  0.00    -0.000 C 
BRANCH  26  27
ATOM     27  C   UNL     1      -0.341  25.947  55.453  1.00  0.00    -0.000 C 
BRANCH  27  28
ATOM     28  C   UNL     1      -0.329  24.414  55.644  1.00  0.00    -0.000 C 
BRANCH  28  29
ATOM     29  C   UNL     1      -1.694  23.769  55.346  1.00  0.00    -0.000 C 
BRANCH  29  30
ATOM     30  C   UNL     1      -1.572  22.390  54.673  1.00  0.00    -0.000 C 
BRANCH  30  31
ATOM     31  C   UNL     1      -2.488  21.301  55.261  1.00  0.00    -0.003 C 
ATOM     32  C   UNL     1      -3.732  21.870  55.942  1.00  0.00     0.004 C 
ENDBRANCH  30  31
ENDBRANCH  29  30
ENDBRANCH  28  29
ENDBRANCH  27  28
ENDBRANCH  26  27
ENDBRANCH  25  26
ENDBRANCH  24  25
ENDBRANCH  23  24
ENDBRANCH  22  23
ENDBRANCH  21  22
ENDBRANCH  20  21
ENDBRANCH  19  20
ENDBRANCH  18  19
ENDBRANCH   1  18
TORSDOF 28
ENDMDL
MODEL 3
REMARK VINA RESULT:    -4.250      2.629      7.152
REMARK INTER + INTRA:         -16.229
REMARK INTER:                 -10.622
REMARK INTRA:                  -5.607
REMARK UNBOUND:                -5.023
REMARK SMILES CCCCCCCCCCCCCCCCCCCCCCCCCCCCCC(=O)[O-]
REMARK SMILES IDX 16 1 17 2 18 3 19 4 20 5 21 6 22 7 23 8 24 9 25 10 26 11
REMARK SMILES IDX 27 12 28 13 29 14 30 15 31 16 32 17 15 18 14 19 13 20 12 21
REMARK SMILES IDX 11 22 10 23 9 24 8 25 7 26 6 27 5 28 4 29 3 30 2 31 1 32
REMARK H PARENT
REMARK Flexibility Score: inf
ROOT
ATOM      1  C   UNL     1      -3.727  25.862  59.212  1.00  0.00     0.000 C 
ENDROOT
BRANCH   1   2
ATOM      2  C   UNL     1      -2.698  26.925  58.793  1.00  0.00     0.000 C 
BRANCH   2   3
ATOM      3  C   UNL     1      -2.818  28.218  59.622  1.00  0.00     0.000 C 
BRANCH   3   4
ATOM      4  C   UNL     1      -2.438  29.472  58.819  1.00  0.00     0.000 C 
BRANCH   4   5
ATOM      5  C   UNL     1      -0.920  29.696  58.745  1.00  0.00     0.000 C 
BRANCH   5   6
ATOM      6  C   UNL     1      -0.541  30.493  57.492  1.00  0.00     0.000 C 
BRANCH   6   7
ATOM      7  C   UNL     1      -1.534  30.231  56.354  1.00  0.00     0.000 C 
BRANCH   7   8
ATOM      8  C   UNL     1      -1.026  29.127  55.419  1.00  0.00     0.000 C 
BRANCH   8   9
ATOM      9  C   UNL     1      -2.012  27.951  55.375  1.00  0.00     0.000 C 
BRANCH   9  10
ATOM     10  C   UNL     1      -3.413  28.378  54.887  1.00  0.00     0.000 C 
BRANCH  10  11
ATOM     11  C   UNL     1      -4.517  28.199  55.946  1.00  0.00     0.000 C 
BRANCH  11  12
ATOM     12  C   UNL     1      -5.328  29.470  56.254  1.00  0.00     0.000 C 
BRANCH  12  13
ATOM     13  C   UNL     1      -5.001  30.628  55.297  1.00  0.00     0.006 C 
BRANCH  13  14
ATOM     14  C   UNL     1      -5.822  31.875  55.645  1.00  0.00     0.053 C 
BRANCH  14  15
ATOM     15  C   UNL     1      -7.284  31.553  55.708  1.00  0.00     0.041 C 
ATOM     16  O   UNL     1      -7.913  31.253  54.658  1.00  0.00    -0.550 OA
ATOM     17  O   UNL     1      -7.944  31.540  56.931  1.00  0.00    -0.550 OA
ENDBRANCH  14  15
ENDBRANCH  13  14
ENDBRANCH  12  13
ENDBRANCH  11  12
ENDBRANCH  10  11
ENDBRANCH   9  10
ENDBRANCH   8   9
ENDBRANCH   7   8
ENDBRANCH   6   7
ENDBRANCH   5   6
ENDBRANCH   4   5
ENDBRANCH   3   4
ENDBRANCH   2   3
ENDBRANCH   1   2
BRANCH   1  18
ATOM     18  C   UNL     1      -5.155  26.420  59.294  1.00  0.00     0.000 C 
BRANCH  18  19
ATOM     19  C   UNL     1      -6.187  25.348  58.913  1.00  0.00     0.000 C 
BRANCH  19  20
ATOM     20  C   UNL     1      -7.016  25.739  57.680  1.00  0.00     0.000 C 
BRANCH  20  21
ATOM     21  C   UNL     1      -6.989  24.663  56.580  1.00  0.00     0.000 C 
BRANCH  21  22
ATOM     22  C   UNL     1      -6.454  25.204  55.245  1.00  0.00     0.000 C 
BRANCH  22  23
ATOM     23  C   UNL     1      -5.155  24.507  54.806  1.00  0.00     0.000 C 
BRANCH  23  24
ATOM     24  C   UNL     1      -4.159  24.317  55.963  1.00  0.00    -0.000 C 
BRANCH  24  25
ATOM     25  C   UNL     1      -2.682  24.572  55.598  1.00  0.00    -0.000 C 
BRANCH  25  26
ATOM     26  C   UNL     1      -2.345  24.442  54.100  1.00  0.00    -0.000 C 
BRANCH  26  27
ATOM     27  C   UNL     1      -0.894  24.026  53.794  1.00  0.00    -0.000 C 
BRANCH  27  28
ATOM     28  C   UNL     1      -0.398  22.830  54.636  1.00  0.00    -0.000 C 
BRANCH  28  29
ATOM     29  C   UNL     1      -1.016  21.494  54.187  1.00  0.00    -0.000 C 
BRANCH  29  30
ATOM     30  C   UNL     1      -2.032  20.933  55.199  1.00  0.00    -0.000 C 
BRANCH  30  31
ATOM     31  C   UNL     1      -3.282  20.289  54.572  1.00  0.00    -0.003 C 
ATOM     32  C   UNL     1      -3.981  21.201  53.564  1.00  0.00     0.004 C 
ENDBRANCH  30  31
ENDBRANCH  29  30
ENDBRANCH  28  29
ENDBRANCH  27  28
ENDBRANCH  26  27
ENDBRANCH  25  26
ENDBRANCH  24  25
ENDBRANCH  23  24
ENDBRANCH  22  23
ENDBRANCH  21  22
ENDBRANCH  20  21
ENDBRANCH  19  20
ENDBRANCH  18  19
ENDBRANCH   1  18
TORSDOF 28
ENDMDL
MODEL 4
REMARK VINA RESULT:    -4.247      2.621      7.768
REMARK INTER + INTRA:         -16.223
REMARK INTER:                 -11.129
REMARK INTRA:                  -5.094
REMARK UNBOUND:                -5.023
REMARK SMILES CCCCCCCCCCCCCCCCCCCCCCCCCCCCCC(=O)[O-]
REMARK SMILES IDX 16 1 17 2 18 3 19 4 20 5 21 6 22 7 23 8 24 9 25 10 26 11
REMARK SMILES IDX 27 12 28 13 29 14 30 15 31 16 32 17 15 18 14 19 13 20 12 21
REMARK SMILES IDX 11 22 10 23 9 24 8 25 7 26 6 27 5 28 4 29 3 30 2 31 1 32
REMARK H PARENT
REMARK Flexibility Score: inf
ROOT
ATOM      1  C   UNL     1      -1.674  26.801  56.509  1.00  0.00     0.000 C 
ENDROOT
BRANCH   1   2
ATOM      2  C   UNL     1      -2.188  27.273  55.140  1.00  0.00     0.000 C 
BRANCH   2   3
ATOM      3  C   UNL     1      -1.441  28.519  54.628  1.00  0.00     0.000 C 
BRANCH   3   4
ATOM      4  C   UNL     1      -2.164  29.204  53.458  1.00  0.00     0.000 C 
BRANCH   4   5
ATOM      5  C   UNL     1      -2.361  30.711  53.679  1.00  0.00     0.000 C 
BRANCH   5   6
ATOM      6  C   UNL     1      -1.107  31.346  54.292  1.00  0.00     0.000 C 
BRANCH   6   7
ATOM      7  C   UNL     1      -1.393  31.872  55.703  1.00  0.00     0.000 C 
BRANCH   7   8
ATOM      8  C   UNL     1      -0.585  31.104  56.756  1.00  0.00     0.000 C 
BRANCH   8   9
ATOM      9  C   UNL     1      -1.514  30.306  57.682  1.00  0.00     0.000 C 
BRANCH   9  10
ATOM     10  C   UNL     1      -2.971  30.810  57.627  1.00  0.00     0.000 C 
BRANCH  10  11
ATOM     11  C   UNL     1      -4.011  29.682  57.491  1.00  0.00     0.000 C 
BRANCH  11  12
ATOM     12  C   UNL     1      -4.788  29.677  56.163  1.00  0.00     0.000 C 
BRANCH  12  13
ATOM     13  C   UNL     1      -5.190  31.089  55.706  1.00  0.00     0.006 C 
BRANCH  13  14
ATOM     14  C   UNL     1      -6.100  31.028  54.473  1.00  0.00     0.053 C 
BRANCH  14  15
ATOM     15  C   UNL     1      -7.362  31.803  54.701  1.00  0.00     0.041 C 
ATOM     16  O   UNL     1      -7.686  32.732  53.914  1.00  0.00    -0.550 OA
ATOM     17  O   UNL     1      -8.204  31.471  55.756  1.00  0.00    -0.550 OA
ENDBRANCH  14  15
ENDBRANCH  13  14
ENDBRANCH  12  13
ENDBRANCH  11  12
ENDBRANCH  10  11
ENDBRANCH   9  10
ENDBRANCH   8   9
ENDBRANCH   7   8
ENDBRANCH   6   7
ENDBRANCH   5   6
ENDBRANCH   4   5
ENDBRANCH   3   4
ENDBRANCH   2   3
ENDBRANCH   1   2
BRANCH   1  18
ATOM     18  C   UNL     1      -1.390  25.292  56.547  1.00  0.00     0.000 C 
BRANCH  18  19
ATOM     19  C   UNL     1      -0.164  24.943  55.689  1.00  0.00     0.000 C 
BRANCH  19  20
ATOM     20  C   UNL     1      -0.328  23.611  54.940  1.00  0.00     0.000 C 
BRANCH  20  21
ATOM     21  C   UNL     1      -1.800  23.269  54.651  1.00  0.00     0.000 C 
BRANCH  21  22
ATOM     22  C   UNL     1      -2.210  21.908  55.234  1.00  0.00     0.000 C 
BRANCH  22  23
ATOM     23  C   UNL     1      -3.564  21.963  55.963  1.00  0.00     0.000 C 
BRANCH  23  24
ATOM     24  C   UNL     1      -4.420  23.170  55.541  1.00  0.00    -0.000 C 
BRANCH  24  25
ATOM     25  C   UNL     1      -4.913  24.055  56.705  1.00  0.00    -0.000 C 
BRANCH  25  26
ATOM     26  C   UNL     1      -5.343  25.480  56.307  1.00  0.00    -0.000 C 
BRANCH  26  27
ATOM     27  C   UNL     1      -5.665  26.415  57.487  1.00  0.00    -0.000 C 
BRANCH  27  28
ATOM     28  C   UNL     1      -4.665  26.304  58.660  1.00  0.00    -0.000 C 
BRANCH  28  29
ATOM     29  C   UNL     1      -5.365  26.131  60.020  1.00  0.00    -0.000 C 
BRANCH  29  30
ATOM     30  C   UNL     1      -6.891  25.971  59.894  1.00  0.00    -0.000 C 
BRANCH  30  31
ATOM     31  C   UNL     1      -7.646  25.892  61.233  1.00  0.00    -0.003 C 
ATOM     32  C   UNL     1      -6.785  26.302  62.428  1.00  0.00     0.004 C 
ENDBRANCH  30  31
ENDBRANCH  29  30
ENDBRANCH  28  29
ENDBRANCH  27  28
ENDBRANCH  26  27
ENDBRANCH  25  26
ENDBRANCH  24  25
ENDBRANCH  23  24
ENDBRANCH  22  23
ENDBRANCH  21  22
ENDBRANCH  20  21
ENDBRANCH  19  20
ENDBRANCH  18  19
ENDBRANCH   1  18
TORSDOF 28
ENDMDL
MODEL 5
REMARK VINA RESULT:    -4.243      1.813      5.049
REMARK INTER + INTRA:         -16.212
REMARK INTER:                 -10.876
REMARK INTRA:                  -5.336
REMARK UNBOUND:                -5.023
REMARK SMILES CCCCCCCCCCCCCCCCCCCCCCCCCCCCCC(=O)[O-]
REMARK SMILES IDX 16 1 17 2 18 3 19 4 20 5 21 6 22 7 23 8 24 9 25 10 26 11
REMARK SMILES IDX 27 12 28 13 29 14 30 15 31 16 32 17 15 18 14 19 13 20 12 21
REMARK SMILES IDX 11 22 10 23 9 24 8 25 7 26 6 27 5 28 4 29 3 30 2 31 1 32
REMARK H PARENT
REMARK Flexibility Score: inf
ROOT
ATOM      1  C   UNL     1      -3.784  22.340  55.865  1.00  0.00     0.000 C 
ENDROOT
BRANCH   1   2
ATOM      2  C   UNL     1      -2.541  21.446  55.732  1.00  0.00     0.000 C 
BRANCH   2   3
ATOM      3  C   UNL     1      -2.392  20.850  54.320  1.00  0.00     0.000 C 
BRANCH   3   4
ATOM      4  C   UNL     1      -1.119  21.330  53.606  1.00  0.00     0.000 C 
BRANCH   4   5
ATOM      5  C   UNL     1      -0.394  22.449  54.369  1.00  0.00     0.000 C 
BRANCH   5   6
ATOM      6  C   UNL     1      -0.334  23.734  53.535  1.00  0.00     0.000 C 
BRANCH   6   7
ATOM      7  C   UNL     1      -0.770  24.947  54.364  1.00  0.00     0.000 C 
BRANCH   7   8
ATOM      8  C   UNL     1      -0.661  24.661  55.866  1.00  0.00     0.000 C 
BRANCH   8   9
ATOM      9  C   UNL     1      -1.191  25.844  56.688  1.00  0.00     0.000 C 
BRANCH   9  10
ATOM     10  C   UNL     1      -2.687  25.695  57.034  1.00  0.00     0.000 C 
BRANCH  10  11
ATOM     11  C   UNL     1      -3.051  26.204  58.441  1.00  0.00     0.000 C 
BRANCH  11  12
ATOM     12  C   UNL     1      -4.315  25.573  59.050  1.00  0.00     0.000 C 
BRANCH  12  13
ATOM     13  C   UNL     1      -5.284  25.040  57.983  1.00  0.00     0.006 C 
BRANCH  13  14
ATOM     14  C   UNL     1      -6.682  24.819  58.573  1.00  0.00     0.053 C 
BRANCH  14  15
ATOM     15  C   UNL     1      -7.363  26.127  58.839  1.00  0.00     0.041 C 
ATOM     16  O   UNL     1      -8.127  26.253  59.833  1.00  0.00    -0.550 OA
ATOM     17  O   UNL     1      -7.119  27.220  58.016  1.00  0.00    -0.550 OA
ENDBRANCH  14  15
ENDBRANCH  13  14
ENDBRANCH  12  13
ENDBRANCH  11  12
ENDBRANCH  10  11
ENDBRANCH   9  10
ENDBRANCH   8   9
ENDBRANCH   7   8
ENDBRANCH   6   7
ENDBRANCH   5   6
ENDBRANCH   4   5
ENDBRANCH   3   4
ENDBRANCH   2   3
ENDBRANCH   1   2
BRANCH   1  18
ATOM     18  C   UNL     1      -4.426  22.666  54.508  1.00  0.00     0.000 C 
BRANCH  18  19
ATOM     19  C   UNL     1      -4.299  24.162  54.185  1.00  0.00     0.000 C 
BRANCH  19  20
ATOM     20  C   UNL     1      -5.629  24.916  54.347  1.00  0.00     0.000 C 
BRANCH  20  21
ATOM     21  C   UNL     1      -5.519  26.403  53.967  1.00  0.00     0.000 C 
BRANCH  21  22
ATOM     22  C   UNL     1      -4.060  26.868  53.835  1.00  0.00     0.000 C 
BRANCH  22  23
ATOM     23  C   UNL     1      -3.802  28.207  54.547  1.00  0.00     0.000 C 
BRANCH  23  24
ATOM     24  C   UNL     1      -4.809  28.486  55.676  1.00  0.00    -0.000 C 
BRANCH  24  25
ATOM     25  C   UNL     1      -4.232  29.241  56.891  1.00  0.00    -0.000 C 
BRANCH  25  26
ATOM     26  C   UNL     1      -4.424  30.769  56.865  1.00  0.00    -0.000 C 
BRANCH  26  27
ATOM     27  C   UNL     1      -3.247  31.562  56.267  1.00  0.00    -0.000 C 
BRANCH  27  28
ATOM     28  C   UNL     1      -3.661  32.542  55.148  1.00  0.00    -0.000 C 
BRANCH  28  29
ATOM     29  C   UNL     1      -4.800  31.992  54.270  1.00  0.00    -0.000 C 
BRANCH  29  30
ATOM     30  C   UNL     1      -5.733  33.094  53.737  1.00  0.00    -0.000 C 
BRANCH  30  31
ATOM     31  C   UNL     1      -7.214  32.931  54.123  1.00  0.00    -0.003 C 
ATOM     32  C   UNL     1      -7.441  31.843  55.172  1.00  0.00     0.004 C 
ENDBRANCH  30  31
ENDBRANCH  29  30
ENDBRANCH  28  29
ENDBRANCH  27  28
ENDBRANCH  26  27
ENDBRANCH  25  26
ENDBRANCH  24  25
ENDBRANCH  23  24
ENDBRANCH  22  23
ENDBRANCH  21  22
ENDBRANCH  20  21
ENDBRANCH  19  20
ENDBRANCH  18  19
ENDBRANCH   1  18
TORSDOF 28
ENDMDL
MODEL 6
REMARK VINA RESULT:    -4.234      3.261      7.888
REMARK INTER + INTRA:         -16.188
REMARK INTER:                 -10.893
REMARK INTRA:                  -5.295
REMARK UNBOUND:                -5.023
REMARK SMILES CCCCCCCCCCCCCCCCCCCCCCCCCCCCCC(=O)[O-]
REMARK SMILES IDX 16 1 17 2 18 3 19 4 20 5 21 6 22 7 23 8 24 9 25 10 26 11
REMARK SMILES IDX 27 12 28 13 29 14 30 15 31 16 32 17 15 18 14 19 13 20 12 21
REMARK SMILES IDX 11 22 10 23 9 24 8 25 7 26 6 27 5 28 4 29 3 30 2 31 1 32
REMARK H PARENT
REMARK Flexibility Score: inf
ROOT
ATOM      1  C   UNL     1      -3.632  27.407  55.410  1.00  0.00     0.000 C 
ENDROOT
BRANCH   1   2
ATOM      2  C   UNL     1      -3.910  28.912  55.559  1.00  0.00     0.000 C 
BRANCH   2   3
ATOM      3  C   UNL     1      -4.371  29.287  56.980  1.00  0.00     0.000 C 
BRANCH   3   4
ATOM      4  C   UNL     1      -3.596  30.482  57.558  1.00  0.00     0.000 C 
BRANCH   4   5
ATOM      5  C   UNL     1      -2.826  30.129  58.839  1.00  0.00     0.000 C 
BRANCH   5   6
ATOM      6  C   UNL     1      -1.392  29.692  58.518  1.00  0.00     0.000 C 
BRANCH   6   7
ATOM      7  C   UNL     1      -0.624  30.810  57.803  1.00  0.00     0.000 C 
BRANCH   7   8
ATOM      8  C   UNL     1      -0.365  30.454  56.335  1.00  0.00     0.000 C 
BRANCH   8   9
ATOM      9  C   UNL     1      -0.854  31.574  55.406  1.00  0.00     0.000 C 
BRANCH   9  10
ATOM     10  C   UNL     1      -1.561  31.027  54.149  1.00  0.00     0.000 C 
BRANCH  10  11
ATOM     11  C   UNL     1      -2.371  32.090  53.383  1.00  0.00     0.000 C 
BRANCH  11  12
ATOM     12  C   UNL     1      -3.898  31.951  53.507  1.00  0.00     0.000 C 
BRANCH  12  13
ATOM     13  C   UNL     1      -4.466  32.710  54.718  1.00  0.00     0.006 C 
BRANCH  13  14
ATOM     14  C   UNL     1      -3.955  34.155  54.749  1.00  0.00     0.053 C 
BRANCH  14  15
ATOM     15  C   UNL     1      -4.672  34.997  53.738  1.00  0.00     0.041 C 
ATOM     16  O   UNL     1      -4.153  35.212  52.609  1.00  0.00    -0.550 OA
ATOM     17  O   UNL     1      -5.932  35.509  54.024  1.00  0.00    -0.550 OA
ENDBRANCH  14  15
ENDBRANCH  13  14
ENDBRANCH  12  13
ENDBRANCH  11  12
ENDBRANCH  10  11
ENDBRANCH   9  10
ENDBRANCH   8   9
ENDBRANCH   7   8
ENDBRANCH   6   7
ENDBRANCH   5   6
ENDBRANCH   4   5
ENDBRANCH   3   4
ENDBRANCH   2   3
ENDBRANCH   1   2
BRANCH   1  18
ATOM     18  C   UNL     1      -2.137  27.069  55.510  1.00  0.00     0.000 C 
BRANCH  18  19
ATOM     19  C   UNL     1      -1.758  26.675  56.945  1.00  0.00     0.000 C 
BRANCH  19  20
ATOM     20  C   UNL     1      -2.867  25.879  57.652  1.00  0.00     0.000 C 
BRANCH  20  21
ATOM     21  C   UNL     1      -3.059  26.302  59.119  1.00  0.00     0.000 C 
BRANCH  21  22
ATOM     22  C   UNL     1      -4.534  26.280  59.547  1.00  0.00     0.000 C 
BRANCH  22  23
ATOM     23  C   UNL     1      -5.494  26.178  58.349  1.00  0.00     0.000 C 
BRANCH  23  24
ATOM     24  C   UNL     1      -6.373  24.916  58.396  1.00  0.00    -0.000 C 
BRANCH  24  25
ATOM     25  C   UNL     1      -7.289  24.716  57.171  1.00  0.00    -0.000 C 
BRANCH  25  26
ATOM     26  C   UNL     1      -6.717  25.228  55.835  1.00  0.00    -0.000 C 
BRANCH  26  27
ATOM     27  C   UNL     1      -6.270  24.127  54.855  1.00  0.00    -0.000 C 
BRANCH  27  28
ATOM     28  C   UNL     1      -4.737  24.002  54.716  1.00  0.00    -0.000 C 
BRANCH  28  29
ATOM     29  C   UNL     1      -4.091  23.286  55.916  1.00  0.00    -0.000 C 
BRANCH  29  30
ATOM     30  C   UNL     1      -2.679  22.754  55.607  1.00  0.00    -0.000 C 
BRANCH  30  31
ATOM     31  C   UNL     1      -2.644  21.470  54.759  1.00  0.00    -0.003 C 
ATOM     32  C   UNL     1      -2.721  20.196  55.600  1.00  0.00     0.004 C 
ENDBRANCH  30  31
ENDBRANCH  29  30
ENDBRANCH  28  29
ENDBRANCH  27  28
ENDBRANCH  26  27
ENDBRANCH  25  26
ENDBRANCH  24  25
ENDBRANCH  23  24
ENDBRANCH  22  23
ENDBRANCH  21  22
ENDBRANCH  20  21
ENDBRANCH  19  20
ENDBRANCH  18  19
ENDBRANCH   1  18
TORSDOF 28
ENDMDL
MODEL 7
REMARK VINA RESULT:    -4.231      2.401      5.915
REMARK INTER + INTRA:         -16.180
REMARK INTER:                 -10.105
REMARK INTRA:                  -6.075
REMARK UNBOUND:                -5.023
REMARK SMILES CCCCCCCCCCCCCCCCCCCCCCCCCCCCCC(=O)[O-]
REMARK SMILES IDX 16 1 17 2 18 3 19 4 20 5 21 6 22 7 23 8 24 9 25 10 26 11
REMARK SMILES IDX 27 12 28 13 29 14 30 15 31 16 32 17 15 18 14 19 13 20 12 21
REMARK SMILES IDX 11 22 10 23 9 24 8 25 7 26 6 27 5 28 4 29 3 30 2 31 1 32
REMARK H PARENT
REMARK Flexibility Score: inf
ROOT
ATOM      1  C   UNL     1      -5.827  27.428  54.581  1.00  0.00     0.000 C 
ENDROOT
BRANCH   1   2
ATOM      2  C   UNL     1      -4.606  27.814  55.432  1.00  0.00     0.000 C 
BRANCH   2   3
ATOM      3  C   UNL     1      -4.290  29.320  55.358  1.00  0.00     0.000 C 
BRANCH   3   4
ATOM      4  C   UNL     1      -4.808  30.093  56.582  1.00  0.00     0.000 C 
BRANCH   4   5
ATOM      5  C   UNL     1      -3.689  30.817  57.346  1.00  0.00     0.000 C 
BRANCH   5   6
ATOM      6  C   UNL     1      -2.307  30.363  56.861  1.00  0.00     0.000 C 
BRANCH   6   7
ATOM      7  C   UNL     1      -1.459  29.846  58.028  1.00  0.00     0.000 C 
BRANCH   7   8
ATOM      8  C   UNL     1      -2.331  29.523  59.247  1.00  0.00     0.000 C 
BRANCH   8   9
ATOM      9  C   UNL     1      -2.423  28.006  59.467  1.00  0.00     0.000 C 
BRANCH   9  10
ATOM     10  C   UNL     1      -3.659  27.388  58.782  1.00  0.00     0.000 C 
BRANCH  10  11
ATOM     11  C   UNL     1      -3.825  25.880  59.048  1.00  0.00     0.000 C 
BRANCH  11  12
ATOM     12  C   UNL     1      -4.542  25.102  57.931  1.00  0.00     0.000 C 
BRANCH  12  13
ATOM     13  C   UNL     1      -5.797  24.368  58.432  1.00  0.00     0.006 C 
BRANCH  13  14
ATOM     14  C   UNL     1      -7.070  25.019  57.879  1.00  0.00     0.053 C 
BRANCH  14  15
ATOM     15  C   UNL     1      -7.384  26.288  58.612  1.00  0.00     0.041 C 
ATOM     16  O   UNL     1      -7.157  27.404  58.072  1.00  0.00    -0.550 OA
ATOM     17  O   UNL     1      -7.968  26.240  59.872  1.00  0.00    -0.550 OA
ENDBRANCH  14  15
ENDBRANCH  13  14
ENDBRANCH  12  13
ENDBRANCH  11  12
ENDBRANCH  10  11
ENDBRANCH   9  10
ENDBRANCH   8   9
ENDBRANCH   7   8
ENDBRANCH   6   7
ENDBRANCH   5   6
ENDBRANCH   4   5
ENDBRANCH   3   4
ENDBRANCH   2   3
ENDBRANCH   1   2
BRANCH   1  18
ATOM     18  C   UNL     1      -6.069  25.912  54.548  1.00  0.00     0.000 C 
BRANCH  18  19
ATOM     19  C   UNL     1      -4.764  25.154  54.259  1.00  0.00     0.000 C 
BRANCH  19  20
ATOM     20  C   UNL     1      -4.934  23.629  54.352  1.00  0.00     0.000 C 
BRANCH  20  21
ATOM     21  C   UNL     1      -3.867  22.965  55.240  1.00  0.00     0.000 C 
BRANCH  21  22
ATOM     22  C   UNL     1      -2.449  23.467  54.926  1.00  0.00     0.000 C 
BRANCH  22  23
ATOM     23  C   UNL     1      -1.706  23.956  56.180  1.00  0.00     0.000 C 
BRANCH  23  24
ATOM     24  C   UNL     1      -0.650  25.030  55.867  1.00  0.00    -0.000 C 
BRANCH  24  25
ATOM     25  C   UNL     1      -1.070  26.474  56.209  1.00  0.00    -0.000 C 
BRANCH  25  26
ATOM     26  C   UNL     1      -0.984  27.475  55.041  1.00  0.00    -0.000 C 
BRANCH  26  27
ATOM     27  C   UNL     1      -1.447  26.926  53.678  1.00  0.00    -0.000 C 
BRANCH  27  28
ATOM     28  C   UNL     1      -2.022  28.005  52.735  1.00  0.00    -0.000 C 
BRANCH  28  29
ATOM     29  C   UNL     1      -1.194  29.303  52.746  1.00  0.00    -0.000 C 
BRANCH  29  30
ATOM     30  C   UNL     1      -2.066  30.571  52.791  1.00  0.00    -0.000 C 
BRANCH  30  31
ATOM     31  C   UNL     1      -2.348  31.212  51.420  1.00  0.00    -0.003 C 
ATOM     32  C   UNL     1      -1.552  30.567  50.285  1.00  0.00     0.004 C 
ENDBRANCH  30  31
ENDBRANCH  29  30
ENDBRANCH  28  29
ENDBRANCH  27  28
ENDBRANCH  26  27
ENDBRANCH  25  26
ENDBRANCH  24  25
ENDBRANCH  23  24
ENDBRANCH  22  23
ENDBRANCH  21  22
ENDBRANCH  20  21
ENDBRANCH  19  20
ENDBRANCH  18  19
ENDBRANCH   1  18
TORSDOF 28
ENDMDL
MODEL 8
REMARK VINA RESULT:    -4.222      1.494      6.542
REMARK INTER + INTRA:         -16.156
REMARK INTER:                 -10.444
REMARK INTRA:                  -5.712
REMARK UNBOUND:                -5.023
REMARK SMILES CCCCCCCCCCCCCCCCCCCCCCCCCCCCCC(=O)[O-]
REMARK SMILES IDX 16 1 17 2 18 3 19 4 20 5 21 6 22 7 23 8 24 9 25 10 26 11
REMARK SMILES IDX 27 12 28 13 29 14 30 15 31 16 32 17 15 18 14 19 13 20 12 21
REMARK SMILES IDX 11 22 10 23 9 24 8 25 7 26 6 27 5 28 4 29 3 30 2 31 1 32
REMARK H PARENT
REMARK Flexibility Score: inf
ROOT
ATOM      1  C   UNL     1      -0.671  30.276  56.259  1.00  0.00     0.000 C 
ENDROOT
BRANCH   1   2
ATOM      2  C   UNL     1      -1.323  29.262  55.305  1.00  0.00     0.000 C 
BRANCH   2   3
ATOM      3  C   UNL     1      -1.762  29.903  53.975  1.00  0.00     0.000 C 
BRANCH   3   4
ATOM      4  C   UNL     1      -2.027  31.412  54.106  1.00  0.00     0.000 C 
BRANCH   4   5
ATOM      5  C   UNL     1      -3.437  31.811  53.646  1.00  0.00     0.000 C 
BRANCH   5   6
ATOM      6  C   UNL     1      -4.259  32.371  54.812  1.00  0.00     0.000 C 
BRANCH   6   7
ATOM      7  C   UNL     1      -5.637  31.703  54.883  1.00  0.00     0.000 C 
BRANCH   7   8
ATOM      8  C   UNL     1      -5.868  31.052  56.252  1.00  0.00     0.000 C 
BRANCH   8   9
ATOM      9  C   UNL     1      -4.833  29.948  56.513  1.00  0.00     0.000 C 
BRANCH   9  10
ATOM     10  C   UNL     1      -5.360  28.548  56.132  1.00  0.00     0.000 C 
BRANCH  10  11
ATOM     11  C   UNL     1      -4.785  28.011  54.809  1.00  0.00     0.000 C 
BRANCH  11  12
ATOM     12  C   UNL     1      -5.374  26.666  54.347  1.00  0.00     0.000 C 
BRANCH  12  13
ATOM     13  C   UNL     1      -5.794  25.768  55.523  1.00  0.00     0.006 C 
BRANCH  13  14
ATOM     14  C   UNL     1      -6.846  24.745  55.082  1.00  0.00     0.053 C 
BRANCH  14  15
ATOM     15  C   UNL     1      -7.554  24.161  56.267  1.00  0.00     0.041 C 
ATOM     16  O   UNL     1      -8.680  23.613  56.127  1.00  0.00    -0.550 OA
ATOM     17  O   UNL     1      -6.950  24.181  57.519  1.00  0.00    -0.550 OA
ENDBRANCH  14  15
ENDBRANCH  13  14
ENDBRANCH  12  13
ENDBRANCH  11  12
ENDBRANCH  10  11
ENDBRANCH   9  10
ENDBRANCH   8   9
ENDBRANCH   7   8
ENDBRANCH   6   7
ENDBRANCH   5   6
ENDBRANCH   4   5
ENDBRANCH   3   4
ENDBRANCH   2   3
ENDBRANCH   1   2
BRANCH   1  18
ATOM     18  C   UNL     1      -1.407  30.382  57.602  1.00  0.00     0.000 C 
BRANCH  18  19
ATOM     19  C   UNL     1      -0.620  29.679  58.718  1.00  0.00     0.000 C 
BRANCH  19  20
ATOM     20  C   UNL     1      -1.517  28.821  59.624  1.00  0.00     0.000 C 
BRANCH  20  21
ATOM     21  C   UNL     1      -2.791  28.335  58.910  1.00  0.00     0.000 C 
BRANCH  21  22
ATOM     22  C   UNL     1      -3.530  27.249  59.706  1.00  0.00     0.000 C 
BRANCH  22  23
ATOM     23  C   UNL     1      -3.482  25.876  59.014  1.00  0.00     0.000 C 
BRANCH  23  24
ATOM     24  C   UNL     1      -3.114  25.972  57.523  1.00  0.00    -0.000 C 
BRANCH  24  25
ATOM     25  C   UNL     1      -1.798  25.269  57.132  1.00  0.00    -0.000 C 
BRANCH  25  26
ATOM     26  C   UNL     1      -0.958  25.999  56.066  1.00  0.00    -0.000 C 
BRANCH  26  27
ATOM     27  C   UNL     1      -0.728  25.206  54.766  1.00  0.00    -0.000 C 
BRANCH  27  28
ATOM     28  C   UNL     1      -1.924  25.251  53.790  1.00  0.00    -0.000 C 
BRANCH  28  29
ATOM     29  C   UNL     1      -2.802  23.990  53.871  1.00  0.00    -0.000 C 
BRANCH  29  30
ATOM     30  C   UNL     1      -2.013  22.735  54.288  1.00  0.00    -0.000 C 
BRANCH  30  31
ATOM     31  C   UNL     1      -2.635  21.935  55.446  1.00  0.00    -0.003 C 
ATOM     32  C   UNL     1      -3.939  22.544  55.959  1.00  0.00     0.004 C 
ENDBRANCH  30  31
ENDBRANCH  29  30
ENDBRANCH  28  29
ENDBRANCH  27  28
ENDBRANCH  26  27
ENDBRANCH  25  26
ENDBRANCH  24  25
ENDBRANCH  23  24
ENDBRANCH  22  23
ENDBRANCH  21  22
ENDBRANCH  20  21
ENDBRANCH  19  20
ENDBRANCH  18  19
ENDBRANCH   1  18
TORSDOF 28
ENDMDL
MODEL 9
REMARK VINA RESULT:    -4.209      2.843      7.014
REMARK INTER + INTRA:         -16.122
REMARK INTER:                 -10.622
REMARK INTRA:                  -5.500
REMARK UNBOUND:                -5.023
REMARK SMILES CCCCCCCCCCCCCCCCCCCCCCCCCCCCCC(=O)[O-]
REMARK SMILES IDX 16 1 17 2 18 3 19 4 20 5 21 6 22 7 23 8 24 9 25 10 26 11
REMARK SMILES IDX 27 12 28 13 29 14 30 15 31 16 32 17 15 18 14 19 13 20 12 21
REMARK SMILES IDX 11 22 10 23 9 24 8 25 7 26 6 27 5 28 4 29 3 30 2 31 1 32
REMARK H PARENT
REMARK Flexibility Score: inf
ROOT
ATOM      1  C   UNL     1      -2.688  20.881  55.876  1.00  0.00     0.000 C 
ENDROOT
BRANCH   1   2
ATOM      2  C   UNL     1      -2.137  20.159  54.636  1.00  0.00     0.000 C 
BRANCH   2   3
ATOM      3  C   UNL     1      -0.615  20.336  54.479  1.00  0.00     0.000 C 
BRANCH   3   4
ATOM      4  C   UNL     1      -0.247  21.393  53.427  1.00  0.00     0.000 C 
BRANCH   4   5
ATOM      5  C   UNL     1       0.073  22.763  54.045  1.00  0.00     0.000 C 
BRANCH   5   6
ATOM      6  C   UNL     1      -0.655  23.887  53.298  1.00  0.00     0.000 C 
BRANCH   6   7
ATOM      7  C   UNL     1      -0.046  25.253  53.636  1.00  0.00     0.000 C 
BRANCH   7   8
ATOM      8  C   UNL     1       0.314  25.348  55.123  1.00  0.00     0.000 C 
BRANCH   8   9
ATOM      9  C   UNL     1      -0.669  26.265  55.866  1.00  0.00     0.000 C 
BRANCH   9  10
ATOM     10  C   UNL     1      -0.935  27.579  55.103  1.00  0.00     0.000 C 
BRANCH  10  11
ATOM     11  C   UNL     1      -2.199  28.322  55.573  1.00  0.00     0.000 C 
BRANCH  11  12
ATOM     12  C   UNL     1      -3.487  27.946  54.820  1.00  0.00     0.000 C 
BRANCH  12  13
ATOM     13  C   UNL     1      -4.760  28.343  55.587  1.00  0.00     0.006 C 
BRANCH  13  14
ATOM     14  C   UNL     1      -4.691  29.803  56.046  1.00  0.00     0.053 C 
BRANCH  14  15
ATOM     15  C   UNL     1      -5.694  30.642  55.314  1.00  0.00     0.041 C 
ATOM     16  O   UNL     1      -6.613  30.094  54.647  1.00  0.00    -0.550 OA
ATOM     17  O   UNL     1      -5.642  32.028  55.403  1.00  0.00    -0.550 OA
ENDBRANCH  14  15
ENDBRANCH  13  14
ENDBRANCH  12  13
ENDBRANCH  11  12
ENDBRANCH  10  11
ENDBRANCH   9  10
ENDBRANCH   8   9
ENDBRANCH   7   8
ENDBRANCH   6   7
ENDBRANCH   5   6
ENDBRANCH   4   5
ENDBRANCH   3   4
ENDBRANCH   2   3
ENDBRANCH   1   2
BRANCH   1  18
ATOM     18  C   UNL     1      -3.685  21.993  55.519  1.00  0.00     0.000 C 
BRANCH  18  19
ATOM     19  C   UNL     1      -3.100  23.378  55.836  1.00  0.00     0.000 C 
BRANCH  19  20
ATOM     20  C   UNL     1      -3.905  24.520  55.196  1.00  0.00     0.000 C 
BRANCH  20  21
ATOM     21  C   UNL     1      -4.754  24.051  54.001  1.00  0.00     0.000 C 
BRANCH  21  22
ATOM     22  C   UNL     1      -6.259  24.243  54.241  1.00  0.00     0.000 C 
BRANCH  22  23
ATOM     23  C   UNL     1      -6.553  25.156  55.444  1.00  0.00     0.000 C 
BRANCH  23  24
ATOM     24  C   UNL     1      -7.360  24.449  56.547  1.00  0.00    -0.000 C 
BRANCH  24  25
ATOM     25  C   UNL     1      -6.608  24.258  57.880  1.00  0.00    -0.000 C 
BRANCH  25  26
ATOM     26  C   UNL     1      -6.740  25.423  58.880  1.00  0.00    -0.000 C 
BRANCH  26  27
ATOM     27  C   UNL     1      -5.484  26.302  59.022  1.00  0.00    -0.000 C 
BRANCH  27  28
ATOM     28  C   UNL     1      -4.186  25.615  58.544  1.00  0.00    -0.000 C 
BRANCH  28  29
ATOM     29  C   UNL     1      -2.921  26.400  58.938  1.00  0.00    -0.000 C 
BRANCH  29  30
ATOM     30  C   UNL     1      -3.131  27.925  58.916  1.00  0.00    -0.000 C 
BRANCH  30  31
ATOM     31  C   UNL     1      -2.138  28.726  59.778  1.00  0.00    -0.003 C 
ATOM     32  C   UNL     1      -0.959  29.275  58.976  1.00  0.00     0.004 C 
ENDBRANCH  30  31
ENDBRANCH  29  30
ENDBRANCH  28  29
ENDBRANCH  27  28
ENDBRANCH  26  27
ENDBRANCH  25  26
ENDBRANCH  24  25
ENDBRANCH  23  24
ENDBRANCH  22  23
ENDBRANCH  21  22
ENDBRANCH  20  21
ENDBRANCH  19  20
ENDBRANCH  18  19
ENDBRANCH   1  18
TORSDOF 28
ENDMDL
