MODEL 1
REMARK VINA RESULT:    -4.200      0.000      0.000
REMARK INTER + INTRA:          -4.858
REMARK INTER:                  -4.814
REMARK INTRA:                  -0.045
REMARK UNBOUND:                -0.045
REMARK SMILES O=C([O-])c1cc(O)c(O)c(O)c1
REMARK SMILES IDX 4 1 5 2 12 3 6 4 10 5 8 6 2 7 1 8 3 9 7 10 11 12 9 14
REMARK H PARENT 7 11 11 13 9 15
REMARK Flexibility Score: inf
ROOT
ATOM      1  C   UNL     1      24.125   4.005  24.116  1.00  0.00     0.005 A 
ATOM      2  C   UNL     1      24.780   3.244  25.098  1.00  0.00     0.060 A 
ATOM      3  C   UNL     1      22.731   4.172  24.201  1.00  0.00     0.060 A 
ATOM      4  C   UNL     1      24.063   2.658  26.146  1.00  0.00     0.162 A 
ATOM      5  C   UNL     1      22.004   3.588  25.247  1.00  0.00     0.162 A 
ATOM      6  C   UNL     1      22.669   2.828  26.225  1.00  0.00     0.200 A 
ENDROOT
BRANCH   1   7
ATOM      7  C   UNL     1      24.893   4.621  23.013  1.00  0.00     0.072 C 
ATOM      8  O   UNL     1      25.285   5.816  23.093  1.00  0.00    -0.545 OA
ATOM      9  O   UNL     1      25.192   3.890  21.869  1.00  0.00    -0.545 OA
ENDBRANCH   1   7
BRANCH   4  10
ATOM     10  O   UNL     1      24.752   1.910  27.101  1.00  0.00    -0.504 OA
ATOM     11  H   UNL     1      25.667   2.180  27.439  1.00  0.00     0.293 HD
ENDBRANCH   4  10
BRANCH   5  12
ATOM     12  O   UNL     1      20.623   3.760  25.321  1.00  0.00    -0.504 OA
ATOM     13  H   UNL     1      20.212   4.595  25.724  1.00  0.00     0.293 HD
ENDBRANCH   5  12
BRANCH   6  14
ATOM     14  O   UNL     1      21.961   2.240  27.274  1.00  0.00    -0.502 OA
ATOM     15  H   UNL     1      22.423   1.745  28.027  1.00  0.00     0.293 HD
ENDBRANCH   6  14
TORSDOF 4
ENDMDL
MODEL 2
REMARK VINA RESULT:    -4.181      0.069      2.430
REMARK INTER + INTRA:          -4.836
REMARK INTER:                  -4.792
REMARK INTRA:                  -0.045
REMARK UNBOUND:                -0.045
REMARK SMILES O=C([O-])c1cc(O)c(O)c(O)c1
REMARK SMILES IDX 4 1 5 2 12 3 6 4 10 5 8 6 2 7 1 8 3 9 7 10 11 12 9 14
REMARK H PARENT 7 11 11 13 9 15
REMARK Flexibility Score: inf
ROOT
ATOM      1  C   UNL     1      24.145   4.066  24.133  1.00  0.00     0.005 A 
ATOM      2  C   UNL     1      22.752   4.230  24.204  1.00  0.00     0.060 A 
ATOM      3  C   UNL     1      24.791   3.291  25.113  1.00  0.00     0.060 A 
ATOM      4  C   UNL     1      22.014   3.635  25.231  1.00  0.00     0.162 A 
ATOM      5  C   UNL     1      24.059   2.692  26.146  1.00  0.00     0.162 A 
ATOM      6  C   UNL     1      22.665   2.861  26.208  1.00  0.00     0.200 A 
ENDROOT
BRANCH   1   7
ATOM      7  C   UNL     1      24.917   4.700  23.042  1.00  0.00     0.072 C 
ATOM      8  O   UNL     1      25.320   5.889  23.148  1.00  0.00    -0.545 OA
ATOM      9  O   UNL     1      25.209   3.992  21.882  1.00  0.00    -0.545 OA
ENDBRANCH   1   7
BRANCH   4  10
ATOM     10  O   UNL     1      20.632   3.822  25.265  1.00  0.00    -0.504 OA
ATOM     11  H   UNL     1      20.004   3.316  24.652  1.00  0.00     0.293 HD
ENDBRANCH   4  10
BRANCH   5  12
ATOM     12  O   UNL     1      24.710   1.926  27.112  1.00  0.00    -0.504 OA
ATOM     13  H   UNL     1      25.681   2.089  27.353  1.00  0.00     0.293 HD
ENDBRANCH   5  12
BRANCH   6  14
ATOM     14  O   UNL     1      21.920   2.271  27.229  1.00  0.00    -0.502 OA
ATOM     15  H   UNL     1      21.095   1.713  27.044  1.00  0.00     0.293 HD
ENDBRANCH   6  14
TORSDOF 4
ENDMDL
MODEL 3
REMARK VINA RESULT:    -4.078      2.005      3.700
REMARK INTER + INTRA:          -4.719
REMARK INTER:                  -4.667
REMARK INTRA:                  -0.052
REMARK UNBOUND:                -0.045
REMARK SMILES O=C([O-])c1cc(O)c(O)c(O)c1
REMARK SMILES IDX 4 1 5 2 12 3 6 4 10 5 8 6 2 7 1 8 3 9 7 10 11 12 9 14
REMARK H PARENT 7 11 11 13 9 15
REMARK Flexibility Score: inf
ROOT
ATOM      1  C   UNL     1      22.724   4.324  25.327  1.00  0.00     0.005 A 
ATOM      2  C   UNL     1      23.843   5.173  25.304  1.00  0.00     0.060 A 
ATOM      3  C   UNL     1      22.870   3.018  25.828  1.00  0.00     0.060 A 
ATOM      4  C   UNL     1      25.085   4.732  25.772  1.00  0.00     0.162 A 
ATOM      5  C   UNL     1      24.111   2.568  26.297  1.00  0.00     0.162 A 
ATOM      6  C   UNL     1      25.224   3.425  26.272  1.00  0.00     0.200 A 
ENDROOT
BRANCH   1   7
ATOM      7  C   UNL     1      21.415   4.800  24.830  1.00  0.00     0.072 C 
ATOM      8  O   UNL     1      20.510   3.980  24.519  1.00  0.00    -0.545 OA
ATOM      9  O   UNL     1      21.164   6.161  24.699  1.00  0.00    -0.545 OA
ENDBRANCH   1   7
BRANCH   4  10
ATOM     10  O   UNL     1      26.171   5.607  25.733  1.00  0.00    -0.504 OA
ATOM     11  H   UNL     1      27.064   5.340  25.338  1.00  0.00     0.293 HD
ENDBRANCH   4  10
BRANCH   5  12
ATOM     12  O   UNL     1      24.243   1.271  26.792  1.00  0.00    -0.504 OA
ATOM     13  H   UNL     1      24.295   0.469  26.174  1.00  0.00     0.293 HD
ENDBRANCH   5  12
BRANCH   6  14
ATOM     14  O   UNL     1      26.467   2.994  26.736  1.00  0.00    -0.502 OA
ATOM     15  H   UNL     1      26.926   3.424  27.530  1.00  0.00     0.293 HD
ENDBRANCH   6  14
TORSDOF 4
ENDMDL
MODEL 4
REMARK VINA RESULT:    -3.990      1.730      3.156
REMARK INTER + INTRA:          -4.617
REMARK INTER:                  -4.566
REMARK INTRA:                  -0.051
REMARK UNBOUND:                -0.045
REMARK SMILES O=C([O-])c1cc(O)c(O)c(O)c1
REMARK SMILES IDX 4 1 5 2 12 3 6 4 10 5 8 6 2 7 1 8 3 9 7 10 11 12 9 14
REMARK H PARENT 7 11 11 13 9 15
REMARK Flexibility Score: inf
ROOT
ATOM      1  C   UNL     1      22.145   4.758  25.266  1.00  0.00     0.005 A 
ATOM      2  C   UNL     1      23.394   4.477  24.687  1.00  0.00     0.060 A 
ATOM      3  C   UNL     1      21.676   3.937  26.306  1.00  0.00     0.060 A 
ATOM      4  C   UNL     1      24.162   3.399  25.135  1.00  0.00     0.162 A 
ATOM      5  C   UNL     1      22.439   2.853  26.760  1.00  0.00     0.162 A 
ATOM      6  C   UNL     1      23.688   2.581  26.175  1.00  0.00     0.200 A 
ENDROOT
BRANCH   1   7
ATOM      7  C   UNL     1      21.340   5.902  24.785  1.00  0.00     0.072 C 
ATOM      8  O   UNL     1      21.896   6.895  24.242  1.00  0.00    -0.545 OA
ATOM      9  O   UNL     1      19.957   5.899  24.927  1.00  0.00    -0.545 OA
ENDBRANCH   1   7
BRANCH   4  10
ATOM     10  O   UNL     1      25.398   3.155  24.534  1.00  0.00    -0.504 OA
ATOM     11  H   UNL     1      25.764   2.218  24.416  1.00  0.00     0.293 HD
ENDBRANCH   4  10
BRANCH   5  12
ATOM     12  O   UNL     1      21.963   2.046  27.793  1.00  0.00    -0.504 OA
ATOM     13  H   UNL     1      22.558   1.365  28.251  1.00  0.00     0.293 HD
ENDBRANCH   5  12
BRANCH   6  14
ATOM     14  O   UNL     1      24.462   1.507  26.616  1.00  0.00    -0.502 OA
ATOM     15  H   UNL     1      24.935   1.513  27.512  1.00  0.00     0.293 HD
ENDBRANCH   6  14
TORSDOF 4
ENDMDL
MODEL 5
REMARK VINA RESULT:    -3.960      1.864      3.858
REMARK INTER + INTRA:          -4.583
REMARK INTER:                  -4.531
REMARK INTRA:                  -0.053
REMARK UNBOUND:                -0.045
REMARK SMILES O=C([O-])c1cc(O)c(O)c(O)c1
REMARK SMILES IDX 4 1 5 2 12 3 6 4 10 5 8 6 2 7 1 8 3 9 7 10 11 12 9 14
REMARK H PARENT 7 11 11 13 9 15
REMARK Flexibility Score: inf
ROOT
ATOM      1  C   UNL     1      22.091   5.213  24.982  1.00  0.00     0.005 A 
ATOM      2  C   UNL     1      22.123   3.909  25.503  1.00  0.00     0.060 A 
ATOM      3  C   UNL     1      23.272   5.763  24.451  1.00  0.00     0.060 A 
ATOM      4  C   UNL     1      23.306   3.164  25.496  1.00  0.00     0.162 A 
ATOM      5  C   UNL     1      24.462   5.024  24.441  1.00  0.00     0.162 A 
ATOM      6  C   UNL     1      24.483   3.719  24.963  1.00  0.00     0.200 A 
ENDROOT
BRANCH   1   7
ATOM      7  C   UNL     1      20.834   5.992  24.994  1.00  0.00     0.072 C 
ATOM      8  O   UNL     1      20.776   7.124  24.443  1.00  0.00    -0.545 OA
ATOM      9  O   UNL     1      19.698   5.487  25.614  1.00  0.00    -0.545 OA
ENDBRANCH   1   7
BRANCH   4  10
ATOM     10  O   UNL     1      23.294   1.872  26.022  1.00  0.00    -0.504 OA
ATOM     11  H   UNL     1      23.955   1.164  25.726  1.00  0.00     0.293 HD
ENDBRANCH   4  10
BRANCH   5  12
ATOM     12  O   UNL     1      25.626   5.580  23.911  1.00  0.00    -0.504 OA
ATOM     13  H   UNL     1      26.201   5.075  23.245  1.00  0.00     0.293 HD
ENDBRANCH   5  12
BRANCH   6  14
ATOM     14  O   UNL     1      25.659   2.969  24.960  1.00  0.00    -0.502 OA
ATOM     15  H   UNL     1      26.156   2.747  24.106  1.00  0.00     0.293 HD
ENDBRANCH   6  14
TORSDOF 4
ENDMDL
MODEL 6
REMARK VINA RESULT:    -3.930      1.802      2.419
REMARK INTER + INTRA:          -4.549
REMARK INTER:                  -4.505
REMARK INTRA:                  -0.045
REMARK UNBOUND:                -0.045
REMARK SMILES O=C([O-])c1cc(O)c(O)c(O)c1
REMARK SMILES IDX 4 1 5 2 12 3 6 4 10 5 8 6 2 7 1 8 3 9 7 10 11 12 9 14
REMARK H PARENT 7 11 11 13 9 15
REMARK Flexibility Score: inf
ROOT
ATOM      1  C   UNL     1      24.086   5.659  24.354  1.00  0.00     0.005 A 
ATOM      2  C   UNL     1      23.969   4.275  24.560  1.00  0.00     0.060 A 
ATOM      3  C   UNL     1      22.930   6.458  24.421  1.00  0.00     0.060 A 
ATOM      4  C   UNL     1      22.725   3.695  24.829  1.00  0.00     0.162 A 
ATOM      5  C   UNL     1      21.681   5.885  24.690  1.00  0.00     0.162 A 
ATOM      6  C   UNL     1      21.574   4.498  24.896  1.00  0.00     0.200 A 
ENDROOT
BRANCH   1   7
ATOM      7  C   UNL     1      25.406   6.263  24.071  1.00  0.00     0.072 C 
ATOM      8  O   UNL     1      26.108   6.737  25.004  1.00  0.00    -0.545 OA
ATOM      9  O   UNL     1      25.891   6.318  22.769  1.00  0.00    -0.545 OA
ENDBRANCH   1   7
BRANCH   4  10
ATOM     10  O   UNL     1      22.653   2.316  25.029  1.00  0.00    -0.504 OA
ATOM     11  H   UNL     1      21.932   1.891  25.601  1.00  0.00     0.293 HD
ENDBRANCH   4  10
BRANCH   5  12
ATOM     12  O   UNL     1      20.543   6.687  24.755  1.00  0.00    -0.504 OA
ATOM     13  H   UNL     1      20.087   7.032  23.917  1.00  0.00     0.293 HD
ENDBRANCH   5  12
BRANCH   6  14
ATOM     14  O   UNL     1      20.337   3.911  25.165  1.00  0.00    -0.502 OA
ATOM     15  H   UNL     1      20.090   2.991  24.822  1.00  0.00     0.293 HD
ENDBRANCH   6  14
TORSDOF 4
ENDMDL
MODEL 7
REMARK VINA RESULT:    -3.882      1.863      3.657
REMARK INTER + INTRA:          -4.494
REMARK INTER:                  -4.449
REMARK INTRA:                  -0.045
REMARK UNBOUND:                -0.045
REMARK SMILES O=C([O-])c1cc(O)c(O)c(O)c1
REMARK SMILES IDX 4 1 5 2 12 3 6 4 10 5 8 6 2 7 1 8 3 9 7 10 11 12 9 14
REMARK H PARENT 7 11 11 13 9 15
REMARK Flexibility Score: inf
ROOT
ATOM      1  C   UNL     1      24.962   3.553  26.881  1.00  0.00     0.005 A 
ATOM      2  C   UNL     1      24.875   3.690  25.486  1.00  0.00     0.060 A 
ATOM      3  C   UNL     1      23.790   3.299  27.615  1.00  0.00     0.060 A 
ATOM      4  C   UNL     1      23.644   3.577  24.832  1.00  0.00     0.162 A 
ATOM      5  C   UNL     1      22.552   3.185  26.968  1.00  0.00     0.162 A 
ATOM      6  C   UNL     1      22.476   3.323  25.571  1.00  0.00     0.200 A 
ENDROOT
BRANCH   1   7
ATOM      7  C   UNL     1      26.269   3.673  27.563  1.00  0.00     0.072 C 
ATOM      8  O   UNL     1      27.002   2.661  27.729  1.00  0.00    -0.545 OA
ATOM      9  O   UNL     1      26.707   4.906  28.033  1.00  0.00    -0.545 OA
ENDBRANCH   1   7
BRANCH   4  10
ATOM     10  O   UNL     1      23.601   3.719  23.444  1.00  0.00    -0.504 OA
ATOM     11  H   UNL     1      23.050   3.105  22.857  1.00  0.00     0.293 HD
ENDBRANCH   4  10
BRANCH   5  12
ATOM     12  O   UNL     1      21.397   2.933  27.707  1.00  0.00    -0.504 OA
ATOM     13  H   UNL     1      20.519   3.391  27.492  1.00  0.00     0.293 HD
ENDBRANCH   5  12
BRANCH   6  14
ATOM     14  O   UNL     1      21.252   3.212  24.910  1.00  0.00    -0.502 OA
ATOM     15  H   UNL     1      20.701   2.362  24.933  1.00  0.00     0.293 HD
ENDBRANCH   6  14
TORSDOF 4
ENDMDL
MODEL 8
REMARK VINA RESULT:    -3.838      2.386      3.944
REMARK INTER + INTRA:          -4.444
REMARK INTER:                  -4.399
REMARK INTRA:                  -0.045
REMARK UNBOUND:                -0.045
REMARK SMILES O=C([O-])c1cc(O)c(O)c(O)c1
REMARK SMILES IDX 4 1 5 2 12 3 6 4 10 5 8 6 2 7 1 8 3 9 7 10 11 12 9 14
REMARK H PARENT 7 11 11 13 9 15
REMARK Flexibility Score: inf
ROOT
ATOM      1  C   UNL     1      22.857   3.756  26.174  1.00  0.00     0.005 A 
ATOM      2  C   UNL     1      23.116   2.460  26.649  1.00  0.00     0.060 A 
ATOM      3  C   UNL     1      23.925   4.663  26.055  1.00  0.00     0.060 A 
ATOM      4  C   UNL     1      24.413   2.072  26.999  1.00  0.00     0.162 A 
ATOM      5  C   UNL     1      25.227   4.283  26.404  1.00  0.00     0.162 A 
ATOM      6  C   UNL     1      25.476   2.983  26.878  1.00  0.00     0.200 A 
ENDROOT
BRANCH   1   7
ATOM      7  C   UNL     1      21.482   4.156  25.805  1.00  0.00     0.072 C 
ATOM      8  O   UNL     1      21.058   3.987  24.630  1.00  0.00    -0.545 OA
ATOM      9  O   UNL     1      20.636   4.725  26.750  1.00  0.00    -0.545 OA
ENDBRANCH   1   7
BRANCH   4  10
ATOM     10  O   UNL     1      24.627   0.775  27.465  1.00  0.00    -0.504 OA
ATOM     11  H   UNL     1      24.423   0.504  28.420  1.00  0.00     0.293 HD
ENDBRANCH   4  10
BRANCH   5  12
ATOM     12  O   UNL     1      26.278   5.192  26.281  1.00  0.00    -0.504 OA
ATOM     13  H   UNL     1      26.576   5.768  27.061  1.00  0.00     0.293 HD
ENDBRANCH   5  12
BRANCH   6  14
ATOM     14  O   UNL     1      26.767   2.588  27.229  1.00  0.00    -0.502 OA
ATOM     15  H   UNL     1      27.587   3.113  26.951  1.00  0.00     0.293 HD
ENDBRANCH   6  14
TORSDOF 4
ENDMDL
MODEL 9
REMARK VINA RESULT:    -3.800      1.817      4.546
REMARK INTER + INTRA:          -4.400
REMARK INTER:                  -4.354
REMARK INTRA:                  -0.046
REMARK UNBOUND:                -0.045
REMARK SMILES O=C([O-])c1cc(O)c(O)c(O)c1
REMARK SMILES IDX 4 1 5 2 12 3 6 4 10 5 8 6 2 7 1 8 3 9 7 10 11 12 9 14
REMARK H PARENT 7 11 11 13 9 15
REMARK Flexibility Score: inf
ROOT
ATOM      1  C   UNL     1      22.956   2.316  27.422  1.00  0.00     0.005 A 
ATOM      2  C   UNL     1      24.352   2.373  27.571  1.00  0.00     0.060 A 
ATOM      3  C   UNL     1      22.377   2.799  26.235  1.00  0.00     0.060 A 
ATOM      4  C   UNL     1      25.157   2.901  26.557  1.00  0.00     0.162 A 
ATOM      5  C   UNL     1      23.177   3.330  25.215  1.00  0.00     0.162 A 
ATOM      6  C   UNL     1      24.573   3.383  25.373  1.00  0.00     0.200 A 
ENDROOT
BRANCH   1   7
ATOM      7  C   UNL     1      22.113   1.754  28.500  1.00  0.00     0.072 C 
ATOM      8  O   UNL     1      21.248   2.468  29.075  1.00  0.00    -0.545 OA
ATOM      9  O   UNL     1      22.262   0.430  28.894  1.00  0.00    -0.545 OA
ENDBRANCH   1   7
BRANCH   4  10
ATOM     10  O   UNL     1      26.539   2.939  26.744  1.00  0.00    -0.504 OA
ATOM     11  H   UNL     1      27.190   2.879  25.971  1.00  0.00     0.293 HD
ENDBRANCH   4  10
BRANCH   5  12
ATOM     12  O   UNL     1      22.591   3.806  24.043  1.00  0.00    -0.504 OA
ATOM     13  H   UNL     1      22.884   3.475  23.131  1.00  0.00     0.293 HD
ENDBRANCH   5  12
BRANCH   6  14
ATOM     14  O   UNL     1      25.384   3.908  24.367  1.00  0.00    -0.502 OA
ATOM     15  H   UNL     1      25.187   3.765  23.384  1.00  0.00     0.293 HD
ENDBRANCH   6  14
TORSDOF 4
ENDMDL
