MODEL 1
REMARK VINA RESULT:    -5.381      0.000      0.000
REMARK INTER + INTRA:          -8.223
REMARK INTER:                  -7.898
REMARK INTRA:                  -0.325
REMARK UNBOUND:                -0.325
REMARK SMILES O=C([O-])CCCCCCCC(=O)[O-]
REMARK SMILES IDX 7 1 6 2 5 3 4 4 2 5 1 6 3 7 8 8 9 9 10 10 11 11 12 12 13 13
REMARK H PARENT
REMARK Flexibility Score: inf
ROOT
ATOM      1  C   UNL     1      19.474  24.183  42.014  1.00  0.00     0.000 C 
ENDROOT
BRANCH   1   2
ATOM      2  C   UNL     1      19.842  23.043  41.052  1.00  0.00     0.000 C 
BRANCH   2   3
ATOM      3  C   UNL     1      20.935  23.442  40.048  1.00  0.00     0.006 C 
BRANCH   3   4
ATOM      4  C   UNL     1      22.294  22.870  40.463  1.00  0.00     0.053 C 
BRANCH   4   5
ATOM      5  C   UNL     1      23.383  23.427  39.600  1.00  0.00     0.041 C 
ATOM      6  O   UNL     1      24.588  23.179  39.863  1.00  0.00    -0.550 OA
ATOM      7  O   UNL     1      23.067  24.261  38.535  1.00  0.00    -0.550 OA
ENDBRANCH   4   5
ENDBRANCH   3   4
ENDBRANCH   2   3
ENDBRANCH   1   2
BRANCH   1   8
ATOM      8  C   UNL     1      18.556  23.719  43.158  1.00  0.00     0.000 C 
BRANCH   8   9
ATOM      9  C   UNL     1      18.709  22.221  43.468  1.00  0.00     0.006 C 
BRANCH   9  10
ATOM     10  C   UNL     1      17.396  21.445  43.307  1.00  0.00     0.053 C 
BRANCH  10  11
ATOM     11  C   UNL     1      17.642  20.142  42.615  1.00  0.00     0.041 C 
ATOM     12  O   UNL     1      17.390  19.055  43.201  1.00  0.00    -0.550 OA
ATOM     13  O   UNL     1      18.197  20.124  41.342  1.00  0.00    -0.550 OA
ENDBRANCH  10  11
ENDBRANCH   9  10
ENDBRANCH   8   9
ENDBRANCH   1   8
TORSDOF 8
ENDMDL
MODEL 2
REMARK VINA RESULT:    -5.010      0.789      6.285
REMARK INTER + INTRA:          -7.678
REMARK INTER:                  -7.326
REMARK INTRA:                  -0.351
REMARK UNBOUND:                -0.325
REMARK SMILES O=C([O-])CCCCCCCC(=O)[O-]
REMARK SMILES IDX 7 1 6 2 5 3 4 4 2 5 1 6 3 7 8 8 9 9 10 10 11 11 12 12 13 13
REMARK H PARENT
REMARK Flexibility Score: inf
ROOT
ATOM      1  C   UNL     1      20.083  23.111  42.180  1.00  0.00     0.000 C 
ENDROOT
BRANCH   1   2
ATOM      2  C   UNL     1      18.678  23.367  42.746  1.00  0.00     0.000 C 
BRANCH   2   3
ATOM      3  C   UNL     1      18.205  22.250  43.690  1.00  0.00     0.006 C 
BRANCH   3   4
ATOM      4  C   UNL     1      17.112  21.403  43.031  1.00  0.00     0.053 C 
BRANCH   4   5
ATOM      5  C   UNL     1      17.698  20.155  42.447  1.00  0.00     0.041 C 
ATOM      6  O   UNL     1      17.655  19.075  43.091  1.00  0.00    -0.550 OA
ATOM      7  O   UNL     1      18.332  20.197  41.213  1.00  0.00    -0.550 OA
ENDBRANCH   4   5
ENDBRANCH   3   4
ENDBRANCH   2   3
ENDBRANCH   1   2
BRANCH   1   8
ATOM      8  C   UNL     1      20.131  23.215  40.646  1.00  0.00     0.000 C 
BRANCH   8   9
ATOM      9  C   UNL     1      21.513  22.863  40.073  1.00  0.00     0.006 C 
BRANCH   9  10
ATOM     10  C   UNL     1      22.025  23.910  39.075  1.00  0.00     0.053 C 
BRANCH  10  11
ATOM     11  C   UNL     1      23.516  23.843  38.969  1.00  0.00     0.041 C 
ATOM     12  O   UNL     1      24.160  22.973  39.613  1.00  0.00    -0.550 OA
ATOM     13  O   UNL     1      24.201  24.773  38.197  1.00  0.00    -0.550 OA
ENDBRANCH  10  11
ENDBRANCH   9  10
ENDBRANCH   8   9
ENDBRANCH   1   8
TORSDOF 8
ENDMDL
MODEL 3
REMARK VINA RESULT:    -4.764      1.400      2.138
REMARK INTER + INTRA:          -7.318
REMARK INTER:                  -7.085
REMARK INTRA:                  -0.232
REMARK UNBOUND:                -0.325
REMARK SMILES O=C([O-])CCCCCCCC(=O)[O-]
REMARK SMILES IDX 7 1 6 2 5 3 4 4 2 5 1 6 3 7 8 8 9 9 10 10 11 11 12 12 13 13
REMARK H PARENT
REMARK Flexibility Score: inf
ROOT
ATOM      1  C   UNL     1      20.447  22.588  40.413  1.00  0.00     0.000 C 
ENDROOT
BRANCH   1   2
ATOM      2  C   UNL     1      21.518  23.376  39.642  1.00  0.00     0.000 C 
BRANCH   2   3
ATOM      3  C   UNL     1      22.935  23.143  40.187  1.00  0.00     0.006 C 
BRANCH   3   4
ATOM      4  C   UNL     1      23.989  23.717  39.235  1.00  0.00     0.053 C 
BRANCH   4   5
ATOM      5  C   UNL     1      25.362  23.538  39.804  1.00  0.00     0.041 C 
ATOM      6  O   UNL     1      26.062  24.543  40.096  1.00  0.00    -0.550 OA
ATOM      7  O   UNL     1      25.887  22.262  39.964  1.00  0.00    -0.550 OA
ENDBRANCH   4   5
ENDBRANCH   3   4
ENDBRANCH   2   3
ENDBRANCH   1   2
BRANCH   1   8
ATOM      8  C   UNL     1      19.909  23.357  41.631  1.00  0.00     0.000 C 
BRANCH   8   9
ATOM      9  C   UNL     1      18.803  22.588  42.373  1.00  0.00     0.006 C 
BRANCH   9  10
ATOM     10  C   UNL     1      18.371  21.314  41.636  1.00  0.00     0.053 C 
BRANCH  10  11
ATOM     11  C   UNL     1      17.638  20.398  42.565  1.00  0.00     0.041 C 
ATOM     12  O   UNL     1      17.960  19.183  42.642  1.00  0.00    -0.550 OA
ATOM     13  O   UNL     1      16.567  20.875  43.310  1.00  0.00    -0.550 OA
ENDBRANCH  10  11
ENDBRANCH   9  10
ENDBRANCH   8   9
ENDBRANCH   1   8
TORSDOF 8
ENDMDL
MODEL 4
REMARK VINA RESULT:    -4.749     11.913     13.991
REMARK INTER + INTRA:          -7.295
REMARK INTER:                  -6.482
REMARK INTRA:                  -0.813
REMARK UNBOUND:                -0.325
REMARK SMILES O=C([O-])CCCCCCCC(=O)[O-]
REMARK SMILES IDX 7 1 6 2 5 3 4 4 2 5 1 6 3 7 8 8 9 9 10 10 11 11 12 12 13 13
REMARK H PARENT
REMARK Flexibility Score: inf
ROOT
ATOM      1  C   UNL     1      13.495  11.424  33.489  1.00  0.00     0.000 C 
ENDROOT
BRANCH   1   2
ATOM      2  C   UNL     1      13.190  12.927  33.388  1.00  0.00     0.000 C 
BRANCH   2   3
ATOM      3  C   UNL     1      12.478  13.473  34.635  1.00  0.00     0.006 C 
BRANCH   3   4
ATOM      4  C   UNL     1      13.479  13.745  35.762  1.00  0.00     0.053 C 
BRANCH   4   5
ATOM      5  C   UNL     1      13.344  12.719  36.842  1.00  0.00     0.041 C 
ATOM      6  O   UNL     1      14.303  11.948  37.107  1.00  0.00    -0.550 OA
ATOM      7  O   UNL     1      12.142  12.581  37.523  1.00  0.00    -0.550 OA
ENDBRANCH   4   5
ENDBRANCH   3   4
ENDBRANCH   2   3
ENDBRANCH   1   2
BRANCH   1   8
ATOM      8  C   UNL     1      14.907  11.073  32.991  1.00  0.00     0.000 C 
BRANCH   8   9
ATOM      9  C   UNL     1      15.968  11.183  34.099  1.00  0.00     0.006 C 
BRANCH   9  10
ATOM     10  C   UNL     1      17.077  12.187  33.759  1.00  0.00     0.053 C 
BRANCH  10  11
ATOM     11  C   UNL     1      16.848  13.480  34.476  1.00  0.00     0.041 C 
ATOM     12  O   UNL     1      16.444  14.493  33.844  1.00  0.00    -0.550 OA
ATOM     13  O   UNL     1      17.126  13.582  35.833  1.00  0.00    -0.550 OA
ENDBRANCH  10  11
ENDBRANCH   9  10
ENDBRANCH   8   9
ENDBRANCH   1   8
TORSDOF 8
ENDMDL
MODEL 5
REMARK VINA RESULT:    -4.726     13.317     14.265
REMARK INTER + INTRA:          -7.261
REMARK INTER:                  -6.674
REMARK INTRA:                  -0.587
REMARK UNBOUND:                -0.325
REMARK SMILES O=C([O-])CCCCCCCC(=O)[O-]
REMARK SMILES IDX 7 1 6 2 5 3 4 4 2 5 1 6 3 7 8 8 9 9 10 10 11 11 12 12 13 13
REMARK H PARENT
REMARK Flexibility Score: inf
ROOT
ATOM      1  C   UNL     1      13.974  13.796  35.409  1.00  0.00     0.000 C 
ENDROOT
BRANCH   1   2
ATOM      2  C   UNL     1      14.960  13.504  34.266  1.00  0.00     0.000 C 
BRANCH   2   3
ATOM      3  C   UNL     1      15.630  12.127  34.397  1.00  0.00     0.006 C 
BRANCH   3   4
ATOM      4  C   UNL     1      15.575  11.364  33.070  1.00  0.00     0.053 C 
BRANCH   4   5
ATOM      5  C   UNL     1      14.216  10.772  32.861  1.00  0.00     0.041 C 
ATOM      6  O   UNL     1      13.352  11.394  32.191  1.00  0.00    -0.550 OA
ATOM      7  O   UNL     1      13.889   9.557  33.449  1.00  0.00    -0.550 OA
ENDBRANCH   4   5
ENDBRANCH   3   4
ENDBRANCH   2   3
ENDBRANCH   1   2
BRANCH   1   8
ATOM      8  C   UNL     1      12.578  13.205  35.151  1.00  0.00     0.000 C 
BRANCH   8   9
ATOM      9  C   UNL     1      12.295  11.962  36.010  1.00  0.00     0.006 C 
BRANCH   9  10
ATOM     10  C   UNL     1      12.408  12.243  37.514  1.00  0.00     0.053 C 
BRANCH  10  11
ATOM     11  C   UNL     1      11.113  11.942  38.200  1.00  0.00     0.041 C 
ATOM     12  O   UNL     1      10.911  10.806  38.704  1.00  0.00    -0.550 OA
ATOM     13  O   UNL     1      10.108  12.900  38.239  1.00  0.00    -0.550 OA
ENDBRANCH  10  11
ENDBRANCH   9  10
ENDBRANCH   8   9
ENDBRANCH   1   8
TORSDOF 8
ENDMDL
MODEL 6
REMARK VINA RESULT:    -4.690     11.765     13.234
REMARK INTER + INTRA:          -7.209
REMARK INTER:                  -6.392
REMARK INTRA:                  -0.817
REMARK UNBOUND:                -0.325
REMARK SMILES O=C([O-])CCCCCCCC(=O)[O-]
REMARK SMILES IDX 7 1 6 2 5 3 4 4 2 5 1 6 3 7 8 8 9 9 10 10 11 11 12 12 13 13
REMARK H PARENT
REMARK Flexibility Score: inf
ROOT
ATOM      1  C   UNL     1      13.420  11.463  33.095  1.00  0.00     0.000 C 
ENDROOT
BRANCH   1   2
ATOM      2  C   UNL     1      14.722  10.758  33.505  1.00  0.00     0.000 C 
BRANCH   2   3
ATOM      3  C   UNL     1      15.951  11.675  33.404  1.00  0.00     0.006 C 
BRANCH   3   4
ATOM      4  C   UNL     1      16.626  11.838  34.769  1.00  0.00     0.053 C 
BRANCH   4   5
ATOM      5  C   UNL     1      16.901  13.283  35.049  1.00  0.00     0.041 C 
ATOM      6  O   UNL     1      17.391  13.631  36.154  1.00  0.00    -0.550 OA
ATOM      7  O   UNL     1      16.569  14.248  34.107  1.00  0.00    -0.550 OA
ENDBRANCH   4   5
ENDBRANCH   3   4
ENDBRANCH   2   3
ENDBRANCH   1   2
BRANCH   1   8
ATOM      8  C   UNL     1      13.415  12.957  33.462  1.00  0.00     0.000 C 
BRANCH   8   9
ATOM      9  C   UNL     1      12.501  13.268  34.658  1.00  0.00     0.006 C 
BRANCH   9  10
ATOM     10  C   UNL     1      13.286  13.639  35.923  1.00  0.00     0.053 C 
BRANCH  10  11
ATOM     11  C   UNL     1      13.140  12.571  36.960  1.00  0.00     0.041 C 
ATOM     12  O   UNL     1      14.053  11.719  37.126  1.00  0.00    -0.550 OA
ATOM     13  O   UNL     1      11.974  12.484  37.709  1.00  0.00    -0.550 OA
ENDBRANCH  10  11
ENDBRANCH   9  10
ENDBRANCH   8   9
ENDBRANCH   1   8
TORSDOF 8
ENDMDL
MODEL 7
REMARK VINA RESULT:    -4.689     12.948     14.804
REMARK INTER + INTRA:          -7.207
REMARK INTER:                  -6.506
REMARK INTRA:                  -0.701
REMARK UNBOUND:                -0.325
REMARK SMILES O=C([O-])CCCCCCCC(=O)[O-]
REMARK SMILES IDX 7 1 6 2 5 3 4 4 2 5 1 6 3 7 8 8 9 9 10 10 11 11 12 12 13 13
REMARK H PARENT
REMARK Flexibility Score: inf
ROOT
ATOM      1  C   UNL     1      12.619  13.381  34.430  1.00  0.00     0.000 C 
ENDROOT
BRANCH   1   2
ATOM      2  C   UNL     1      13.404  13.828  35.674  1.00  0.00     0.000 C 
BRANCH   2   3
ATOM      3  C   UNL     1      13.150  12.926  36.892  1.00  0.00     0.006 C 
BRANCH   3   4
ATOM      4  C   UNL     1      11.727  12.359  36.866  1.00  0.00     0.053 C 
BRANCH   4   5
ATOM      5  C   UNL     1      11.291  11.975  38.245  1.00  0.00     0.041 C 
ATOM      6  O   UNL     1      10.202  12.404  38.707  1.00  0.00    -0.550 OA
ATOM      7  O   UNL     1      12.111  11.182  39.037  1.00  0.00    -0.550 OA
ENDBRANCH   4   5
ENDBRANCH   3   4
ENDBRANCH   2   3
ENDBRANCH   1   2
BRANCH   1   8
ATOM      8  C   UNL     1      13.538  12.941  33.278  1.00  0.00     0.000 C 
BRANCH   8   9
ATOM      9  C   UNL     1      13.428  11.438  32.976  1.00  0.00     0.006 C 
BRANCH   9  10
ATOM     10  C   UNL     1      14.751  10.691  33.192  1.00  0.00     0.053 C 
BRANCH  10  11
ATOM     11  C   UNL     1      15.009  10.500  34.652  1.00  0.00     0.041 C 
ATOM     12  O   UNL     1      14.157   9.918  35.376  1.00  0.00    -0.550 OA
ATOM     13  O   UNL     1      16.168  11.007  35.227  1.00  0.00    -0.550 OA
ENDBRANCH  10  11
ENDBRANCH   9  10
ENDBRANCH   8   9
ENDBRANCH   1   8
TORSDOF 8
ENDMDL
MODEL 8
REMARK VINA RESULT:    -4.661     13.119     14.653
REMARK INTER + INTRA:          -7.166
REMARK INTER:                  -6.480
REMARK INTRA:                  -0.687
REMARK UNBOUND:                -0.325
REMARK SMILES O=C([O-])CCCCCCCC(=O)[O-]
REMARK SMILES IDX 7 1 6 2 5 3 4 4 2 5 1 6 3 7 8 8 9 9 10 10 11 11 12 12 13 13
REMARK H PARENT
REMARK Flexibility Score: inf
ROOT
ATOM      1  C   UNL     1      15.023  13.307  35.460  1.00  0.00     0.000 C 
ENDROOT
BRANCH   1   2
ATOM      2  C   UNL     1      13.666  14.002  35.267  1.00  0.00     0.000 C 
BRANCH   2   3
ATOM      3  C   UNL     1      12.479  13.101  35.640  1.00  0.00     0.006 C 
BRANCH   3   4
ATOM      4  C   UNL     1      12.830  12.195  36.824  1.00  0.00     0.053 C 
BRANCH   4   5
ATOM      5  C   UNL     1      11.704  12.159  37.809  1.00  0.00     0.041 C 
ATOM      6  O   UNL     1      10.681  12.870  37.627  1.00  0.00    -0.550 OA
ATOM      7  O   UNL     1      11.805  11.378  38.953  1.00  0.00    -0.550 OA
ENDBRANCH   4   5
ENDBRANCH   3   4
ENDBRANCH   2   3
ENDBRANCH   1   2
BRANCH   1   8
ATOM      8  C   UNL     1      15.921  13.406  34.215  1.00  0.00     0.000 C 
BRANCH   8   9
ATOM      9  C   UNL     1      15.992  12.085  33.431  1.00  0.00     0.006 C 
BRANCH   9  10
ATOM     10  C   UNL     1      15.237  10.943  34.125  1.00  0.00     0.053 C 
BRANCH  10  11
ATOM     11  C   UNL     1      14.059  10.524  33.305  1.00  0.00     0.041 C 
ATOM     12  O   UNL     1      13.599   9.355  33.405  1.00  0.00    -0.550 OA
ATOM     13  O   UNL     1      13.496  11.408  32.393  1.00  0.00    -0.550 OA
ENDBRANCH  10  11
ENDBRANCH   9  10
ENDBRANCH   8   9
ENDBRANCH   1   8
TORSDOF 8
ENDMDL
MODEL 9
REMARK VINA RESULT:    -4.656     12.811     14.633
REMARK INTER + INTRA:          -7.158
REMARK INTER:                  -6.506
REMARK INTRA:                  -0.652
REMARK UNBOUND:                -0.325
REMARK SMILES O=C([O-])CCCCCCCC(=O)[O-]
REMARK SMILES IDX 7 1 6 2 5 3 4 4 2 5 1 6 3 7 8 8 9 9 10 10 11 11 12 12 13 13
REMARK H PARENT
REMARK Flexibility Score: inf
ROOT
ATOM      1  C   UNL     1      12.391  13.099  34.447  1.00  0.00     0.000 C 
ENDROOT
BRANCH   1   2
ATOM      2  C   UNL     1      12.984  13.913  35.608  1.00  0.00     0.000 C 
BRANCH   2   3
ATOM      3  C   UNL     1      13.542  13.025  36.731  1.00  0.00     0.006 C 
BRANCH   3   4
ATOM      4  C   UNL     1      12.732  11.731  36.860  1.00  0.00     0.053 C 
BRANCH   4   5
ATOM      5  C   UNL     1      11.869  11.773  38.082  1.00  0.00     0.041 C 
ATOM      6  O   UNL     1      12.076  10.971  39.030  1.00  0.00    -0.550 OA
ATOM      7  O   UNL     1      10.807  12.665  38.153  1.00  0.00    -0.550 OA
ENDBRANCH   4   5
ENDBRANCH   3   4
ENDBRANCH   2   3
ENDBRANCH   1   2
BRANCH   1   8
ATOM      8  C   UNL     1      13.425  12.793  33.350  1.00  0.00     0.000 C 
BRANCH   8   9
ATOM      9  C   UNL     1      13.652  11.285  33.157  1.00  0.00     0.006 C 
BRANCH   9  10
ATOM     10  C   UNL     1      15.122  10.936  32.888  1.00  0.00     0.053 C 
BRANCH  10  11
ATOM     11  C   UNL     1      16.003  11.563  33.922  1.00  0.00     0.041 C 
ATOM     12  O   UNL     1      16.745  12.535  33.618  1.00  0.00    -0.550 OA
ATOM     13  O   UNL     1      16.045  11.042  35.209  1.00  0.00    -0.550 OA
ENDBRANCH  10  11
ENDBRANCH   9  10
ENDBRANCH   8   9
ENDBRANCH   1   8
TORSDOF 8
ENDMDL
