MODEL 1
REMARK VINA RESULT:    -6.908      0.000      0.000
REMARK INTER + INTRA:          -8.903
REMARK INTER:                  -8.524
REMARK INTRA:                  -0.380
REMARK UNBOUND:                -0.380
REMARK SMILES O=C1c2c(O)cc(O)cc2O[C@@H](c2cc(O)c(O)c(O)c2)[C@H]1O
REMARK SMILES IDX 12 1 22 2 2 3 1 4 3 5 4 6 6 7 7 8 9 9 10 10 11 11 13 12
REMARK SMILES IDX 14 13 15 14 21 15 17 16 19 17 16 18 18 20 20 22 23 24 5 26
REMARK SMILES IDX 8 28
REMARK H PARENT 16 19 18 21 20 23 23 25 5 27 8 29
REMARK Flexibility Score: inf
ROOT
ATOM      1  C   UNL     1     110.111 103.697 137.337  1.00  0.00     0.240 C 
ATOM      2  C   UNL     1     108.738 103.815 136.646  1.00  0.00     0.231 C 
ATOM      3  C   UNL     1     107.742 102.882 137.294  1.00  0.00     0.202 C 
ATOM      4  O   UNL     1     106.520 103.164 137.198  1.00  0.00    -0.291 OA
ATOM      5  C   UNL     1     108.207 101.603 137.909  1.00  0.00     0.105 A 
ATOM      6  C   UNL     1     107.341 100.607 138.441  1.00  0.00     0.133 A 
ATOM      7  C   UNL     1     107.868  99.367 138.823  1.00  0.00     0.093 A 
ATOM      8  C   UNL     1     109.239  99.110 138.736  1.00  0.00     0.123 A 
ATOM      9  C   UNL     1     110.099 100.103 138.273  1.00  0.00     0.093 A 
ATOM     10  C   UNL     1     109.598 101.344 137.878  1.00  0.00     0.138 A 
ATOM     11  O   UNL     1     110.494 102.327 137.444  1.00  0.00    -0.481 OA
ENDROOT
BRANCH   1  12
ATOM     12  C   UNL     1     111.173 104.497 136.614  1.00  0.00     0.003 A 
ATOM     13  C   UNL     1     112.327 103.857 136.143  1.00  0.00     0.058 A 
ATOM     14  C   UNL     1     113.342 104.577 135.503  1.00  0.00     0.161 A 
ATOM     15  C   UNL     1     111.052 105.886 136.461  1.00  0.00     0.058 A 
ATOM     16  C   UNL     1     113.206 105.977 135.334  1.00  0.00     0.200 A 
ATOM     17  C   UNL     1     112.054 106.622 135.823  1.00  0.00     0.161 A 
BRANCH  14  18
ATOM     18  O   UNL     1     114.458 103.867 135.056  1.00  0.00    -0.504 OA
ATOM     19  H   UNL     1     114.598 103.574 134.100  1.00  0.00     0.293 HD
ENDBRANCH  14  18
BRANCH  16  20
ATOM     20  O   UNL     1     114.181 106.749 134.698  1.00  0.00    -0.502 OA
ATOM     21  H   UNL     1     114.007 107.653 134.283  1.00  0.00     0.293 HD
ENDBRANCH  16  20
BRANCH  17  22
ATOM     22  O   UNL     1     111.889 108.000 135.685  1.00  0.00    -0.504 OA
ATOM     23  H   UNL     1     112.343 108.664 136.301  1.00  0.00     0.293 HD
ENDBRANCH  17  22
ENDBRANCH   1  12
BRANCH   2  24
ATOM     24  O   UNL     1     108.824 103.544 135.268  1.00  0.00    -0.381 OA
ATOM     25  H   UNL     1     109.583 104.070 134.903  1.00  0.00     0.211 HD
ENDBRANCH   2  24
BRANCH   6  26
ATOM     26  O   UNL     1     105.970 100.795 138.627  1.00  0.00    -0.507 OA
ATOM     27  H   UNL     1     105.457 100.492 139.441  1.00  0.00     0.293 HD
ENDBRANCH   6  26
BRANCH   8  28
ATOM     28  O   UNL     1     109.757  97.875 139.120  1.00  0.00    -0.508 OA
ATOM     29  H   UNL     1     110.518  97.439 138.610  1.00  0.00     0.293 HD
ENDBRANCH   8  28
TORSDOF 7
ENDMDL
MODEL 2
REMARK VINA RESULT:    -6.835      0.098      1.768
REMARK INTER + INTRA:          -8.813
REMARK INTER:                  -8.452
REMARK INTRA:                  -0.361
REMARK UNBOUND:                -0.380
REMARK SMILES O=C1c2c(O)cc(O)cc2O[C@@H](c2cc(O)c(O)c(O)c2)[C@H]1O
REMARK SMILES IDX 12 1 22 2 2 3 1 4 3 5 4 6 6 7 7 8 9 9 10 10 11 11 13 12
REMARK SMILES IDX 14 13 15 14 21 15 17 16 19 17 16 18 18 20 20 22 23 24 5 26
REMARK SMILES IDX 8 28
REMARK H PARENT 16 19 18 21 20 23 23 25 5 27 8 29
REMARK Flexibility Score: inf
ROOT
ATOM      1  C   UNL     1     110.200 103.713 137.367  1.00  0.00     0.240 C 
ATOM      2  C   UNL     1     108.838 103.875 136.664  1.00  0.00     0.231 C 
ATOM      3  C   UNL     1     107.813 102.957 137.286  1.00  0.00     0.202 C 
ATOM      4  O   UNL     1     106.599 103.270 137.181  1.00  0.00    -0.291 OA
ATOM      5  C   UNL     1     108.240 101.658 137.887  1.00  0.00     0.105 A 
ATOM      6  C   UNL     1     107.344 100.675 138.394  1.00  0.00     0.133 A 
ATOM      7  C   UNL     1     107.836  99.417 138.763  1.00  0.00     0.093 A 
ATOM      8  C   UNL     1     109.201  99.128 138.687  1.00  0.00     0.123 A 
ATOM      9  C   UNL     1     110.091 100.107 138.248  1.00  0.00     0.093 A 
ATOM     10  C   UNL     1     109.624 101.366 137.867  1.00  0.00     0.138 A 
ATOM     11  O   UNL     1     110.549 102.333 137.458  1.00  0.00    -0.481 OA
ENDROOT
BRANCH   1  12
ATOM     12  C   UNL     1     111.289 104.498 136.668  1.00  0.00     0.003 A 
ATOM     13  C   UNL     1     111.158 105.885 136.513  1.00  0.00     0.058 A 
ATOM     14  C   UNL     1     112.133 106.630 135.839  1.00  0.00     0.161 A 
ATOM     15  C   UNL     1     112.403 103.851 136.113  1.00  0.00     0.058 A 
ATOM     16  C   UNL     1     113.265 105.975 135.298  1.00  0.00     0.200 A 
ATOM     17  C   UNL     1     113.387 104.579 135.439  1.00  0.00     0.161 A 
BRANCH  14  18
ATOM     18  O   UNL     1     111.934 108.008 135.731  1.00  0.00    -0.504 OA
ATOM     19  H   UNL     1     111.064 108.435 135.449  1.00  0.00     0.293 HD
ENDBRANCH  14  18
BRANCH  16  20
ATOM     20  O   UNL     1     114.273 106.665 134.622  1.00  0.00    -0.502 OA
ATOM     21  H   UNL     1     114.105 107.397 133.947  1.00  0.00     0.293 HD
ENDBRANCH  16  20
BRANCH  17  22
ATOM     22  O   UNL     1     114.483 103.896 134.910  1.00  0.00    -0.504 OA
ATOM     23  H   UNL     1     114.618 103.780 133.913  1.00  0.00     0.293 HD
ENDBRANCH  17  22
ENDBRANCH   1  12
BRANCH   2  24
ATOM     24  O   UNL     1     108.933 103.623 135.282  1.00  0.00    -0.381 OA
ATOM     25  H   UNL     1     108.562 104.411 134.804  1.00  0.00     0.211 HD
ENDBRANCH   2  24
BRANCH   6  26
ATOM     26  O   UNL     1     105.975 100.894 138.568  1.00  0.00    -0.507 OA
ATOM     27  H   UNL     1     105.528 101.029 139.462  1.00  0.00     0.293 HD
ENDBRANCH   6  26
BRANCH   8  28
ATOM     28  O   UNL     1     109.685  97.876 139.057  1.00  0.00    -0.508 OA
ATOM     29  H   UNL     1     110.643  97.602 138.870  1.00  0.00     0.293 HD
ENDBRANCH   8  28
TORSDOF 7
ENDMDL
MODEL 3
REMARK VINA RESULT:    -6.347     11.222     13.335
REMARK INTER + INTRA:          -8.210
REMARK INTER:                  -7.853
REMARK INTRA:                  -0.357
REMARK UNBOUND:                -0.380
REMARK SMILES O=C1c2c(O)cc(O)cc2O[C@@H](c2cc(O)c(O)c(O)c2)[C@H]1O
REMARK SMILES IDX 12 1 22 2 2 3 1 4 3 5 4 6 6 7 7 8 9 9 10 10 11 11 13 12
REMARK SMILES IDX 14 13 15 14 21 15 17 16 19 17 16 18 18 20 20 22 23 24 5 26
REMARK SMILES IDX 8 28
REMARK H PARENT 16 19 18 21 20 23 23 25 5 27 8 29
REMARK Flexibility Score: inf
ROOT
ATOM      1  C   UNL     1     105.287 113.892 136.764  1.00  0.00     0.240 C 
ATOM      2  C   UNL     1     106.492 114.851 136.837  1.00  0.00     0.231 C 
ATOM      3  C   UNL     1     107.494 114.360 137.854  1.00  0.00     0.202 C 
ATOM      4  O   UNL     1     108.693 114.717 137.722  1.00  0.00    -0.291 OA
ATOM      5  C   UNL     1     107.033 113.583 139.043  1.00  0.00     0.105 A 
ATOM      6  C   UNL     1     107.879 113.175 140.113  1.00  0.00     0.133 A 
ATOM      7  C   UNL     1     107.313 112.616 141.266  1.00  0.00     0.093 A 
ATOM      8  C   UNL     1     105.934 112.409 141.363  1.00  0.00     0.123 A 
ATOM      9  C   UNL     1     105.108 112.751 140.294  1.00  0.00     0.093 A 
ATOM     10  C   UNL     1     105.646 113.317 139.137  1.00  0.00     0.138 A 
ATOM     11  O   UNL     1     104.790 113.623 138.074  1.00  0.00    -0.481 OA
ENDROOT
BRANCH   1  12
ATOM     12  C   UNL     1     104.191 114.435 135.874  1.00  0.00     0.003 A 
ATOM     13  C   UNL     1     103.012 114.933 136.447  1.00  0.00     0.058 A 
ATOM     14  C   UNL     1     101.967 115.409 135.647  1.00  0.00     0.161 A 
ATOM     15  C   UNL     1     104.305 114.391 134.477  1.00  0.00     0.058 A 
ATOM     16  C   UNL     1     102.096 115.379 134.237  1.00  0.00     0.200 A 
ATOM     17  C   UNL     1     103.272 114.863 133.663  1.00  0.00     0.161 A 
BRANCH  14  18
ATOM     18  O   UNL     1     100.827 115.895 136.291  1.00  0.00    -0.504 OA
ATOM     19  H   UNL     1     100.107 115.309 136.689  1.00  0.00     0.293 HD
ENDBRANCH  14  18
BRANCH  16  20
ATOM     20  O   UNL     1     101.090 115.846 133.387  1.00  0.00    -0.502 OA
ATOM     21  H   UNL     1     100.564 115.259 132.755  1.00  0.00     0.293 HD
ENDBRANCH  16  20
BRANCH  17  22
ATOM     22  O   UNL     1     103.432 114.807 132.278  1.00  0.00    -0.504 OA
ATOM     23  H   UNL     1     102.649 114.873 131.639  1.00  0.00     0.293 HD
ENDBRANCH  17  22
ENDBRANCH   1  12
BRANCH   2  24
ATOM     24  O   UNL     1     106.093 116.164 137.151  1.00  0.00    -0.381 OA
ATOM     25  H   UNL     1     106.679 116.492 137.882  1.00  0.00     0.211 HD
ENDBRANCH   2  24
BRANCH   6  26
ATOM     26  O   UNL     1     109.271 113.282 140.080  1.00  0.00    -0.507 OA
ATOM     27  H   UNL     1     109.887 112.936 140.800  1.00  0.00     0.293 HD
ENDBRANCH   6  26
BRANCH   8  28
ATOM     28  O   UNL     1     105.378 111.851 142.511  1.00  0.00    -0.508 OA
ATOM     29  H   UNL     1     105.197 110.856 142.582  1.00  0.00     0.293 HD
ENDBRANCH   8  28
TORSDOF 7
ENDMDL
MODEL 4
REMARK VINA RESULT:    -6.188      1.596      3.250
REMARK INTER + INTRA:          -8.015
REMARK INTER:                  -7.750
REMARK INTRA:                  -0.265
REMARK UNBOUND:                -0.380
REMARK SMILES O=C1c2c(O)cc(O)cc2O[C@@H](c2cc(O)c(O)c(O)c2)[C@H]1O
REMARK SMILES IDX 12 1 22 2 2 3 1 4 3 5 4 6 6 7 7 8 9 9 10 10 11 11 13 12
REMARK SMILES IDX 14 13 15 14 21 15 17 16 19 17 16 18 18 20 20 22 23 24 5 26
REMARK SMILES IDX 8 28
REMARK H PARENT 16 19 18 21 20 23 23 25 5 27 8 29
REMARK Flexibility Score: inf
ROOT
ATOM      1  C   UNL     1     109.559 103.675 136.354  1.00  0.00     0.240 C 
ATOM      2  C   UNL     1     109.938 102.500 137.276  1.00  0.00     0.231 C 
ATOM      3  C   UNL     1     108.696 101.819 137.798  1.00  0.00     0.202 C 
ATOM      4  O   UNL     1     108.787 100.617 138.156  1.00  0.00    -0.291 OA
ATOM      5  C   UNL     1     107.442 102.605 137.999  1.00  0.00     0.105 A 
ATOM      6  C   UNL     1     106.255 102.086 138.591  1.00  0.00     0.133 A 
ATOM      7  C   UNL     1     105.202 102.955 138.902  1.00  0.00     0.093 A 
ATOM      8  C   UNL     1     105.279 104.316 138.597  1.00  0.00     0.123 A 
ATOM      9  C   UNL     1     106.413 104.819 137.963  1.00  0.00     0.093 A 
ATOM     10  C   UNL     1     107.480 103.975 137.649  1.00  0.00     0.138 A 
ATOM     11  O   UNL     1     108.591 104.510 136.989  1.00  0.00    -0.481 OA
ENDROOT
BRANCH   1  12
ATOM     12  C   UNL     1     110.773 104.479 135.940  1.00  0.00     0.003 A 
ATOM     13  C   UNL     1     111.926 103.819 135.495  1.00  0.00     0.058 A 
ATOM     14  C   UNL     1     113.076 104.535 135.140  1.00  0.00     0.161 A 
ATOM     15  C   UNL     1     110.787 105.877 136.054  1.00  0.00     0.058 A 
ATOM     16  C   UNL     1     113.078 105.947 135.239  1.00  0.00     0.200 A 
ATOM     17  C   UNL     1     111.925 106.608 135.702  1.00  0.00     0.161 A 
BRANCH  14  18
ATOM     18  O   UNL     1     114.183 103.806 134.701  1.00  0.00    -0.504 OA
ATOM     19  H   UNL     1     114.123 102.957 134.157  1.00  0.00     0.293 HD
ENDBRANCH  14  18
BRANCH  16  20
ATOM     20  O   UNL     1     114.191 106.717 134.893  1.00  0.00    -0.502 OA
ATOM     21  H   UNL     1     115.026 106.792 135.457  1.00  0.00     0.293 HD
ENDBRANCH  16  20
BRANCH  17  22
ATOM     22  O   UNL     1     111.892 107.998 135.824  1.00  0.00    -0.504 OA
ATOM     23  H   UNL     1     112.683 108.581 135.579  1.00  0.00     0.293 HD
ENDBRANCH  17  22
ENDBRANCH   1  12
BRANCH   2  24
ATOM     24  O   UNL     1     110.743 102.922 138.351  1.00  0.00    -0.381 OA
ATOM     25  H   UNL     1     110.250 102.731 139.192  1.00  0.00     0.211 HD
ENDBRANCH   2  24
BRANCH   6  26
ATOM     26  O   UNL     1     106.061 100.732 138.871  1.00  0.00    -0.507 OA
ATOM     27  H   UNL     1     106.584 100.210 139.558  1.00  0.00     0.293 HD
ENDBRANCH   6  26
BRANCH   8  28
ATOM     28  O   UNL     1     104.227 105.176 138.907  1.00  0.00    -0.508 OA
ATOM     29  H   UNL     1     104.064 105.491 139.857  1.00  0.00     0.293 HD
ENDBRANCH   8  28
TORSDOF 7
ENDMDL
MODEL 5
REMARK VINA RESULT:    -6.172      1.598      3.729
REMARK INTER + INTRA:          -7.995
REMARK INTER:                  -7.702
REMARK INTRA:                  -0.292
REMARK UNBOUND:                -0.380
REMARK SMILES O=C1c2c(O)cc(O)cc2O[C@@H](c2cc(O)c(O)c(O)c2)[C@H]1O
REMARK SMILES IDX 12 1 22 2 2 3 1 4 3 5 4 6 6 7 7 8 9 9 10 10 11 11 13 12
REMARK SMILES IDX 14 13 15 14 21 15 17 16 19 17 16 18 18 20 20 22 23 24 5 26
REMARK SMILES IDX 8 28
REMARK H PARENT 16 19 18 21 20 23 23 25 5 27 8 29
REMARK Flexibility Score: inf
ROOT
ATOM      1  C   UNL     1     109.641 103.716 136.362  1.00  0.00     0.240 C 
ATOM      2  C   UNL     1     109.956 102.526 137.289  1.00  0.00     0.231 C 
ATOM      3  C   UNL     1     108.679 101.879 137.767  1.00  0.00     0.202 C 
ATOM      4  O   UNL     1     108.723 100.673 138.120  1.00  0.00    -0.291 OA
ATOM      5  C   UNL     1     107.443 102.700 137.934  1.00  0.00     0.105 A 
ATOM      6  C   UNL     1     106.223 102.214 138.485  1.00  0.00     0.133 A 
ATOM      7  C   UNL     1     105.187 103.112 138.768  1.00  0.00     0.093 A 
ATOM      8  C   UNL     1     105.313 104.472 138.474  1.00  0.00     0.123 A 
ATOM      9  C   UNL     1     106.481 104.944 137.879  1.00  0.00     0.093 A 
ATOM     10  C   UNL     1     107.532 104.071 137.594  1.00  0.00     0.138 A 
ATOM     11  O   UNL     1     108.679 104.575 136.971  1.00  0.00    -0.481 OA
ENDROOT
BRANCH   1  12
ATOM     12  C   UNL     1     110.890 104.486 135.991  1.00  0.00     0.003 A 
ATOM     13  C   UNL     1     110.885 105.886 136.041  1.00  0.00     0.058 A 
ATOM     14  C   UNL     1     112.015 106.625 135.670  1.00  0.00     0.161 A 
ATOM     15  C   UNL     1     112.039 103.822 135.537  1.00  0.00     0.058 A 
ATOM     16  C   UNL     1     113.179 105.949 135.229  1.00  0.00     0.200 A 
ATOM     17  C   UNL     1     113.177 104.543 135.163  1.00  0.00     0.161 A 
BRANCH  14  18
ATOM     18  O   UNL     1     111.935 108.016 135.752  1.00  0.00    -0.504 OA
ATOM     19  H   UNL     1     112.696 108.612 136.046  1.00  0.00     0.293 HD
ENDBRANCH  14  18
BRANCH  16  20
ATOM     20  O   UNL     1     114.339 106.631 134.852  1.00  0.00    -0.502 OA
ATOM     21  H   UNL     1     115.240 106.192 134.731  1.00  0.00     0.293 HD
ENDBRANCH  16  20
BRANCH  17  22
ATOM     22  O   UNL     1     114.301 103.842 134.725  1.00  0.00    -0.504 OA
ATOM     23  H   UNL     1     114.397 102.841 134.847  1.00  0.00     0.293 HD
ENDBRANCH  17  22
ENDBRANCH   1  12
BRANCH   2  24
ATOM     24  O   UNL     1     110.739 102.917 138.390  1.00  0.00    -0.381 OA
ATOM     25  H   UNL     1     110.977 103.874 138.268  1.00  0.00     0.211 HD
ENDBRANCH   2  24
BRANCH   6  26
ATOM     26  O   UNL     1     105.981 100.864 138.751  1.00  0.00    -0.507 OA
ATOM     27  H   UNL     1     106.661 100.226 139.136  1.00  0.00     0.293 HD
ENDBRANCH   6  26
BRANCH   8  28
ATOM     28  O   UNL     1     104.278 105.360 138.757  1.00  0.00    -0.508 OA
ATOM     29  H   UNL     1     103.512 105.102 139.368  1.00  0.00     0.293 HD
ENDBRANCH   8  28
TORSDOF 7
ENDMDL
MODEL 6
REMARK VINA RESULT:    -6.104      2.073      6.632
REMARK INTER + INTRA:          -7.911
REMARK INTER:                  -7.913
REMARK INTRA:                   0.001
REMARK UNBOUND:                -0.380
REMARK SMILES O=C1c2c(O)cc(O)cc2O[C@@H](c2cc(O)c(O)c(O)c2)[C@H]1O
REMARK SMILES IDX 12 1 22 2 2 3 1 4 3 5 4 6 6 7 7 8 9 9 10 10 11 11 13 12
REMARK SMILES IDX 14 13 15 14 21 15 17 16 19 17 16 18 18 20 20 22 23 24 5 26
REMARK SMILES IDX 8 28
REMARK H PARENT 16 19 18 21 20 23 23 25 5 27 8 29
REMARK Flexibility Score: inf
ROOT
ATOM      1  C   UNL     1     109.751 102.403 137.420  1.00  0.00     0.240 C 
ATOM      2  C   UNL     1     108.233 102.652 137.322  1.00  0.00     0.231 C 
ATOM      3  C   UNL     1     107.945 103.775 136.354  1.00  0.00     0.202 C 
ATOM      4  O   UNL     1     106.815 103.804 135.803  1.00  0.00    -0.291 OA
ATOM      5  C   UNL     1     108.937 104.876 136.172  1.00  0.00     0.105 A 
ATOM      6  C   UNL     1     108.713 106.034 135.373  1.00  0.00     0.133 A 
ATOM      7  C   UNL     1     109.630 107.091 135.419  1.00  0.00     0.093 A 
ATOM      8  C   UNL     1     110.786 107.008 136.200  1.00  0.00     0.123 A 
ATOM      9  C   UNL     1     111.040 105.852 136.936  1.00  0.00     0.093 A 
ATOM     10  C   UNL     1     110.138 104.788 136.914  1.00  0.00     0.138 A 
ATOM     11  O   UNL     1     110.439 103.633 137.644  1.00  0.00    -0.481 OA
ENDROOT
BRANCH   1  12
ATOM     12  C   UNL     1     110.086 101.396 138.498  1.00  0.00     0.003 A 
ATOM     13  C   UNL     1     110.078 101.788 139.844  1.00  0.00     0.058 A 
ATOM     14  C   UNL     1     110.419 100.886 140.859  1.00  0.00     0.161 A 
ATOM     15  C   UNL     1     110.468 100.086 138.170  1.00  0.00     0.058 A 
ATOM     16  C   UNL     1     110.785  99.561 140.524  1.00  0.00     0.200 A 
ATOM     17  C   UNL     1     110.809  99.173 139.171  1.00  0.00     0.161 A 
BRANCH  14  18
ATOM     18  O   UNL     1     110.381 101.350 142.176  1.00  0.00    -0.504 OA
ATOM     19  H   UNL     1     110.810 100.874 142.957  1.00  0.00     0.293 HD
ENDBRANCH  14  18
BRANCH  16  20
ATOM     20  O   UNL     1     111.128  98.614 141.493  1.00  0.00    -0.502 OA
ATOM     21  H   UNL     1     111.385  97.660 141.287  1.00  0.00     0.293 HD
ENDBRANCH  16  20
BRANCH  17  22
ATOM     22  O   UNL     1     111.175  97.878 138.800  1.00  0.00    -0.504 OA
ATOM     23  H   UNL     1     110.903  97.064 139.337  1.00  0.00     0.293 HD
ENDBRANCH  17  22
ENDBRANCH   1  12
BRANCH   2  24
ATOM     24  O   UNL     1     107.671 102.945 138.578  1.00  0.00    -0.381 OA
ATOM     25  H   UNL     1     107.853 102.175 139.179  1.00  0.00     0.211 HD
ENDBRANCH   2  24
BRANCH   6  26
ATOM     26  O   UNL     1     107.623 106.180 134.513  1.00  0.00    -0.507 OA
ATOM     27  H   UNL     1     107.413 107.019 133.994  1.00  0.00     0.293 HD
ENDBRANCH   6  26
BRANCH   8  28
ATOM     28  O   UNL     1     111.695 108.062 136.240  1.00  0.00    -0.508 OA
ATOM     29  H   UNL     1     112.601 107.999 135.788  1.00  0.00     0.293 HD
ENDBRANCH   8  28
TORSDOF 7
ENDMDL
MODEL 7
REMARK VINA RESULT:    -6.039      1.324      6.888
REMARK INTER + INTRA:          -7.831
REMARK INTER:                  -7.451
REMARK INTRA:                  -0.380
REMARK UNBOUND:                -0.380
REMARK SMILES O=C1c2c(O)cc(O)cc2O[C@@H](c2cc(O)c(O)c(O)c2)[C@H]1O
REMARK SMILES IDX 12 1 22 2 2 3 1 4 3 5 4 6 6 7 7 8 9 9 10 10 11 11 13 12
REMARK SMILES IDX 14 13 15 14 21 15 17 16 19 17 16 18 18 20 20 22 23 24 5 26
REMARK SMILES IDX 8 28
REMARK H PARENT 16 19 18 21 20 23 23 25 5 27 8 29
REMARK Flexibility Score: inf
ROOT
ATOM      1  C   UNL     1     108.987 102.422 137.101  1.00  0.00     0.240 C 
ATOM      2  C   UNL     1     108.590 103.759 137.756  1.00  0.00     0.231 C 
ATOM      3  C   UNL     1     109.243 104.913 137.033  1.00  0.00     0.202 C 
ATOM      4  O   UNL     1     108.694 106.043 137.108  1.00  0.00    -0.291 OA
ATOM      5  C   UNL     1     110.566 104.725 136.368  1.00  0.00     0.105 A 
ATOM      6  C   UNL     1     111.315 105.773 135.761  1.00  0.00     0.133 A 
ATOM      7  C   UNL     1     112.625 105.525 135.332  1.00  0.00     0.093 A 
ATOM      8  C   UNL     1     113.191 104.252 135.445  1.00  0.00     0.123 A 
ATOM      9  C   UNL     1     112.440 103.209 135.983  1.00  0.00     0.093 A 
ATOM     10  C   UNL     1     111.136 103.431 136.426  1.00  0.00     0.138 A 
ATOM     11  O   UNL     1     110.403 102.354 136.935  1.00  0.00    -0.481 OA
ENDROOT
BRANCH   1  12
ATOM     12  C   UNL     1     108.482 101.236 137.894  1.00  0.00     0.003 A 
ATOM     13  C   UNL     1     109.388 100.276 138.364  1.00  0.00     0.058 A 
ATOM     14  C   UNL     1     108.945  99.150 139.069  1.00  0.00     0.161 A 
ATOM     15  C   UNL     1     107.110 101.046 138.114  1.00  0.00     0.058 A 
ATOM     16  C   UNL     1     107.560  98.974 139.305  1.00  0.00     0.200 A 
ATOM     17  C   UNL     1     106.650  99.929 138.818  1.00  0.00     0.161 A 
BRANCH  14  18
ATOM     18  O   UNL     1     109.909  98.242 139.510  1.00  0.00    -0.504 OA
ATOM     19  H   UNL     1     110.837  98.165 139.119  1.00  0.00     0.293 HD
ENDBRANCH  14  18
BRANCH  16  20
ATOM     20  O   UNL     1     107.059  97.875 140.008  1.00  0.00    -0.502 OA
ATOM     21  H   UNL     1     106.474  97.946 140.828  1.00  0.00     0.293 HD
ENDBRANCH  16  20
BRANCH  17  22
ATOM     22  O   UNL     1     105.277  99.784 139.021  1.00  0.00    -0.504 OA
ATOM     23  H   UNL     1     104.594 100.338 138.518  1.00  0.00     0.293 HD
ENDBRANCH  17  22
ENDBRANCH   1  12
BRANCH   2  24
ATOM     24  O   UNL     1     108.931 103.791 139.121  1.00  0.00    -0.381 OA
ATOM     25  H   UNL     1     108.210 104.275 139.603  1.00  0.00     0.211 HD
ENDBRANCH   2  24
BRANCH   6  26
ATOM     26  O   UNL     1     110.812 107.058 135.545  1.00  0.00    -0.507 OA
ATOM     27  H   UNL     1     110.710 107.486 134.638  1.00  0.00     0.293 HD
ENDBRANCH   6  26
BRANCH   8  28
ATOM     28  O   UNL     1     114.493 104.012 135.015  1.00  0.00    -0.508 OA
ATOM     29  H   UNL     1     115.288 104.461 135.455  1.00  0.00     0.293 HD
ENDBRANCH   8  28
TORSDOF 7
ENDMDL
MODEL 8
REMARK VINA RESULT:    -6.026     11.094     13.568
REMARK INTER + INTRA:          -7.815
REMARK INTER:                  -7.619
REMARK INTRA:                  -0.196
REMARK UNBOUND:                -0.380
REMARK SMILES O=C1c2c(O)cc(O)cc2O[C@@H](c2cc(O)c(O)c(O)c2)[C@H]1O
REMARK SMILES IDX 12 1 22 2 2 3 1 4 3 5 4 6 6 7 7 8 9 9 10 10 11 11 13 12
REMARK SMILES IDX 14 13 15 14 21 15 17 16 19 17 16 18 18 20 20 22 23 24 5 26
REMARK SMILES IDX 8 28
REMARK H PARENT 16 19 18 21 20 23 23 25 5 27 8 29
REMARK Flexibility Score: inf
ROOT
ATOM      1  C   UNL     1     105.463 114.172 136.964  1.00  0.00     0.240 C 
ATOM      2  C   UNL     1     105.473 113.099 135.857  1.00  0.00     0.231 C 
ATOM      3  C   UNL     1     104.789 113.619 134.615  1.00  0.00     0.202 C 
ATOM      4  O   UNL     1     105.101 113.105 133.510  1.00  0.00    -0.291 OA
ATOM      5  C   UNL     1     103.686 114.618 134.732  1.00  0.00     0.105 A 
ATOM      6  C   UNL     1     102.904 115.083 133.637  1.00  0.00     0.133 A 
ATOM      7  C   UNL     1     101.776 115.876 133.882  1.00  0.00     0.093 A 
ATOM      8  C   UNL     1     101.434 116.259 135.181  1.00  0.00     0.123 A 
ATOM      9  C   UNL     1     102.231 115.857 136.252  1.00  0.00     0.093 A 
ATOM     10  C   UNL     1     103.355 115.059 136.035  1.00  0.00     0.138 A 
ATOM     11  O   UNL     1     104.147 114.697 137.130  1.00  0.00    -0.481 OA
ENDROOT
BRANCH   1  12
ATOM     12  C   UNL     1     105.996 113.632 138.273  1.00  0.00     0.003 A 
ATOM     13  C   UNL     1     105.114 113.061 139.201  1.00  0.00     0.058 A 
ATOM     14  C   UNL     1     105.574 112.586 140.435  1.00  0.00     0.161 A 
ATOM     15  C   UNL     1     107.353 113.751 138.605  1.00  0.00     0.058 A 
ATOM     16  C   UNL     1     106.949 112.692 140.757  1.00  0.00     0.200 A 
ATOM     17  C   UNL     1     107.831 113.282 139.832  1.00  0.00     0.161 A 
BRANCH  14  18
ATOM     18  O   UNL     1     104.636 112.024 141.303  1.00  0.00    -0.504 OA
ATOM     19  H   UNL     1     104.874 111.485 142.123  1.00  0.00     0.293 HD
ENDBRANCH  14  18
BRANCH  16  20
ATOM     20  O   UNL     1     107.468 112.230 141.969  1.00  0.00    -0.502 OA
ATOM     21  H   UNL     1     108.330 112.561 142.379  1.00  0.00     0.293 HD
ENDBRANCH  16  20
BRANCH  17  22
ATOM     22  O   UNL     1     109.190 113.413 140.117  1.00  0.00    -0.504 OA
ATOM     23  H   UNL     1     109.536 114.051 140.823  1.00  0.00     0.293 HD
ENDBRANCH  17  22
ENDBRANCH   1  12
BRANCH   2  24
ATOM     24  O   UNL     1     104.857 111.907 136.282  1.00  0.00    -0.381 OA
ATOM     25  H   UNL     1     105.567 111.306 136.629  1.00  0.00     0.211 HD
ENDBRANCH   2  24
BRANCH   6  26
ATOM     26  O   UNL     1     103.206 114.808 132.301  1.00  0.00    -0.507 OA
ATOM     27  H   UNL     1     102.835 114.027 131.781  1.00  0.00     0.293 HD
ENDBRANCH   6  26
BRANCH   8  28
ATOM     28  O   UNL     1     100.312 117.049 135.418  1.00  0.00    -0.508 OA
ATOM     29  H   UNL     1      99.962 117.204 136.357  1.00  0.00     0.293 HD
ENDBRANCH   8  28
TORSDOF 7
ENDMDL
MODEL 9
REMARK VINA RESULT:    -5.949      1.703      6.774
REMARK INTER + INTRA:          -7.720
REMARK INTER:                  -7.327
REMARK INTRA:                  -0.393
REMARK UNBOUND:                -0.380
REMARK SMILES O=C1c2c(O)cc(O)cc2O[C@@H](c2cc(O)c(O)c(O)c2)[C@H]1O
REMARK SMILES IDX 12 1 22 2 2 3 1 4 3 5 4 6 6 7 7 8 9 9 10 10 11 11 13 12
REMARK SMILES IDX 14 13 15 14 21 15 17 16 19 17 16 18 18 20 20 22 23 24 5 26
REMARK SMILES IDX 8 28
REMARK H PARENT 16 19 18 21 20 23 23 25 5 27 8 29
REMARK Flexibility Score: inf
ROOT
ATOM      1  C   UNL     1     108.757 102.738 137.165  1.00  0.00     0.240 C 
ATOM      2  C   UNL     1     107.646 103.674 137.681  1.00  0.00     0.231 C 
ATOM      3  C   UNL     1     107.689 104.994 136.950  1.00  0.00     0.202 C 
ATOM      4  O   UNL     1     106.629 105.670 136.889  1.00  0.00    -0.291 OA
ATOM      5  C   UNL     1     108.988 105.522 136.437  1.00  0.00     0.105 A 
ATOM      6  C   UNL     1     109.153 106.803 135.838  1.00  0.00     0.133 A 
ATOM      7  C   UNL     1     110.442 107.275 135.562  1.00  0.00     0.093 A 
ATOM      8  C   UNL     1     111.567 106.488 135.822  1.00  0.00     0.123 A 
ATOM      9  C   UNL     1     111.408 105.209 136.352  1.00  0.00     0.093 A 
ATOM     10  C   UNL     1     110.134 104.719 136.643  1.00  0.00     0.138 A 
ATOM     11  O   UNL     1     110.010 103.421 137.149  1.00  0.00    -0.481 OA
ENDROOT
BRANCH   1  12
ATOM     12  C   UNL     1     108.847 101.469 137.983  1.00  0.00     0.003 A 
ATOM     13  C   UNL     1     109.999 101.205 138.736  1.00  0.00     0.058 A 
ATOM     14  C   UNL     1     110.125 100.023 139.474  1.00  0.00     0.161 A 
ATOM     15  C   UNL     1     107.819 100.514 137.953  1.00  0.00     0.058 A 
ATOM     16  C   UNL     1     109.076  99.072 139.454  1.00  0.00     0.200 A 
ATOM     17  C   UNL     1     107.926  99.329 138.684  1.00  0.00     0.161 A 
BRANCH  14  18
ATOM     18  O   UNL     1     111.300  99.836 140.204  1.00  0.00    -0.504 OA
ATOM     19  H   UNL     1     112.168 100.317 140.015  1.00  0.00     0.293 HD
ENDBRANCH  14  18
BRANCH  16  20
ATOM     20  O   UNL     1     109.140  97.877 140.175  1.00  0.00    -0.502 OA
ATOM     21  H   UNL     1     108.632  97.702 141.030  1.00  0.00     0.293 HD
ENDBRANCH  16  20
BRANCH  17  22
ATOM     22  O   UNL     1     106.876  98.411 138.631  1.00  0.00    -0.504 OA
ATOM     23  H   UNL     1     106.432  98.146 137.760  1.00  0.00     0.293 HD
ENDBRANCH  17  22
ENDBRANCH   1  12
BRANCH   2  24
ATOM     24  O   UNL     1     107.750 103.889 139.068  1.00  0.00    -0.381 OA
ATOM     25  H   UNL     1     108.697 103.740 139.328  1.00  0.00     0.211 HD
ENDBRANCH   2  24
BRANCH   6  26
ATOM     26  O   UNL     1     108.087 107.633 135.483  1.00  0.00    -0.507 OA
ATOM     27  H   UNL     1     107.891 107.939 134.542  1.00  0.00     0.293 HD
ENDBRANCH   6  26
BRANCH   8  28
ATOM     28  O   UNL     1     112.847 106.962 135.544  1.00  0.00    -0.508 OA
ATOM     29  H   UNL     1     113.009 107.929 135.287  1.00  0.00     0.293 HD
ENDBRANCH   8  28
TORSDOF 7
ENDMDL
