MODEL 1
REMARK VINA RESULT:    -5.201      0.000      0.000
REMARK INTER + INTRA:          -6.681
REMARK INTER:                  -6.265
REMARK INTRA:                  -0.416
REMARK UNBOUND:                -0.416
REMARK SMILES O=c1c(O)c(-c2ccc(O)cc2O)oc2cc(O)cc(O)c12
REMARK SMILES IDX 5 1 3 2 2 3 1 4 22 5 20 6 19 7 17 8 16 9 15 10 14 11 6 12
REMARK SMILES IDX 8 13 7 14 9 15 11 16 12 17 10 18 13 20 4 22 21 24 18 26
REMARK H PARENT 10 19 13 21 4 23 21 25 18 27
REMARK Flexibility Score: inf
ROOT
ATOM      1  C   UNL     1     110.488 108.397 113.360  1.00  0.00     0.184 A 
ATOM      2  C   UNL     1     109.760 107.295 113.845  1.00  0.00     0.208 A 
ATOM      3  C   UNL     1     108.360 107.377 113.892  1.00  0.00     0.238 A 
ATOM      4  O   UNL     1     107.696 106.394 114.321  1.00  0.00    -0.285 OA
ATOM      5  C   UNL     1     107.716 108.555 113.462  1.00  0.00     0.111 A 
ATOM      6  C   UNL     1     106.310 108.720 113.479  1.00  0.00     0.134 A 
ATOM      7  C   UNL     1     105.745 109.925 113.039  1.00  0.00     0.093 A 
ATOM      8  C   UNL     1     106.558 110.969 112.581  1.00  0.00     0.123 A 
ATOM      9  C   UNL     1     107.944 110.811 112.562  1.00  0.00     0.094 A 
ATOM     10  C   UNL     1     108.528 109.617 112.997  1.00  0.00     0.146 A 
ATOM     11  O   UNL     1     109.850 109.494 112.965  1.00  0.00    -0.451 OA
ENDROOT
BRANCH   1  12
ATOM     12  C   UNL     1     111.963 108.364 113.270  1.00  0.00     0.063 A 
ATOM     13  C   UNL     1     113.963 107.988 111.934  1.00  0.00     0.047 A 
ATOM     14  C   UNL     1     112.572 107.976 112.064  1.00  0.00     0.020 A 
ATOM     15  C   UNL     1     114.764 108.396 113.005  1.00  0.00     0.119 A 
ATOM     16  C   UNL     1     114.170 108.786 114.209  1.00  0.00     0.093 A 
ATOM     17  C   UNL     1     112.777 108.768 114.355  1.00  0.00     0.130 A 
BRANCH  15  18
ATOM     18  O   UNL     1     116.152 108.419 112.886  1.00  0.00    -0.508 OA
ATOM     19  H   UNL     1     116.699 109.210 113.206  1.00  0.00     0.293 HD
ENDBRANCH  15  18
BRANCH  17  20
ATOM     20  O   UNL     1     112.239 109.134 115.590  1.00  0.00    -0.507 OA
ATOM     21  H   UNL     1     111.314 109.531 115.694  1.00  0.00     0.293 HD
ENDBRANCH  17  20
ENDBRANCH   1  12
BRANCH   2  22
ATOM     22  O   UNL     1     110.431 106.152 114.284  1.00  0.00    -0.502 OA
ATOM     23  H   UNL     1     111.442 106.081 114.279  1.00  0.00     0.293 HD
ENDBRANCH   2  22
BRANCH   6  24
ATOM     24  O   UNL     1     105.473 107.698 113.930  1.00  0.00    -0.507 OA
ATOM     25  H   UNL     1     104.549 107.889 114.300  1.00  0.00     0.293 HD
ENDBRANCH   6  24
BRANCH   8  26
ATOM     26  O   UNL     1     105.997 112.166 112.144  1.00  0.00    -0.508 OA
ATOM     27  H   UNL     1     105.520 112.234 111.253  1.00  0.00     0.293 HD
ENDBRANCH   8  26
TORSDOF 6
ENDMDL
MODEL 2
REMARK VINA RESULT:    -5.093      1.815      6.996
REMARK INTER + INTRA:          -6.550
REMARK INTER:                  -6.169
REMARK INTRA:                  -0.381
REMARK UNBOUND:                -0.416
REMARK SMILES O=c1c(O)c(-c2ccc(O)cc2O)oc2cc(O)cc(O)c12
REMARK SMILES IDX 5 1 3 2 2 3 1 4 22 5 20 6 19 7 17 8 16 9 15 10 14 11 6 12
REMARK SMILES IDX 8 13 7 14 9 15 11 16 12 17 10 18 13 20 4 22 21 24 18 26
REMARK H PARENT 10 19 13 21 4 23 21 25 18 27
REMARK Flexibility Score: inf
ROOT
ATOM      1  C   UNL     1     108.110 109.509 113.313  1.00  0.00     0.184 A 
ATOM      2  C   UNL     1     108.761 110.407 114.176  1.00  0.00     0.208 A 
ATOM      3  C   UNL     1     110.133 110.236 114.420  1.00  0.00     0.238 A 
ATOM      4  O   UNL     1     110.730 111.038 115.190  1.00  0.00    -0.285 OA
ATOM      5  C   UNL     1     110.823 109.172 113.804  1.00  0.00     0.111 A 
ATOM      6  C   UNL     1     112.204 108.929 113.999  1.00  0.00     0.134 A 
ATOM      7  C   UNL     1     112.818 107.845 113.353  1.00  0.00     0.093 A 
ATOM      8  C   UNL     1     112.077 107.001 112.517  1.00  0.00     0.123 A 
ATOM      9  C   UNL     1     110.716 107.237 112.322  1.00  0.00     0.094 A 
ATOM     10  C   UNL     1     110.085 108.312 112.956  1.00  0.00     0.146 A 
ATOM     11  O   UNL     1     108.788 108.514 112.750  1.00  0.00    -0.451 OA
ENDROOT
BRANCH   1  12
ATOM     12  C   UNL     1     106.670 109.647 113.004  1.00  0.00     0.063 A 
ATOM     13  C   UNL     1     104.884 110.878 111.898  1.00  0.00     0.047 A 
ATOM     14  C   UNL     1     106.230 110.750 112.250  1.00  0.00     0.020 A 
ATOM     15  C   UNL     1     103.962 109.900 112.285  1.00  0.00     0.119 A 
ATOM     16  C   UNL     1     104.389 108.799 113.033  1.00  0.00     0.093 A 
ATOM     17  C   UNL     1     105.733 108.665 113.402  1.00  0.00     0.130 A 
BRANCH  15  18
ATOM     18  O   UNL     1     102.618 110.013 111.935  1.00  0.00    -0.508 OA
ATOM     19  H   UNL     1     101.888 109.575 112.485  1.00  0.00     0.293 HD
ENDBRANCH  15  18
BRANCH  17  20
ATOM     20  O   UNL     1     106.097 107.563 114.178  1.00  0.00    -0.507 OA
ATOM     21  H   UNL     1     106.168 107.598 115.187  1.00  0.00     0.293 HD
ENDBRANCH  17  20
ENDBRANCH   1  12
BRANCH   2  22
ATOM     22  O   UNL     1     108.043 111.436 114.788  1.00  0.00    -0.502 OA
ATOM     23  H   UNL     1     107.814 112.298 114.305  1.00  0.00     0.293 HD
ENDBRANCH   2  22
BRANCH   6  24
ATOM     24  O   UNL     1     112.969 109.752 114.827  1.00  0.00    -0.507 OA
ATOM     25  H   UNL     1     113.825 109.427 115.258  1.00  0.00     0.293 HD
ENDBRANCH   6  24
BRANCH   8  26
ATOM     26  O   UNL     1     112.687 105.925 111.876  1.00  0.00    -0.508 OA
ATOM     27  H   UNL     1     112.180 105.342 111.222  1.00  0.00     0.293 HD
ENDBRANCH   8  26
TORSDOF 6
ENDMDL
MODEL 3
REMARK VINA RESULT:    -5.025      1.639      6.850
REMARK INTER + INTRA:          -6.469
REMARK INTER:                  -6.055
REMARK INTRA:                  -0.414
REMARK UNBOUND:                -0.416
REMARK SMILES O=c1c(O)c(-c2ccc(O)cc2O)oc2cc(O)cc(O)c12
REMARK SMILES IDX 5 1 3 2 2 3 1 4 22 5 20 6 19 7 17 8 16 9 15 10 14 11 6 12
REMARK SMILES IDX 8 13 7 14 9 15 11 16 12 17 10 18 13 20 4 22 21 24 18 26
REMARK H PARENT 10 19 13 21 4 23 21 25 18 27
REMARK Flexibility Score: inf
ROOT
ATOM      1  C   UNL     1     109.681 108.699 113.710  1.00  0.00     0.184 A 
ATOM      2  C   UNL     1     110.316 109.700 114.467  1.00  0.00     0.208 A 
ATOM      3  C   UNL     1     111.716 109.692 114.560  1.00  0.00     0.238 A 
ATOM      4  O   UNL     1     112.298 110.586 115.233  1.00  0.00    -0.285 OA
ATOM      5  C   UNL     1     112.453 108.685 113.903  1.00  0.00     0.111 A 
ATOM      6  C   UNL     1     113.865 108.604 113.947  1.00  0.00     0.134 A 
ATOM      7  C   UNL     1     114.525 107.568 113.270  1.00  0.00     0.093 A 
ATOM      8  C   UNL     1     113.799 106.612 112.548  1.00  0.00     0.123 A 
ATOM      9  C   UNL     1     112.407 106.689 112.500  1.00  0.00     0.094 A 
ATOM     10  C   UNL     1     111.730 107.714 113.169  1.00  0.00     0.146 A 
ATOM     11  O   UNL     1     110.404 107.763 113.104  1.00  0.00    -0.451 OA
ENDROOT
BRANCH   1  12
ATOM     12  C   UNL     1     108.211 108.666 113.561  1.00  0.00     0.063 A 
ATOM     13  C   UNL     1     106.227 109.308 112.304  1.00  0.00     0.047 A 
ATOM     14  C   UNL     1     107.609 109.366 112.501  1.00  0.00     0.020 A 
ATOM     15  C   UNL     1     105.429 108.540 113.159  1.00  0.00     0.119 A 
ATOM     16  C   UNL     1     106.017 107.838 114.215  1.00  0.00     0.093 A 
ATOM     17  C   UNL     1     107.399 107.897 114.428  1.00  0.00     0.130 A 
BRANCH  15  18
ATOM     18  O   UNL     1     104.050 108.469 112.969  1.00  0.00    -0.508 OA
ATOM     19  H   UNL     1     103.650 108.263 112.061  1.00  0.00     0.293 HD
ENDBRANCH  15  18
BRANCH  17  20
ATOM     20  O   UNL     1     107.928 107.204 115.519  1.00  0.00    -0.507 OA
ATOM     21  H   UNL     1     107.355 106.800 116.248  1.00  0.00     0.293 HD
ENDBRANCH  17  20
ENDBRANCH   1  12
BRANCH   2  22
ATOM     22  O   UNL     1     109.556 110.669 115.124  1.00  0.00    -0.502 OA
ATOM     23  H   UNL     1     109.944 111.261 115.850  1.00  0.00     0.293 HD
ENDBRANCH   2  22
BRANCH   6  24
ATOM     24  O   UNL     1     114.616 109.541 114.659  1.00  0.00    -0.507 OA
ATOM     25  H   UNL     1     115.261 110.171 114.196  1.00  0.00     0.293 HD
ENDBRANCH   6  24
BRANCH   8  26
ATOM     26  O   UNL     1     114.455 105.584 111.875  1.00  0.00    -0.508 OA
ATOM     27  H   UNL     1     115.071 104.942 112.359  1.00  0.00     0.293 HD
ENDBRANCH   8  26
TORSDOF 6
ENDMDL
MODEL 4
REMARK VINA RESULT:    -4.954      2.221      4.197
REMARK INTER + INTRA:          -6.384
REMARK INTER:                  -6.040
REMARK INTRA:                  -0.343
REMARK UNBOUND:                -0.416
REMARK SMILES O=c1c(O)c(-c2ccc(O)cc2O)oc2cc(O)cc(O)c12
REMARK SMILES IDX 5 1 3 2 2 3 1 4 22 5 20 6 19 7 17 8 16 9 15 10 14 11 6 12
REMARK SMILES IDX 8 13 7 14 9 15 11 16 12 17 10 18 13 20 4 22 21 24 18 26
REMARK H PARENT 10 19 13 21 4 23 21 25 18 27
REMARK Flexibility Score: inf
ROOT
ATOM      1  C   UNL     1     112.950 107.610 114.544  1.00  0.00     0.184 A 
ATOM      2  C   UNL     1     112.953 108.998 114.768  1.00  0.00     0.208 A 
ATOM      3  C   UNL     1     111.726 109.663 114.910  1.00  0.00     0.238 A 
ATOM      4  O   UNL     1     111.715 110.908 115.115  1.00  0.00    -0.285 OA
ATOM      5  C   UNL     1     110.523 108.933 114.820  1.00  0.00     0.111 A 
ATOM      6  C   UNL     1     109.245 109.526 114.949  1.00  0.00     0.134 A 
ATOM      7  C   UNL     1     108.094 108.732 114.842  1.00  0.00     0.093 A 
ATOM      8  C   UNL     1     108.197 107.355 114.609  1.00  0.00     0.123 A 
ATOM      9  C   UNL     1     109.455 106.765 114.482  1.00  0.00     0.094 A 
ATOM     10  C   UNL     1     110.615 107.540 114.585  1.00  0.00     0.146 A 
ATOM     11  O   UNL     1     111.799 106.951 114.462  1.00  0.00    -0.451 OA
ENDROOT
BRANCH   1  12
ATOM     12  C   UNL     1     114.212 106.852 114.404  1.00  0.00     0.063 A 
ATOM     13  C   UNL     1     115.746 105.177 115.279  1.00  0.00     0.047 A 
ATOM     14  C   UNL     1     114.587 105.946 115.411  1.00  0.00     0.020 A 
ATOM     15  C   UNL     1     116.541 105.296 114.134  1.00  0.00     0.119 A 
ATOM     16  C   UNL     1     116.176 106.192 113.125  1.00  0.00     0.093 A 
ATOM     17  C   UNL     1     115.022 106.976 113.251  1.00  0.00     0.130 A 
BRANCH  15  18
ATOM     18  O   UNL     1     117.696 104.530 113.988  1.00  0.00    -0.508 OA
ATOM     19  H   UNL     1     118.558 104.778 114.458  1.00  0.00     0.293 HD
ENDBRANCH  15  18
BRANCH  17  20
ATOM     20  O   UNL     1     114.725 107.880 112.229  1.00  0.00    -0.507 OA
ATOM     21  H   UNL     1     113.879 108.435 112.211  1.00  0.00     0.293 HD
ENDBRANCH  17  20
ENDBRANCH   1  12
BRANCH   2  22
ATOM     22  O   UNL     1     114.162 109.695 114.829  1.00  0.00    -0.502 OA
ATOM     23  H   UNL     1     114.483 110.148 115.677  1.00  0.00     0.293 HD
ENDBRANCH   2  22
BRANCH   6  24
ATOM     24  O   UNL     1     109.109 110.896 115.181  1.00  0.00    -0.507 OA
ATOM     25  H   UNL     1     109.234 111.578 114.442  1.00  0.00     0.293 HD
ENDBRANCH   6  24
BRANCH   8  26
ATOM     26  O   UNL     1     107.054 106.566 114.503  1.00  0.00    -0.508 OA
ATOM     27  H   UNL     1     107.103 105.555 114.539  1.00  0.00     0.293 HD
ENDBRANCH   8  26
TORSDOF 6
ENDMDL
MODEL 5
REMARK VINA RESULT:    -4.892      3.031      7.762
REMARK INTER + INTRA:          -6.308
REMARK INTER:                  -5.903
REMARK INTRA:                  -0.405
REMARK UNBOUND:                -0.416
REMARK SMILES O=c1c(O)c(-c2ccc(O)cc2O)oc2cc(O)cc(O)c12
REMARK SMILES IDX 5 1 3 2 2 3 1 4 22 5 20 6 19 7 17 8 16 9 15 10 14 11 6 12
REMARK SMILES IDX 8 13 7 14 9 15 11 16 12 17 10 18 13 20 4 22 21 24 18 26
REMARK H PARENT 10 19 13 21 4 23 21 25 18 27
REMARK Flexibility Score: inf
ROOT
ATOM      1  C   UNL     1     113.082 107.908 114.450  1.00  0.00     0.184 A 
ATOM      2  C   UNL     1     114.037 107.986 113.421  1.00  0.00     0.208 A 
ATOM      3  C   UNL     1     115.142 107.122 113.457  1.00  0.00     0.238 A 
ATOM      4  O   UNL     1     116.003 107.179 112.537  1.00  0.00    -0.285 OA
ATOM      5  C   UNL     1     115.276 106.205 114.520  1.00  0.00     0.111 A 
ATOM      6  C   UNL     1     116.360 105.302 114.632  1.00  0.00     0.134 A 
ATOM      7  C   UNL     1     116.423 104.423 115.723  1.00  0.00     0.093 A 
ATOM      8  C   UNL     1     115.424 104.429 116.703  1.00  0.00     0.123 A 
ATOM      9  C   UNL     1     114.353 105.317 116.597  1.00  0.00     0.094 A 
ATOM     10  C   UNL     1     114.271 106.202 115.516  1.00  0.00     0.146 A 
ATOM     11  O   UNL     1     113.238 107.034 115.440  1.00  0.00    -0.451 OA
ENDROOT
BRANCH   1  12
ATOM     12  C   UNL     1     111.888 108.780 114.458  1.00  0.00     0.063 A 
ATOM     13  C   UNL     1     110.848 110.887 115.095  1.00  0.00     0.047 A 
ATOM     14  C   UNL     1     111.943 110.020 115.118  1.00  0.00     0.020 A 
ATOM     15  C   UNL     1     109.685 110.530 114.404  1.00  0.00     0.119 A 
ATOM     16  C   UNL     1     109.619 109.300 113.742  1.00  0.00     0.093 A 
ATOM     17  C   UNL     1     110.707 108.418 113.767  1.00  0.00     0.130 A 
BRANCH  15  18
ATOM     18  O   UNL     1     108.588 111.388 114.369  1.00  0.00    -0.508 OA
ATOM     19  H   UNL     1     107.689 111.084 114.015  1.00  0.00     0.293 HD
ENDBRANCH  15  18
BRANCH  17  20
ATOM     20  O   UNL     1     110.574 107.189 113.119  1.00  0.00    -0.507 OA
ATOM     21  H   UNL     1     110.704 107.073 112.123  1.00  0.00     0.293 HD
ENDBRANCH  17  20
ENDBRANCH   1  12
BRANCH   2  22
ATOM     22  O   UNL     1     113.886 108.921 112.395  1.00  0.00    -0.502 OA
ATOM     23  H   UNL     1     113.205 108.806 111.653  1.00  0.00     0.293 HD
ENDBRANCH   2  22
BRANCH   6  24
ATOM     24  O   UNL     1     117.372 105.272 113.671  1.00  0.00    -0.507 OA
ATOM     25  H   UNL     1     117.461 105.995 112.968  1.00  0.00     0.293 HD
ENDBRANCH   6  24
BRANCH   8  26
ATOM     26  O   UNL     1     115.487 103.556 117.787  1.00  0.00    -0.508 OA
ATOM     27  H   UNL     1     114.846 103.632 118.567  1.00  0.00     0.293 HD
ENDBRANCH   8  26
TORSDOF 6
ENDMDL
MODEL 6
REMARK VINA RESULT:    -4.689      2.035      2.661
REMARK INTER + INTRA:          -6.064
REMARK INTER:                  -5.645
REMARK INTRA:                  -0.418
REMARK UNBOUND:                -0.416
REMARK SMILES O=c1c(O)c(-c2ccc(O)cc2O)oc2cc(O)cc(O)c12
REMARK SMILES IDX 5 1 3 2 2 3 1 4 22 5 20 6 19 7 17 8 16 9 15 10 14 11 6 12
REMARK SMILES IDX 8 13 7 14 9 15 11 16 12 17 10 18 13 20 4 22 21 24 18 26
REMARK H PARENT 10 19 13 21 4 23 21 25 18 27
REMARK Flexibility Score: inf
ROOT
ATOM      1  C   UNL     1     111.089 107.664 115.017  1.00  0.00     0.184 A 
ATOM      2  C   UNL     1     110.859 107.403 116.380  1.00  0.00     0.208 A 
ATOM      3  C   UNL     1     109.537 107.353 116.846  1.00  0.00     0.238 A 
ATOM      4  O   UNL     1     109.317 107.116 118.065  1.00  0.00    -0.285 OA
ATOM      5  C   UNL     1     108.472 107.571 115.947  1.00  0.00     0.111 A 
ATOM      6  C   UNL     1     107.112 107.541 116.335  1.00  0.00     0.134 A 
ATOM      7  C   UNL     1     106.110 107.772 115.381  1.00  0.00     0.093 A 
ATOM      8  C   UNL     1     106.443 108.033 114.047  1.00  0.00     0.123 A 
ATOM      9  C   UNL     1     107.783 108.063 113.659  1.00  0.00     0.094 A 
ATOM     10  C   UNL     1     108.796 107.835 114.595  1.00  0.00     0.146 A 
ATOM     11  O   UNL     1     110.063 107.868 114.196  1.00  0.00    -0.451 OA
ENDROOT
BRANCH   1  12
ATOM     12  C   UNL     1     112.459 107.712 114.464  1.00  0.00     0.063 A 
ATOM     13  C   UNL     1     114.304 106.568 113.363  1.00  0.00     0.047 A 
ATOM     14  C   UNL     1     113.032 106.540 113.941  1.00  0.00     0.020 A 
ATOM     15  C   UNL     1     115.016 107.769 113.292  1.00  0.00     0.119 A 
ATOM     16  C   UNL     1     114.455 108.941 113.808  1.00  0.00     0.093 A 
ATOM     17  C   UNL     1     113.186 108.924 114.399  1.00  0.00     0.130 A 
BRANCH  15  18
ATOM     18  O   UNL     1     116.283 107.811 112.713  1.00  0.00    -0.508 OA
ATOM     19  H   UNL     1     117.017 108.401 113.087  1.00  0.00     0.293 HD
ENDBRANCH  15  18
BRANCH  17  20
ATOM     20  O   UNL     1     112.689 110.117 114.929  1.00  0.00    -0.507 OA
ATOM     21  H   UNL     1     113.207 110.986 114.914  1.00  0.00     0.293 HD
ENDBRANCH  17  20
ENDBRANCH   1  12
BRANCH   2  22
ATOM     22  O   UNL     1     111.937 107.215 117.248  1.00  0.00    -0.502 OA
ATOM     23  H   UNL     1     112.784 107.767 117.187  1.00  0.00     0.293 HD
ENDBRANCH   2  22
BRANCH   6  24
ATOM     24  O   UNL     1     106.748 107.284 117.658  1.00  0.00    -0.507 OA
ATOM     25  H   UNL     1     106.923 106.387 118.095  1.00  0.00     0.293 HD
ENDBRANCH   6  24
BRANCH   8  26
ATOM     26  O   UNL     1     105.448 108.262 113.099  1.00  0.00    -0.508 OA
ATOM     27  H   UNL     1     105.645 108.233 112.106  1.00  0.00     0.293 HD
ENDBRANCH   8  26
TORSDOF 6
ENDMDL
MODEL 7
REMARK VINA RESULT:    -4.662      3.167      5.202
REMARK INTER + INTRA:          -6.031
REMARK INTER:                  -5.653
REMARK INTRA:                  -0.379
REMARK UNBOUND:                -0.416
REMARK SMILES O=c1c(O)c(-c2ccc(O)cc2O)oc2cc(O)cc(O)c12
REMARK SMILES IDX 5 1 3 2 2 3 1 4 22 5 20 6 19 7 17 8 16 9 15 10 14 11 6 12
REMARK SMILES IDX 8 13 7 14 9 15 11 16 12 17 10 18 13 20 4 22 21 24 18 26
REMARK H PARENT 10 19 13 21 4 23 21 25 18 27
REMARK Flexibility Score: inf
ROOT
ATOM      1  C   UNL     1     106.182 109.624 114.285  1.00  0.00     0.184 A 
ATOM      2  C   UNL     1     105.449 109.494 113.093  1.00  0.00     0.208 A 
ATOM      3  C   UNL     1     104.047 109.526 113.154  1.00  0.00     0.238 A 
ATOM      4  O   UNL     1     103.378 109.415 112.090  1.00  0.00    -0.285 OA
ATOM      5  C   UNL     1     103.407 109.679 114.401  1.00  0.00     0.111 A 
ATOM      6  C   UNL     1     102.000 109.718 114.550  1.00  0.00     0.134 A 
ATOM      7  C   UNL     1     101.439 109.868 115.827  1.00  0.00     0.093 A 
ATOM      8  C   UNL     1     102.258 109.980 116.957  1.00  0.00     0.123 A 
ATOM      9  C   UNL     1     103.646 109.943 116.815  1.00  0.00     0.094 A 
ATOM     10  C   UNL     1     104.224 109.794 115.550  1.00  0.00     0.146 A 
ATOM     11  O   UNL     1     105.549 109.764 115.445  1.00  0.00    -0.451 OA
ENDROOT
BRANCH   1  12
ATOM     12  C   UNL     1     107.661 109.616 114.282  1.00  0.00     0.063 A 
ATOM     13  C   UNL     1     109.739 108.365 114.075  1.00  0.00     0.047 A 
ATOM     14  C   UNL     1     108.343 108.395 114.135  1.00  0.00     0.020 A 
ATOM     15  C   UNL     1     110.471 109.554 114.151  1.00  0.00     0.119 A 
ATOM     16  C   UNL     1     109.802 110.774 114.295  1.00  0.00     0.093 A 
ATOM     17  C   UNL     1     108.405 110.816 114.368  1.00  0.00     0.130 A 
BRANCH  15  18
ATOM     18  O   UNL     1     111.863 109.537 114.086  1.00  0.00    -0.508 OA
ATOM     19  H   UNL     1     112.384 108.670 114.131  1.00  0.00     0.293 HD
ENDBRANCH  15  18
BRANCH  17  20
ATOM     20  O   UNL     1     107.791 112.058 114.547  1.00  0.00    -0.507 OA
ATOM     21  H   UNL     1     107.923 112.836 113.914  1.00  0.00     0.293 HD
ENDBRANCH  17  20
ENDBRANCH   1  12
BRANCH   2  22
ATOM     22  O   UNL     1     106.113 109.322 111.877  1.00  0.00    -0.502 OA
ATOM     23  H   UNL     1     106.679 108.504 111.680  1.00  0.00     0.293 HD
ENDBRANCH   2  22
BRANCH   6  24
ATOM     24  O   UNL     1     101.157 109.608 113.443  1.00  0.00    -0.507 OA
ATOM     25  H   UNL     1     100.533 108.819 113.323  1.00  0.00     0.293 HD
ENDBRANCH   6  24
BRANCH   8  26
ATOM     26  O   UNL     1     101.701 110.130 118.225  1.00  0.00    -0.508 OA
ATOM     27  H   UNL     1     100.937 110.772 118.395  1.00  0.00     0.293 HD
ENDBRANCH   8  26
TORSDOF 6
ENDMDL
MODEL 8
REMARK VINA RESULT:    -4.654      2.285      7.516
REMARK INTER + INTRA:          -6.022
REMARK INTER:                  -5.681
REMARK INTRA:                  -0.341
REMARK UNBOUND:                -0.416
REMARK SMILES O=c1c(O)c(-c2ccc(O)cc2O)oc2cc(O)cc(O)c12
REMARK SMILES IDX 5 1 3 2 2 3 1 4 22 5 20 6 19 7 17 8 16 9 15 10 14 11 6 12
REMARK SMILES IDX 8 13 7 14 9 15 11 16 12 17 10 18 13 20 4 22 21 24 18 26
REMARK H PARENT 10 19 13 21 4 23 21 25 18 27
REMARK Flexibility Score: inf
ROOT
ATOM      1  C   UNL     1     106.740 109.352 114.148  1.00  0.00     0.184 A 
ATOM      2  C   UNL     1     107.568 110.485 114.070  1.00  0.00     0.208 A 
ATOM      3  C   UNL     1     108.957 110.318 114.181  1.00  0.00     0.238 A 
ATOM      4  O   UNL     1     109.711 111.326 114.109  1.00  0.00    -0.285 OA
ATOM      5  C   UNL     1     109.490 109.026 114.373  1.00  0.00     0.111 A 
ATOM      6  C   UNL     1     110.876 108.770 114.497  1.00  0.00     0.134 A 
ATOM      7  C   UNL     1     111.327 107.457 114.691  1.00  0.00     0.093 A 
ATOM      8  C   UNL     1     110.419 106.394 114.764  1.00  0.00     0.123 A 
ATOM      9  C   UNL     1     109.051 106.641 114.642  1.00  0.00     0.094 A 
ATOM     10  C   UNL     1     108.581 107.944 114.447  1.00  0.00     0.146 A 
ATOM     11  O   UNL     1     107.273 108.149 114.332  1.00  0.00    -0.451 OA
ENDROOT
BRANCH   1  12
ATOM     12  C   UNL     1     105.271 109.464 114.020  1.00  0.00     0.063 A 
ATOM     13  C   UNL     1     103.245 108.984 112.759  1.00  0.00     0.047 A 
ATOM     14  C   UNL     1     104.636 108.940 112.880  1.00  0.00     0.020 A 
ATOM     15  C   UNL     1     102.469 109.542 113.780  1.00  0.00     0.119 A 
ATOM     16  C   UNL     1     103.089 110.064 114.919  1.00  0.00     0.093 A 
ATOM     17  C   UNL     1     104.483 110.036 115.047  1.00  0.00     0.130 A 
BRANCH  15  18
ATOM     18  O   UNL     1     101.080 109.586 113.673  1.00  0.00    -0.508 OA
ATOM     19  H   UNL     1     100.587 110.461 113.539  1.00  0.00     0.293 HD
ENDBRANCH  15  18
BRANCH  17  20
ATOM     20  O   UNL     1     105.052 110.602 116.190  1.00  0.00    -0.507 OA
ATOM     21  H   UNL     1     105.621 110.078 116.842  1.00  0.00     0.293 HD
ENDBRANCH  17  20
ENDBRANCH   1  12
BRANCH   2  22
ATOM     22  O   UNL     1     107.007 111.753 113.902  1.00  0.00    -0.502 OA
ATOM     23  H   UNL     1     106.474 112.211 114.632  1.00  0.00     0.293 HD
ENDBRANCH   2  22
BRANCH   6  24
ATOM     24  O   UNL     1     111.807 109.809 114.430  1.00  0.00    -0.507 OA
ATOM     25  H   UNL     1     111.820 110.464 113.657  1.00  0.00     0.293 HD
ENDBRANCH   6  24
BRANCH   8  26
ATOM     26  O   UNL     1     110.867 105.089 114.957  1.00  0.00    -0.508 OA
ATOM     27  H   UNL     1     110.223 104.308 114.997  1.00  0.00     0.293 HD
ENDBRANCH   8  26
TORSDOF 6
ENDMDL
MODEL 9
REMARK VINA RESULT:    -4.651      2.374      7.489
REMARK INTER + INTRA:          -6.018
REMARK INTER:                  -5.635
REMARK INTRA:                  -0.383
REMARK UNBOUND:                -0.416
REMARK SMILES O=c1c(O)c(-c2ccc(O)cc2O)oc2cc(O)cc(O)c12
REMARK SMILES IDX 5 1 3 2 2 3 1 4 22 5 20 6 19 7 17 8 16 9 15 10 14 11 6 12
REMARK SMILES IDX 8 13 7 14 9 15 11 16 12 17 10 18 13 20 4 22 21 24 18 26
REMARK H PARENT 10 19 13 21 4 23 21 25 18 27
REMARK Flexibility Score: inf
ROOT
ATOM      1  C   UNL     1     111.662 107.074 113.450  1.00  0.00     0.184 A 
ATOM      2  C   UNL     1     112.594 108.116 113.608  1.00  0.00     0.208 A 
ATOM      3  C   UNL     1     113.959 107.833 113.449  1.00  0.00     0.238 A 
ATOM      4  O   UNL     1     114.804 108.759 113.584  1.00  0.00    -0.285 OA
ATOM      5  C   UNL     1     114.367 106.518 113.144  1.00  0.00     0.111 A 
ATOM      6  C   UNL     1     115.722 106.147 112.971  1.00  0.00     0.134 A 
ATOM      7  C   UNL     1     116.048 104.816 112.673  1.00  0.00     0.093 A 
ATOM      8  C   UNL     1     115.044 103.848 112.545  1.00  0.00     0.123 A 
ATOM      9  C   UNL     1     113.707 104.208 112.714  1.00  0.00     0.094 A 
ATOM     10  C   UNL     1     113.362 105.531 113.011  1.00  0.00     0.146 A 
ATOM     11  O   UNL     1     112.080 105.845 113.165  1.00  0.00    -0.451 OA
ENDROOT
BRANCH   1  12
ATOM     12  C   UNL     1     110.210 107.315 113.587  1.00  0.00     0.063 A 
ATOM     13  C   UNL     1     108.166 108.296 112.700  1.00  0.00     0.047 A 
ATOM     14  C   UNL     1     109.547 108.097 112.625  1.00  0.00     0.020 A 
ATOM     15  C   UNL     1     107.428 107.708 113.733  1.00  0.00     0.119 A 
ATOM     16  C   UNL     1     108.076 106.927 114.693  1.00  0.00     0.093 A 
ATOM     17  C   UNL     1     109.462 106.729 114.635  1.00  0.00     0.130 A 
BRANCH  15  18
ATOM     18  O   UNL     1     106.049 107.893 113.815  1.00  0.00    -0.508 OA
ATOM     19  H   UNL     1     105.645 108.602 114.416  1.00  0.00     0.293 HD
ENDBRANCH  15  18
BRANCH  17  20
ATOM     20  O   UNL     1     110.062 105.969 115.641  1.00  0.00    -0.507 OA
ATOM     21  H   UNL     1     111.064 105.912 115.766  1.00  0.00     0.293 HD
ENDBRANCH  17  20
ENDBRANCH   1  12
BRANCH   2  22
ATOM     22  O   UNL     1     112.158 109.402 113.932  1.00  0.00    -0.502 OA
ATOM     23  H   UNL     1     112.773 110.207 113.898  1.00  0.00     0.293 HD
ENDBRANCH   2  22
BRANCH   6  24
ATOM     24  O   UNL     1     116.745 107.089 113.093  1.00  0.00    -0.507 OA
ATOM     25  H   UNL     1     117.115 107.582 112.289  1.00  0.00     0.293 HD
ENDBRANCH   6  24
BRANCH   8  26
ATOM     26  O   UNL     1     115.367 102.526 112.248  1.00  0.00    -0.508 OA
ATOM     27  H   UNL     1     115.497 101.836 112.978  1.00  0.00     0.293 HD
ENDBRANCH   8  26
TORSDOF 6
ENDMDL
