MODEL 1
REMARK VINA RESULT:    -3.986      0.000      0.000
REMARK INTER + INTRA:         -10.242
REMARK INTER:                  -7.714
REMARK INTRA:                  -2.528
REMARK UNBOUND:                -2.528
REMARK SMILES CCCCCCCCCCCCCCCCCC(=O)[O-]
REMARK SMILES IDX 10 1 11 2 12 3 13 4 14 5 15 6 16 7 17 8 18 9 19 10 20 11
REMARK SMILES IDX 9 12 8 13 7 14 6 15 5 16 4 17 3 18 2 19 1 20
REMARK H PARENT
REMARK Flexibility Score: inf
ROOT
ATOM      1  C   UNL     1      -1.044 -34.595  45.719  1.00  0.00     0.000 C 
ENDROOT
BRANCH   1   2
ATOM      2  C   UNL     1      -0.798 -35.955  45.049  1.00  0.00     0.000 C 
BRANCH   2   3
ATOM      3  C   UNL     1       0.645 -36.060  44.532  1.00  0.00     0.000 C 
BRANCH   3   4
ATOM      4  C   UNL     1       1.280 -34.684  44.270  1.00  0.00     0.000 C 
BRANCH   4   5
ATOM      5  C   UNL     1       2.602 -34.489  45.033  1.00  0.00     0.000 C 
BRANCH   5   6
ATOM      6  C   UNL     1       2.769 -35.485  46.192  1.00  0.00     0.000 C 
BRANCH   6   7
ATOM      7  C   UNL     1       2.356 -34.887  47.548  1.00  0.00     0.006 C 
BRANCH   7   8
ATOM      8  C   UNL     1       2.176 -33.364  47.479  1.00  0.00     0.053 C 
BRANCH   8   9
ATOM      9  C   UNL     1       3.284 -32.639  48.179  1.00  0.00     0.041 C 
ATOM     10  O   UNL     1       3.164 -31.416  48.456  1.00  0.00    -0.550 OA
ATOM     11  O   UNL     1       4.436 -33.320  48.552  1.00  0.00    -0.550 OA
ENDBRANCH   8   9
ENDBRANCH   7   8
ENDBRANCH   6   7
ENDBRANCH   5   6
ENDBRANCH   4   5
ENDBRANCH   3   4
ENDBRANCH   2   3
ENDBRANCH   1   2
BRANCH   1  12
ATOM     12  C   UNL     1      -1.533 -34.727  47.170  1.00  0.00     0.000 C 
BRANCH  12  13
ATOM     13  C   UNL     1      -1.373 -36.156  47.720  1.00  0.00    -0.000 C 
BRANCH  13  14
ATOM     14  C   UNL     1      -2.720 -36.809  48.066  1.00  0.00    -0.000 C 
BRANCH  14  15
ATOM     15  C   UNL     1      -3.908 -36.136  47.361  1.00  0.00    -0.000 C 
BRANCH  15  16
ATOM     16  C   UNL     1      -4.360 -36.958  46.145  1.00  0.00    -0.000 C 
BRANCH  16  17
ATOM     17  C   UNL     1      -4.718 -36.079  44.936  1.00  0.00    -0.000 C 
BRANCH  17  18
ATOM     18  C   UNL     1      -4.880 -34.595  45.310  1.00  0.00    -0.000 C 
BRANCH  18  19
ATOM     19  C   UNL     1      -6.351 -34.152  45.333  1.00  0.00    -0.003 C 
ATOM     20  C   UNL     1      -6.908 -34.029  46.751  1.00  0.00     0.004 C 
ENDBRANCH  18  19
ENDBRANCH  17  18
ENDBRANCH  16  17
ENDBRANCH  15  16
ENDBRANCH  14  15
ENDBRANCH  13  14
ENDBRANCH  12  13
ENDBRANCH   1  12
TORSDOF 16
ENDMDL
MODEL 2
REMARK VINA RESULT:    -3.902      3.724      7.483
REMARK INTER + INTRA:         -10.080
REMARK INTER:                  -7.707
REMARK INTRA:                  -2.373
REMARK UNBOUND:                -2.528
REMARK SMILES CCCCCCCCCCCCCCCCCC(=O)[O-]
REMARK SMILES IDX 10 1 11 2 12 3 13 4 14 5 15 6 16 7 17 8 18 9 19 10 20 11
REMARK SMILES IDX 9 12 8 13 7 14 6 15 5 16 4 17 3 18 2 19 1 20
REMARK H PARENT
REMARK Flexibility Score: inf
ROOT
ATOM      1  C   UNL     1      -0.485 -34.337  45.862  1.00  0.00     0.000 C 
ENDROOT
BRANCH   1   2
ATOM      2  C   UNL     1      -0.611 -34.528  47.381  1.00  0.00     0.000 C 
BRANCH   2   3
ATOM      3  C   UNL     1      -0.474 -36.010  47.761  1.00  0.00     0.000 C 
BRANCH   3   4
ATOM      4  C   UNL     1      -1.723 -36.555  48.474  1.00  0.00     0.000 C 
BRANCH   4   5
ATOM      5  C   UNL     1      -2.886 -35.547  48.480  1.00  0.00     0.000 C 
BRANCH   5   6
ATOM      6  C   UNL     1      -3.860 -35.761  47.311  1.00  0.00     0.000 C 
BRANCH   6   7
ATOM      7  C   UNL     1      -4.246 -34.444  46.617  1.00  0.00     0.006 C 
BRANCH   7   8
ATOM      8  C   UNL     1      -4.675 -34.661  45.159  1.00  0.00     0.053 C 
BRANCH   8   9
ATOM      9  C   UNL     1      -6.120 -34.331  44.948  1.00  0.00     0.041 C 
ATOM     10  O   UNL     1      -6.505 -33.840  43.853  1.00  0.00    -0.550 OA
ATOM     11  O   UNL     1      -7.048 -34.593  45.948  1.00  0.00    -0.550 OA
ENDBRANCH   8   9
ENDBRANCH   7   8
ENDBRANCH   6   7
ENDBRANCH   5   6
ENDBRANCH   4   5
ENDBRANCH   3   4
ENDBRANCH   2   3
ENDBRANCH   1   2
BRANCH   1  12
ATOM     12  C   UNL     1      -0.364 -35.669  45.104  1.00  0.00     0.000 C 
BRANCH  12  13
ATOM     13  C   UNL     1       1.002 -35.834  44.415  1.00  0.00    -0.000 C 
BRANCH  13  14
ATOM     14  C   UNL     1       1.758 -34.504  44.275  1.00  0.00    -0.000 C 
BRANCH  14  15
ATOM     15  C   UNL     1       3.073 -34.480  45.070  1.00  0.00    -0.000 C 
BRANCH  15  16
ATOM     16  C   UNL     1       3.117 -35.627  46.090  1.00  0.00    -0.000 C 
BRANCH  16  17
ATOM     17  C   UNL     1       3.121 -35.128  47.544  1.00  0.00    -0.000 C 
BRANCH  17  18
ATOM     18  C   UNL     1       3.569 -33.661  47.664  1.00  0.00    -0.000 C 
BRANCH  18  19
ATOM     19  C   UNL     1       2.519 -32.779  48.357  1.00  0.00    -0.003 C 
ATOM     20  C   UNL     1       2.912 -31.303  48.382  1.00  0.00     0.004 C 
ENDBRANCH  18  19
ENDBRANCH  17  18
ENDBRANCH  16  17
ENDBRANCH  15  16
ENDBRANCH  14  15
ENDBRANCH  13  14
ENDBRANCH  12  13
ENDBRANCH   1  12
TORSDOF 16
ENDMDL
MODEL 3
REMARK VINA RESULT:    -3.880      1.232      1.897
REMARK INTER + INTRA:         -10.037
REMARK INTER:                  -7.953
REMARK INTRA:                  -2.085
REMARK UNBOUND:                -2.528
REMARK SMILES CCCCCCCCCCCCCCCCCC(=O)[O-]
REMARK SMILES IDX 10 1 11 2 12 3 13 4 14 5 15 6 16 7 17 8 18 9 19 10 20 11
REMARK SMILES IDX 9 12 8 13 7 14 6 15 5 16 4 17 3 18 2 19 1 20
REMARK H PARENT
REMARK Flexibility Score: inf
ROOT
ATOM      1  C   UNL     1      -0.465 -36.923  46.171  1.00  0.00     0.000 C 
ENDROOT
BRANCH   1   2
ATOM      2  C   UNL     1      -0.445 -36.798  44.641  1.00  0.00     0.000 C 
BRANCH   2   3
ATOM      3  C   UNL     1       0.946 -36.372  44.143  1.00  0.00     0.000 C 
BRANCH   3   4
ATOM      4  C   UNL     1       1.188 -34.861  44.291  1.00  0.00     0.000 C 
BRANCH   4   5
ATOM      5  C   UNL     1       2.646 -34.529  44.653  1.00  0.00     0.000 C 
BRANCH   5   6
ATOM      6  C   UNL     1       2.843 -34.295  46.160  1.00  0.00     0.000 C 
BRANCH   6   7
ATOM      7  C   UNL     1       1.554 -33.826  46.857  1.00  0.00     0.006 C 
BRANCH   7   8
ATOM      8  C   UNL     1       1.792 -33.456  48.327  1.00  0.00     0.053 C 
BRANCH   8   9
ATOM      9  C   UNL     1       2.984 -32.565  48.493  1.00  0.00     0.041 C 
ATOM     10  O   UNL     1       2.897 -31.336  48.232  1.00  0.00    -0.550 OA
ATOM     11  O   UNL     1       4.183 -33.085  48.964  1.00  0.00    -0.550 OA
ENDBRANCH   8   9
ENDBRANCH   7   8
ENDBRANCH   6   7
ENDBRANCH   5   6
ENDBRANCH   4   5
ENDBRANCH   3   4
ENDBRANCH   2   3
ENDBRANCH   1   2
BRANCH   1  12
ATOM     12  C   UNL     1      -1.587 -36.096  46.820  1.00  0.00     0.000 C 
BRANCH  12  13
ATOM     13  C   UNL     1      -2.127 -34.997  45.887  1.00  0.00    -0.000 C 
BRANCH  13  14
ATOM     14  C   UNL     1      -2.586 -33.746  46.653  1.00  0.00    -0.000 C 
BRANCH  14  15
ATOM     15  C   UNL     1      -3.366 -34.084  47.933  1.00  0.00    -0.000 C 
BRANCH  15  16
ATOM     16  C   UNL     1      -4.853 -33.735  47.777  1.00  0.00    -0.000 C 
BRANCH  16  17
ATOM     17  C   UNL     1      -5.684 -34.913  47.243  1.00  0.00    -0.000 C 
BRANCH  17  18
ATOM     18  C   UNL     1      -6.752 -34.472  46.226  1.00  0.00    -0.000 C 
BRANCH  18  19
ATOM     19  C   UNL     1      -6.153 -34.141  44.851  1.00  0.00    -0.003 C 
ATOM     20  C   UNL     1      -5.416 -35.326  44.229  1.00  0.00     0.004 C 
ENDBRANCH  18  19
ENDBRANCH  17  18
ENDBRANCH  16  17
ENDBRANCH  15  16
ENDBRANCH  14  15
ENDBRANCH  13  14
ENDBRANCH  12  13
ENDBRANCH   1  12
TORSDOF 16
ENDMDL
MODEL 4
REMARK VINA RESULT:    -3.871      2.770      7.482
REMARK INTER + INTRA:         -10.019
REMARK INTER:                  -8.617
REMARK INTRA:                  -1.402
REMARK UNBOUND:                -2.528
REMARK SMILES CCCCCCCCCCCCCCCCCC(=O)[O-]
REMARK SMILES IDX 10 1 11 2 12 3 13 4 14 5 15 6 16 7 17 8 18 9 19 10 20 11
REMARK SMILES IDX 9 12 8 13 7 14 6 15 5 16 4 17 3 18 2 19 1 20
REMARK H PARENT
REMARK Flexibility Score: inf
ROOT
ATOM      1  C   UNL     1      -1.063 -35.236  45.449  1.00  0.00     0.000 C 
ENDROOT
BRANCH   1   2
ATOM      2  C   UNL     1      -2.418 -35.559  46.096  1.00  0.00     0.000 C 
BRANCH   2   3
ATOM      3  C   UNL     1      -3.179 -36.615  45.280  1.00  0.00     0.000 C 
BRANCH   3   4
ATOM      4  C   UNL     1      -4.687 -36.326  45.201  1.00  0.00     0.000 C 
BRANCH   4   5
ATOM      5  C   UNL     1      -4.995 -34.974  44.534  1.00  0.00     0.000 C 
BRANCH   5   6
ATOM      6  C   UNL     1      -6.439 -34.508  44.781  1.00  0.00     0.000 C 
BRANCH   6   7
ATOM      7  C   UNL     1      -6.834 -34.579  46.266  1.00  0.00     0.006 C 
BRANCH   7   8
ATOM      8  C   UNL     1      -6.304 -33.381  47.066  1.00  0.00     0.053 C 
BRANCH   8   9
ATOM      9  C   UNL     1      -5.097 -33.741  47.876  1.00  0.00     0.041 C 
ATOM     10  O   UNL     1      -4.978 -34.900  48.353  1.00  0.00    -0.550 OA
ATOM     11  O   UNL     1      -4.089 -32.806  48.079  1.00  0.00    -0.550 OA
ENDBRANCH   8   9
ENDBRANCH   7   8
ENDBRANCH   6   7
ENDBRANCH   5   6
ENDBRANCH   4   5
ENDBRANCH   3   4
ENDBRANCH   2   3
ENDBRANCH   1   2
BRANCH   1  12
ATOM     12  C   UNL     1      -0.507 -36.406  44.620  1.00  0.00     0.000 C 
BRANCH  12  13
ATOM     13  C   UNL     1       0.977 -36.219  44.257  1.00  0.00    -0.000 C 
BRANCH  13  14
ATOM     14  C   UNL     1       1.404 -34.743  44.259  1.00  0.00    -0.000 C 
BRANCH  14  15
ATOM     15  C   UNL     1       2.674 -34.492  45.087  1.00  0.00    -0.000 C 
BRANCH  15  16
ATOM     16  C   UNL     1       2.356 -34.491  46.590  1.00  0.00    -0.000 C 
BRANCH  16  17
ATOM     17  C   UNL     1       3.600 -34.739  47.458  1.00  0.00    -0.000 C 
BRANCH  17  18
ATOM     18  C   UNL     1       3.862 -33.598  48.457  1.00  0.00    -0.000 C 
BRANCH  18  19
ATOM     19  C   UNL     1       3.240 -32.267  48.007  1.00  0.00    -0.003 C 
ATOM     20  C   UNL     1       2.468 -31.569  49.125  1.00  0.00     0.004 C 
ENDBRANCH  18  19
ENDBRANCH  17  18
ENDBRANCH  16  17
ENDBRANCH  15  16
ENDBRANCH  14  15
ENDBRANCH  13  14
ENDBRANCH  12  13
ENDBRANCH   1  12
TORSDOF 16
ENDMDL
MODEL 5
REMARK VINA RESULT:    -3.806      1.060      1.750
REMARK INTER + INTRA:          -9.893
REMARK INTER:                  -8.184
REMARK INTRA:                  -1.709
REMARK UNBOUND:                -2.528
REMARK SMILES CCCCCCCCCCCCCCCCCC(=O)[O-]
REMARK SMILES IDX 10 1 11 2 12 3 13 4 14 5 15 6 16 7 17 8 18 9 19 10 20 11
REMARK SMILES IDX 9 12 8 13 7 14 6 15 5 16 4 17 3 18 2 19 1 20
REMARK H PARENT
REMARK Flexibility Score: inf
ROOT
ATOM      1  C   UNL     1      -1.803 -34.998  46.178  1.00  0.00     0.000 C 
ENDROOT
BRANCH   1   2
ATOM      2  C   UNL     1      -0.406 -34.402  45.945  1.00  0.00     0.000 C 
BRANCH   2   3
ATOM      3  C   UNL     1       0.414 -35.284  44.991  1.00  0.00     0.000 C 
BRANCH   3   4
ATOM      4  C   UNL     1       1.506 -34.494  44.250  1.00  0.00     0.000 C 
BRANCH   4   5
ATOM      5  C   UNL     1       2.858 -34.523  44.984  1.00  0.00     0.000 C 
BRANCH   5   6
ATOM      6  C   UNL     1       3.022 -35.767  45.872  1.00  0.00     0.000 C 
BRANCH   6   7
ATOM      7  C   UNL     1       3.553 -35.424  47.275  1.00  0.00     0.006 C 
BRANCH   7   8
ATOM      8  C   UNL     1       2.865 -34.188  47.869  1.00  0.00     0.053 C 
BRANCH   8   9
ATOM      9  C   UNL     1       3.852 -33.230  48.462  1.00  0.00     0.041 C 
ATOM     10  O   UNL     1       3.577 -32.004  48.540  1.00  0.00    -0.550 OA
ATOM     11  O   UNL     1       5.063 -33.697  48.958  1.00  0.00    -0.550 OA
ENDBRANCH   8   9
ENDBRANCH   7   8
ENDBRANCH   6   7
ENDBRANCH   5   6
ENDBRANCH   4   5
ENDBRANCH   3   4
ENDBRANCH   2   3
ENDBRANCH   1   2
BRANCH   1  12
ATOM     12  C   UNL     1      -2.096 -36.200  45.266  1.00  0.00     0.000 C 
BRANCH  12  13
ATOM     13  C   UNL     1      -3.185 -37.125  45.838  1.00  0.00    -0.000 C 
BRANCH  13  14
ATOM     14  C   UNL     1      -3.853 -36.543  47.094  1.00  0.00    -0.000 C 
BRANCH  14  15
ATOM     15  C   UNL     1      -5.360 -36.840  47.158  1.00  0.00    -0.000 C 
BRANCH  15  16
ATOM     16  C   UNL     1      -6.130 -35.642  47.734  1.00  0.00    -0.000 C 
BRANCH  16  17
ATOM     17  C   UNL     1      -6.907 -34.866  46.659  1.00  0.00    -0.000 C 
BRANCH  17  18
ATOM     18  C   UNL     1      -6.029 -33.846  45.913  1.00  0.00    -0.000 C 
BRANCH  18  19
ATOM     19  C   UNL     1      -6.132 -33.986  44.387  1.00  0.00    -0.003 C 
ATOM     20  C   UNL     1      -5.470 -35.260  43.865  1.00  0.00     0.004 C 
ENDBRANCH  18  19
ENDBRANCH  17  18
ENDBRANCH  16  17
ENDBRANCH  15  16
ENDBRANCH  14  15
ENDBRANCH  13  14
ENDBRANCH  12  13
ENDBRANCH   1  12
TORSDOF 16
ENDMDL
MODEL 6
REMARK VINA RESULT:    -3.769      3.502      7.566
REMARK INTER + INTRA:          -9.821
REMARK INTER:                  -7.597
REMARK INTRA:                  -2.224
REMARK UNBOUND:                -2.528
REMARK SMILES CCCCCCCCCCCCCCCCCC(=O)[O-]
REMARK SMILES IDX 10 1 11 2 12 3 13 4 14 5 15 6 16 7 17 8 18 9 19 10 20 11
REMARK SMILES IDX 9 12 8 13 7 14 6 15 5 16 4 17 3 18 2 19 1 20
REMARK H PARENT
REMARK Flexibility Score: inf
ROOT
ATOM      1  C   UNL     1      -1.229 -34.076  46.095  1.00  0.00     0.000 C 
ENDROOT
BRANCH   1   2
ATOM      2  C   UNL     1      -1.963 -34.653  47.314  1.00  0.00     0.000 C 
BRANCH   2   3
ATOM      3  C   UNL     1      -2.232 -36.155  47.133  1.00  0.00     0.000 C 
BRANCH   3   4
ATOM      4  C   UNL     1      -3.681 -36.540  47.471  1.00  0.00     0.000 C 
BRANCH   4   5
ATOM      5  C   UNL     1      -4.539 -35.325  47.864  1.00  0.00     0.000 C 
BRANCH   5   6
ATOM      6  C   UNL     1      -6.036 -35.662  47.956  1.00  0.00     0.000 C 
BRANCH   6   7
ATOM      7  C   UNL     1      -6.856 -35.016  46.826  1.00  0.00     0.006 C 
BRANCH   7   8
ATOM      8  C   UNL     1      -6.029 -34.016  46.008  1.00  0.00     0.053 C 
BRANCH   8   9
ATOM      9  C   UNL     1      -5.890 -34.442  44.579  1.00  0.00     0.041 C 
ATOM     10  O   UNL     1      -6.373 -33.734  43.657  1.00  0.00    -0.550 OA
ATOM     11  O   UNL     1      -5.201 -35.607  44.264  1.00  0.00    -0.550 OA
ENDBRANCH   8   9
ENDBRANCH   7   8
ENDBRANCH   6   7
ENDBRANCH   5   6
ENDBRANCH   4   5
ENDBRANCH   3   4
ENDBRANCH   2   3
ENDBRANCH   1   2
BRANCH   1  12
ATOM     12  C   UNL     1      -0.365 -35.122  45.370  1.00  0.00     0.000 C 
BRANCH  12  13
ATOM     13  C   UNL     1       0.652 -34.484  44.408  1.00  0.00    -0.000 C 
BRANCH  13  14
ATOM     14  C   UNL     1       2.071 -35.045  44.592  1.00  0.00    -0.000 C 
BRANCH  14  15
ATOM     15  C   UNL     1       2.077 -36.479  45.147  1.00  0.00    -0.000 C 
BRANCH  15  16
ATOM     16  C   UNL     1       3.229 -36.675  46.143  1.00  0.00    -0.000 C 
BRANCH  16  17
ATOM     17  C   UNL     1       3.341 -35.522  47.154  1.00  0.00    -0.000 C 
BRANCH  17  18
ATOM     18  C   UNL     1       2.177 -35.501  48.160  1.00  0.00    -0.000 C 
BRANCH  18  19
ATOM     19  C   UNL     1       1.649 -34.082  48.420  1.00  0.00    -0.003 C 
ATOM     20  C   UNL     1       2.438 -33.012  47.667  1.00  0.00     0.004 C 
ENDBRANCH  18  19
ENDBRANCH  17  18
ENDBRANCH  16  17
ENDBRANCH  15  16
ENDBRANCH  14  15
ENDBRANCH  13  14
ENDBRANCH  12  13
ENDBRANCH   1  12
TORSDOF 16
ENDMDL
MODEL 7
REMARK VINA RESULT:    -3.715      1.220      2.560
REMARK INTER + INTRA:          -9.718
REMARK INTER:                  -7.521
REMARK INTRA:                  -2.197
REMARK UNBOUND:                -2.528
REMARK SMILES CCCCCCCCCCCCCCCCCC(=O)[O-]
REMARK SMILES IDX 10 1 11 2 12 3 13 4 14 5 15 6 16 7 17 8 18 9 19 10 20 11
REMARK SMILES IDX 9 12 8 13 7 14 6 15 5 16 4 17 3 18 2 19 1 20
REMARK H PARENT
REMARK Flexibility Score: inf
ROOT
ATOM      1  C   UNL     1       1.676 -34.506  44.341  1.00  0.00     0.000 C 
ENDROOT
BRANCH   1   2
ATOM      2  C   UNL     1       2.709 -35.004  45.362  1.00  0.00     0.000 C 
BRANCH   2   3
ATOM      3  C   UNL     1       2.448 -36.471  45.737  1.00  0.00     0.000 C 
BRANCH   3   4
ATOM      4  C   UNL     1       2.433 -36.698  47.258  1.00  0.00     0.000 C 
BRANCH   4   5
ATOM      5  C   UNL     1       1.013 -36.656  47.848  1.00  0.00     0.000 C 
BRANCH   5   6
ATOM      6  C   UNL     1       0.845 -35.557  48.909  1.00  0.00     0.000 C 
BRANCH   6   7
ATOM      7  C   UNL     1       2.065 -34.623  48.989  1.00  0.00     0.006 C 
BRANCH   7   8
ATOM      8  C   UNL     1       1.761 -33.224  48.437  1.00  0.00     0.053 C 
BRANCH   8   9
ATOM      9  C   UNL     1       3.009 -32.427  48.217  1.00  0.00     0.041 C 
ATOM     10  O   UNL     1       4.093 -33.008  47.948  1.00  0.00    -0.550 OA
ATOM     11  O   UNL     1       2.970 -31.039  48.280  1.00  0.00    -0.550 OA
ENDBRANCH   8   9
ENDBRANCH   7   8
ENDBRANCH   6   7
ENDBRANCH   5   6
ENDBRANCH   4   5
ENDBRANCH   3   4
ENDBRANCH   2   3
ENDBRANCH   1   2
BRANCH   1  12
ATOM     12  C   UNL     1       0.250 -34.990  44.653  1.00  0.00     0.000 C 
BRANCH  12  13
ATOM     13  C   UNL     1      -0.439 -34.140  45.735  1.00  0.00    -0.000 C 
BRANCH  13  14
ATOM     14  C   UNL     1      -1.938 -34.451  45.864  1.00  0.00    -0.000 C 
BRANCH  14  15
ATOM     15  C   UNL     1      -2.282 -35.897  45.471  1.00  0.00    -0.000 C 
BRANCH  15  16
ATOM     16  C   UNL     1      -3.453 -36.428  46.311  1.00  0.00    -0.000 C 
BRANCH  16  17
ATOM     17  C   UNL     1      -4.800 -36.335  45.575  1.00  0.00    -0.000 C 
BRANCH  17  18
ATOM     18  C   UNL     1      -5.824 -35.464  46.323  1.00  0.00    -0.000 C 
BRANCH  18  19
ATOM     19  C   UNL     1      -6.157 -34.168  45.569  1.00  0.00    -0.003 C 
ATOM     20  C   UNL     1      -5.849 -34.259  44.075  1.00  0.00     0.004 C 
ENDBRANCH  18  19
ENDBRANCH  17  18
ENDBRANCH  16  17
ENDBRANCH  15  16
ENDBRANCH  14  15
ENDBRANCH  13  14
ENDBRANCH  12  13
ENDBRANCH   1  12
TORSDOF 16
ENDMDL
MODEL 8
REMARK VINA RESULT:    -3.674      1.484      2.348
REMARK INTER + INTRA:          -9.639
REMARK INTER:                  -7.444
REMARK INTRA:                  -2.196
REMARK UNBOUND:                -2.528
REMARK SMILES CCCCCCCCCCCCCCCCCC(=O)[O-]
REMARK SMILES IDX 10 1 11 2 12 3 13 4 14 5 15 6 16 7 17 8 18 9 19 10 20 11
REMARK SMILES IDX 9 12 8 13 7 14 6 15 5 16 4 17 3 18 2 19 1 20
REMARK H PARENT
REMARK Flexibility Score: inf
ROOT
ATOM      1  C   UNL     1      -0.756 -35.194  47.204  1.00  0.00     0.000 C 
ENDROOT
BRANCH   1   2
ATOM      2  C   UNL     1      -1.130 -36.239  46.143  1.00  0.00     0.000 C 
BRANCH   2   3
ATOM      3  C   UNL     1      -0.475 -35.910  44.792  1.00  0.00     0.000 C 
BRANCH   3   4
ATOM      4  C   UNL     1       0.272 -34.566  44.810  1.00  0.00     0.000 C 
BRANCH   4   5
ATOM      5  C   UNL     1       1.698 -34.675  44.242  1.00  0.00     0.000 C 
BRANCH   5   6
ATOM      6  C   UNL     1       2.776 -34.618  45.335  1.00  0.00     0.000 C 
BRANCH   6   7
ATOM      7  C   UNL     1       3.147 -36.012  45.871  1.00  0.00     0.006 C 
BRANCH   7   8
ATOM      8  C   UNL     1       2.821 -36.165  47.363  1.00  0.00     0.053 C 
BRANCH   8   9
ATOM      9  C   UNL     1       3.217 -34.954  48.148  1.00  0.00     0.041 C 
ATOM     10  O   UNL     1       4.433 -34.722  48.385  1.00  0.00    -0.550 OA
ATOM     11  O   UNL     1       2.248 -34.064  48.594  1.00  0.00    -0.550 OA
ENDBRANCH   8   9
ENDBRANCH   7   8
ENDBRANCH   6   7
ENDBRANCH   5   6
ENDBRANCH   4   5
ENDBRANCH   3   4
ENDBRANCH   2   3
ENDBRANCH   1   2
BRANCH   1  12
ATOM     12  C   UNL     1      -1.969 -34.709  48.014  1.00  0.00     0.000 C 
BRANCH  12  13
ATOM     13  C   UNL     1      -2.786 -33.637  47.272  1.00  0.00    -0.000 C 
BRANCH  13  14
ATOM     14  C   UNL     1      -3.967 -33.113  48.104  1.00  0.00    -0.000 C 
BRANCH  14  15
ATOM     15  C   UNL     1      -5.328 -33.600  47.580  1.00  0.00    -0.000 C 
BRANCH  15  16
ATOM     16  C   UNL     1      -5.561 -35.073  47.948  1.00  0.00    -0.000 C 
BRANCH  16  17
ATOM     17  C   UNL     1      -6.086 -35.903  46.766  1.00  0.00    -0.000 C 
BRANCH  17  18
ATOM     18  C   UNL     1      -4.953 -36.490  45.906  1.00  0.00    -0.000 C 
BRANCH  18  19
ATOM     19  C   UNL     1      -4.729 -35.699  44.608  1.00  0.00    -0.003 C 
ATOM     20  C   UNL     1      -5.960 -34.902  44.183  1.00  0.00     0.004 C 
ENDBRANCH  18  19
ENDBRANCH  17  18
ENDBRANCH  16  17
ENDBRANCH  15  16
ENDBRANCH  14  15
ENDBRANCH  13  14
ENDBRANCH  12  13
ENDBRANCH   1  12
TORSDOF 16
ENDMDL
MODEL 9
REMARK VINA RESULT:    -3.670      2.366      4.144
REMARK INTER + INTRA:          -9.631
REMARK INTER:                  -7.160
REMARK INTRA:                  -2.471
REMARK UNBOUND:                -2.528
REMARK SMILES CCCCCCCCCCCCCCCCCC(=O)[O-]
REMARK SMILES IDX 10 1 11 2 12 3 13 4 14 5 15 6 16 7 17 8 18 9 19 10 20 11
REMARK SMILES IDX 9 12 8 13 7 14 6 15 5 16 4 17 3 18 2 19 1 20
REMARK H PARENT
REMARK Flexibility Score: inf
ROOT
ATOM      1  C   UNL     1      -2.659 -35.696  46.202  1.00  0.00     0.000 C 
ENDROOT
BRANCH   1   2
ATOM      2  C   UNL     1      -2.741 -34.171  46.042  1.00  0.00     0.000 C 
BRANCH   2   3
ATOM      3  C   UNL     1      -2.356 -33.460  47.349  1.00  0.00     0.000 C 
BRANCH   3   4
ATOM      4  C   UNL     1      -1.541 -34.360  48.293  1.00  0.00     0.000 C 
BRANCH   4   5
ATOM      5  C   UNL     1      -0.034 -34.056  48.244  1.00  0.00     0.000 C 
BRANCH   5   6
ATOM      6  C   UNL     1       0.724 -34.977  47.274  1.00  0.00     0.000 C 
BRANCH   6   7
ATOM      7  C   UNL     1       1.198 -34.240  46.010  1.00  0.00     0.006 C 
BRANCH   7   8
ATOM      8  C   UNL     1       0.771 -34.962  44.724  1.00  0.00     0.053 C 
BRANCH   8   9
ATOM      9  C   UNL     1       1.534 -36.234  44.518  1.00  0.00     0.041 C 
ATOM     10  O   UNL     1       1.208 -37.025  43.594  1.00  0.00    -0.550 OA
ATOM     11  O   UNL     1       2.623 -36.531  45.327  1.00  0.00    -0.550 OA
ENDBRANCH   8   9
ENDBRANCH   7   8
ENDBRANCH   6   7
ENDBRANCH   5   6
ENDBRANCH   4   5
ENDBRANCH   3   4
ENDBRANCH   2   3
ENDBRANCH   1   2
BRANCH   1  12
ATOM     12  C   UNL     1      -3.304 -36.452  45.029  1.00  0.00     0.000 C 
BRANCH  12  13
ATOM     13  C   UNL     1      -4.836 -36.313  45.007  1.00  0.00    -0.000 C 
BRANCH  13  14
ATOM     14  C   UNL     1      -5.331 -35.419  43.860  1.00  0.00    -0.000 C 
BRANCH  14  15
ATOM     15  C   UNL     1      -6.152 -34.217  44.353  1.00  0.00    -0.000 C 
BRANCH  15  16
ATOM     16  C   UNL     1      -6.864 -34.545  45.674  1.00  0.00    -0.000 C 
BRANCH  16  17
ATOM     17  C   UNL     1      -6.528 -33.546  46.792  1.00  0.00    -0.000 C 
BRANCH  17  18
ATOM     18  C   UNL     1      -5.745 -34.193  47.949  1.00  0.00    -0.000 C 
BRANCH  18  19
ATOM     19  C   UNL     1      -6.064 -35.686  48.113  1.00  0.00    -0.003 C 
ATOM     20  C   UNL     1      -4.980 -36.440  48.882  1.00  0.00     0.004 C 
ENDBRANCH  18  19
ENDBRANCH  17  18
ENDBRANCH  16  17
ENDBRANCH  15  16
ENDBRANCH  14  15
ENDBRANCH  13  14
ENDBRANCH  12  13
ENDBRANCH   1  12
TORSDOF 16
ENDMDL
