MODEL 1
REMARK VINA RESULT:    -3.992      0.000      0.000
REMARK INTER + INTRA:          -5.154
REMARK INTER:                  -4.925
REMARK INTRA:                  -0.229
REMARK UNBOUND:                -0.229
REMARK SMILES CCCCCC(=O)[O-]
REMARK SMILES IDX 4 1 5 2 6 3 7 4 8 5 3 6 2 7 1 8
REMARK H PARENT
REMARK Flexibility Score: inf
ROOT
ATOM      1  C   UNL     1      14.999   7.355  49.375  1.00  0.00     0.006 C 
ENDROOT
BRANCH   1   2
ATOM      2  C   UNL     1      16.346   6.714  49.722  1.00  0.00     0.053 C 
BRANCH   2   3
ATOM      3  C   UNL     1      17.429   7.747  49.740  1.00  0.00     0.041 C 
ATOM      4  O   UNL     1      18.195   7.879  48.750  1.00  0.00    -0.550 OA
ATOM      5  O   UNL     1      17.623   8.530  50.870  1.00  0.00    -0.550 OA
ENDBRANCH   2   3
ENDBRANCH   1   2
BRANCH   1   6
ATOM      6  C   UNL     1      14.573   6.995  47.943  1.00  0.00     0.000 C 
BRANCH   6   7
ATOM      7  C   UNL     1      14.686   8.185  46.978  1.00  0.00    -0.003 C 
ATOM      8  C   UNL     1      15.906   8.092  46.063  1.00  0.00     0.004 C 
ENDBRANCH   6   7
ENDBRANCH   1   6
TORSDOF 4
ENDMDL
MODEL 2
REMARK VINA RESULT:    -3.990      2.738      4.947
REMARK INTER + INTRA:          -5.152
REMARK INTER:                  -5.035
REMARK INTRA:                  -0.116
REMARK UNBOUND:                -0.229
REMARK SMILES CCCCCC(=O)[O-]
REMARK SMILES IDX 4 1 5 2 6 3 7 4 8 5 3 6 2 7 1 8
REMARK H PARENT
REMARK Flexibility Score: inf
ROOT
ATOM      1  C   UNL     1      17.680   9.516  50.397  1.00  0.00     0.006 C 
ENDROOT
BRANCH   1   2
ATOM      2  C   UNL     1      17.662   8.006  50.147  1.00  0.00     0.053 C 
BRANCH   2   3
ATOM      3  C   UNL     1      16.327   7.576  49.624  1.00  0.00     0.041 C 
ATOM      4  O   UNL     1      15.659   6.703  50.235  1.00  0.00    -0.550 OA
ATOM      5  O   UNL     1      15.844   8.106  48.435  1.00  0.00    -0.550 OA
ENDBRANCH   2   3
ENDBRANCH   1   2
BRANCH   1   6
ATOM      6  C   UNL     1      18.468   9.852  51.673  1.00  0.00     0.000 C 
BRANCH   6   7
ATOM      7  C   UNL     1      18.712   8.620  52.557  1.00  0.00    -0.003 C 
ATOM      8  C   UNL     1      19.484   8.950  53.834  1.00  0.00     0.004 C 
ENDBRANCH   6   7
ENDBRANCH   1   6
TORSDOF 4
ENDMDL
MODEL 3
REMARK VINA RESULT:    -3.974      1.608      2.238
REMARK INTER + INTRA:          -5.133
REMARK INTER:                  -5.020
REMARK INTRA:                  -0.113
REMARK UNBOUND:                -0.229
REMARK SMILES CCCCCC(=O)[O-]
REMARK SMILES IDX 4 1 5 2 6 3 7 4 8 5 3 6 2 7 1 8
REMARK H PARENT
REMARK Flexibility Score: inf
ROOT
ATOM      1  C   UNL     1      16.459   8.087  49.382  1.00  0.00     0.006 C 
ENDROOT
BRANCH   1   2
ATOM      2  C   UNL     1      17.839   7.939  50.027  1.00  0.00     0.053 C 
BRANCH   2   3
ATOM      3  C   UNL     1      17.956   8.827  51.226  1.00  0.00     0.041 C 
ATOM      4  O   UNL     1      18.251   8.340  52.349  1.00  0.00    -0.550 OA
ATOM      5  O   UNL     1      17.690  10.185  51.113  1.00  0.00    -0.550 OA
ENDBRANCH   2   3
ENDBRANCH   1   2
BRANCH   1   6
ATOM      6  C   UNL     1      15.535   6.928  49.787  1.00  0.00     0.000 C 
BRANCH   6   7
ATOM      7  C   UNL     1      14.503   6.589  48.701  1.00  0.00    -0.003 C 
ATOM      8  C   UNL     1      14.597   7.512  47.486  1.00  0.00     0.004 C 
ENDBRANCH   6   7
ENDBRANCH   1   6
TORSDOF 4
ENDMDL
MODEL 4
REMARK VINA RESULT:    -3.945      3.840      5.420
REMARK INTER + INTRA:          -5.096
REMARK INTER:                  -4.944
REMARK INTRA:                  -0.152
REMARK UNBOUND:                -0.229
REMARK SMILES CCCCCC(=O)[O-]
REMARK SMILES IDX 4 1 5 2 6 3 7 4 8 5 3 6 2 7 1 8
REMARK H PARENT
REMARK Flexibility Score: inf
ROOT
ATOM      1  C   UNL     1      18.089   9.093  50.596  1.00  0.00     0.006 C 
ENDROOT
BRANCH   1   2
ATOM      2  C   UNL     1      19.033  10.298  50.545  1.00  0.00     0.053 C 
BRANCH   2   3
ATOM      3  C   UNL     1      20.118  10.071  49.539  1.00  0.00     0.041 C 
ATOM      4  O   UNL     1      20.210   8.966  48.945  1.00  0.00    -0.550 OA
ATOM      5  O   UNL     1      21.056  11.066  49.294  1.00  0.00    -0.550 OA
ENDBRANCH   2   3
ENDBRANCH   1   2
BRANCH   1   6
ATOM      6  C   UNL     1      18.046   8.488  52.008  1.00  0.00     0.000 C 
BRANCH   6   7
ATOM      7  C   UNL     1      19.448   8.207  52.571  1.00  0.00    -0.003 C 
ATOM      8  C   UNL     1      19.679   8.853  53.937  1.00  0.00     0.004 C 
ENDBRANCH   6   7
ENDBRANCH   1   6
TORSDOF 4
ENDMDL
MODEL 5
REMARK VINA RESULT:    -3.936      2.641      4.066
REMARK INTER + INTRA:          -5.085
REMARK INTER:                  -4.995
REMARK INTRA:                  -0.090
REMARK UNBOUND:                -0.229
REMARK SMILES CCCCCC(=O)[O-]
REMARK SMILES IDX 4 1 5 2 6 3 7 4 8 5 3 6 2 7 1 8
REMARK H PARENT
REMARK Flexibility Score: inf
ROOT
ATOM      1  C   UNL     1      16.265   7.679  49.779  1.00  0.00     0.006 C 
ENDROOT
BRANCH   1   2
ATOM      2  C   UNL     1      16.118   8.106  48.316  1.00  0.00     0.053 C 
BRANCH   2   3
ATOM      3  C   UNL     1      14.856   7.551  47.732  1.00  0.00     0.041 C 
ATOM      4  O   UNL     1      14.319   8.108  46.739  1.00  0.00    -0.550 OA
ATOM      5  O   UNL     1      14.247   6.448  48.316  1.00  0.00    -0.550 OA
ENDBRANCH   2   3
ENDBRANCH   1   2
BRANCH   1   6
ATOM      6  C   UNL     1      17.609   8.149  50.356  1.00  0.00     0.000 C 
BRANCH   6   7
ATOM      7  C   UNL     1      17.622   9.654  50.668  1.00  0.00    -0.003 C 
ATOM      8  C   UNL     1      18.993  10.293  50.450  1.00  0.00     0.004 C 
ENDBRANCH   6   7
ENDBRANCH   1   6
TORSDOF 4
ENDMDL
MODEL 6
REMARK VINA RESULT:    -3.934      2.573      4.104
REMARK INTER + INTRA:          -5.083
REMARK INTER:                  -5.027
REMARK INTRA:                  -0.056
REMARK UNBOUND:                -0.229
REMARK SMILES CCCCCC(=O)[O-]
REMARK SMILES IDX 4 1 5 2 6 3 7 4 8 5 3 6 2 7 1 8
REMARK H PARENT
REMARK Flexibility Score: inf
ROOT
ATOM      1  C   UNL     1      16.843   8.166  49.543  1.00  0.00     0.006 C 
ENDROOT
BRANCH   1   2
ATOM      2  C   UNL     1      15.810   7.060  49.780  1.00  0.00     0.053 C 
BRANCH   2   3
ATOM      3  C   UNL     1      14.844   6.992  48.639  1.00  0.00     0.041 C 
ATOM      4  O   UNL     1      13.897   6.162  48.659  1.00  0.00    -0.550 OA
ATOM      5  O   UNL     1      15.018   7.811  47.531  1.00  0.00    -0.550 OA
ENDBRANCH   2   3
ENDBRANCH   1   2
BRANCH   1   6
ATOM      6  C   UNL     1      17.602   8.495  50.837  1.00  0.00     0.000 C 
BRANCH   6   7
ATOM      7  C   UNL     1      18.009   9.974  50.922  1.00  0.00    -0.003 C 
ATOM      8  C   UNL     1      19.252  10.295  50.092  1.00  0.00     0.004 C 
ENDBRANCH   6   7
ENDBRANCH   1   6
TORSDOF 4
ENDMDL
MODEL 7
REMARK VINA RESULT:    -3.895      1.344      1.989
REMARK INTER + INTRA:          -5.034
REMARK INTER:                  -4.932
REMARK INTRA:                  -0.102
REMARK UNBOUND:                -0.229
REMARK SMILES CCCCCC(=O)[O-]
REMARK SMILES IDX 4 1 5 2 6 3 7 4 8 5 3 6 2 7 1 8
REMARK H PARENT
REMARK Flexibility Score: inf
ROOT
ATOM      1  C   UNL     1      16.819   7.501  49.288  1.00  0.00     0.006 C 
ENDROOT
BRANCH   1   2
ATOM      2  C   UNL     1      17.263   8.711  50.115  1.00  0.00     0.053 C 
BRANCH   2   3
ATOM      3  C   UNL     1      18.643   9.137  49.723  1.00  0.00     0.041 C 
ATOM      4  O   UNL     1      19.378   8.366  49.052  1.00  0.00    -0.550 OA
ATOM      5  O   UNL     1      19.135  10.367  50.140  1.00  0.00    -0.550 OA
ENDBRANCH   2   3
ENDBRANCH   1   2
BRANCH   1   6
ATOM      6  C   UNL     1      15.439   7.001  49.742  1.00  0.00     0.000 C 
BRANCH   6   7
ATOM      7  C   UNL     1      14.501   6.707  48.562  1.00  0.00    -0.003 C 
ATOM      8  C   UNL     1      14.733   7.640  47.374  1.00  0.00     0.004 C 
ENDBRANCH   6   7
ENDBRANCH   1   6
TORSDOF 4
ENDMDL
MODEL 8
REMARK VINA RESULT:    -3.887      2.090      3.153
REMARK INTER + INTRA:          -5.025
REMARK INTER:                  -4.967
REMARK INTRA:                  -0.058
REMARK UNBOUND:                -0.229
REMARK SMILES CCCCCC(=O)[O-]
REMARK SMILES IDX 4 1 5 2 6 3 7 4 8 5 3 6 2 7 1 8
REMARK H PARENT
REMARK Flexibility Score: inf
ROOT
ATOM      1  C   UNL     1      17.680   9.244  49.798  1.00  0.00     0.006 C 
ENDROOT
BRANCH   1   2
ATOM      2  C   UNL     1      17.996   9.935  51.128  1.00  0.00     0.053 C 
BRANCH   2   3
ATOM      3  C   UNL     1      19.067   9.192  51.863  1.00  0.00     0.041 C 
ATOM      4  O   UNL     1      19.896   8.486  51.232  1.00  0.00    -0.550 OA
ATOM      5  O   UNL     1      19.120   9.241  53.250  1.00  0.00    -0.550 OA
ENDBRANCH   2   3
ENDBRANCH   1   2
BRANCH   1   6
ATOM      6  C   UNL     1      16.703   8.076  50.004  1.00  0.00     0.000 C 
BRANCH   6   7
ATOM      7  C   UNL     1      15.882   7.766  48.744  1.00  0.00    -0.003 C 
ATOM      8  C   UNL     1      14.751   6.771  49.004  1.00  0.00     0.004 C 
ENDBRANCH   6   7
ENDBRANCH   1   6
TORSDOF 4
ENDMDL
MODEL 9
REMARK VINA RESULT:    -3.798      2.556      4.264
REMARK INTER + INTRA:          -4.915
REMARK INTER:                  -4.844
REMARK INTRA:                  -0.071
REMARK UNBOUND:                -0.229
REMARK SMILES CCCCCC(=O)[O-]
REMARK SMILES IDX 4 1 5 2 6 3 7 4 8 5 3 6 2 7 1 8
REMARK H PARENT
REMARK Flexibility Score: inf
ROOT
ATOM      1  C   UNL     1      16.940   8.374  49.971  1.00  0.00     0.006 C 
ENDROOT
BRANCH   1   2
ATOM      2  C   UNL     1      16.818   7.664  48.620  1.00  0.00     0.053 C 
BRANCH   2   3
ATOM      3  C   UNL     1      15.677   6.695  48.638  1.00  0.00     0.041 C 
ATOM      4  O   UNL     1      14.605   6.967  48.037  1.00  0.00    -0.550 OA
ATOM      5  O   UNL     1      15.780   5.514  49.361  1.00  0.00    -0.550 OA
ENDBRANCH   2   3
ENDBRANCH   1   2
BRANCH   1   6
ATOM      6  C   UNL     1      17.889   9.579  49.874  1.00  0.00     0.000 C 
BRANCH   6   7
ATOM      7  C   UNL     1      18.214  10.185  51.248  1.00  0.00    -0.003 C 
ATOM      8  C   UNL     1      18.795   9.163  52.224  1.00  0.00     0.004 C 
ENDBRANCH   6   7
ENDBRANCH   1   6
TORSDOF 4
ENDMDL
