MODEL 1
REMARK VINA RESULT:    -5.180      0.000      0.000
REMARK INTER + INTRA:          -5.635
REMARK INTER:                  -5.634
REMARK INTRA:                  -0.001
REMARK UNBOUND:                -0.001
REMARK SMILES C[C@@H]1[C@@H](C)CC[C@@]2(C(=O)[O-])CC[C@@]3(C)C(=CC[C@H]4[C@@]5(C)CC[C@@H](O)C(C)(C)[C@H]5CC[C@]43C)[C@@H]12
REMARK SMILES IDX 7 1 6 2 11 3 33 4 5 5 12 6 15 7 2 8 3 9 13 10 16 11 1 12
REMARK SMILES IDX 4 13 14 14 31 15 17 16 18 17 30 18 32 19 19 20 29 21 28 22
REMARK SMILES IDX 21 23 20 24 25 25 22 26 23 27 26 28 27 29 8 30 9 31 10 32
REMARK SMILES IDX 24 33
REMARK H PARENT 24 34
REMARK Flexibility Score: inf
ROOT
ATOM      1  C   UNL     1      13.436  -9.681   5.626  1.00  0.00     0.017 C 
ATOM      2  C   UNL     1      13.254  -8.152   5.856  1.00  0.00     0.014 C 
ATOM      3  C   UNL     1      14.371  -9.876   4.386  1.00  0.00     0.014 C 
ATOM      4  C   UNL     1      14.008 -10.348   6.945  1.00  0.00     0.030 C 
ATOM      5  C   UNL     1      12.378  -7.809   7.065  1.00  0.00     0.004 C 
ATOM      6  C   UNL     1      15.507 -10.876   4.615  1.00  0.00     0.013 C 
ATOM      7  C   UNL     1      15.564 -10.272   7.057  1.00  0.00    -0.063 C 
ATOM      8  C   UNL     1      13.171  -9.950   8.231  1.00  0.00    -0.003 C 
ATOM      9  C   UNL     1      12.919  -8.420   8.368  1.00  0.00    -0.011 C 
ATOM     10  C   UNL     1      16.439 -10.488   5.814  1.00  0.00    -0.006 C 
ATOM     11  C   UNL     1      16.186 -10.222   8.254  1.00  0.00    -0.027 C 
ATOM     12  C   UNL     1      11.835 -10.721   8.330  1.00  0.00     0.008 C 
ATOM     13  C   UNL     1      14.147  -7.650   8.880  1.00  0.00     0.008 C 
ATOM     14  C   UNL     1      17.104  -9.112   5.489  1.00  0.00     0.017 C 
ATOM     15  C   UNL     1      17.569 -11.616   6.075  1.00  0.00    -0.020 C 
ATOM     16  C   UNL     1      17.445 -10.973   8.562  1.00  0.00     0.032 C 
ATOM     17  C   UNL     1      18.399 -11.293   7.377  1.00  0.00     0.006 C 
ATOM     18  C   UNL     1      16.907 -13.022   6.259  1.00  0.00     0.008 C 
ATOM     19  C   UNL     1      18.538 -11.643   4.841  1.00  0.00     0.012 C 
ATOM     20  C   UNL     1      19.555 -12.376   7.737  1.00  0.00    -0.025 C 
ATOM     21  C   UNL     1      17.626 -14.017   7.206  1.00  0.00     0.005 C 
ATOM     22  C   UNL     1      19.166 -13.852   7.253  1.00  0.00     0.003 C 
ATOM     23  C   UNL     1      19.865 -12.352   9.281  1.00  0.00     0.010 C 
ATOM     24  C   UNL     1      20.873 -11.919   7.020  1.00  0.00     0.012 C 
ATOM     25  C   UNL     1      19.942 -15.065   7.952  1.00  0.00    -0.006 C 
ATOM     26  C   UNL     1      20.752 -13.489   9.792  1.00  0.00     0.033 C 
ATOM     27  C   UNL     1      20.123 -14.846   9.482  1.00  0.00     0.120 C 
ATOM     28  C   UNL     1      21.339 -15.258   7.290  1.00  0.00     0.014 C 
ATOM     29  C   UNL     1      19.226 -16.429   7.740  1.00  0.00     0.014 C 
ENDROOT
BRANCH   1  30
ATOM     30  C   UNL     1      12.102 -10.320   5.242  1.00  0.00     0.048 C 
ATOM     31  O   UNL     1      11.991 -11.575   5.187  1.00  0.00    -0.550 OA
ATOM     32  O   UNL     1      11.029  -9.539   4.824  1.00  0.00    -0.550 OA
ENDBRANCH   1  30
BRANCH  27  33
ATOM     33  O   UNL     1      18.887 -14.937  10.149  1.00  0.00    -0.393 OA
ATOM     34  H   UNL     1      18.218 -15.282   9.502  1.00  0.00     0.210 HD
ENDBRANCH  27  33
TORSDOF 2
ENDMDL
MODEL 2
REMARK VINA RESULT:    -5.097      2.503      4.672
REMARK INTER + INTRA:          -5.545
REMARK INTER:                  -5.546
REMARK INTRA:                   0.001
REMARK UNBOUND:                -0.001
REMARK SMILES C[C@@H]1[C@@H](C)CC[C@@]2(C(=O)[O-])CC[C@@]3(C)C(=CC[C@H]4[C@@]5(C)CC[C@@H](O)C(C)(C)[C@H]5CC[C@]43C)[C@@H]12
REMARK SMILES IDX 7 1 6 2 11 3 33 4 5 5 12 6 15 7 2 8 3 9 13 10 16 11 1 12
REMARK SMILES IDX 4 13 14 14 31 15 17 16 18 17 30 18 32 19 19 20 29 21 28 22
REMARK SMILES IDX 21 23 20 24 25 25 22 26 23 27 26 28 27 29 8 30 9 31 10 32
REMARK SMILES IDX 24 33
REMARK H PARENT 24 34
REMARK Flexibility Score: inf
ROOT
ATOM      1  C   UNL     1      15.806 -11.248   5.250  1.00  0.00     0.017 C 
ATOM      2  C   UNL     1      14.374 -11.860   5.224  1.00  0.00     0.014 C 
ATOM      3  C   UNL     1      15.988 -10.502   6.614  1.00  0.00     0.014 C 
ATOM      4  C   UNL     1      16.875 -12.396   5.023  1.00  0.00     0.030 C 
ATOM      5  C   UNL     1      14.064 -12.651   3.949  1.00  0.00     0.004 C 
ATOM      6  C   UNL     1      17.294 -10.837   7.336  1.00  0.00     0.013 C 
ATOM      7  C   UNL     1      17.270 -13.146   6.334  1.00  0.00    -0.063 C 
ATOM      8  C   UNL     1      16.540 -13.285   3.755  1.00  0.00    -0.003 C 
ATOM      9  C   UNL     1      15.068 -13.791   3.712  1.00  0.00    -0.011 C 
ATOM     10  C   UNL     1      17.455 -12.366   7.645  1.00  0.00    -0.006 C 
ATOM     11  C   UNL     1      17.657 -14.438   6.321  1.00  0.00    -0.027 C 
ATOM     12  C   UNL     1      16.902 -12.583   2.427  1.00  0.00     0.008 C 
ATOM     13  C   UNL     1      14.809 -14.973   4.659  1.00  0.00     0.008 C 
ATOM     14  C   UNL     1      16.289 -12.797   8.591  1.00  0.00     0.017 C 
ATOM     15  C   UNL     1      18.887 -12.686   8.327  1.00  0.00    -0.020 C 
ATOM     16  C   UNL     1      18.784 -14.971   7.153  1.00  0.00     0.032 C 
ATOM     17  C   UNL     1      19.100 -14.240   8.488  1.00  0.00     0.006 C 
ATOM     18  C   UNL     1      20.051 -12.125   7.444  1.00  0.00     0.008 C 
ATOM     19  C   UNL     1      18.923 -12.012   9.743  1.00  0.00     0.012 C 
ATOM     20  C   UNL     1      20.519 -14.670   9.153  1.00  0.00    -0.025 C 
ATOM     21  C   UNL     1      21.388 -12.908   7.468  1.00  0.00     0.005 C 
ATOM     22  C   UNL     1      21.683 -13.626   8.810  1.00  0.00     0.003 C 
ATOM     23  C   UNL     1      20.916 -16.126   8.701  1.00  0.00     0.010 C 
ATOM     24  C   UNL     1      20.313 -14.736  10.707  1.00  0.00     0.012 C 
ATOM     25  C   UNL     1      23.187 -14.150   8.967  1.00  0.00    -0.006 C 
ATOM     26  C   UNL     1      22.341 -16.558   9.054  1.00  0.00     0.033 C 
ATOM     27  C   UNL     1      23.363 -15.603   8.440  1.00  0.00     0.120 C 
ATOM     28  C   UNL     1      23.623 -14.087  10.460  1.00  0.00     0.014 C 
ATOM     29  C   UNL     1      24.212 -13.242   8.229  1.00  0.00     0.014 C 
ENDROOT
BRANCH   1  30
ATOM     30  C   UNL     1      15.939 -10.174   4.170  1.00  0.00     0.048 C 
ATOM     31  O   UNL     1      17.072  -9.695   3.889  1.00  0.00    -0.550 OA
ATOM     32  O   UNL     1      14.814  -9.615   3.573  1.00  0.00    -0.550 OA
ENDBRANCH   1  30
BRANCH  27  33
ATOM     33  O   UNL     1      23.239 -15.645   7.038  1.00  0.00    -0.393 OA
ATOM     34  H   UNL     1      22.272 -15.601   6.818  1.00  0.00     0.210 HD
ENDBRANCH  27  33
TORSDOF 2
ENDMDL
MODEL 3
REMARK VINA RESULT:    -5.086      3.040      8.549
REMARK INTER + INTRA:          -5.533
REMARK INTER:                  -5.534
REMARK INTRA:                   0.001
REMARK UNBOUND:                -0.001
REMARK SMILES C[C@@H]1[C@@H](C)CC[C@@]2(C(=O)[O-])CC[C@@]3(C)C(=CC[C@H]4[C@@]5(C)CC[C@@H](O)C(C)(C)[C@H]5CC[C@]43C)[C@@H]12
REMARK SMILES IDX 7 1 6 2 11 3 33 4 5 5 12 6 15 7 2 8 3 9 13 10 16 11 1 12
REMARK SMILES IDX 4 13 14 14 31 15 17 16 18 17 30 18 32 19 19 20 29 21 28 22
REMARK SMILES IDX 21 23 20 24 25 25 22 26 23 27 26 28 27 29 8 30 9 31 10 32
REMARK SMILES IDX 24 33
REMARK H PARENT 24 34
REMARK Flexibility Score: inf
ROOT
ATOM      1  C   UNL     1      21.956 -15.056   9.652  1.00  0.00     0.017 C 
ATOM      2  C   UNL     1      23.046 -14.087  10.197  1.00  0.00     0.014 C 
ATOM      3  C   UNL     1      20.660 -14.856  10.506  1.00  0.00     0.014 C 
ATOM      4  C   UNL     1      21.730 -14.781   8.107  1.00  0.00     0.030 C 
ATOM      5  C   UNL     1      24.371 -14.154   9.430  1.00  0.00     0.004 C 
ATOM      6  C   UNL     1      19.386 -14.692   9.675  1.00  0.00     0.013 C 
ATOM      7  C   UNL     1      20.717 -13.627   7.823  1.00  0.00    -0.063 C 
ATOM      8  C   UNL     1      23.090 -14.765   7.295  1.00  0.00    -0.003 C 
ATOM      9  C   UNL     1      24.191 -13.866   7.930  1.00  0.00    -0.011 C 
ATOM     10  C   UNL     1      19.450 -13.483   8.679  1.00  0.00    -0.006 C 
ATOM     11  C   UNL     1      20.809 -12.861   6.715  1.00  0.00    -0.027 C 
ATOM     12  C   UNL     1      23.643 -16.184   7.037  1.00  0.00     0.008 C 
ATOM     13  C   UNL     1      23.972 -12.367   7.670  1.00  0.00     0.008 C 
ATOM     14  C   UNL     1      19.618 -12.173   9.513  1.00  0.00     0.017 C 
ATOM     15  C   UNL     1      18.121 -13.402   7.759  1.00  0.00    -0.020 C 
ATOM     16  C   UNL     1      19.621 -12.424   5.914  1.00  0.00     0.032 C 
ATOM     17  C   UNL     1      18.264 -12.281   6.658  1.00  0.00     0.006 C 
ATOM     18  C   UNL     1      17.874 -14.766   7.033  1.00  0.00     0.008 C 
ATOM     19  C   UNL     1      16.898 -13.063   8.682  1.00  0.00     0.012 C 
ATOM     20  C   UNL     1      16.984 -12.127   5.669  1.00  0.00    -0.025 C 
ATOM     21  C   UNL     1      17.201 -14.706   5.638  1.00  0.00     0.005 C 
ATOM     22  C   UNL     1      16.222 -13.518   5.453  1.00  0.00     0.003 C 
ATOM     23  C   UNL     1      17.428 -11.507   4.291  1.00  0.00     0.010 C 
ATOM     24  C   UNL     1      16.005 -11.088   6.320  1.00  0.00     0.012 C 
ATOM     25  C   UNL     1      15.280 -13.628   4.164  1.00  0.00    -0.006 C 
ATOM     26  C   UNL     1      16.372 -11.537   3.185  1.00  0.00     0.033 C 
ATOM     27  C   UNL     1      15.921 -12.969   2.908  1.00  0.00     0.120 C 
ATOM     28  C   UNL     1      13.902 -12.962   4.449  1.00  0.00     0.014 C 
ATOM     29  C   UNL     1      14.928 -15.101   3.809  1.00  0.00     0.014 C 
ENDROOT
BRANCH   1  30
ATOM     30  C   UNL     1      22.380 -16.507   9.878  1.00  0.00     0.048 C 
ATOM     31  O   UNL     1      21.733 -17.448   9.341  1.00  0.00    -0.550 OA
ATOM     32  O   UNL     1      23.396 -16.825  10.773  1.00  0.00    -0.550 OA
ENDBRANCH   1  30
BRANCH  27  33
ATOM     33  O   UNL     1      17.027 -13.716   2.461  1.00  0.00    -0.393 OA
ATOM     34  H   UNL     1      16.686 -14.572   2.092  1.00  0.00     0.210 HD
ENDBRANCH  27  33
TORSDOF 2
ENDMDL
MODEL 4
REMARK VINA RESULT:    -4.932      2.853      4.717
REMARK INTER + INTRA:          -5.365
REMARK INTER:                  -5.379
REMARK INTRA:                   0.014
REMARK UNBOUND:                -0.001
REMARK SMILES C[C@@H]1[C@@H](C)CC[C@@]2(C(=O)[O-])CC[C@@]3(C)C(=CC[C@H]4[C@@]5(C)CC[C@@H](O)C(C)(C)[C@H]5CC[C@]43C)[C@@H]12
REMARK SMILES IDX 7 1 6 2 11 3 33 4 5 5 12 6 15 7 2 8 3 9 13 10 16 11 1 12
REMARK SMILES IDX 4 13 14 14 31 15 17 16 18 17 30 18 32 19 19 20 29 21 28 22
REMARK SMILES IDX 21 23 20 24 25 25 22 26 23 27 26 28 27 29 8 30 9 31 10 32
REMARK SMILES IDX 24 33
REMARK H PARENT 24 34
REMARK Flexibility Score: inf
ROOT
ATOM      1  C   UNL     1      17.731 -10.972   7.392  1.00  0.00     0.017 C 
ATOM      2  C   UNL     1      17.741  -9.570   8.071  1.00  0.00     0.014 C 
ATOM      3  C   UNL     1      18.713 -10.926   6.174  1.00  0.00     0.014 C 
ATOM      4  C   UNL     1      18.118 -12.077   8.460  1.00  0.00     0.030 C 
ATOM      5  C   UNL     1      16.840  -9.476   9.306  1.00  0.00     0.004 C 
ATOM      6  C   UNL     1      19.686 -12.106   6.115  1.00  0.00     0.013 C 
ATOM      7  C   UNL     1      19.659 -12.269   8.627  1.00  0.00    -0.063 C 
ATOM      8  C   UNL     1      17.258 -11.959   9.786  1.00  0.00    -0.003 C 
ATOM      9  C   UNL     1      17.205 -10.519  10.375  1.00  0.00    -0.011 C 
ATOM     10  C   UNL     1      20.579 -12.234   7.397  1.00  0.00    -0.006 C 
ATOM     11  C   UNL     1      20.200 -12.669   9.797  1.00  0.00    -0.027 C 
ATOM     12  C   UNL     1      15.827 -12.518   9.615  1.00  0.00     0.008 C 
ATOM     13  C   UNL     1      18.488 -10.127  11.125  1.00  0.00     0.008 C 
ATOM     14  C   UNL     1      21.443 -10.939   7.521  1.00  0.00     0.017 C 
ATOM     15  C   UNL     1      21.527 -13.544   7.331  1.00  0.00    -0.020 C 
ATOM     16  C   UNL     1      21.324 -13.656   9.892  1.00  0.00     0.032 C 
ATOM     17  C   UNL     1      22.304 -13.748   8.688  1.00  0.00     0.006 C 
ATOM     18  C   UNL     1      20.671 -14.826   7.064  1.00  0.00     0.008 C 
ATOM     19  C   UNL     1      22.565 -13.347   6.170  1.00  0.00     0.012 C 
ATOM     20  C   UNL     1      23.277 -15.049   8.731  1.00  0.00    -0.025 C 
ATOM     21  C   UNL     1      21.184 -16.153   7.681  1.00  0.00     0.005 C 
ATOM     22  C   UNL     1      22.726 -16.240   7.813  1.00  0.00     0.003 C 
ATOM     23  C   UNL     1      23.483 -15.531  10.216  1.00  0.00     0.010 C 
ATOM     24  C   UNL     1      24.690 -14.600   8.218  1.00  0.00     0.012 C 
ATOM     25  C   UNL     1      23.284 -17.706   8.129  1.00  0.00    -0.006 C 
ATOM     26  C   UNL     1      24.172 -16.886  10.378  1.00  0.00     0.033 C 
ATOM     27  C   UNL     1      23.389 -17.981   9.656  1.00  0.00     0.120 C 
ATOM     28  C   UNL     1      24.683 -17.899   7.473  1.00  0.00     0.014 C 
ATOM     29  C   UNL     1      22.407 -18.824   7.496  1.00  0.00     0.014 C 
ENDROOT
BRANCH   1  30
ATOM     30  C   UNL     1      16.352 -11.262   6.801  1.00  0.00     0.048 C 
ATOM     31  O   UNL     1      16.141 -12.341   6.183  1.00  0.00    -0.550 OA
ATOM     32  O   UNL     1      15.349 -10.299   6.819  1.00  0.00    -0.550 OA
ENDBRANCH   1  30
BRANCH  27  33
ATOM     33  O   UNL     1      22.109 -18.081  10.235  1.00  0.00    -0.393 OA
ATOM     34  H   UNL     1      21.448 -17.769   9.564  1.00  0.00     0.210 HD
ENDBRANCH  27  33
TORSDOF 2
ENDMDL
MODEL 5
REMARK VINA RESULT:    -4.829      3.839      8.044
REMARK INTER + INTRA:          -5.253
REMARK INTER:                  -5.245
REMARK INTRA:                  -0.009
REMARK UNBOUND:                -0.001
REMARK SMILES C[C@@H]1[C@@H](C)CC[C@@]2(C(=O)[O-])CC[C@@]3(C)C(=CC[C@H]4[C@@]5(C)CC[C@@H](O)C(C)(C)[C@H]5CC[C@]43C)[C@@H]12
REMARK SMILES IDX 7 1 6 2 11 3 33 4 5 5 12 6 15 7 2 8 3 9 13 10 16 11 1 12
REMARK SMILES IDX 4 13 14 14 31 15 17 16 18 17 30 18 32 19 19 20 29 21 28 22
REMARK SMILES IDX 21 23 20 24 25 25 22 26 23 27 26 28 27 29 8 30 9 31 10 32
REMARK SMILES IDX 24 33
REMARK H PARENT 24 34
REMARK Flexibility Score: inf
ROOT
ATOM      1  C   UNL     1      18.677  -8.566   2.152  1.00  0.00     0.017 C 
ATOM      2  C   UNL     1      18.822  -9.205   0.739  1.00  0.00     0.014 C 
ATOM      3  C   UNL     1      17.879  -7.229   1.999  1.00  0.00     0.014 C 
ATOM      4  C   UNL     1      17.976  -9.600   3.128  1.00  0.00     0.030 C 
ATOM      5  C   UNL     1      19.564 -10.545   0.740  1.00  0.00     0.004 C 
ATOM      6  C   UNL     1      16.733  -7.071   3.001  1.00  0.00     0.013 C 
ATOM      7  C   UNL     1      16.416  -9.567   3.053  1.00  0.00    -0.063 C 
ATOM      8  C   UNL     1      18.671 -11.023   3.095  1.00  0.00    -0.003 C 
ATOM      9  C   UNL     1      18.895 -11.581   1.658  1.00  0.00    -0.011 C 
ATOM     10  C   UNL     1      15.678  -8.227   2.921  1.00  0.00    -0.006 C 
ATOM     11  C   UNL     1      15.673 -10.665   3.304  1.00  0.00    -0.027 C 
ATOM     12  C   UNL     1      19.995 -11.055   3.891  1.00  0.00     0.008 C 
ATOM     13  C   UNL     1      17.614 -12.147   1.025  1.00  0.00     0.008 C 
ATOM     14  C   UNL     1      15.039  -8.205   1.495  1.00  0.00     0.017 C 
ATOM     15  C   UNL     1      14.535  -8.067   4.056  1.00  0.00    -0.020 C 
ATOM     16  C   UNL     1      14.394 -10.635   4.084  1.00  0.00     0.032 C 
ATOM     17  C   UNL     1      13.571  -9.315   4.066  1.00  0.00     0.006 C 
ATOM     18  C   UNL     1      15.186  -7.945   5.473  1.00  0.00     0.008 C 
ATOM     19  C   UNL     1      13.701  -6.776   3.741  1.00  0.00     0.012 C 
ATOM     20  C   UNL     1      12.393  -9.260   5.183  1.00  0.00    -0.025 C 
ATOM     21  C   UNL     1      14.380  -8.520   6.666  1.00  0.00     0.005 C 
ATOM     22  C   UNL     1      12.842  -8.450   6.489  1.00  0.00     0.003 C 
ATOM     23  C   UNL     1      11.923 -10.717   5.556  1.00  0.00     0.010 C 
ATOM     24  C   UNL     1      11.153  -8.556   4.529  1.00  0.00     0.012 C 
ATOM     25  C   UNL     1      12.007  -8.724   7.826  1.00  0.00    -0.006 C 
ATOM     26  C   UNL     1      10.997 -10.819   6.769  1.00  0.00     0.033 C 
ATOM     27  C   UNL     1      11.665 -10.231   8.010  1.00  0.00     0.120 C 
ATOM     28  C   UNL     1      10.689  -7.896   7.813  1.00  0.00     0.014 C 
ATOM     29  C   UNL     1      12.752  -8.239   9.102  1.00  0.00     0.014 C 
ENDROOT
BRANCH   1  30
ATOM     30  C   UNL     1      20.050  -8.168   2.694  1.00  0.00     0.048 C 
ATOM     31  O   UNL     1      20.166  -7.741   3.875  1.00  0.00    -0.550 OA
ATOM     32  O   UNL     1      21.168  -8.146   1.867  1.00  0.00    -0.550 OA
ENDBRANCH   1  30
BRANCH  27  33
ATOM     33  O   UNL     1      12.826 -10.976   8.296  1.00  0.00    -0.393 OA
ATOM     34  H   UNL     1      13.122 -10.735   9.213  1.00  0.00     0.210 HD
ENDBRANCH  27  33
TORSDOF 2
ENDMDL
MODEL 6
REMARK VINA RESULT:    -4.773      8.191      9.996
REMARK INTER + INTRA:          -5.193
REMARK INTER:                  -5.187
REMARK INTRA:                  -0.006
REMARK UNBOUND:                -0.001
REMARK SMILES C[C@@H]1[C@@H](C)CC[C@@]2(C(=O)[O-])CC[C@@]3(C)C(=CC[C@H]4[C@@]5(C)CC[C@@H](O)C(C)(C)[C@H]5CC[C@]43C)[C@@H]12
REMARK SMILES IDX 7 1 6 2 11 3 33 4 5 5 12 6 15 7 2 8 3 9 13 10 16 11 1 12
REMARK SMILES IDX 4 13 14 14 31 15 17 16 18 17 30 18 32 19 19 20 29 21 28 22
REMARK SMILES IDX 21 23 20 24 25 25 22 26 23 27 26 28 27 29 8 30 9 31 10 32
REMARK SMILES IDX 24 33
REMARK H PARENT 24 34
REMARK Flexibility Score: inf
ROOT
ATOM      1  C   UNL     1      26.113 -10.327   6.794  1.00  0.00     0.017 C 
ATOM      2  C   UNL     1      27.494  -9.839   7.321  1.00  0.00     0.014 C 
ATOM      3  C   UNL     1      26.361 -11.177   5.503  1.00  0.00     0.014 C 
ATOM      4  C   UNL     1      25.368 -11.135   7.936  1.00  0.00     0.030 C 
ATOM      5  C   UNL     1      27.407  -9.012   8.608  1.00  0.00     0.004 C 
ATOM      6  C   UNL     1      25.621 -12.516   5.489  1.00  0.00     0.013 C 
ATOM      7  C   UNL     1      25.775 -12.642   7.998  1.00  0.00    -0.063 C 
ATOM      8  C   UNL     1      25.328 -10.340   9.306  1.00  0.00    -0.003 C 
ATOM      9  C   UNL     1      26.711  -9.776   9.746  1.00  0.00    -0.011 C 
ATOM     10  C   UNL     1      25.989 -13.438   6.703  1.00  0.00    -0.006 C 
ATOM     11  C   UNL     1      25.749 -13.334   9.156  1.00  0.00    -0.027 C 
ATOM     12  C   UNL     1      24.269  -9.215   9.307  1.00  0.00     0.008 C 
ATOM     13  C   UNL     1      27.635 -10.847  10.347  1.00  0.00     0.008 C 
ATOM     14  C   UNL     1      27.516 -13.762   6.623  1.00  0.00     0.017 C 
ATOM     15  C   UNL     1      25.119 -14.803   6.696  1.00  0.00    -0.020 C 
ATOM     16  C   UNL     1      25.261 -14.746   9.263  1.00  0.00     0.032 C 
ATOM     17  C   UNL     1      25.384 -15.647   8.002  1.00  0.00     0.006 C 
ATOM     18  C   UNL     1      23.590 -14.476   6.632  1.00  0.00     0.008 C 
ATOM     19  C   UNL     1      25.535 -15.650   5.443  1.00  0.00     0.012 C 
ATOM     20  C   UNL     1      24.545 -17.035   8.100  1.00  0.00    -0.025 C 
ATOM     21  C   UNL     1      22.631 -15.468   7.339  1.00  0.00     0.005 C 
ATOM     22  C   UNL     1      23.131 -16.935   7.356  1.00  0.00     0.003 C 
ATOM     23  C   UNL     1      24.362 -17.458   9.607  1.00  0.00     0.010 C 
ATOM     24  C   UNL     1      25.411 -18.160   7.433  1.00  0.00     0.012 C 
ATOM     25  C   UNL     1      22.021 -18.009   7.776  1.00  0.00    -0.006 C 
ATOM     26  C   UNL     1      23.383 -18.608   9.852  1.00  0.00     0.033 C 
ATOM     27  C   UNL     1      21.997 -18.263   9.311  1.00  0.00     0.120 C 
ATOM     28  C   UNL     1      22.272 -19.355   7.035  1.00  0.00     0.014 C 
ATOM     29  C   UNL     1      20.591 -17.589   7.334  1.00  0.00     0.014 C 
ENDROOT
BRANCH   1  30
ATOM     30  C   UNL     1      25.267  -9.135   6.347  1.00  0.00     0.048 C 
ATOM     31  O   UNL     1      24.067  -9.303   5.999  1.00  0.00    -0.550 OA
ATOM     32  O   UNL     1      25.834  -7.873   6.192  1.00  0.00    -0.550 OA
ENDBRANCH   1  30
BRANCH  27  33
ATOM     33  O   UNL     1      21.509 -17.134   9.997  1.00  0.00    -0.393 OA
ATOM     34  H   UNL     1      22.291 -16.628  10.340  1.00  0.00     0.210 HD
ENDBRANCH  27  33
TORSDOF 2
ENDMDL
MODEL 7
REMARK VINA RESULT:    -4.672      3.516      9.658
REMARK INTER + INTRA:          -5.083
REMARK INTER:                  -5.136
REMARK INTRA:                   0.052
REMARK UNBOUND:                -0.001
REMARK SMILES C[C@@H]1[C@@H](C)CC[C@@]2(C(=O)[O-])CC[C@@]3(C)C(=CC[C@H]4[C@@]5(C)CC[C@@H](O)C(C)(C)[C@H]5CC[C@]43C)[C@@H]12
REMARK SMILES IDX 7 1 6 2 11 3 33 4 5 5 12 6 15 7 2 8 3 9 13 10 16 11 1 12
REMARK SMILES IDX 4 13 14 14 31 15 17 16 18 17 30 18 32 19 19 20 29 21 28 22
REMARK SMILES IDX 21 23 20 24 25 25 22 26 23 27 26 28 27 29 8 30 9 31 10 32
REMARK SMILES IDX 24 33
REMARK H PARENT 24 34
REMARK Flexibility Score: inf
ROOT
ATOM      1  C   UNL     1      24.573 -16.173   8.278  1.00  0.00     0.017 C 
ATOM      2  C   UNL     1      24.840 -17.212   7.149  1.00  0.00     0.014 C 
ATOM      3  C   UNL     1      24.943 -14.755   7.728  1.00  0.00     0.014 C 
ATOM      4  C   UNL     1      23.063 -16.281   8.749  1.00  0.00     0.030 C 
ATOM      5  C   UNL     1      24.491 -18.651   7.540  1.00  0.00     0.004 C 
ATOM      6  C   UNL     1      23.875 -13.690   7.986  1.00  0.00     0.013 C 
ATOM      7  C   UNL     1      22.076 -15.447   7.872  1.00  0.00    -0.063 C 
ATOM      8  C   UNL     1      22.645 -17.772   9.086  1.00  0.00    -0.003 C 
ATOM      9  C   UNL     1      23.025 -18.798   7.978  1.00  0.00    -0.011 C 
ATOM     10  C   UNL     1      22.479 -14.052   7.371  1.00  0.00    -0.006 C 
ATOM     11  C   UNL     1      20.791 -15.821   7.701  1.00  0.00    -0.027 C 
ATOM     12  C   UNL     1      23.184 -18.243  10.456  1.00  0.00     0.008 C 
ATOM     13  C   UNL     1      22.074 -18.762   6.771  1.00  0.00     0.008 C 
ATOM     14  C   UNL     1      22.645 -14.162   5.821  1.00  0.00     0.017 C 
ATOM     15  C   UNL     1      21.361 -12.943   7.744  1.00  0.00    -0.020 C 
ATOM     16  C   UNL     1      19.644 -14.857   7.701  1.00  0.00     0.032 C 
ATOM     17  C   UNL     1      19.932 -13.396   7.254  1.00  0.00     0.006 C 
ATOM     18  C   UNL     1      21.298 -12.730   9.293  1.00  0.00     0.008 C 
ATOM     19  C   UNL     1      21.744 -11.596   7.038  1.00  0.00     0.012 C 
ATOM     20  C   UNL     1      18.731 -12.355   7.593  1.00  0.00    -0.025 C 
ATOM     21  C   UNL     1      19.918 -12.355   9.893  1.00  0.00     0.005 C 
ATOM     22  C   UNL     1      19.011 -11.536   8.940  1.00  0.00     0.003 C 
ATOM     23  C   UNL     1      17.354 -13.115   7.670  1.00  0.00     0.010 C 
ATOM     24  C   UNL     1      18.613 -11.359   6.387  1.00  0.00     0.012 C 
ATOM     25  C   UNL     1      17.742 -10.863   9.647  1.00  0.00    -0.006 C 
ATOM     26  C   UNL     1      16.183 -12.301   8.224  1.00  0.00     0.033 C 
ATOM     27  C   UNL     1      16.495 -11.793   9.630  1.00  0.00     0.120 C 
ATOM     28  C   UNL     1      17.391  -9.518   8.947  1.00  0.00     0.014 C 
ATOM     29  C   UNL     1      18.027 -10.464  11.123  1.00  0.00     0.014 C 
ENDROOT
BRANCH   1  30
ATOM     30  C   UNL     1      25.516 -16.419   9.455  1.00  0.00     0.048 C 
ATOM     31  O   UNL     1      25.254 -15.936  10.590  1.00  0.00    -0.550 OA
ATOM     32  O   UNL     1      26.736 -17.063   9.272  1.00  0.00    -0.550 OA
ENDBRANCH   1  30
BRANCH  27  33
ATOM     33  O   UNL     1      16.684 -12.899  10.481  1.00  0.00    -0.393 OA
ATOM     34  H   UNL     1      17.342 -12.636  11.176  1.00  0.00     0.210 HD
ENDBRANCH  27  33
TORSDOF 2
ENDMDL
MODEL 8
REMARK VINA RESULT:    -4.654      3.423      6.672
REMARK INTER + INTRA:          -5.063
REMARK INTER:                  -5.056
REMARK INTRA:                  -0.007
REMARK UNBOUND:                -0.001
REMARK SMILES C[C@@H]1[C@@H](C)CC[C@@]2(C(=O)[O-])CC[C@@]3(C)C(=CC[C@H]4[C@@]5(C)CC[C@@H](O)C(C)(C)[C@H]5CC[C@]43C)[C@@H]12
REMARK SMILES IDX 7 1 6 2 11 3 33 4 5 5 12 6 15 7 2 8 3 9 13 10 16 11 1 12
REMARK SMILES IDX 4 13 14 14 31 15 17 16 18 17 30 18 32 19 19 20 29 21 28 22
REMARK SMILES IDX 21 23 20 24 25 25 22 26 23 27 26 28 27 29 8 30 9 31 10 32
REMARK SMILES IDX 24 33
REMARK H PARENT 24 34
REMARK Flexibility Score: inf
ROOT
ATOM      1  C   UNL     1      18.411 -11.527   8.636  1.00  0.00     0.017 C 
ATOM      2  C   UNL     1      16.949 -12.045   8.777  1.00  0.00     0.014 C 
ATOM      3  C   UNL     1      19.072 -11.554  10.054  1.00  0.00     0.014 C 
ATOM      4  C   UNL     1      19.184 -12.415   7.574  1.00  0.00     0.030 C 
ATOM      5  C   UNL     1      16.183 -12.102   7.451  1.00  0.00     0.004 C 
ATOM      6  C   UNL     1      20.456 -12.204  10.083  1.00  0.00     0.013 C 
ATOM      7  C   UNL     1      19.799 -13.716   8.180  1.00  0.00    -0.063 C 
ATOM      8  C   UNL     1      18.382 -12.560   6.215  1.00  0.00    -0.003 C 
ATOM      9  C   UNL     1      16.894 -12.976   6.405  1.00  0.00    -0.011 C 
ATOM     10  C   UNL     1      20.453 -13.686   9.570  1.00  0.00    -0.006 C 
ATOM     11  C   UNL     1      19.960 -14.833   7.441  1.00  0.00    -0.027 C 
ATOM     12  C   UNL     1      18.473 -11.293   5.335  1.00  0.00     0.008 C 
ATOM     13  C   UNL     1      16.720 -14.471   6.714  1.00  0.00     0.008 C 
ATOM     14  C   UNL     1      19.537 -14.527  10.515  1.00  0.00     0.017 C 
ATOM     15  C   UNL     1      21.948 -14.304   9.533  1.00  0.00    -0.020 C 
ATOM     16  C   UNL     1      21.173 -15.710   7.524  1.00  0.00     0.032 C 
ATOM     17  C   UNL     1      21.951 -15.735   8.870  1.00  0.00     0.006 C 
ATOM     18  C   UNL     1      22.901 -13.382   8.702  1.00  0.00     0.008 C 
ATOM     19  C   UNL     1      22.474 -14.419  11.007  1.00  0.00     0.012 C 
ATOM     20  C   UNL     1      23.412 -16.440   8.771  1.00  0.00    -0.025 C 
ATOM     21  C   UNL     1      24.055 -14.077   7.934  1.00  0.00     0.005 C 
ATOM     22  C   UNL     1      24.587 -15.364   8.613  1.00  0.00     0.003 C 
ATOM     23  C   UNL     1      23.438 -17.482   7.591  1.00  0.00     0.010 C 
ATOM     24  C   UNL     1      23.629 -17.265  10.088  1.00  0.00     0.012 C 
ATOM     25  C   UNL     1      25.976 -15.900   8.024  1.00  0.00    -0.006 C 
ATOM     26  C   UNL     1      24.819 -18.034   7.232  1.00  0.00     0.033 C 
ATOM     27  C   UNL     1      25.772 -16.903   6.852  1.00  0.00     0.120 C 
ATOM     28  C   UNL     1      26.806 -16.584   9.149  1.00  0.00     0.014 C 
ATOM     29  C   UNL     1      26.891 -14.748   7.519  1.00  0.00     0.014 C 
ENDROOT
BRANCH   1  30
ATOM     30  C   UNL     1      18.412 -10.061   8.206  1.00  0.00     0.048 C 
ATOM     31  O   UNL     1      19.496  -9.486   7.913  1.00  0.00    -0.550 OA
ATOM     32  O   UNL     1      17.248  -9.300   8.254  1.00  0.00    -0.550 OA
ENDBRANCH   1  30
BRANCH  27  33
ATOM     33  O   UNL     1      25.266 -16.246   5.714  1.00  0.00    -0.393 OA
ATOM     34  H   UNL     1      24.275 -16.263   5.770  1.00  0.00     0.210 HD
ENDBRANCH  27  33
TORSDOF 2
ENDMDL
MODEL 9
REMARK VINA RESULT:    -4.480      3.734     10.100
REMARK INTER + INTRA:          -4.875
REMARK INTER:                  -4.869
REMARK INTRA:                  -0.006
REMARK UNBOUND:                -0.001
REMARK SMILES C[C@@H]1[C@@H](C)CC[C@@]2(C(=O)[O-])CC[C@@]3(C)C(=CC[C@H]4[C@@]5(C)CC[C@@H](O)C(C)(C)[C@H]5CC[C@]43C)[C@@H]12
REMARK SMILES IDX 7 1 6 2 11 3 33 4 5 5 12 6 15 7 2 8 3 9 13 10 16 11 1 12
REMARK SMILES IDX 4 13 14 14 31 15 17 16 18 17 30 18 32 19 19 20 29 21 28 22
REMARK SMILES IDX 21 23 20 24 25 25 22 26 23 27 26 28 27 29 8 30 9 31 10 32
REMARK SMILES IDX 24 33
REMARK H PARENT 24 34
REMARK Flexibility Score: inf
ROOT
ATOM      1  C   UNL     1      25.056 -16.692   8.439  1.00  0.00     0.017 C 
ATOM      2  C   UNL     1      26.395 -16.178   9.048  1.00  0.00     0.014 C 
ATOM      3  C   UNL     1      24.122 -17.122   9.619  1.00  0.00     0.014 C 
ATOM      4  C   UNL     1      24.424 -15.561   7.526  1.00  0.00     0.030 C 
ATOM      5  C   UNL     1      27.403 -15.692   8.002  1.00  0.00     0.004 C 
ATOM      6  C   UNL     1      22.698 -16.570   9.517  1.00  0.00     0.013 C 
ATOM      7  C   UNL     1      23.561 -14.530   8.321  1.00  0.00    -0.063 C 
ATOM      8  C   UNL     1      25.465 -14.979   6.483  1.00  0.00    -0.003 C 
ATOM      9  C   UNL     1      26.829 -14.575   7.114  1.00  0.00    -0.011 C 
ATOM     10  C   UNL     1      22.645 -15.004   9.460  1.00  0.00    -0.006 C 
ATOM     11  C   UNL     1      23.433 -13.250   7.913  1.00  0.00    -0.027 C 
ATOM     12  C   UNL     1      25.692 -15.926   5.282  1.00  0.00     0.008 C 
ATOM     13  C   UNL     1      26.774 -13.236   7.866  1.00  0.00     0.008 C 
ATOM     14  C   UNL     1      23.254 -14.448  10.786  1.00  0.00     0.017 C 
ATOM     15  C   UNL     1      21.131 -14.469   9.262  1.00  0.00    -0.020 C 
ATOM     16  C   UNL     1      22.142 -12.492   7.965  1.00  0.00     0.032 C 
ATOM     17  C   UNL     1      21.108 -12.907   9.050  1.00  0.00     0.006 C 
ATOM     18  C   UNL     1      20.473 -15.139   8.010  1.00  0.00     0.008 C 
ATOM     19  C   UNL     1      20.307 -14.825  10.550  1.00  0.00     0.012 C 
ATOM     20  C   UNL     1      19.630 -12.268   8.827  1.00  0.00    -0.025 C 
ATOM     21  C   UNL     1      19.431 -14.296   7.231  1.00  0.00     0.005 C 
ATOM     22  C   UNL     1      18.635 -13.296   8.109  1.00  0.00     0.003 C 
ATOM     23  C   UNL     1      19.732 -10.921   8.017  1.00  0.00     0.010 C 
ATOM     24  C   UNL     1      19.061 -11.887  10.239  1.00  0.00     0.012 C 
ATOM     25  C   UNL     1      17.346 -12.669   7.397  1.00  0.00    -0.006 C 
ATOM     26  C   UNL     1      18.402 -10.347   7.527  1.00  0.00     0.033 C 
ATOM     27  C   UNL     1      17.674 -11.352   6.636  1.00  0.00     0.120 C 
ATOM     28  C   UNL     1      16.235 -12.391   8.452  1.00  0.00     0.014 C 
ATOM     29  C   UNL     1      16.683 -13.655   6.393  1.00  0.00     0.014 C 
ENDROOT
BRANCH   1  30
ATOM     30  C   UNL     1      25.301 -17.960   7.623  1.00  0.00     0.048 C 
ATOM     31  O   UNL     1      24.368 -18.468   6.944  1.00  0.00    -0.550 OA
ATOM     32  O   UNL     1      26.508 -18.647   7.711  1.00  0.00    -0.550 OA
ENDBRANCH   1  30
BRANCH  27  33
ATOM     33  O   UNL     1      18.469 -11.614   5.504  1.00  0.00    -0.393 OA
ATOM     34  H   UNL     1      19.008 -10.802   5.318  1.00  0.00     0.210 HD
ENDBRANCH  27  33
TORSDOF 2
ENDMDL
