MODEL 1
REMARK VINA RESULT:    -4.232      0.000      0.000
REMARK INTER + INTRA:          -6.496
REMARK INTER:                  -6.088
REMARK INTRA:                  -0.408
REMARK UNBOUND:                -0.408
REMARK SMILES CCCCCCCCCO
REMARK SMILES IDX 6 1 5 2 4 3 3 4 2 5 1 6 7 7 8 8 9 9 10 10
REMARK H PARENT 10 11
REMARK Flexibility Score: inf
ROOT
ATOM      1  C   UNL     1     -31.412 -22.360  28.392  1.00  0.00     0.000 C 
ENDROOT
BRANCH   1   2
ATOM      2  C   UNL     1     -31.207 -21.154  29.325  1.00  0.00     0.000 C 
BRANCH   2   3
ATOM      3  C   UNL     1     -32.379 -20.158  29.282  1.00  0.00    -0.000 C 
BRANCH   3   4
ATOM      4  C   UNL     1     -32.004 -18.703  29.617  1.00  0.00    -0.000 C 
BRANCH   4   5
ATOM      5  C   UNL     1     -32.411 -17.711  28.518  1.00  0.00    -0.003 C 
ATOM      6  C   UNL     1     -33.241 -18.398  27.437  1.00  0.00     0.004 C 
ENDBRANCH   4   5
ENDBRANCH   3   4
ENDBRANCH   2   3
ENDBRANCH   1   2
BRANCH   1   7
ATOM      7  C   UNL     1     -32.681 -22.238  27.528  1.00  0.00     0.002 C 
BRANCH   7   8
ATOM      8  C   UNL     1     -33.795 -23.243  27.871  1.00  0.00     0.028 C 
BRANCH   8   9
ATOM      9  C   UNL     1     -35.005 -23.140  26.934  1.00  0.00     0.156 C 
BRANCH   9  10
ATOM     10  O   UNL     1     -36.188 -23.387  27.646  1.00  0.00    -0.396 OA
ATOM     11  H   UNL     1     -36.208 -24.360  27.836  1.00  0.00     0.210 HD
ENDBRANCH   9  10
ENDBRANCH   8   9
ENDBRANCH   7   8
ENDBRANCH   1   7
TORSDOF 8
ENDMDL
MODEL 2
REMARK VINA RESULT:    -4.106      1.171      1.321
REMARK INTER + INTRA:          -6.314
REMARK INTER:                  -5.933
REMARK INTRA:                  -0.381
REMARK UNBOUND:                -0.408
REMARK SMILES CCCCCCCCCO
REMARK SMILES IDX 6 1 5 2 4 3 3 4 2 5 1 6 7 7 8 8 9 9 10 10
REMARK H PARENT 10 11
REMARK Flexibility Score: inf
ROOT
ATOM      1  C   UNL     1     -31.169 -21.655  29.045  1.00  0.00     0.000 C 
ENDROOT
BRANCH   1   2
ATOM      2  C   UNL     1     -32.013 -20.498  29.607  1.00  0.00     0.000 C 
BRANCH   2   3
ATOM      3  C   UNL     1     -31.367 -19.120  29.377  1.00  0.00    -0.000 C 
BRANCH   3   4
ATOM      4  C   UNL     1     -32.359 -17.945  29.298  1.00  0.00    -0.000 C 
BRANCH   4   5
ATOM      5  C   UNL     1     -32.638 -17.492  27.857  1.00  0.00    -0.003 C 
ATOM      6  C   UNL     1     -33.491 -18.517  27.114  1.00  0.00     0.004 C 
ENDBRANCH   4   5
ENDBRANCH   3   4
ENDBRANCH   2   3
ENDBRANCH   1   2
BRANCH   1   7
ATOM      7  C   UNL     1     -31.917 -22.480  27.983  1.00  0.00     0.002 C 
BRANCH   7   8
ATOM      8  C   UNL     1     -33.428 -22.199  27.893  1.00  0.00     0.028 C 
BRANCH   8   9
ATOM      9  C   UNL     1     -34.169 -23.182  26.979  1.00  0.00     0.156 C 
BRANCH   9  10
ATOM     10  O   UNL     1     -34.067 -22.770  25.643  1.00  0.00    -0.396 OA
ATOM     11  H   UNL     1     -34.294 -23.557  25.083  1.00  0.00     0.210 HD
ENDBRANCH   9  10
ENDBRANCH   8   9
ENDBRANCH   7   8
ENDBRANCH   1   7
TORSDOF 8
ENDMDL
MODEL 3
REMARK VINA RESULT:    -3.731      1.928      4.229
REMARK INTER + INTRA:          -5.774
REMARK INTER:                  -5.740
REMARK INTRA:                  -0.035
REMARK UNBOUND:                -0.408
REMARK SMILES CCCCCCCCCO
REMARK SMILES IDX 6 1 5 2 4 3 3 4 2 5 1 6 7 7 8 8 9 9 10 10
REMARK H PARENT 10 11
REMARK Flexibility Score: inf
ROOT
ATOM      1  C   UNL     1     -31.436 -19.030  29.446  1.00  0.00     0.000 C 
ENDROOT
BRANCH   1   2
ATOM      2  C   UNL     1     -32.096 -20.419  29.446  1.00  0.00     0.000 C 
BRANCH   2   3
ATOM      3  C   UNL     1     -31.158 -21.528  28.935  1.00  0.00    -0.000 C 
BRANCH   3   4
ATOM      4  C   UNL     1     -31.865 -22.700  28.233  1.00  0.00    -0.000 C 
BRANCH   4   5
ATOM      5  C   UNL     1     -33.250 -22.324  27.687  1.00  0.00    -0.003 C 
ATOM      6  C   UNL     1     -33.343 -22.597  26.188  1.00  0.00     0.004 C 
ENDBRANCH   4   5
ENDBRANCH   3   4
ENDBRANCH   2   3
ENDBRANCH   1   2
BRANCH   1   7
ATOM      7  C   UNL     1     -32.429 -17.896  29.132  1.00  0.00     0.002 C 
BRANCH   7   8
ATOM      8  C   UNL     1     -32.805 -17.761  27.646  1.00  0.00     0.028 C 
BRANCH   8   9
ATOM      9  C   UNL     1     -33.687 -18.911  27.142  1.00  0.00     0.156 C 
BRANCH   9  10
ATOM     10  O   UNL     1     -33.768 -18.879  25.743  1.00  0.00    -0.396 OA
ATOM     11  H   UNL     1     -33.123 -19.552  25.404  1.00  0.00     0.210 HD
ENDBRANCH   9  10
ENDBRANCH   8   9
ENDBRANCH   7   8
ENDBRANCH   1   7
TORSDOF 8
ENDMDL
MODEL 4
REMARK VINA RESULT:    -3.361      2.264      4.739
REMARK INTER + INTRA:          -5.243
REMARK INTER:                  -4.895
REMARK INTRA:                  -0.348
REMARK UNBOUND:                -0.408
REMARK SMILES CCCCCCCCCO
REMARK SMILES IDX 6 1 5 2 4 3 3 4 2 5 1 6 7 7 8 8 9 9 10 10
REMARK H PARENT 10 11
REMARK Flexibility Score: inf
ROOT
ATOM      1  C   UNL     1     -31.642 -20.255  29.459  1.00  0.00     0.000 C 
ENDROOT
BRANCH   1   2
ATOM      2  C   UNL     1     -33.171 -20.421  29.424  1.00  0.00     0.000 C 
BRANCH   2   3
ATOM      3  C   UNL     1     -33.623 -21.627  28.581  1.00  0.00    -0.000 C 
BRANCH   3   4
ATOM      4  C   UNL     1     -32.478 -22.491  28.024  1.00  0.00    -0.000 C 
BRANCH   4   5
ATOM      5  C   UNL     1     -32.950 -23.506  26.972  1.00  0.00    -0.003 C 
ATOM      6  C   UNL     1     -33.470 -22.800  25.723  1.00  0.00     0.004 C 
ENDBRANCH   4   5
ENDBRANCH   3   4
ENDBRANCH   2   3
ENDBRANCH   1   2
BRANCH   1   7
ATOM      7  C   UNL     1     -31.202 -18.780  29.479  1.00  0.00     0.002 C 
BRANCH   7   8
ATOM      8  C   UNL     1     -32.351 -17.762  29.375  1.00  0.00     0.028 C 
BRANCH   8   9
ATOM      9  C   UNL     1     -32.471 -17.132  27.981  1.00  0.00     0.156 C 
BRANCH   9  10
ATOM     10  O   UNL     1     -33.400 -17.843  27.209  1.00  0.00    -0.396 OA
ATOM     11  H   UNL     1     -34.161 -17.229  27.041  1.00  0.00     0.210 HD
ENDBRANCH   9  10
ENDBRANCH   8   9
ENDBRANCH   7   8
ENDBRANCH   1   7
TORSDOF 8
ENDMDL
MODEL 5
REMARK VINA RESULT:    -2.772      2.278      3.016
REMARK INTER + INTRA:          -4.395
REMARK INTER:                  -4.053
REMARK INTRA:                  -0.342
REMARK UNBOUND:                -0.408
REMARK SMILES CCCCCCCCCO
REMARK SMILES IDX 6 1 5 2 4 3 3 4 2 5 1 6 7 7 8 8 9 9 10 10
REMARK H PARENT 10 11
REMARK Flexibility Score: inf
ROOT
ATOM      1  C   UNL     1     -33.904 -22.188  26.888  1.00  0.00     0.000 C 
ENDROOT
BRANCH   1   2
ATOM      2  C   UNL     1     -34.013 -21.485  28.252  1.00  0.00     0.000 C 
BRANCH   2   3
ATOM      3  C   UNL     1     -33.371 -20.086  28.256  1.00  0.00    -0.000 C 
BRANCH   3   4
ATOM      4  C   UNL     1     -32.714 -19.680  29.588  1.00  0.00    -0.000 C 
BRANCH   4   5
ATOM      5  C   UNL     1     -31.860 -18.409  29.472  1.00  0.00    -0.003 C 
ATOM      6  C   UNL     1     -32.353 -17.518  28.335  1.00  0.00     0.004 C 
ENDBRANCH   4   5
ENDBRANCH   3   4
ENDBRANCH   2   3
ENDBRANCH   1   2
BRANCH   1   7
ATOM      7  C   UNL     1     -32.626 -23.036  26.754  1.00  0.00     0.002 C 
BRANCH   7   8
ATOM      8  C   UNL     1     -31.879 -23.291  28.074  1.00  0.00     0.028 C 
BRANCH   8   9
ATOM      9  C   UNL     1     -30.575 -22.492  28.192  1.00  0.00     0.156 C 
BRANCH   9  10
ATOM     10  O   UNL     1     -30.352 -22.126  29.526  1.00  0.00    -0.396 OA
ATOM     11  H   UNL     1     -30.334 -22.966  30.053  1.00  0.00     0.210 HD
ENDBRANCH   9  10
ENDBRANCH   8   9
ENDBRANCH   7   8
ENDBRANCH   1   7
TORSDOF 8
ENDMDL
MODEL 6
REMARK VINA RESULT:    -2.751      1.457      1.962
REMARK INTER + INTRA:          -4.366
REMARK INTER:                  -4.417
REMARK INTRA:                   0.052
REMARK UNBOUND:                -0.408
REMARK SMILES CCCCCCCCCO
REMARK SMILES IDX 6 1 5 2 4 3 3 4 2 5 1 6 7 7 8 8 9 9 10 10
REMARK H PARENT 10 11
REMARK Flexibility Score: inf
ROOT
ATOM      1  C   UNL     1     -31.777 -21.444  28.981  1.00  0.00     0.000 C 
ENDROOT
BRANCH   1   2
ATOM      2  C   UNL     1     -33.023 -20.541  28.957  1.00  0.00     0.000 C 
BRANCH   2   3
ATOM      3  C   UNL     1     -32.973 -19.483  27.841  1.00  0.00    -0.000 C 
BRANCH   3   4
ATOM      4  C   UNL     1     -33.014 -18.024  28.330  1.00  0.00    -0.000 C 
BRANCH   4   5
ATOM      5  C   UNL     1     -32.209 -17.802  29.619  1.00  0.00    -0.003 C 
ATOM      6  C   UNL     1     -30.734 -18.132  29.409  1.00  0.00     0.004 C 
ENDBRANCH   4   5
ENDBRANCH   3   4
ENDBRANCH   2   3
ENDBRANCH   1   2
BRANCH   1   7
ATOM      7  C   UNL     1     -31.869 -22.615  27.987  1.00  0.00     0.002 C 
BRANCH   7   8
ATOM      8  C   UNL     1     -33.301 -23.088  27.677  1.00  0.00     0.028 C 
BRANCH   8   9
ATOM      9  C   UNL     1     -33.658 -22.987  26.188  1.00  0.00     0.156 C 
BRANCH   9  10
ATOM     10  O   UNL     1     -33.790 -21.643  25.814  1.00  0.00    -0.396 OA
ATOM     11  H   UNL     1     -33.976 -21.636  24.839  1.00  0.00     0.210 HD
ENDBRANCH   9  10
ENDBRANCH   8   9
ENDBRANCH   7   8
ENDBRANCH   1   7
TORSDOF 8
ENDMDL
MODEL 7
REMARK VINA RESULT:    -2.711      1.190      1.908
REMARK INTER + INTRA:          -4.308
REMARK INTER:                  -4.368
REMARK INTRA:                   0.060
REMARK UNBOUND:                -0.408
REMARK SMILES CCCCCCCCCO
REMARK SMILES IDX 6 1 5 2 4 3 3 4 2 5 1 6 7 7 8 8 9 9 10 10
REMARK H PARENT 10 11
REMARK Flexibility Score: inf
ROOT
ATOM      1  C   UNL     1     -32.892 -21.494  28.005  1.00  0.00     0.000 C 
ENDROOT
BRANCH   1   2
ATOM      2  C   UNL     1     -33.639 -20.186  28.318  1.00  0.00     0.000 C 
BRANCH   2   3
ATOM      3  C   UNL     1     -33.545 -19.157  27.177  1.00  0.00    -0.000 C 
BRANCH   3   4
ATOM      4  C   UNL     1     -33.272 -17.711  27.631  1.00  0.00    -0.000 C 
BRANCH   4   5
ATOM      5  C   UNL     1     -31.930 -17.556  28.361  1.00  0.00    -0.003 C 
ATOM      6  C   UNL     1     -32.021 -18.077  29.793  1.00  0.00     0.004 C 
ENDBRANCH   4   5
ENDBRANCH   3   4
ENDBRANCH   2   3
ENDBRANCH   1   2
BRANCH   1   7
ATOM      7  C   UNL     1     -32.984 -21.895  26.522  1.00  0.00     0.002 C 
BRANCH   7   8
ATOM      8  C   UNL     1     -33.896 -23.101  26.234  1.00  0.00     0.028 C 
BRANCH   8   9
ATOM      9  C   UNL     1     -34.683 -23.567  27.466  1.00  0.00     0.156 C 
BRANCH   9  10
ATOM     10  O   UNL     1     -35.996 -23.079  27.413  1.00  0.00    -0.396 OA
ATOM     11  H   UNL     1     -36.224 -22.980  26.452  1.00  0.00     0.210 HD
ENDBRANCH   9  10
ENDBRANCH   8   9
ENDBRANCH   7   8
ENDBRANCH   1   7
TORSDOF 8
ENDMDL
MODEL 8
REMARK VINA RESULT:    -2.169     11.102     13.220
REMARK INTER + INTRA:          -3.528
REMARK INTER:                  -3.147
REMARK INTRA:                  -0.381
REMARK UNBOUND:                -0.408
REMARK SMILES CCCCCCCCCO
REMARK SMILES IDX 6 1 5 2 4 3 3 4 2 5 1 6 7 7 8 8 9 9 10 10
REMARK H PARENT 10 11
REMARK Flexibility Score: inf
ROOT
ATOM      1  C   UNL     1     -22.238 -27.624  26.839  1.00  0.00     0.000 C 
ENDROOT
BRANCH   1   2
ATOM      2  C   UNL     1     -23.217 -28.647  27.438  1.00  0.00     0.000 C 
BRANCH   2   3
ATOM      3  C   UNL     1     -23.411 -29.885  26.543  1.00  0.00    -0.000 C 
BRANCH   3   4
ATOM      4  C   UNL     1     -23.373 -29.600  25.030  1.00  0.00    -0.000 C 
BRANCH   4   5
ATOM      5  C   UNL     1     -23.395 -30.879  24.180  1.00  0.00    -0.003 C 
ATOM      6  C   UNL     1     -23.371 -32.125  25.061  1.00  0.00     0.004 C 
ENDBRANCH   4   5
ENDBRANCH   3   4
ENDBRANCH   2   3
ENDBRANCH   1   2
BRANCH   1   7
ATOM      7  C   UNL     1     -22.685 -26.167  27.062  1.00  0.00     0.002 C 
BRANCH   7   8
ATOM      8  C   UNL     1     -23.842 -25.702  26.160  1.00  0.00     0.028 C 
BRANCH   8   9
ATOM      9  C   UNL     1     -23.397 -25.384  24.727  1.00  0.00     0.156 C 
BRANCH   9  10
ATOM     10  O   UNL     1     -23.690 -26.463  23.880  1.00  0.00    -0.396 OA
ATOM     11  H   UNL     1     -23.023 -27.170  24.079  1.00  0.00     0.210 HD
ENDBRANCH   9  10
ENDBRANCH   8   9
ENDBRANCH   7   8
ENDBRANCH   1   7
TORSDOF 8
ENDMDL
MODEL 9
REMARK VINA RESULT:    -1.888      1.933      4.030
REMARK INTER + INTRA:          -3.124
REMARK INTER:                  -2.802
REMARK INTRA:                  -0.322
REMARK UNBOUND:                -0.408
REMARK SMILES CCCCCCCCCO
REMARK SMILES IDX 6 1 5 2 4 3 3 4 2 5 1 6 7 7 8 8 9 9 10 10
REMARK H PARENT 10 11
REMARK Flexibility Score: inf
ROOT
ATOM      1  C   UNL     1     -31.919 -17.306  28.325  1.00  0.00     0.000 C 
ENDROOT
BRANCH   1   2
ATOM      2  C   UNL     1     -32.074 -18.182  29.580  1.00  0.00     0.000 C 
BRANCH   2   3
ATOM      3  C   UNL     1     -31.182 -19.437  29.546  1.00  0.00    -0.000 C 
BRANCH   3   4
ATOM      4  C   UNL     1     -31.943 -20.766  29.388  1.00  0.00    -0.000 C 
BRANCH   4   5
ATOM      5  C   UNL     1     -31.025 -21.942  29.025  1.00  0.00    -0.003 C 
ATOM      6  C   UNL     1     -31.627 -22.782  27.901  1.00  0.00     0.004 C 
ENDBRANCH   4   5
ENDBRANCH   3   4
ENDBRANCH   2   3
ENDBRANCH   1   2
BRANCH   1   7
ATOM      7  C   UNL     1     -33.175 -17.311  27.434  1.00  0.00     0.002 C 
BRANCH   7   8
ATOM      8  C   UNL     1     -33.851 -18.685  27.279  1.00  0.00     0.028 C 
BRANCH   8   9
ATOM      9  C   UNL     1     -33.482 -19.391  25.969  1.00  0.00     0.156 C 
BRANCH   9  10
ATOM     10  O   UNL     1     -33.687 -20.773  26.091  1.00  0.00    -0.396 OA
ATOM     11  H   UNL     1     -33.616 -21.153  25.178  1.00  0.00     0.210 HD
ENDBRANCH   9  10
ENDBRANCH   8   9
ENDBRANCH   7   8
ENDBRANCH   1   7
TORSDOF 8
ENDMDL
