MODEL 1
REMARK VINA RESULT:    -5.168      0.000      0.000
REMARK INTER + INTRA:         -15.162
REMARK INTER:                 -11.815
REMARK INTRA:                  -3.347
REMARK UNBOUND:                -3.347
REMARK SMILES CCCCCCCCCCCCCCCCCCCCCCCC(=O)[O-]
REMARK SMILES IDX 13 1 14 2 15 3 16 4 17 5 18 6 19 7 20 8 21 9 22 10 23 11
REMARK SMILES IDX 24 12 25 13 26 14 12 15 11 16 10 17 9 18 8 19 7 20 6 21 5 22
REMARK SMILES IDX 4 23 3 24 2 25 1 26
REMARK H PARENT
REMARK Flexibility Score: inf
ROOT
ATOM      1  C   UNL     1      -7.684   7.354  -7.421  1.00  0.00     0.000 C 
ENDROOT
BRANCH   1   2
ATOM      2  C   UNL     1      -8.105   7.122  -8.879  1.00  0.00     0.000 C 
BRANCH   2   3
ATOM      3  C   UNL     1      -6.926   7.229  -9.863  1.00  0.00     0.000 C 
BRANCH   3   4
ATOM      4  C   UNL     1      -6.930   8.488 -10.755  1.00  0.00     0.000 C 
BRANCH   4   5
ATOM      5  C   UNL     1      -8.219   9.326 -10.693  1.00  0.00     0.000 C 
BRANCH   5   6
ATOM      6  C   UNL     1      -7.959  10.783 -10.274  1.00  0.00     0.000 C 
BRANCH   6   7
ATOM      7  C   UNL     1      -7.225  10.885  -8.927  1.00  0.00     0.000 C 
BRANCH   7   8
ATOM      8  C   UNL     1      -5.894  11.649  -9.043  1.00  0.00     0.000 C 
BRANCH   8   9
ATOM      9  C   UNL     1      -4.676  10.717  -9.182  1.00  0.00     0.000 C 
BRANCH   9  10
ATOM     10  C   UNL     1      -4.404   9.812  -7.968  1.00  0.00     0.006 C 
BRANCH  10  11
ATOM     11  C   UNL     1      -3.985   8.390  -8.363  1.00  0.00     0.053 C 
BRANCH  11  12
ATOM     12  C   UNL     1      -3.561   7.615  -7.155  1.00  0.00     0.041 C 
ATOM     13  O   UNL     1      -4.206   6.592  -6.800  1.00  0.00    -0.550 OA
ATOM     14  O   UNL     1      -2.437   8.005  -6.437  1.00  0.00    -0.550 OA
ENDBRANCH  11  12
ENDBRANCH  10  11
ENDBRANCH   9  10
ENDBRANCH   8   9
ENDBRANCH   7   8
ENDBRANCH   6   7
ENDBRANCH   5   6
ENDBRANCH   4   5
ENDBRANCH   3   4
ENDBRANCH   2   3
ENDBRANCH   1   2
BRANCH   1  15
ATOM     15  C   UNL     1      -8.621   6.617  -6.451  1.00  0.00     0.000 C 
BRANCH  15  16
ATOM     16  C   UNL     1     -10.007   6.342  -7.075  1.00  0.00     0.000 C 
BRANCH  16  17
ATOM     17  C   UNL     1     -10.805   5.247  -6.348  1.00  0.00     0.000 C 
BRANCH  17  18
ATOM     18  C   UNL     1     -10.204   4.873  -4.986  1.00  0.00    -0.000 C 
BRANCH  18  19
ATOM     19  C   UNL     1     -10.439   3.390  -4.667  1.00  0.00    -0.000 C 
BRANCH  19  20
ATOM     20  C   UNL     1     -10.919   2.584  -5.887  1.00  0.00    -0.000 C 
BRANCH  20  21
ATOM     21  C   UNL     1     -10.076   1.335  -6.222  1.00  0.00    -0.000 C 
BRANCH  21  22
ATOM     22  C   UNL     1     -10.506   0.578  -7.493  1.00  0.00    -0.000 C 
BRANCH  22  23
ATOM     23  C   UNL     1     -10.136   1.278  -8.816  1.00  0.00    -0.000 C 
BRANCH  23  24
ATOM     24  C   UNL     1      -8.839   2.116  -8.735  1.00  0.00    -0.000 C 
BRANCH  24  25
ATOM     25  C   UNL     1      -8.969   3.534  -9.319  1.00  0.00    -0.003 C 
ATOM     26  C   UNL     1     -10.392   3.859  -9.774  1.00  0.00     0.004 C 
ENDBRANCH  24  25
ENDBRANCH  23  24
ENDBRANCH  22  23
ENDBRANCH  21  22
ENDBRANCH  20  21
ENDBRANCH  19  20
ENDBRANCH  18  19
ENDBRANCH  17  18
ENDBRANCH  16  17
ENDBRANCH  15  16
ENDBRANCH   1  15
TORSDOF 22
ENDMDL
MODEL 2
REMARK VINA RESULT:    -4.962      0.981      2.911
REMARK INTER + INTRA:         -14.691
REMARK INTER:                 -11.709
REMARK INTRA:                  -2.982
REMARK UNBOUND:                -3.347
REMARK SMILES CCCCCCCCCCCCCCCCCCCCCCCC(=O)[O-]
REMARK SMILES IDX 13 1 14 2 15 3 16 4 17 5 18 6 19 7 20 8 21 9 22 10 23 11
REMARK SMILES IDX 24 12 25 13 26 14 12 15 11 16 10 17 9 18 8 19 7 20 6 21 5 22
REMARK SMILES IDX 4 23 3 24 2 25 1 26
REMARK H PARENT
REMARK Flexibility Score: inf
ROOT
ATOM      1  C   UNL     1     -10.122   6.659  -9.649  1.00  0.00     0.000 C 
ENDROOT
BRANCH   1   2
ATOM      2  C   UNL     1      -8.640   6.284  -9.503  1.00  0.00     0.000 C 
BRANCH   2   3
ATOM      3  C   UNL     1      -7.741   7.504  -9.234  1.00  0.00     0.000 C 
BRANCH   3   4
ATOM      4  C   UNL     1      -6.671   7.779 -10.311  1.00  0.00     0.000 C 
BRANCH   4   5
ATOM      5  C   UNL     1      -6.814   9.127 -11.040  1.00  0.00     0.000 C 
BRANCH   5   6
ATOM      6  C   UNL     1      -7.761  10.097 -10.312  1.00  0.00     0.000 C 
BRANCH   6   7
ATOM      7  C   UNL     1      -7.013  11.282  -9.677  1.00  0.00     0.000 C 
BRANCH   7   8
ATOM      8  C   UNL     1      -5.606  10.893  -9.192  1.00  0.00     0.000 C 
BRANCH   8   9
ATOM      9  C   UNL     1      -5.608  10.252  -7.792  1.00  0.00     0.000 C 
BRANCH   9  10
ATOM     10  C   UNL     1      -4.246   9.719  -7.314  1.00  0.00     0.006 C 
BRANCH  10  11
ATOM     11  C   UNL     1      -3.795   8.463  -8.070  1.00  0.00     0.053 C 
BRANCH  11  12
ATOM     12  C   UNL     1      -3.894   7.258  -7.187  1.00  0.00     0.041 C 
ATOM     13  O   UNL     1      -2.937   6.946  -6.431  1.00  0.00    -0.550 OA
ATOM     14  O   UNL     1      -5.056   6.494  -7.180  1.00  0.00    -0.550 OA
ENDBRANCH  11  12
ENDBRANCH  10  11
ENDBRANCH   9  10
ENDBRANCH   8   9
ENDBRANCH   7   8
ENDBRANCH   6   7
ENDBRANCH   5   6
ENDBRANCH   4   5
ENDBRANCH   3   4
ENDBRANCH   2   3
ENDBRANCH   1   2
BRANCH   1  15
ATOM     15  C   UNL     1     -10.935   5.487 -10.222  1.00  0.00     0.000 C 
BRANCH  15  16
ATOM     16  C   UNL     1     -11.081   4.330  -9.210  1.00  0.00     0.000 C 
BRANCH  16  17
ATOM     17  C   UNL     1     -10.514   2.992  -9.716  1.00  0.00     0.000 C 
BRANCH  17  18
ATOM     18  C   UNL     1      -9.255   2.552  -8.958  1.00  0.00    -0.000 C 
BRANCH  18  19
ATOM     19  C   UNL     1      -9.432   1.149  -8.360  1.00  0.00    -0.000 C 
BRANCH  19  20
ATOM     20  C   UNL     1     -10.473   1.109  -7.227  1.00  0.00    -0.000 C 
BRANCH  20  21
ATOM     21  C   UNL     1      -9.890   1.116  -5.798  1.00  0.00    -0.000 C 
BRANCH  21  22
ATOM     22  C   UNL     1     -10.333   2.299  -4.917  1.00  0.00    -0.000 C 
BRANCH  22  23
ATOM     23  C   UNL     1     -10.809   3.541  -5.697  1.00  0.00    -0.000 C 
BRANCH  23  24
ATOM     24  C   UNL     1     -10.389   4.881  -5.051  1.00  0.00    -0.000 C 
BRANCH  24  25
ATOM     25  C   UNL     1      -9.984   5.967  -6.063  1.00  0.00    -0.003 C 
ATOM     26  C   UNL     1      -8.620   6.585  -5.755  1.00  0.00     0.004 C 
ENDBRANCH  24  25
ENDBRANCH  23  24
ENDBRANCH  22  23
ENDBRANCH  21  22
ENDBRANCH  20  21
ENDBRANCH  19  20
ENDBRANCH  18  19
ENDBRANCH  17  18
ENDBRANCH  16  17
ENDBRANCH  15  16
ENDBRANCH   1  15
TORSDOF 22
ENDMDL
MODEL 3
REMARK VINA RESULT:    -4.745      2.226      3.705
REMARK INTER + INTRA:         -14.193
REMARK INTER:                 -10.951
REMARK INTRA:                  -3.242
REMARK UNBOUND:                -3.347
REMARK SMILES CCCCCCCCCCCCCCCCCCCCCCCC(=O)[O-]
REMARK SMILES IDX 13 1 14 2 15 3 16 4 17 5 18 6 19 7 20 8 21 9 22 10 23 11
REMARK SMILES IDX 24 12 25 13 26 14 12 15 11 16 10 17 9 18 8 19 7 20 6 21 5 22
REMARK SMILES IDX 4 23 3 24 2 25 1 26
REMARK H PARENT
REMARK Flexibility Score: inf
ROOT
ATOM      1  C   UNL     1      -7.829   6.986  -8.779  1.00  0.00     0.000 C 
ENDROOT
BRANCH   1   2
ATOM      2  C   UNL     1      -6.625   6.484  -9.590  1.00  0.00     0.000 C 
BRANCH   2   3
ATOM      3  C   UNL     1      -5.499   5.927  -8.701  1.00  0.00     0.000 C 
BRANCH   3   4
ATOM      4  C   UNL     1      -5.596   6.303  -7.208  1.00  0.00     0.000 C 
BRANCH   4   5
ATOM      5  C   UNL     1      -4.245   6.436  -6.481  1.00  0.00     0.000 C 
BRANCH   5   6
ATOM      6  C   UNL     1      -3.227   7.275  -7.272  1.00  0.00     0.000 C 
BRANCH   6   7
ATOM      7  C   UNL     1      -3.309   8.772  -6.932  1.00  0.00     0.000 C 
BRANCH   7   8
ATOM      8  C   UNL     1      -4.537   9.449  -7.565  1.00  0.00     0.000 C 
BRANCH   8   9
ATOM      9  C   UNL     1      -4.384   9.675  -9.081  1.00  0.00     0.000 C 
BRANCH   9  10
ATOM     10  C   UNL     1      -5.699   9.922  -9.841  1.00  0.00     0.006 C 
BRANCH  10  11
ATOM     11  C   UNL     1      -6.421  11.198  -9.389  1.00  0.00     0.053 C 
BRANCH  11  12
ATOM     12  C   UNL     1      -7.854  11.168  -9.820  1.00  0.00     0.041 C 
ATOM     13  O   UNL     1      -8.626  12.118  -9.524  1.00  0.00    -0.550 OA
ATOM     14  O   UNL     1      -8.332  10.102 -10.575  1.00  0.00    -0.550 OA
ENDBRANCH  11  12
ENDBRANCH  10  11
ENDBRANCH   9  10
ENDBRANCH   8   9
ENDBRANCH   7   8
ENDBRANCH   6   7
ENDBRANCH   5   6
ENDBRANCH   4   5
ENDBRANCH   3   4
ENDBRANCH   2   3
ENDBRANCH   1   2
BRANCH   1  15
ATOM     15  C   UNL     1      -9.143   6.755  -9.542  1.00  0.00     0.000 C 
BRANCH  15  16
ATOM     16  C   UNL     1     -10.263   6.217  -8.625  1.00  0.00     0.000 C 
BRANCH  16  17
ATOM     17  C   UNL     1      -9.808   5.965  -7.177  1.00  0.00     0.000 C 
BRANCH  17  18
ATOM     18  C   UNL     1     -10.874   5.256  -6.330  1.00  0.00    -0.000 C 
BRANCH  18  19
ATOM     19  C   UNL     1     -10.305   4.830  -4.969  1.00  0.00    -0.000 C 
BRANCH  19  20
ATOM     20  C   UNL     1     -10.387   3.311  -4.735  1.00  0.00    -0.000 C 
BRANCH  20  21
ATOM     21  C   UNL     1     -10.826   2.481  -5.961  1.00  0.00    -0.000 C 
BRANCH  21  22
ATOM     22  C   UNL     1      -9.964   1.239  -6.252  1.00  0.00    -0.000 C 
BRANCH  22  23
ATOM     23  C   UNL     1      -9.492   1.110  -7.714  1.00  0.00    -0.000 C 
BRANCH  23  24
ATOM     24  C   UNL     1     -10.384   1.867  -8.724  1.00  0.00    -0.000 C 
BRANCH  24  25
ATOM     25  C   UNL     1      -9.666   3.011  -9.462  1.00  0.00    -0.003 C 
ATOM     26  C   UNL     1      -8.181   3.102  -9.112  1.00  0.00     0.004 C 
ENDBRANCH  24  25
ENDBRANCH  23  24
ENDBRANCH  22  23
ENDBRANCH  21  22
ENDBRANCH  20  21
ENDBRANCH  19  20
ENDBRANCH  18  19
ENDBRANCH  17  18
ENDBRANCH  16  17
ENDBRANCH  15  16
ENDBRANCH   1  15
TORSDOF 22
ENDMDL
MODEL 4
REMARK VINA RESULT:    -4.703      2.530      8.113
REMARK INTER + INTRA:         -14.099
REMARK INTER:                 -11.297
REMARK INTRA:                  -2.801
REMARK UNBOUND:                -3.347
REMARK SMILES CCCCCCCCCCCCCCCCCCCCCCCC(=O)[O-]
REMARK SMILES IDX 13 1 14 2 15 3 16 4 17 5 18 6 19 7 20 8 21 9 22 10 23 11
REMARK SMILES IDX 24 12 25 13 26 14 12 15 11 16 10 17 9 18 8 19 7 20 6 21 5 22
REMARK SMILES IDX 4 23 3 24 2 25 1 26
REMARK H PARENT
REMARK Flexibility Score: inf
ROOT
ATOM      1  C   UNL     1      -7.181   6.079  -9.664  1.00  0.00     0.000 C 
ENDROOT
BRANCH   1   2
ATOM      2  C   UNL     1      -8.276   6.833  -8.895  1.00  0.00     0.000 C 
BRANCH   2   3
ATOM      3  C   UNL     1      -9.608   6.063  -8.846  1.00  0.00     0.000 C 
BRANCH   3   4
ATOM      4  C   UNL     1     -10.238   5.934  -7.443  1.00  0.00     0.000 C 
BRANCH   4   5
ATOM      5  C   UNL     1      -9.299   6.277  -6.273  1.00  0.00     0.000 C 
BRANCH   5   6
ATOM      6  C   UNL     1      -9.746   5.640  -4.947  1.00  0.00     0.000 C 
BRANCH   6   7
ATOM      7  C   UNL     1     -10.727   4.475  -5.156  1.00  0.00     0.000 C 
BRANCH   7   8
ATOM      8  C   UNL     1     -10.257   3.184  -4.463  1.00  0.00     0.000 C 
BRANCH   8   9
ATOM      9  C   UNL     1     -10.376   1.941  -5.365  1.00  0.00     0.000 C 
BRANCH   9  10
ATOM     10  C   UNL     1     -10.568   2.236  -6.862  1.00  0.00     0.006 C 
BRANCH  10  11
ATOM     11  C   UNL     1     -10.717   0.965  -7.709  1.00  0.00     0.053 C 
BRANCH  11  12
ATOM     12  C   UNL     1      -9.529   0.789  -8.602  1.00  0.00     0.041 C 
ATOM     13  O   UNL     1      -8.616   1.657  -8.621  1.00  0.00    -0.550 OA
ATOM     14  O   UNL     1      -9.415  -0.349  -9.393  1.00  0.00    -0.550 OA
ENDBRANCH  11  12
ENDBRANCH  10  11
ENDBRANCH   9  10
ENDBRANCH   8   9
ENDBRANCH   7   8
ENDBRANCH   6   7
ENDBRANCH   5   6
ENDBRANCH   4   5
ENDBRANCH   3   4
ENDBRANCH   2   3
ENDBRANCH   1   2
BRANCH   1  15
ATOM     15  C   UNL     1      -5.785   6.443  -9.135  1.00  0.00     0.000 C 
BRANCH  15  16
ATOM     16  C   UNL     1      -5.637   6.145  -7.627  1.00  0.00     0.000 C 
BRANCH  16  17
ATOM     17  C   UNL     1      -4.287   6.591  -7.039  1.00  0.00     0.000 C 
BRANCH  17  18
ATOM     18  C   UNL     1      -3.634   7.729  -7.836  1.00  0.00    -0.000 C 
BRANCH  18  19
ATOM     19  C   UNL     1      -3.204   8.876  -6.911  1.00  0.00    -0.000 C 
BRANCH  19  20
ATOM     20  C   UNL     1      -4.129  10.102  -7.009  1.00  0.00    -0.000 C 
BRANCH  20  21
ATOM     21  C   UNL     1      -5.584   9.795  -7.422  1.00  0.00    -0.000 C 
BRANCH  21  22
ATOM     22  C   UNL     1      -6.265  10.882  -8.275  1.00  0.00    -0.000 C 
BRANCH  22  23
ATOM     23  C   UNL     1      -5.720  11.009  -9.711  1.00  0.00    -0.000 C 
BRANCH  23  24
ATOM     24  C   UNL     1      -5.729   9.680 -10.500  1.00  0.00    -0.000 C 
BRANCH  24  25
ATOM     25  C   UNL     1      -6.892   9.550 -11.499  1.00  0.00    -0.003 C 
ATOM     26  C   UNL     1      -8.261   9.732 -10.842  1.00  0.00     0.004 C 
ENDBRANCH  24  25
ENDBRANCH  23  24
ENDBRANCH  22  23
ENDBRANCH  21  22
ENDBRANCH  20  21
ENDBRANCH  19  20
ENDBRANCH  18  19
ENDBRANCH  17  18
ENDBRANCH  16  17
ENDBRANCH  15  16
ENDBRANCH   1  15
TORSDOF 22
ENDMDL
MODEL 5
REMARK VINA RESULT:    -4.594      2.183      4.220
REMARK INTER + INTRA:         -13.850
REMARK INTER:                 -11.263
REMARK INTRA:                  -2.587
REMARK UNBOUND:                -3.347
REMARK SMILES CCCCCCCCCCCCCCCCCCCCCCCC(=O)[O-]
REMARK SMILES IDX 13 1 14 2 15 3 16 4 17 5 18 6 19 7 20 8 21 9 22 10 23 11
REMARK SMILES IDX 24 12 25 13 26 14 12 15 11 16 10 17 9 18 8 19 7 20 6 21 5 22
REMARK SMILES IDX 4 23 3 24 2 25 1 26
REMARK H PARENT
REMARK Flexibility Score: inf
ROOT
ATOM      1  C   UNL     1      -9.138   6.563  -9.729  1.00  0.00     0.000 C 
ENDROOT
BRANCH   1   2
ATOM      2  C   UNL     1      -7.995   6.681  -8.710  1.00  0.00     0.000 C 
BRANCH   2   3
ATOM      3  C   UNL     1      -6.734   5.908  -9.138  1.00  0.00     0.000 C 
BRANCH   3   4
ATOM      4  C   UNL     1      -5.403   6.657  -8.922  1.00  0.00     0.000 C 
BRANCH   4   5
ATOM      5  C   UNL     1      -4.887   6.664  -7.472  1.00  0.00     0.000 C 
BRANCH   5   6
ATOM      6  C   UNL     1      -3.580   7.458  -7.311  1.00  0.00     0.000 C 
BRANCH   6   7
ATOM      7  C   UNL     1      -3.822   8.892  -6.810  1.00  0.00     0.000 C 
BRANCH   7   8
ATOM      8  C   UNL     1      -4.167   9.861  -7.954  1.00  0.00     0.000 C 
BRANCH   8   9
ATOM      9  C   UNL     1      -5.619  10.373  -7.890  1.00  0.00     0.000 C 
BRANCH   9  10
ATOM     10  C   UNL     1      -6.180  10.910  -9.218  1.00  0.00     0.006 C 
BRANCH  10  11
ATOM     11  C   UNL     1      -5.803  10.041 -10.424  1.00  0.00     0.053 C 
BRANCH  11  12
ATOM     12  C   UNL     1      -7.024   9.677 -11.210  1.00  0.00     0.041 C 
ATOM     13  O   UNL     1      -8.168   9.795 -10.695  1.00  0.00    -0.550 OA
ATOM     14  O   UNL     1      -6.901   9.235 -12.522  1.00  0.00    -0.550 OA
ENDBRANCH  11  12
ENDBRANCH  10  11
ENDBRANCH   9  10
ENDBRANCH   8   9
ENDBRANCH   7   8
ENDBRANCH   6   7
ENDBRANCH   5   6
ENDBRANCH   4   5
ENDBRANCH   3   4
ENDBRANCH   2   3
ENDBRANCH   1   2
BRANCH   1  15
ATOM     15  C   UNL     1     -10.225   5.598  -9.232  1.00  0.00     0.000 C 
BRANCH  15  16
ATOM     16  C   UNL     1      -9.764   4.125  -9.280  1.00  0.00     0.000 C 
BRANCH  16  17
ATOM     17  C   UNL     1     -10.881   3.140  -9.664  1.00  0.00     0.000 C 
BRANCH  17  18
ATOM     18  C   UNL     1     -10.450   1.672  -9.548  1.00  0.00    -0.000 C 
BRANCH  18  19
ATOM     19  C   UNL     1      -9.326   1.506  -8.515  1.00  0.00    -0.000 C 
BRANCH  19  20
ATOM     20  C   UNL     1      -9.646   0.444  -7.448  1.00  0.00    -0.000 C 
BRANCH  20  21
ATOM     21  C   UNL     1      -9.972   1.000  -6.045  1.00  0.00    -0.000 C 
BRANCH  21  22
ATOM     22  C   UNL     1     -10.589   2.411  -6.029  1.00  0.00    -0.000 C 
BRANCH  22  23
ATOM     23  C   UNL     1     -10.512   3.132  -4.669  1.00  0.00    -0.000 C 
BRANCH  23  24
ATOM     24  C   UNL     1     -10.855   4.638  -4.743  1.00  0.00    -0.000 C 
BRANCH  24  25
ATOM     25  C   UNL     1      -9.960   5.440  -5.703  1.00  0.00    -0.003 C 
ATOM     26  C   UNL     1      -8.819   6.162  -4.985  1.00  0.00     0.004 C 
ENDBRANCH  24  25
ENDBRANCH  23  24
ENDBRANCH  22  23
ENDBRANCH  21  22
ENDBRANCH  20  21
ENDBRANCH  19  20
ENDBRANCH  18  19
ENDBRANCH  17  18
ENDBRANCH  16  17
ENDBRANCH  15  16
ENDBRANCH   1  15
TORSDOF 22
ENDMDL
MODEL 6
REMARK VINA RESULT:    -4.475     13.037     16.214
REMARK INTER + INTRA:         -13.577
REMARK INTER:                 -10.291
REMARK INTRA:                  -3.286
REMARK UNBOUND:                -3.347
REMARK SMILES CCCCCCCCCCCCCCCCCCCCCCCC(=O)[O-]
REMARK SMILES IDX 13 1 14 2 15 3 16 4 17 5 18 6 19 7 20 8 21 9 22 10 23 11
REMARK SMILES IDX 24 12 25 13 26 14 12 15 11 16 10 17 9 18 8 19 7 20 6 21 5 22
REMARK SMILES IDX 4 23 3 24 2 25 1 26
REMARK H PARENT
REMARK Flexibility Score: inf
ROOT
ATOM      1  C   UNL     1       0.897  12.595 -14.434  1.00  0.00     0.000 C 
ENDROOT
BRANCH   1   2
ATOM      2  C   UNL     1       0.104  12.717 -15.743  1.00  0.00     0.000 C 
BRANCH   2   3
ATOM      3  C   UNL     1       0.769  13.669 -16.755  1.00  0.00     0.000 C 
BRANCH   3   4
ATOM      4  C   UNL     1       2.282  13.891 -16.549  1.00  0.00     0.000 C 
BRANCH   4   5
ATOM      5  C   UNL     1       2.938  14.861 -17.548  1.00  0.00     0.000 C 
BRANCH   5   6
ATOM      6  C   UNL     1       3.568  16.084 -16.860  1.00  0.00     0.000 C 
BRANCH   6   7
ATOM      7  C   UNL     1       2.663  17.325 -16.924  1.00  0.00     0.000 C 
BRANCH   7   8
ATOM      8  C   UNL     1       1.575  17.200 -18.004  1.00  0.00     0.000 C 
BRANCH   8   9
ATOM      9  C   UNL     1       0.152  17.125 -17.419  1.00  0.00     0.000 C 
BRANCH   9  10
ATOM     10  C   UNL     1       0.049  17.420 -15.912  1.00  0.00     0.006 C 
BRANCH  10  11
ATOM     11  C   UNL     1      -0.950  16.507 -15.189  1.00  0.00     0.053 C 
BRANCH  11  12
ATOM     12  C   UNL     1      -2.293  17.163 -15.105  1.00  0.00     0.041 C 
ATOM     13  O   UNL     1      -3.173  16.918 -15.971  1.00  0.00    -0.550 OA
ATOM     14  O   UNL     1      -2.581  18.026 -14.054  1.00  0.00    -0.550 OA
ENDBRANCH  11  12
ENDBRANCH  10  11
ENDBRANCH   9  10
ENDBRANCH   8   9
ENDBRANCH   7   8
ENDBRANCH   6   7
ENDBRANCH   5   6
ENDBRANCH   4   5
ENDBRANCH   3   4
ENDBRANCH   2   3
ENDBRANCH   1   2
BRANCH   1  15
ATOM     15  C   UNL     1       1.372  11.151 -14.208  1.00  0.00     0.000 C 
BRANCH  15  16
ATOM     16  C   UNL     1       1.412  10.338 -15.521  1.00  0.00     0.000 C 
BRANCH  16  17
ATOM     17  C   UNL     1       2.820  10.216 -16.128  1.00  0.00     0.000 C 
BRANCH  17  18
ATOM     18  C   UNL     1       3.910  10.834 -15.241  1.00  0.00    -0.000 C 
BRANCH  18  19
ATOM     19  C   UNL     1       5.269  10.166 -15.490  1.00  0.00    -0.000 C 
BRANCH  19  20
ATOM     20  C   UNL     1       6.373  11.175 -15.857  1.00  0.00    -0.000 C 
BRANCH  20  21
ATOM     21  C   UNL     1       5.871  12.510 -16.448  1.00  0.00    -0.000 C 
BRANCH  21  22
ATOM     22  C   UNL     1       6.178  13.757 -15.598  1.00  0.00    -0.000 C 
BRANCH  22  23
ATOM     23  C   UNL     1       5.904  13.593 -14.090  1.00  0.00    -0.000 C 
BRANCH  23  24
ATOM     24  C   UNL     1       7.171  13.706 -13.211  1.00  0.00    -0.000 C 
BRANCH  24  25
ATOM     25  C   UNL     1       7.218  12.704 -12.045  1.00  0.00    -0.003 C 
ATOM     26  C   UNL     1       8.367  12.979 -11.074  1.00  0.00     0.004 C 
ENDBRANCH  24  25
ENDBRANCH  23  24
ENDBRANCH  22  23
ENDBRANCH  21  22
ENDBRANCH  20  21
ENDBRANCH  19  20
ENDBRANCH  18  19
ENDBRANCH  17  18
ENDBRANCH  16  17
ENDBRANCH  15  16
ENDBRANCH   1  15
TORSDOF 22
ENDMDL
MODEL 7
REMARK VINA RESULT:    -4.412      2.948      8.000
REMARK INTER + INTRA:         -13.433
REMARK INTER:                 -11.168
REMARK INTRA:                  -2.265
REMARK UNBOUND:                -3.347
REMARK SMILES CCCCCCCCCCCCCCCCCCCCCCCC(=O)[O-]
REMARK SMILES IDX 13 1 14 2 15 3 16 4 17 5 18 6 19 7 20 8 21 9 22 10 23 11
REMARK SMILES IDX 24 12 25 13 26 14 12 15 11 16 10 17 9 18 8 19 7 20 6 21 5 22
REMARK SMILES IDX 4 23 3 24 2 25 1 26
REMARK H PARENT
REMARK Flexibility Score: inf
ROOT
ATOM      1  C   UNL     1      -4.957   5.327  -8.253  1.00  0.00     0.000 C 
ENDROOT
BRANCH   1   2
ATOM      2  C   UNL     1      -6.366   5.296  -8.862  1.00  0.00     0.000 C 
BRANCH   2   3
ATOM      3  C   UNL     1      -7.009   6.692  -8.946  1.00  0.00     0.000 C 
BRANCH   3   4
ATOM      4  C   UNL     1      -8.542   6.698  -9.122  1.00  0.00     0.000 C 
BRANCH   4   5
ATOM      5  C   UNL     1      -9.339   6.221  -7.895  1.00  0.00     0.000 C 
BRANCH   5   6
ATOM      6  C   UNL     1     -10.442   5.213  -8.260  1.00  0.00     0.000 C 
BRANCH   6   7
ATOM      7  C   UNL     1     -10.459   4.878  -9.761  1.00  0.00     0.000 C 
BRANCH   7   8
ATOM      8  C   UNL     1     -10.550   3.365 -10.022  1.00  0.00     0.000 C 
BRANCH   8   9
ATOM      9  C   UNL     1     -10.611   2.534  -8.726  1.00  0.00     0.000 C 
BRANCH   9  10
ATOM     10  C   UNL     1      -9.333   1.743  -8.396  1.00  0.00     0.006 C 
BRANCH  10  11
ATOM     11  C   UNL     1      -9.619   0.309  -7.933  1.00  0.00     0.053 C 
BRANCH  11  12
ATOM     12  C   UNL     1      -9.580   0.224  -6.439  1.00  0.00     0.041 C 
ATOM     13  O   UNL     1      -9.169  -0.825  -5.874  1.00  0.00    -0.550 OA
ATOM     14  O   UNL     1      -9.971   1.313  -5.669  1.00  0.00    -0.550 OA
ENDBRANCH  11  12
ENDBRANCH  10  11
ENDBRANCH   9  10
ENDBRANCH   8   9
ENDBRANCH   7   8
ENDBRANCH   6   7
ENDBRANCH   5   6
ENDBRANCH   4   5
ENDBRANCH   3   4
ENDBRANCH   2   3
ENDBRANCH   1   2
BRANCH   1  15
ATOM     15  C   UNL     1      -4.944   6.103  -6.927  1.00  0.00     0.000 C 
BRANCH  15  16
ATOM     16  C   UNL     1      -3.510   6.400  -6.438  1.00  0.00     0.000 C 
BRANCH  16  17
ATOM     17  C   UNL     1      -3.018   7.815  -6.790  1.00  0.00     0.000 C 
BRANCH  17  18
ATOM     18  C   UNL     1      -3.958   8.552  -7.754  1.00  0.00    -0.000 C 
BRANCH  18  19
ATOM     19  C   UNL     1      -4.637   9.743  -7.062  1.00  0.00    -0.000 C 
BRANCH  19  20
ATOM     20  C   UNL     1      -5.669  10.447  -7.961  1.00  0.00    -0.000 C 
BRANCH  20  21
ATOM     21  C   UNL     1      -5.073  11.280  -9.116  1.00  0.00    -0.000 C 
BRANCH  21  22
ATOM     22  C   UNL     1      -4.850  10.510 -10.431  1.00  0.00    -0.000 C 
BRANCH  22  23
ATOM     23  C   UNL     1      -5.770   9.288 -10.625  1.00  0.00    -0.000 C 
BRANCH  23  24
ATOM     24  C   UNL     1      -6.774   9.445 -11.790  1.00  0.00    -0.000 C 
BRANCH  24  25
ATOM     25  C   UNL     1      -8.240   9.578 -11.342  1.00  0.00    -0.003 C 
ATOM     26  C   UNL     1      -8.431  10.623 -10.243  1.00  0.00     0.004 C 
ENDBRANCH  24  25
ENDBRANCH  23  24
ENDBRANCH  22  23
ENDBRANCH  21  22
ENDBRANCH  20  21
ENDBRANCH  19  20
ENDBRANCH  18  19
ENDBRANCH  17  18
ENDBRANCH  16  17
ENDBRANCH  15  16
ENDBRANCH   1  15
TORSDOF 22
ENDMDL
MODEL 8
REMARK VINA RESULT:    -4.361     12.973     16.359
REMARK INTER + INTRA:         -13.316
REMARK INTER:                 -10.071
REMARK INTRA:                  -3.245
REMARK UNBOUND:                -3.347
REMARK SMILES CCCCCCCCCCCCCCCCCCCCCCCC(=O)[O-]
REMARK SMILES IDX 13 1 14 2 15 3 16 4 17 5 18 6 19 7 20 8 21 9 22 10 23 11
REMARK SMILES IDX 24 12 25 13 26 14 12 15 11 16 10 17 9 18 8 19 7 20 6 21 5 22
REMARK SMILES IDX 4 23 3 24 2 25 1 26
REMARK H PARENT
REMARK Flexibility Score: inf
ROOT
ATOM      1  C   UNL     1       0.638  13.600 -15.772  1.00  0.00     0.000 C 
ENDROOT
BRANCH   1   2
ATOM      2  C   UNL     1       0.063  12.394 -15.015  1.00  0.00     0.000 C 
BRANCH   2   3
ATOM      3  C   UNL     1       1.156  11.507 -14.391  1.00  0.00     0.000 C 
BRANCH   3   4
ATOM      4  C   UNL     1       1.467  10.210 -15.167  1.00  0.00     0.000 C 
BRANCH   4   5
ATOM      5  C   UNL     1       2.717  10.272 -16.063  1.00  0.00     0.000 C 
BRANCH   5   6
ATOM      6  C   UNL     1       3.909  10.956 -15.371  1.00  0.00     0.000 C 
BRANCH   6   7
ATOM      7  C   UNL     1       5.233  10.212 -15.611  1.00  0.00     0.000 C 
BRANCH   7   8
ATOM      8  C   UNL     1       6.438  11.167 -15.668  1.00  0.00     0.000 C 
BRANCH   8   9
ATOM      9  C   UNL     1       6.039  12.619 -15.996  1.00  0.00     0.000 C 
BRANCH   9  10
ATOM     10  C   UNL     1       6.489  13.669 -14.965  1.00  0.00     0.006 C 
BRANCH  10  11
ATOM     11  C   UNL     1       6.120  13.292 -13.525  1.00  0.00     0.053 C 
BRANCH  11  12
ATOM     12  C   UNL     1       7.327  13.350 -12.642  1.00  0.00     0.041 C 
ATOM     13  O   UNL     1       7.653  12.352 -11.946  1.00  0.00    -0.550 OA
ATOM     14  O   UNL     1       8.110  14.498 -12.609  1.00  0.00    -0.550 OA
ENDBRANCH  11  12
ENDBRANCH  10  11
ENDBRANCH   9  10
ENDBRANCH   8   9
ENDBRANCH   7   8
ENDBRANCH   6   7
ENDBRANCH   5   6
ENDBRANCH   4   5
ENDBRANCH   3   4
ENDBRANCH   2   3
ENDBRANCH   1   2
BRANCH   1  15
ATOM     15  C   UNL     1       0.856  13.268 -17.257  1.00  0.00     0.000 C 
BRANCH  15  16
ATOM     16  C   UNL     1       2.106  13.966 -17.834  1.00  0.00     0.000 C 
BRANCH  16  17
ATOM     17  C   UNL     1       3.151  14.341 -16.769  1.00  0.00     0.000 C 
BRANCH  17  18
ATOM     18  C   UNL     1       3.519  15.830 -16.790  1.00  0.00    -0.000 C 
BRANCH  18  19
ATOM     19  C   UNL     1       2.646  16.601 -17.790  1.00  0.00    -0.000 C 
BRANCH  19  20
ATOM     20  C   UNL     1       1.613  17.513 -17.103  1.00  0.00    -0.000 C 
BRANCH  20  21
ATOM     21  C   UNL     1       0.195  17.474 -17.710  1.00  0.00    -0.000 C 
BRANCH  21  22
ATOM     22  C   UNL     1      -0.926  17.086 -16.728  1.00  0.00    -0.000 C 
BRANCH  22  23
ATOM     23  C   UNL     1      -0.480  16.959 -15.258  1.00  0.00    -0.000 C 
BRANCH  23  24
ATOM     24  C   UNL     1      -0.975  18.113 -14.356  1.00  0.00    -0.000 C 
BRANCH  24  25
ATOM     25  C   UNL     1      -2.399  18.598 -14.680  1.00  0.00    -0.003 C 
ATOM     26  C   UNL     1      -3.480  17.774 -13.980  1.00  0.00     0.004 C 
ENDBRANCH  24  25
ENDBRANCH  23  24
ENDBRANCH  22  23
ENDBRANCH  21  22
ENDBRANCH  20  21
ENDBRANCH  19  20
ENDBRANCH  18  19
ENDBRANCH  17  18
ENDBRANCH  16  17
ENDBRANCH  15  16
ENDBRANCH   1  15
TORSDOF 22
ENDMDL
MODEL 9
REMARK VINA RESULT:    -4.348     13.524     16.679
REMARK INTER + INTRA:         -13.286
REMARK INTER:                 -10.433
REMARK INTRA:                  -2.853
REMARK UNBOUND:                -3.347
REMARK SMILES CCCCCCCCCCCCCCCCCCCCCCCC(=O)[O-]
REMARK SMILES IDX 13 1 14 2 15 3 16 4 17 5 18 6 19 7 20 8 21 9 22 10 23 11
REMARK SMILES IDX 24 12 25 13 26 14 12 15 11 16 10 17 9 18 8 19 7 20 6 21 5 22
REMARK SMILES IDX 4 23 3 24 2 25 1 26
REMARK H PARENT
REMARK Flexibility Score: inf
ROOT
ATOM      1  C   UNL     1       2.938  11.312 -13.961  1.00  0.00     0.000 C 
ENDROOT
BRANCH   1   2
ATOM      2  C   UNL     1       2.025  10.518 -14.907  1.00  0.00     0.000 C 
BRANCH   2   3
ATOM      3  C   UNL     1       1.018  11.412 -15.652  1.00  0.00     0.000 C 
BRANCH   3   4
ATOM      4  C   UNL     1       1.497  12.854 -15.923  1.00  0.00     0.000 C 
BRANCH   4   5
ATOM      5  C   UNL     1       1.719  13.197 -17.407  1.00  0.00     0.000 C 
BRANCH   5   6
ATOM      6  C   UNL     1       3.209  13.293 -17.776  1.00  0.00     0.000 C 
BRANCH   6   7
ATOM      7  C   UNL     1       3.659  14.741 -18.034  1.00  0.00     0.000 C 
BRANCH   7   8
ATOM      8  C   UNL     1       3.303  15.680 -16.868  1.00  0.00     0.000 C 
BRANCH   8   9
ATOM      9  C   UNL     1       2.332  16.804 -17.276  1.00  0.00     0.000 C 
BRANCH   9  10
ATOM     10  C   UNL     1       0.973  16.787 -16.555  1.00  0.00     0.006 C 
BRANCH  10  11
ATOM     11  C   UNL     1      -0.187  16.379 -17.473  1.00  0.00     0.053 C 
BRANCH  11  12
ATOM     12  C   UNL     1      -1.379  15.977 -16.663  1.00  0.00     0.041 C 
ATOM     13  O   UNL     1      -1.574  16.485 -15.527  1.00  0.00    -0.550 OA
ATOM     14  O   UNL     1      -2.291  15.060 -17.174  1.00  0.00    -0.550 OA
ENDBRANCH  11  12
ENDBRANCH  10  11
ENDBRANCH   9  10
ENDBRANCH   8   9
ENDBRANCH   7   8
ENDBRANCH   6   7
ENDBRANCH   5   6
ENDBRANCH   4   5
ENDBRANCH   3   4
ENDBRANCH   2   3
ENDBRANCH   1   2
BRANCH   1  15
ATOM     15  C   UNL     1       4.400  10.856 -14.093  1.00  0.00     0.000 C 
BRANCH  15  16
ATOM     16  C   UNL     1       4.859  10.787 -15.566  1.00  0.00     0.000 C 
BRANCH  16  17
ATOM     17  C   UNL     1       6.349  11.111 -15.765  1.00  0.00     0.000 C 
BRANCH  17  18
ATOM     18  C   UNL     1       6.584  12.513 -16.342  1.00  0.00    -0.000 C 
BRANCH  18  19
ATOM     19  C   UNL     1       5.972  13.593 -15.440  1.00  0.00    -0.000 C 
BRANCH  19  20
ATOM     20  C   UNL     1       6.932  14.061 -14.332  1.00  0.00    -0.000 C 
BRANCH  20  21
ATOM     21  C   UNL     1       6.708  13.411 -12.950  1.00  0.00    -0.000 C 
BRANCH  21  22
ATOM     22  C   UNL     1       7.991  12.999 -12.205  1.00  0.00    -0.000 C 
BRANCH  22  23
ATOM     23  C   UNL     1       7.757  12.341 -10.831  1.00  0.00    -0.000 C 
BRANCH  23  24
ATOM     24  C   UNL     1       8.743  11.193 -10.514  1.00  0.00    -0.000 C 
BRANCH  24  25
ATOM     25  C   UNL     1       8.133   9.786 -10.645  1.00  0.00    -0.003 C 
ATOM     26  C   UNL     1       7.528   9.529 -12.026  1.00  0.00     0.004 C 
ENDBRANCH  24  25
ENDBRANCH  23  24
ENDBRANCH  22  23
ENDBRANCH  21  22
ENDBRANCH  20  21
ENDBRANCH  19  20
ENDBRANCH  18  19
ENDBRANCH  17  18
ENDBRANCH  16  17
ENDBRANCH  15  16
ENDBRANCH   1  15
TORSDOF 22
ENDMDL
