MODEL 1
REMARK VINA RESULT:    -3.183      0.000      0.000
REMARK INTER + INTRA:          -5.318
REMARK INTER:                  -4.857
REMARK INTRA:                  -0.461
REMARK UNBOUND:                -0.461
REMARK SMILES CC1=CCC[C@H](C)C(=O)C[C@H](C(C)C)C(=O)C1
REMARK SMILES IDX 8 1 9 2 6 3 7 4 5 5 4 6 3 7 2 8 1 9 10 11 11 12 15 13 16 14
REMARK SMILES IDX 17 15 12 17 13 18 14 19
REMARK H PARENT
REMARK Flexibility Score: 70.00
ROOT
ATOM      1  C   UNL     1       1.821  11.401  18.657  1.00  0.00     0.136 C 
ATOM      2  O   UNL     1       3.035  11.542  18.680  1.00  0.00    -0.299 OA
ENDROOT
BRANCH   1   3
ATOM      3  C   UNL     1       1.217  10.511  17.586  1.00  0.00     0.053 C 
ATOM      4  C   UNL     1       1.758  10.836  16.186  1.00  0.00     0.016 C 
BRANCH   3   5
ATOM      5  C   UNL     1       1.274   9.011  17.966  1.00  0.00     0.015 C 
BRANCH   5   6
ATOM      6  C   UNL     1       0.011   8.446  18.646  1.00  0.00     0.028 C 
BRANCH   6   7
ATOM      7  C   UNL     1       0.161   8.458  20.144  1.00  0.00    -0.028 C 
ATOM      8  C   UNL     1      -0.652   9.131  20.991  1.00  0.00    -0.070 CG0
ATOM      9  C   UNL     1      -0.410   8.983  22.471  1.00  0.00     0.039 C 
ATOM     10  G   UNL     1      -1.777  10.038  20.515  1.00  0.00     0.000 G0
ENDBRANCH   6   7
ENDBRANCH   5   6
ENDBRANCH   3   5
ENDBRANCH   1   3
BRANCH   1  11
ATOM     11  C   UNL     1       0.999  12.105  19.716  1.00  0.00     0.087 C 
BRANCH  11  12
ATOM     12  C   UNL     1      -0.513  12.112  19.371  1.00  0.00     0.066 C 
BRANCH  12  13
ATOM     13  C   UNL     1      -1.372  11.510  20.479  1.00  0.00     0.140 C 
ATOM     14  O   UNL     1      -1.670  12.216  21.432  1.00  0.00    -0.299 OA
BRANCH  13  15
ATOM     15  C   UNL     1      -1.783  10.056  20.500  1.00  0.00     0.106 CG0
ATOM     16  G   UNL     1      -0.673   9.142  21.000  1.00  0.00     0.000 G0
ENDBRANCH  13  15
ENDBRANCH  12  13
BRANCH  12  17
ATOM     17  C   UNL     1      -1.007  13.505  18.868  1.00  0.00    -0.006 C 
ATOM     18  C   UNL     1      -1.377  13.565  17.377  1.00  0.00     0.008 C 
ATOM     19  C   UNL     1      -0.007  14.620  19.213  1.00  0.00     0.008 C 
ENDBRANCH  12  17
ENDBRANCH  11  12
ENDBRANCH   1  11
TORSDOF 1
ENDMDL
MODEL 2
REMARK VINA RESULT:    -3.142      2.603      4.353
REMARK INTER + INTRA:          -5.256
REMARK INTER:                  -4.922
REMARK INTRA:                  -0.334
REMARK UNBOUND:                -0.461
REMARK SMILES CC1=CCC[C@H](C)C(=O)C[C@H](C(C)C)C(=O)C1
REMARK SMILES IDX 8 1 9 2 6 3 7 4 5 5 4 6 3 7 2 8 1 9 10 11 11 12 15 13 16 14
REMARK SMILES IDX 17 15 12 17 13 18 14 19
REMARK H PARENT
REMARK Flexibility Score: 70.00
ROOT
ATOM      1  C   UNL     1       1.253   9.427  20.505  1.00  0.00     0.136 C 
ATOM      2  O   UNL     1       1.967   9.165  21.462  1.00  0.00    -0.299 OA
ENDROOT
BRANCH   1   3
ATOM      3  C   UNL     1       1.131   8.402  19.392  1.00  0.00     0.053 C 
ATOM      4  C   UNL     1      -0.318   8.237  18.909  1.00  0.00     0.016 C 
BRANCH   3   5
ATOM      5  C   UNL     1       2.164   8.633  18.263  1.00  0.00     0.015 C 
BRANCH   5   6
ATOM      6  C   UNL     1       1.732   9.608  17.151  1.00  0.00     0.028 C 
BRANCH   6   7
ATOM      7  C   UNL     1       2.729  10.726  17.002  1.00  0.00    -0.028 C 
ATOM      8  C   UNL     1       2.535  11.990  17.442  1.00  0.00    -0.070 CG0
ATOM      9  C   UNL     1       3.663  12.977  17.279  1.00  0.00     0.039 C 
ATOM     10  G   UNL     1       1.231  12.459  18.071  1.00  0.00     0.000 G0
ENDBRANCH   6   7
ENDBRANCH   5   6
ENDBRANCH   3   5
ENDBRANCH   1   3
BRANCH   1  11
ATOM     11  C   UNL     1       0.516  10.749  20.504  1.00  0.00     0.087 C 
BRANCH  11  12
ATOM     12  C   UNL     1       1.476  11.953  20.684  1.00  0.00     0.066 C 
BRANCH  12  13
ATOM     13  C   UNL     1       1.423  12.929  19.511  1.00  0.00     0.140 C 
ATOM     14  O   UNL     1       1.455  14.127  19.751  1.00  0.00    -0.299 OA
BRANCH  13  15
ATOM     15  C   UNL     1       1.231  12.482  18.080  1.00  0.00     0.106 CG0
ATOM     16  G   UNL     1       2.523  11.996  17.440  1.00  0.00     0.000 G0
ENDBRANCH  13  15
ENDBRANCH  12  13
BRANCH  12  17
ATOM     17  C   UNL     1       1.333  12.632  22.083  1.00  0.00    -0.006 C 
ATOM     18  C   UNL     1       2.569  12.519  22.990  1.00  0.00     0.008 C 
ATOM     19  C   UNL     1       0.082  12.140  22.826  1.00  0.00     0.008 C 
ENDBRANCH  12  17
ENDBRANCH  11  12
ENDBRANCH   1  11
TORSDOF 1
ENDMDL
MODEL 3
REMARK VINA RESULT:    -3.104      2.235      2.855
REMARK INTER + INTRA:          -5.198
REMARK INTER:                  -4.935
REMARK INTRA:                  -0.263
REMARK UNBOUND:                -0.461
REMARK SMILES CC1=CCC[C@H](C)C(=O)C[C@H](C(C)C)C(=O)C1
REMARK SMILES IDX 8 1 9 2 6 3 7 4 5 5 4 6 3 7 2 8 1 9 10 11 11 12 15 13 16 14
REMARK SMILES IDX 17 15 12 17 13 18 14 19
REMARK H PARENT
REMARK Flexibility Score: 70.00
ROOT
ATOM      1  C   UNL     1       0.790  10.790  18.978  1.00  0.00     0.136 C 
ATOM      2  O   UNL     1      -0.312  11.317  19.010  1.00  0.00    -0.299 OA
ENDROOT
BRANCH   1   3
ATOM      3  C   UNL     1       0.953   9.503  18.188  1.00  0.00     0.053 C 
ATOM      4  C   UNL     1       2.411   9.257  17.773  1.00  0.00     0.016 C 
BRANCH   3   5
ATOM      5  C   UNL     1       0.266   8.299  18.876  1.00  0.00     0.015 C 
BRANCH   5   6
ATOM      6  C   UNL     1       0.983   7.743  20.121  1.00  0.00     0.028 C 
BRANCH   6   7
ATOM      7  C   UNL     1       0.233   8.105  21.376  1.00  0.00    -0.028 C 
ATOM      8  C   UNL     1       0.667   8.993  22.298  1.00  0.00    -0.070 CG0
ATOM      9  C   UNL     1      -0.236   9.298  23.467  1.00  0.00     0.039 C 
ATOM     10  G   UNL     1       2.024   9.677  22.219  1.00  0.00     0.000 G0
ENDBRANCH   6   7
ENDBRANCH   5   6
ENDBRANCH   3   5
ENDBRANCH   1   3
BRANCH   1  11
ATOM     11  C   UNL     1       1.930  11.468  19.709  1.00  0.00     0.087 C 
BRANCH  11  12
ATOM     12  C   UNL     1       1.484  12.047  21.076  1.00  0.00     0.066 C 
BRANCH  12  13
ATOM     13  C   UNL     1       1.947  11.195  22.255  1.00  0.00     0.140 C 
ATOM     14  O   UNL     1       2.344  11.764  23.262  1.00  0.00    -0.299 OA
BRANCH  13  15
ATOM     15  C   UNL     1       2.032   9.687  22.195  1.00  0.00     0.106 CG0
ATOM     16  G   UNL     1       0.667   9.021  22.292  1.00  0.00     0.000 G0
ENDBRANCH  13  15
ENDBRANCH  12  13
BRANCH  12  17
ATOM     17  C   UNL     1       1.812  13.566  21.221  1.00  0.00    -0.006 C 
ATOM     18  C   UNL     1       0.601  14.507  21.114  1.00  0.00     0.008 C 
ATOM     19  C   UNL     1       2.913  14.004  20.242  1.00  0.00     0.008 C 
ENDBRANCH  12  17
ENDBRANCH  11  12
ENDBRANCH   1  11
TORSDOF 1
ENDMDL
MODEL 4
REMARK VINA RESULT:    -2.946      2.366      4.555
REMARK INTER + INTRA:          -4.956
REMARK INTER:                  -4.606
REMARK INTRA:                  -0.351
REMARK UNBOUND:                -0.461
REMARK SMILES CC1=CCC[C@H](C)C(=O)C[C@H](C(C)C)C(=O)C1
REMARK SMILES IDX 8 1 9 2 6 3 7 4 5 5 4 6 3 7 2 8 1 9 10 11 11 12 15 13 16 14
REMARK SMILES IDX 17 15 12 17 13 18 14 19
REMARK H PARENT
REMARK Flexibility Score: 70.00
ROOT
ATOM      1  C   UNL     1      -0.687  12.418  18.936  1.00  0.00     0.136 C 
ATOM      2  O   UNL     1      -1.677  13.080  19.210  1.00  0.00    -0.299 OA
ENDROOT
BRANCH   1   3
ATOM      3  C   UNL     1       0.391  13.052  18.075  1.00  0.00     0.053 C 
ATOM      4  C   UNL     1      -0.010  13.117  16.594  1.00  0.00     0.016 C 
BRANCH   3   5
ATOM      5  C   UNL     1       0.903  14.389  18.664  1.00  0.00     0.015 C 
BRANCH   5   6
ATOM      6  C   UNL     1       1.282  14.360  20.158  1.00  0.00     0.028 C 
BRANCH   6   7
ATOM      7  C   UNL     1       2.648  13.758  20.351  1.00  0.00    -0.028 C 
ATOM      8  C   UNL     1       2.890  12.599  21.004  1.00  0.00    -0.070 CG0
ATOM      9  C   UNL     1       4.311  12.096  21.050  1.00  0.00     0.039 C 
ATOM     10  G   UNL     1       1.803  11.800  21.707  1.00  0.00     0.000 G0
ENDBRANCH   6   7
ENDBRANCH   5   6
ENDBRANCH   3   5
ENDBRANCH   1   3
BRANCH   1  11
ATOM     11  C   UNL     1      -0.589  11.014  19.493  1.00  0.00     0.087 C 
BRANCH  11  12
ATOM     12  C   UNL     1       0.878  10.514  19.559  1.00  0.00     0.066 C 
BRANCH  12  13
ATOM     13  C   UNL     1       1.439  10.521  20.978  1.00  0.00     0.140 C 
ATOM     14  O   UNL     1       1.526   9.457  21.574  1.00  0.00    -0.299 OA
BRANCH  13  15
ATOM     15  C   UNL     1       1.794  11.794  21.714  1.00  0.00     0.106 CG0
ATOM     16  G   UNL     1       2.883  12.591  21.010  1.00  0.00     0.000 G0
ENDBRANCH  13  15
ENDBRANCH  12  13
BRANCH  12  17
ATOM     17  C   UNL     1       1.088   9.166  18.799  1.00  0.00    -0.006 C 
ATOM     18  C   UNL     1       1.562   9.307  17.343  1.00  0.00     0.008 C 
ATOM     19  C   UNL     1      -0.163   8.277  18.867  1.00  0.00     0.008 C 
ENDBRANCH  12  17
ENDBRANCH  11  12
ENDBRANCH   1  11
TORSDOF 1
ENDMDL
MODEL 5
REMARK VINA RESULT:    -2.904      3.401      5.167
REMARK INTER + INTRA:          -4.892
REMARK INTER:                  -4.578
REMARK INTRA:                  -0.314
REMARK UNBOUND:                -0.461
REMARK SMILES CC1=CCC[C@H](C)C(=O)C[C@H](C(C)C)C(=O)C1
REMARK SMILES IDX 8 1 9 2 6 3 7 4 5 5 4 6 3 7 2 8 1 9 10 11 11 12 15 13 16 14
REMARK SMILES IDX 17 15 12 17 13 18 14 19
REMARK H PARENT
REMARK Flexibility Score: 70.00
ROOT
ATOM      1  C   UNL     1       0.959  15.438  20.827  1.00  0.00     0.136 C 
ATOM      2  O   UNL     1       0.412  16.338  21.446  1.00  0.00    -0.299 OA
ENDROOT
BRANCH   1   3
ATOM      3  C   UNL     1       2.383  15.654  20.345  1.00  0.00     0.053 C 
ATOM      4  C   UNL     1       2.467  16.711  19.235  1.00  0.00     0.016 C 
BRANCH   3   5
ATOM      5  C   UNL     1       3.374  15.868  21.515  1.00  0.00     0.015 C 
BRANCH   5   6
ATOM      6  C   UNL     1       3.021  15.146  22.830  1.00  0.00     0.028 C 
BRANCH   6   7
ATOM      7  C   UNL     1       3.789  13.857  22.955  1.00  0.00    -0.028 C 
ATOM      8  C   UNL     1       3.243  12.625  22.843  1.00  0.00    -0.070 CG0
ATOM      9  C   UNL     1       4.162  11.433  22.924  1.00  0.00     0.039 C 
ATOM     10  G   UNL     1       1.750  12.393  22.661  1.00  0.00     0.000 G0
ENDBRANCH   6   7
ENDBRANCH   5   6
ENDBRANCH   3   5
ENDBRANCH   1   3
BRANCH   1  11
ATOM     11  C   UNL     1       0.191  14.153  20.602  1.00  0.00     0.087 C 
BRANCH  11  12
ATOM     12  C   UNL     1       1.114  12.992  20.150  1.00  0.00     0.066 C 
BRANCH  12  13
ATOM     13  C   UNL     1       1.375  11.980  21.262  1.00  0.00     0.140 C 
ATOM     14  O   UNL     1       1.195  10.795  21.022  1.00  0.00    -0.299 OA
BRANCH  13  15
ATOM     15  C   UNL     1       1.745  12.385  22.671  1.00  0.00     0.106 CG0
ATOM     16  G   UNL     1       3.237  12.632  22.835  1.00  0.00     0.000 G0
ENDBRANCH  13  15
ENDBRANCH  12  13
BRANCH  12  17
ATOM     17  C   UNL     1       0.657  12.352  18.801  1.00  0.00    -0.006 C 
ATOM     18  C   UNL     1       1.796  11.968  17.843  1.00  0.00     0.008 C 
ATOM     19  C   UNL     1      -0.373  13.232  18.077  1.00  0.00     0.008 C 
ENDBRANCH  12  17
ENDBRANCH  11  12
ENDBRANCH   1  11
TORSDOF 1
ENDMDL
MODEL 6
REMARK VINA RESULT:    -2.862      3.079      3.972
REMARK INTER + INTRA:          -4.829
REMARK INTER:                  -4.394
REMARK INTRA:                  -0.435
REMARK UNBOUND:                -0.461
REMARK SMILES CC1=CCC[C@H](C)C(=O)C[C@H](C(C)C)C(=O)C1
REMARK SMILES IDX 8 1 9 2 6 3 7 4 5 5 4 6 3 7 2 8 1 9 10 11 11 12 15 13 16 14
REMARK SMILES IDX 17 15 12 17 13 18 14 19
REMARK H PARENT
REMARK Flexibility Score: 70.00
ROOT
ATOM      1  C   UNL     1       1.861  13.231  18.964  1.00  0.00     0.136 C 
ATOM      2  O   UNL     1       2.167  13.145  17.784  1.00  0.00    -0.299 OA
ENDROOT
BRANCH   1   3
ATOM      3  C   UNL     1       0.637  12.475  19.451  1.00  0.00     0.053 C 
ATOM      4  C   UNL     1      -0.650  12.947  18.760  1.00  0.00     0.016 C 
BRANCH   3   5
ATOM      5  C   UNL     1       0.850  10.942  19.440  1.00  0.00     0.015 C 
BRANCH   5   6
ATOM      6  C   UNL     1       1.834  10.396  20.493  1.00  0.00     0.028 C 
BRANCH   6   7
ATOM      7  C   UNL     1       1.291  10.592  21.884  1.00  0.00    -0.028 C 
ATOM      8  C   UNL     1       1.761  11.499  22.770  1.00  0.00    -0.070 CG0
ATOM      9  C   UNL     1       1.061  11.618  24.099  1.00  0.00     0.039 C 
ATOM     10  G   UNL     1       2.969  12.382  22.491  1.00  0.00     0.000 G0
ENDBRANCH   6   7
ENDBRANCH   5   6
ENDBRANCH   3   5
ENDBRANCH   1   3
BRANCH   1  11
ATOM     11  C   UNL     1       2.738  14.067  19.872  1.00  0.00     0.087 C 
BRANCH  11  12
ATOM     12  C   UNL     1       1.999  14.495  21.166  1.00  0.00     0.066 C 
BRANCH  12  13
ATOM     13  C   UNL     1       2.590  13.856  22.420  1.00  0.00     0.140 C 
ATOM     14  O   UNL     1       2.849  14.577  23.372  1.00  0.00    -0.299 OA
BRANCH  13  15
ATOM     15  C   UNL     1       2.962  12.393  22.498  1.00  0.00     0.106 CG0
ATOM     16  G   UNL     1       1.759  11.496  22.748  1.00  0.00     0.000 G0
ENDBRANCH  13  15
ENDBRANCH  12  13
BRANCH  12  17
ATOM     17  C   UNL     1       1.812  16.041  21.268  1.00  0.00    -0.006 C 
ATOM     18  C   UNL     1       0.404  16.501  21.678  1.00  0.00     0.008 C 
ATOM     19  C   UNL     1       2.247  16.751  19.976  1.00  0.00     0.008 C 
ENDBRANCH  12  17
ENDBRANCH  11  12
ENDBRANCH   1  11
TORSDOF 1
ENDMDL
MODEL 7
REMARK VINA RESULT:    -2.843      3.437      6.110
REMARK INTER + INTRA:          -4.800
REMARK INTER:                  -4.702
REMARK INTRA:                  -0.098
REMARK UNBOUND:                -0.461
REMARK SMILES CC1=CCC[C@H](C)C(=O)C[C@H](C(C)C)C(=O)C1
REMARK SMILES IDX 8 1 9 2 6 3 7 4 5 5 4 6 3 7 2 8 1 9 10 11 11 12 15 13 16 14
REMARK SMILES IDX 17 15 12 17 13 18 14 19
REMARK H PARENT
REMARK Flexibility Score: 70.00
ROOT
ATOM      1  C   UNL     1       1.709  13.382  21.880  1.00  0.00     0.136 C 
ATOM      2  O   UNL     1       0.523  13.300  22.163  1.00  0.00    -0.299 OA
ENDROOT
BRANCH   1   3
ATOM      3  C   UNL     1       2.646  14.042  22.876  1.00  0.00     0.053 C 
ATOM      4  C   UNL     1       4.072  13.477  22.796  1.00  0.00     0.016 C 
BRANCH   3   5
ATOM      5  C   UNL     1       2.561  15.587  22.830  1.00  0.00     0.015 C 
BRANCH   5   6
ATOM      6  C   UNL     1       2.902  16.234  21.473  1.00  0.00     0.028 C 
BRANCH   6   7
ATOM      7  C   UNL     1       1.655  16.731  20.790  1.00  0.00    -0.028 C 
ATOM      8  C   UNL     1       1.174  16.245  19.624  1.00  0.00    -0.070 CG0
ATOM      9  C   UNL     1      -0.127  16.803  19.107  1.00  0.00     0.039 C 
ATOM     10  G   UNL     1       1.894  15.181  18.808  1.00  0.00     0.000 G0
ENDBRANCH   6   7
ENDBRANCH   5   6
ENDBRANCH   3   5
ENDBRANCH   1   3
BRANCH   1  11
ATOM     11  C   UNL     1       2.173  12.797  20.563  1.00  0.00     0.087 C 
BRANCH  11  12
ATOM     12  C   UNL     1       1.032  12.743  19.514  1.00  0.00     0.066 C 
BRANCH  12  13
ATOM     13  C   UNL     1       1.045  13.939  18.567  1.00  0.00     0.140 C 
ATOM     14  O   UNL     1       0.403  13.865  17.529  1.00  0.00    -0.299 OA
BRANCH  13  15
ATOM     15  C   UNL     1       1.896  15.166  18.806  1.00  0.00     0.106 CG0
ATOM     16  G   UNL     1       1.167  16.235  19.607  1.00  0.00     0.000 G0
ENDBRANCH  13  15
ENDBRANCH  12  13
BRANCH  12  17
ATOM     17  C   UNL     1       0.944  11.361  18.793  1.00  0.00    -0.006 C 
ATOM     18  C   UNL     1       0.006  10.338  19.455  1.00  0.00     0.008 C 
ATOM     19  C   UNL     1       2.335  10.745  18.578  1.00  0.00     0.008 C 
ENDBRANCH  12  17
ENDBRANCH  11  12
ENDBRANCH   1  11
TORSDOF 1
ENDMDL
MODEL 8
REMARK VINA RESULT:    -2.820      3.331      5.534
REMARK INTER + INTRA:          -4.765
REMARK INTER:                  -4.499
REMARK INTRA:                  -0.266
REMARK UNBOUND:                -0.461
REMARK SMILES CC1=CCC[C@H](C)C(=O)C[C@H](C(C)C)C(=O)C1
REMARK SMILES IDX 8 1 9 2 6 3 7 4 5 5 4 6 3 7 2 8 1 9 10 11 11 12 15 13 16 14
REMARK SMILES IDX 17 15 12 17 13 18 14 19
REMARK H PARENT
REMARK Flexibility Score: 70.00
ROOT
ATOM      1  C   UNL     1       0.240  14.441  20.398  1.00  0.00     0.136 C 
ATOM      2  O   UNL     1       0.146  13.926  19.294  1.00  0.00    -0.299 OA
ENDROOT
BRANCH   1   3
ATOM      3  C   UNL     1       0.716  15.881  20.486  1.00  0.00     0.053 C 
ATOM      4  C   UNL     1       0.252  16.569  21.778  1.00  0.00     0.016 C 
BRANCH   3   5
ATOM      5  C   UNL     1       2.229  16.020  20.189  1.00  0.00     0.015 C 
BRANCH   5   6
ATOM      6  C   UNL     1       3.172  15.702  21.366  1.00  0.00     0.028 C 
BRANCH   6   7
ATOM      7  C   UNL     1       3.929  14.425  21.113  1.00  0.00    -0.028 C 
ATOM      8  C   UNL     1       3.662  13.245  21.718  1.00  0.00    -0.070 CG0
ATOM      9  C   UNL     1       4.468  12.040  21.303  1.00  0.00     0.039 C 
ATOM     10  G   UNL     1       2.607  13.087  22.803  1.00  0.00     0.000 G0
ENDBRANCH   6   7
ENDBRANCH   5   6
ENDBRANCH   3   5
ENDBRANCH   1   3
BRANCH   1  11
ATOM     11  C   UNL     1      -0.148  13.618  21.607  1.00  0.00     0.087 C 
BRANCH  11  12
ATOM     12  C   UNL     1       0.444  12.185  21.552  1.00  0.00     0.066 C 
BRANCH  12  13
ATOM     13  C   UNL     1       1.611  11.993  22.516  1.00  0.00     0.140 C 
ATOM     14  O   UNL     1       1.684  10.942  23.137  1.00  0.00    -0.299 OA
BRANCH  13  15
ATOM     15  C   UNL     1       2.618  13.081  22.814  1.00  0.00     0.106 CG0
ATOM     16  G   UNL     1       3.652  13.237  21.709  1.00  0.00     0.000 G0
ENDBRANCH  13  15
ENDBRANCH  12  13
BRANCH  12  17
ATOM     17  C   UNL     1      -0.653  11.079  21.652  1.00  0.00    -0.006 C 
ATOM     18  C   UNL     1      -0.512   9.929  20.641  1.00  0.00     0.008 C 
ATOM     19  C   UNL     1      -2.067  11.675  21.584  1.00  0.00     0.008 C 
ENDBRANCH  12  17
ENDBRANCH  11  12
ENDBRANCH   1  11
TORSDOF 1
ENDMDL
MODEL 9
REMARK VINA RESULT:    -2.774      4.119      5.807
REMARK INTER + INTRA:          -4.695
REMARK INTER:                  -4.268
REMARK INTRA:                  -0.427
REMARK UNBOUND:                -0.461
REMARK SMILES CC1=CCC[C@H](C)C(=O)C[C@H](C(C)C)C(=O)C1
REMARK SMILES IDX 8 1 9 2 6 3 7 4 5 5 4 6 3 7 2 8 1 9 10 11 11 12 15 13 16 14
REMARK SMILES IDX 17 15 12 17 13 18 14 19
REMARK H PARENT
REMARK Flexibility Score: 70.00
ROOT
ATOM      1  C   UNL     1       3.615  13.713  21.455  1.00  0.00     0.136 C 
ATOM      2  O   UNL     1       4.030  14.411  20.541  1.00  0.00    -0.299 OA
ENDROOT
BRANCH   1   3
ATOM      3  C   UNL     1       2.561  14.290  22.383  1.00  0.00     0.053 C 
ATOM      4  C   UNL     1       2.997  15.627  23.000  1.00  0.00     0.016 C 
BRANCH   3   5
ATOM      5  C   UNL     1       1.154  14.307  21.737  1.00  0.00     0.015 C 
BRANCH   5   6
ATOM      6  C   UNL     1       0.646  12.951  21.207  1.00  0.00     0.028 C 
BRANCH   6   7
ATOM      7  C   UNL     1       0.066  12.124  22.324  1.00  0.00    -0.028 C 
ATOM      8  C   UNL     1       0.651  11.022  22.845  1.00  0.00    -0.070 CG0
ATOM      9  C   UNL     1      -0.026  10.345  24.009  1.00  0.00     0.039 C 
ATOM     10  G   UNL     1       1.941  10.429  22.297  1.00  0.00     0.000 G0
ENDBRANCH   6   7
ENDBRANCH   5   6
ENDBRANCH   3   5
ENDBRANCH   1   3
BRANCH   1  11
ATOM     11  C   UNL     1       4.163  12.308  21.588  1.00  0.00     0.087 C 
BRANCH  11  12
ATOM     12  C   UNL     1       4.096  11.792  23.049  1.00  0.00     0.066 C 
BRANCH  12  13
ATOM     13  C   UNL     1       3.119  10.632  23.219  1.00  0.00     0.140 C 
ATOM     14  O   UNL     1       3.351   9.799  24.084  1.00  0.00    -0.299 OA
BRANCH  13  15
ATOM     15  C   UNL     1       1.938  10.412  22.301  1.00  0.00     0.106 CG0
ATOM     16  G   UNL     1       0.654  11.019  22.845  1.00  0.00     0.000 G0
ENDBRANCH  13  15
ENDBRANCH  12  13
BRANCH  12  17
ATOM     17  C   UNL     1       5.509  11.528  23.658  1.00  0.00    -0.006 C 
ATOM     18  C   UNL     1       6.051  12.652  24.556  1.00  0.00     0.008 C 
ATOM     19  C   UNL     1       6.536  11.172  22.573  1.00  0.00     0.008 C 
ENDBRANCH  12  17
ENDBRANCH  11  12
ENDBRANCH   1  11
TORSDOF 1
ENDMDL
