MODEL 1
REMARK VINA RESULT:     9.375      0.000      0.000
REMARK INTER + INTRA:          22.880
REMARK INTER:                  23.624
REMARK INTRA:                  -0.744
REMARK UNBOUND:                -0.744
REMARK SMILES CCCCCCCCCCCCCCCCCCCCCCCCCCCC(=O)[O-]
REMARK SMILES IDX 15 1 16 2 17 3 18 4 19 5 20 6 21 7 22 8 23 9 24 10 25 11
REMARK SMILES IDX 26 12 27 13 28 14 29 15 30 16 14 17 13 18 12 19 11 20 10 21
REMARK SMILES IDX 9 22 8 23 7 24 6 25 5 26 4 27 3 28 2 29 1 30
REMARK H PARENT
REMARK Flexibility Score: inf
ROOT
ATOM      1  C   UNL     1       0.835   1.265   0.754  1.00  0.00     0.000 C 
ENDROOT
BRANCH   1   2
ATOM      2  C   UNL     1       1.617   1.403  -0.565  1.00  0.00     0.000 C 
BRANCH   2   3
ATOM      3  C   UNL     1       3.070   1.853  -0.351  1.00  0.00     0.000 C 
BRANCH   3   4
ATOM      4  C   UNL     1       3.354   3.167  -1.090  1.00  0.00     0.000 C 
BRANCH   4   5
ATOM      5  C   UNL     1       2.687   4.350  -0.374  1.00  0.00     0.000 C 
BRANCH   5   6
ATOM      6  C   UNL     1       2.909   5.688  -1.100  1.00  0.00     0.000 C 
BRANCH   6   7
ATOM      7  C   UNL     1       1.799   6.739  -0.884  1.00  0.00     0.000 C 
BRANCH   7   8
ATOM      8  C   UNL     1       0.988   7.106  -2.141  1.00  0.00     0.000 C 
BRANCH   8   9
ATOM      9  C   UNL     1       0.035   8.306  -1.976  1.00  0.00     0.000 C 
BRANCH   9  10
ATOM     10  C   UNL     1      -1.407   7.909  -1.593  1.00  0.00     0.000 C 
BRANCH  10  11
ATOM     11  C   UNL     1      -1.744   8.232  -0.129  1.00  0.00     0.000 C 
BRANCH  11  12
ATOM     12  C   UNL     1      -2.857   9.287  -0.041  1.00  0.00     0.006 C 
BRANCH  12  13
ATOM     13  C   UNL     1      -4.245   8.694  -0.321  1.00  0.00     0.053 C 
BRANCH  13  14
ATOM     14  C   UNL     1      -4.808   9.154  -1.634  1.00  0.00     0.041 C 
ATOM     15  O   UNL     1      -6.053   9.298  -1.770  1.00  0.00    -0.550 OA
ATOM     16  O   UNL     1      -3.967   9.375  -2.718  1.00  0.00    -0.550 OA
ENDBRANCH  13  14
ENDBRANCH  12  13
ENDBRANCH  11  12
ENDBRANCH  10  11
ENDBRANCH   9  10
ENDBRANCH   8   9
ENDBRANCH   7   8
ENDBRANCH   6   7
ENDBRANCH   5   6
ENDBRANCH   4   5
ENDBRANCH   3   4
ENDBRANCH   2   3
ENDBRANCH   1   2
BRANCH   1  17
ATOM     17  C   UNL     1      -0.413   2.159   0.866  1.00  0.00     0.000 C 
BRANCH  17  18
ATOM     18  C   UNL     1      -0.972   2.231   2.294  1.00  0.00     0.000 C 
BRANCH  18  19
ATOM     19  C   UNL     1      -2.460   2.611   2.274  1.00  0.00     0.000 C 
BRANCH  19  20
ATOM     20  C   UNL     1      -3.026   2.883   3.678  1.00  0.00     0.000 C 
BRANCH  20  21
ATOM     21  C   UNL     1      -2.368   4.062   4.420  1.00  0.00     0.000 C 
BRANCH  21  22
ATOM     22  C   UNL     1      -3.049   4.407   5.764  1.00  0.00    -0.000 C 
BRANCH  22  23
ATOM     23  C   UNL     1      -3.359   5.908   5.888  1.00  0.00    -0.000 C 
BRANCH  23  24
ATOM     24  C   UNL     1      -3.058   6.463   7.297  1.00  0.00    -0.000 C 
BRANCH  24  25
ATOM     25  C   UNL     1      -2.754   5.373   8.343  1.00  0.00    -0.000 C 
BRANCH  25  26
ATOM     26  C   UNL     1      -3.571   5.475   9.645  1.00  0.00    -0.000 C 
BRANCH  26  27
ATOM     27  C   UNL     1      -5.095   5.591   9.450  1.00  0.00    -0.000 C 
BRANCH  27  28
ATOM     28  C   UNL     1      -5.925   4.482  10.123  1.00  0.00    -0.000 C 
BRANCH  28  29
ATOM     29  C   UNL     1      -6.027   3.188   9.288  1.00  0.00    -0.003 C 
ATOM     30  C   UNL     1      -4.867   3.027   8.306  1.00  0.00     0.004 C 
ENDBRANCH  28  29
ENDBRANCH  27  28
ENDBRANCH  26  27
ENDBRANCH  25  26
ENDBRANCH  24  25
ENDBRANCH  23  24
ENDBRANCH  22  23
ENDBRANCH  21  22
ENDBRANCH  20  21
ENDBRANCH  19  20
ENDBRANCH  18  19
ENDBRANCH  17  18
ENDBRANCH   1  17
TORSDOF 26
ENDMDL
MODEL 2
REMARK VINA RESULT:     9.532      0.682      1.104
REMARK INTER + INTRA:          23.275
REMARK INTER:                  23.547
REMARK INTRA:                  -0.272
REMARK UNBOUND:                -0.744
REMARK SMILES CCCCCCCCCCCCCCCCCCCCCCCCCCCC(=O)[O-]
REMARK SMILES IDX 15 1 16 2 17 3 18 4 19 5 20 6 21 7 22 8 23 9 24 10 25 11
REMARK SMILES IDX 26 12 27 13 28 14 29 15 30 16 14 17 13 18 12 19 11 20 10 21
REMARK SMILES IDX 9 22 8 23 7 24 6 25 5 26 4 27 3 28 2 29 1 30
REMARK H PARENT
REMARK Flexibility Score: inf
ROOT
ATOM      1  C   UNL     1       1.582   0.825   0.020  1.00  0.00     0.000 C 
ENDROOT
BRANCH   1   2
ATOM      2  C   UNL     1       2.437   1.310  -1.165  1.00  0.00     0.000 C 
BRANCH   2   3
ATOM      3  C   UNL     1       3.408   2.435  -0.777  1.00  0.00     0.000 C 
BRANCH   3   4
ATOM      4  C   UNL     1       2.661   3.756  -0.558  1.00  0.00     0.000 C 
BRANCH   4   5
ATOM      5  C   UNL     1       3.501   4.946  -1.043  1.00  0.00     0.000 C 
BRANCH   5   6
ATOM      6  C   UNL     1       2.697   6.255  -1.116  1.00  0.00     0.000 C 
BRANCH   6   7
ATOM      7  C   UNL     1       1.164   6.078  -1.153  1.00  0.00     0.000 C 
BRANCH   7   8
ATOM      8  C   UNL     1       0.399   7.133  -1.975  1.00  0.00     0.000 C 
BRANCH   8   9
ATOM      9  C   UNL     1      -0.169   8.311  -1.159  1.00  0.00     0.000 C 
BRANCH   9  10
ATOM     10  C   UNL     1      -1.685   8.210  -0.890  1.00  0.00     0.000 C 
BRANCH  10  11
ATOM     11  C   UNL     1      -2.166   9.199   0.182  1.00  0.00     0.000 C 
BRANCH  11  12
ATOM     12  C   UNL     1      -3.621   8.913   0.582  1.00  0.00     0.006 C 
BRANCH  12  13
ATOM     13  C   UNL     1      -4.394   8.175  -0.521  1.00  0.00     0.053 C 
BRANCH  13  14
ATOM     14  C   UNL     1      -4.868   9.101  -1.602  1.00  0.00     0.041 C 
ATOM     15  O   UNL     1      -5.802   9.915  -1.370  1.00  0.00    -0.550 OA
ATOM     16  O   UNL     1      -4.318   9.032  -2.877  1.00  0.00    -0.550 OA
ENDBRANCH  13  14
ENDBRANCH  12  13
ENDBRANCH  11  12
ENDBRANCH  10  11
ENDBRANCH   9  10
ENDBRANCH   8   9
ENDBRANCH   7   8
ENDBRANCH   6   7
ENDBRANCH   5   6
ENDBRANCH   4   5
ENDBRANCH   3   4
ENDBRANCH   2   3
ENDBRANCH   1   2
BRANCH   1  17
ATOM     17  C   UNL     1       0.730   1.915   0.695  1.00  0.00     0.000 C 
BRANCH  17  18
ATOM     18  C   UNL     1      -0.540   1.360   1.355  1.00  0.00     0.000 C 
BRANCH  18  19
ATOM     19  C   UNL     1      -1.178   2.413   2.272  1.00  0.00     0.000 C 
BRANCH  19  20
ATOM     20  C   UNL     1      -2.713   2.316   2.316  1.00  0.00     0.000 C 
BRANCH  20  21
ATOM     21  C   UNL     1      -3.387   3.232   3.355  1.00  0.00     0.000 C 
BRANCH  21  22
ATOM     22  C   UNL     1      -2.395   3.888   4.341  1.00  0.00    -0.000 C 
BRANCH  22  23
ATOM     23  C   UNL     1      -3.052   4.219   5.692  1.00  0.00    -0.000 C 
BRANCH  23  24
ATOM     24  C   UNL     1      -3.224   5.737   5.914  1.00  0.00    -0.000 C 
BRANCH  24  25
ATOM     25  C   UNL     1      -3.776   6.103   7.304  1.00  0.00    -0.000 C 
BRANCH  25  26
ATOM     26  C   UNL     1      -3.313   5.184   8.451  1.00  0.00    -0.000 C 
BRANCH  26  27
ATOM     27  C   UNL     1      -4.182   5.243   9.723  1.00  0.00    -0.000 C 
BRANCH  27  28
ATOM     28  C   UNL     1      -5.684   4.990   9.499  1.00  0.00    -0.000 C 
BRANCH  28  29
ATOM     29  C   UNL     1      -6.028   3.516   9.198  1.00  0.00    -0.003 C 
ATOM     30  C   UNL     1      -4.839   2.735   8.641  1.00  0.00     0.004 C 
ENDBRANCH  28  29
ENDBRANCH  27  28
ENDBRANCH  26  27
ENDBRANCH  25  26
ENDBRANCH  24  25
ENDBRANCH  23  24
ENDBRANCH  22  23
ENDBRANCH  21  22
ENDBRANCH  20  21
ENDBRANCH  19  20
ENDBRANCH  18  19
ENDBRANCH  17  18
ENDBRANCH   1  17
TORSDOF 26
ENDMDL
MODEL 3
REMARK VINA RESULT:     9.597      1.187      2.321
REMARK INTER + INTRA:          23.440
REMARK INTER:                  25.103
REMARK INTRA:                  -1.662
REMARK UNBOUND:                -0.744
REMARK SMILES CCCCCCCCCCCCCCCCCCCCCCCCCCCC(=O)[O-]
REMARK SMILES IDX 15 1 16 2 17 3 18 4 19 5 20 6 21 7 22 8 23 9 24 10 25 11
REMARK SMILES IDX 26 12 27 13 28 14 29 15 30 16 14 17 13 18 12 19 11 20 10 21
REMARK SMILES IDX 9 22 8 23 7 24 6 25 5 26 4 27 3 28 2 29 1 30
REMARK H PARENT
REMARK Flexibility Score: inf
ROOT
ATOM      1  C   UNL     1      -0.776   2.192   2.242  1.00  0.00     0.000 C 
ENDROOT
BRANCH   1   2
ATOM      2  C   UNL     1      -0.152   1.409   1.073  1.00  0.00     0.000 C 
BRANCH   2   3
ATOM      3  C   UNL     1       0.844   2.248   0.259  1.00  0.00     0.000 C 
BRANCH   3   4
ATOM      4  C   UNL     1       1.937   1.364  -0.353  1.00  0.00     0.000 C 
BRANCH   4   5
ATOM      5  C   UNL     1       2.983   2.218  -1.084  1.00  0.00     0.000 C 
BRANCH   5   6
ATOM      6  C   UNL     1       3.333   3.510  -0.327  1.00  0.00     0.000 C 
BRANCH   6   7
ATOM      7  C   UNL     1       3.130   4.813  -1.131  1.00  0.00     0.000 C 
BRANCH   7   8
ATOM      8  C   UNL     1       1.973   5.709  -0.649  1.00  0.00     0.000 C 
BRANCH   8   9
ATOM      9  C   UNL     1       1.726   6.970  -1.500  1.00  0.00     0.000 C 
BRANCH   9  10
ATOM     10  C   UNL     1       0.251   7.167  -1.910  1.00  0.00     0.000 C 
BRANCH  10  11
ATOM     11  C   UNL     1      -0.455   8.255  -1.088  1.00  0.00     0.000 C 
BRANCH  11  12
ATOM     12  C   UNL     1      -1.875   8.509  -1.615  1.00  0.00     0.006 C 
BRANCH  12  13
ATOM     13  C   UNL     1      -2.955   8.048  -0.626  1.00  0.00     0.053 C 
BRANCH  13  14
ATOM     14  C   UNL     1      -3.685   9.201  -0.001  1.00  0.00     0.041 C 
ATOM     15  O   UNL     1      -3.378   9.587   1.159  1.00  0.00    -0.550 OA
ATOM     16  O   UNL     1      -4.735   9.815  -0.674  1.00  0.00    -0.550 OA
ENDBRANCH  13  14
ENDBRANCH  12  13
ENDBRANCH  11  12
ENDBRANCH  10  11
ENDBRANCH   9  10
ENDBRANCH   8   9
ENDBRANCH   7   8
ENDBRANCH   6   7
ENDBRANCH   5   6
ENDBRANCH   4   5
ENDBRANCH   3   4
ENDBRANCH   2   3
ENDBRANCH   1   2
BRANCH   1  17
ATOM     17  C   UNL     1      -2.244   2.607   2.035  1.00  0.00     0.000 C 
BRANCH  17  18
ATOM     18  C   UNL     1      -2.968   2.925   3.351  1.00  0.00     0.000 C 
BRANCH  18  19
ATOM     19  C   UNL     1      -2.197   3.985   4.151  1.00  0.00     0.000 C 
BRANCH  19  20
ATOM     20  C   UNL     1      -2.859   4.315   5.499  1.00  0.00     0.000 C 
BRANCH  20  21
ATOM     21  C   UNL     1      -3.583   5.674   5.546  1.00  0.00     0.000 C 
BRANCH  21  22
ATOM     22  C   UNL     1      -3.641   6.298   6.958  1.00  0.00    -0.000 C 
BRANCH  22  23
ATOM     23  C   UNL     1      -2.723   5.569   7.953  1.00  0.00    -0.000 C 
BRANCH  23  24
ATOM     24  C   UNL     1      -2.954   6.015   9.413  1.00  0.00    -0.000 C 
BRANCH  24  25
ATOM     25  C   UNL     1      -4.439   6.051   9.823  1.00  0.00    -0.000 C 
BRANCH  25  26
ATOM     26  C   UNL     1      -5.064   4.676  10.125  1.00  0.00    -0.000 C 
BRANCH  26  27
ATOM     27  C   UNL     1      -5.408   3.830   8.883  1.00  0.00    -0.000 C 
BRANCH  27  28
ATOM     28  C   UNL     1      -4.605   2.524   8.741  1.00  0.00    -0.000 C 
BRANCH  28  29
ATOM     29  C   UNL     1      -4.056   2.283   7.318  1.00  0.00    -0.003 C 
ATOM     30  C   UNL     1      -5.002   1.449   6.456  1.00  0.00     0.004 C 
ENDBRANCH  28  29
ENDBRANCH  27  28
ENDBRANCH  26  27
ENDBRANCH  25  26
ENDBRANCH  24  25
ENDBRANCH  23  24
ENDBRANCH  22  23
ENDBRANCH  21  22
ENDBRANCH  20  21
ENDBRANCH  19  20
ENDBRANCH  18  19
ENDBRANCH  17  18
ENDBRANCH   1  17
TORSDOF 26
ENDMDL
MODEL 4
REMARK VINA RESULT:     9.692      3.482      9.048
REMARK INTER + INTRA:          23.680
REMARK INTER:                  24.307
REMARK INTRA:                  -0.626
REMARK UNBOUND:                -0.744
REMARK SMILES CCCCCCCCCCCCCCCCCCCCCCCCCCCC(=O)[O-]
REMARK SMILES IDX 15 1 16 2 17 3 18 4 19 5 20 6 21 7 22 8 23 9 24 10 25 11
REMARK SMILES IDX 26 12 27 13 28 14 29 15 30 16 14 17 13 18 12 19 11 20 10 21
REMARK SMILES IDX 9 22 8 23 7 24 6 25 5 26 4 27 3 28 2 29 1 30
REMARK H PARENT
REMARK Flexibility Score: inf
ROOT
ATOM      1  C   UNL     1       2.236   0.261  -0.298  1.00  0.00     0.000 C 
ENDROOT
BRANCH   1   2
ATOM      2  C   UNL     1       1.159   0.261   0.801  1.00  0.00     0.000 C 
BRANCH   2   3
ATOM      3  C   UNL     1       0.367   1.576   0.858  1.00  0.00     0.000 C 
BRANCH   3   4
ATOM      4  C   UNL     1      -0.962   1.388   1.599  1.00  0.00     0.000 C 
BRANCH   4   5
ATOM      5  C   UNL     1      -1.273   2.605   2.480  1.00  0.00     0.000 C 
BRANCH   5   6
ATOM      6  C   UNL     1      -2.783   2.840   2.662  1.00  0.00     0.000 C 
BRANCH   6   7
ATOM      7  C   UNL     1      -3.261   2.908   4.128  1.00  0.00     0.000 C 
BRANCH   7   8
ATOM      8  C   UNL     1      -2.990   4.244   4.847  1.00  0.00     0.000 C 
BRANCH   8   9
ATOM      9  C   UNL     1      -2.850   4.144   6.378  1.00  0.00     0.000 C 
BRANCH   9  10
ATOM     10  C   UNL     1      -2.879   5.509   7.098  1.00  0.00     0.000 C 
BRANCH  10  11
ATOM     11  C   UNL     1      -4.247   5.825   7.721  1.00  0.00     0.000 C 
BRANCH  11  12
ATOM     12  C   UNL     1      -4.166   5.826   9.254  1.00  0.00     0.006 C 
BRANCH  12  13
ATOM     13  C   UNL     1      -5.403   5.189   9.904  1.00  0.00     0.053 C 
BRANCH  13  14
ATOM     14  C   UNL     1      -5.625   3.777   9.448  1.00  0.00     0.041 C 
ATOM     15  O   UNL     1      -6.796   3.317   9.367  1.00  0.00    -0.550 OA
ATOM     16  O   UNL     1      -4.542   2.954   9.161  1.00  0.00    -0.550 OA
ENDBRANCH  13  14
ENDBRANCH  12  13
ENDBRANCH  11  12
ENDBRANCH  10  11
ENDBRANCH   9  10
ENDBRANCH   8   9
ENDBRANCH   7   8
ENDBRANCH   6   7
ENDBRANCH   5   6
ENDBRANCH   4   5
ENDBRANCH   3   4
ENDBRANCH   2   3
ENDBRANCH   1   2
BRANCH   1  17
ATOM     17  C   UNL     1       3.221   1.443  -0.243  1.00  0.00     0.000 C 
BRANCH  17  18
ATOM     18  C   UNL     1       2.862   2.567  -1.225  1.00  0.00     0.000 C 
BRANCH  18  19
ATOM     19  C   UNL     1       3.536   3.883  -0.810  1.00  0.00     0.000 C 
BRANCH  19  20
ATOM     20  C   UNL     1       2.526   5.013  -0.543  1.00  0.00     0.000 C 
BRANCH  20  21
ATOM     21  C   UNL     1       2.767   6.298  -1.358  1.00  0.00     0.000 C 
BRANCH  21  22
ATOM     22  C   UNL     1       1.735   7.413  -1.079  1.00  0.00    -0.000 C 
BRANCH  22  23
ATOM     23  C   UNL     1       0.362   7.101  -1.698  1.00  0.00    -0.000 C 
BRANCH  23  24
ATOM     24  C   UNL     1      -0.369   8.368  -2.191  1.00  0.00    -0.000 C 
BRANCH  24  25
ATOM     25  C   UNL     1      -1.850   8.434  -1.771  1.00  0.00    -0.000 C 
BRANCH  25  26
ATOM     26  C   UNL     1      -2.101   8.348  -0.254  1.00  0.00    -0.000 C 
BRANCH  26  27
ATOM     27  C   UNL     1      -3.578   8.465   0.170  1.00  0.00    -0.000 C 
BRANCH  27  28
ATOM     28  C   UNL     1      -4.250   9.809  -0.169  1.00  0.00    -0.000 C 
BRANCH  28  29
ATOM     29  C   UNL     1      -5.258   9.723  -1.335  1.00  0.00    -0.003 C 
ATOM     30  C   UNL     1      -4.679   9.026  -2.565  1.00  0.00     0.004 C 
ENDBRANCH  28  29
ENDBRANCH  27  28
ENDBRANCH  26  27
ENDBRANCH  25  26
ENDBRANCH  24  25
ENDBRANCH  23  24
ENDBRANCH  22  23
ENDBRANCH  21  22
ENDBRANCH  20  21
ENDBRANCH  19  20
ENDBRANCH  18  19
ENDBRANCH  17  18
ENDBRANCH   1  17
TORSDOF 26
ENDMDL
MODEL 5
REMARK VINA RESULT:     9.972      3.222      9.381
REMARK INTER + INTRA:          24.386
REMARK INTER:                  25.454
REMARK INTRA:                  -1.068
REMARK UNBOUND:                -0.744
REMARK SMILES CCCCCCCCCCCCCCCCCCCCCCCCCCCC(=O)[O-]
REMARK SMILES IDX 15 1 16 2 17 3 18 4 19 5 20 6 21 7 22 8 23 9 24 10 25 11
REMARK SMILES IDX 26 12 27 13 28 14 29 15 30 16 14 17 13 18 12 19 11 20 10 21
REMARK SMILES IDX 9 22 8 23 7 24 6 25 5 26 4 27 3 28 2 29 1 30
REMARK H PARENT
REMARK Flexibility Score: inf
ROOT
ATOM      1  C   UNL     1       0.859   1.074   0.773  1.00  0.00     0.000 C 
ENDROOT
BRANCH   1   2
ATOM      2  C   UNL     1      -0.294   2.082   0.921  1.00  0.00     0.000 C 
BRANCH   2   3
ATOM      3  C   UNL     1      -1.043   1.940   2.255  1.00  0.00     0.000 C 
BRANCH   3   4
ATOM      4  C   UNL     1      -2.391   2.668   2.210  1.00  0.00     0.000 C 
BRANCH   4   5
ATOM      5  C   UNL     1      -2.966   2.838   3.623  1.00  0.00     0.000 C 
BRANCH   5   6
ATOM      6  C   UNL     1      -2.380   4.051   4.365  1.00  0.00     0.000 C 
BRANCH   6   7
ATOM      7  C   UNL     1      -3.110   4.434   5.670  1.00  0.00     0.000 C 
BRANCH   7   8
ATOM      8  C   UNL     1      -3.058   5.929   6.039  1.00  0.00     0.000 C 
BRANCH   8   9
ATOM      9  C   UNL     1      -2.783   6.226   7.526  1.00  0.00     0.000 C 
BRANCH   9  10
ATOM     10  C   UNL     1      -4.057   6.307   8.392  1.00  0.00     0.000 C 
BRANCH  10  11
ATOM     11  C   UNL     1      -4.068   5.279   9.533  1.00  0.00     0.000 C 
BRANCH  11  12
ATOM     12  C   UNL     1      -5.502   4.845   9.869  1.00  0.00     0.006 C 
BRANCH  12  13
ATOM     13  C   UNL     1      -5.657   3.318   9.908  1.00  0.00     0.053 C 
BRANCH  13  14
ATOM     14  C   UNL     1      -4.976   2.647   8.751  1.00  0.00     0.041 C 
ATOM     15  O   UNL     1      -3.733   2.443   8.783  1.00  0.00    -0.550 OA
ATOM     16  O   UNL     1      -5.702   2.293   7.619  1.00  0.00    -0.550 OA
ENDBRANCH  13  14
ENDBRANCH  12  13
ENDBRANCH  11  12
ENDBRANCH  10  11
ENDBRANCH   9  10
ENDBRANCH   8   9
ENDBRANCH   7   8
ENDBRANCH   6   7
ENDBRANCH   5   6
ENDBRANCH   4   5
ENDBRANCH   3   4
ENDBRANCH   2   3
ENDBRANCH   1   2
BRANCH   1  17
ATOM     17  C   UNL     1       1.585   1.112  -0.583  1.00  0.00     0.000 C 
BRANCH  17  18
ATOM     18  C   UNL     1       3.073   1.469  -0.456  1.00  0.00     0.000 C 
BRANCH  18  19
ATOM     19  C   UNL     1       3.376   2.789  -1.181  1.00  0.00     0.000 C 
BRANCH  19  20
ATOM     20  C   UNL     1       3.111   4.025  -0.306  1.00  0.00     0.000 C 
BRANCH  20  21
ATOM     21  C   UNL     1       3.017   5.354  -1.080  1.00  0.00     0.000 C 
BRANCH  21  22
ATOM     22  C   UNL     1       1.669   6.086  -0.897  1.00  0.00    -0.000 C 
BRANCH  22  23
ATOM     23  C   UNL     1       1.651   7.453  -1.602  1.00  0.00    -0.000 C 
BRANCH  23  24
ATOM     24  C   UNL     1       0.595   7.528  -2.726  1.00  0.00    -0.000 C 
BRANCH  24  25
ATOM     25  C   UNL     1      -0.722   8.203  -2.298  1.00  0.00    -0.000 C 
BRANCH  25  26
ATOM     26  C   UNL     1      -1.313   7.692  -0.971  1.00  0.00    -0.000 C 
BRANCH  26  27
ATOM     27  C   UNL     1      -2.115   8.737  -0.170  1.00  0.00    -0.000 C 
BRANCH  27  28
ATOM     28  C   UNL     1      -3.646   8.598  -0.267  1.00  0.00    -0.000 C 
BRANCH  28  29
ATOM     29  C   UNL     1      -4.254   9.278  -1.513  1.00  0.00    -0.003 C 
ATOM     30  C   UNL     1      -5.772   9.430  -1.418  1.00  0.00     0.004 C 
ENDBRANCH  28  29
ENDBRANCH  27  28
ENDBRANCH  26  27
ENDBRANCH  25  26
ENDBRANCH  24  25
ENDBRANCH  23  24
ENDBRANCH  22  23
ENDBRANCH  21  22
ENDBRANCH  20  21
ENDBRANCH  19  20
ENDBRANCH  18  19
ENDBRANCH  17  18
ENDBRANCH   1  17
TORSDOF 26
ENDMDL
MODEL 6
REMARK VINA RESULT:    10.000      3.442      9.535
REMARK INTER + INTRA:          24.455
REMARK INTER:                  25.794
REMARK INTRA:                  -1.339
REMARK UNBOUND:                -0.744
REMARK SMILES CCCCCCCCCCCCCCCCCCCCCCCCCCCC(=O)[O-]
REMARK SMILES IDX 15 1 16 2 17 3 18 4 19 5 20 6 21 7 22 8 23 9 24 10 25 11
REMARK SMILES IDX 26 12 27 13 28 14 29 15 30 16 14 17 13 18 12 19 11 20 10 21
REMARK SMILES IDX 9 22 8 23 7 24 6 25 5 26 4 27 3 28 2 29 1 30
REMARK H PARENT
REMARK Flexibility Score: inf
ROOT
ATOM      1  C   UNL     1       0.401   1.064   1.168  1.00  0.00     0.000 C 
ENDROOT
BRANCH   1   2
ATOM      2  C   UNL     1      -0.216   2.464   1.333  1.00  0.00     0.000 C 
BRANCH   2   3
ATOM      3  C   UNL     1      -1.488   2.457   2.194  1.00  0.00     0.000 C 
BRANCH   3   4
ATOM      4  C   UNL     1      -1.343   3.393   3.400  1.00  0.00     0.000 C 
BRANCH   4   5
ATOM      5  C   UNL     1      -2.692   3.590   4.104  1.00  0.00     0.000 C 
BRANCH   5   6
ATOM      6  C   UNL     1      -2.646   4.677   5.190  1.00  0.00     0.000 C 
BRANCH   6   7
ATOM      7  C   UNL     1      -3.769   4.594   6.246  1.00  0.00     0.000 C 
BRANCH   7   8
ATOM      8  C   UNL     1      -3.656   3.419   7.236  1.00  0.00     0.000 C 
BRANCH   8   9
ATOM      9  C   UNL     1      -4.934   3.120   8.044  1.00  0.00     0.000 C 
BRANCH   9  10
ATOM     10  C   UNL     1      -4.958   3.781   9.438  1.00  0.00     0.000 C 
BRANCH  10  11
ATOM     11  C   UNL     1      -5.096   5.310   9.370  1.00  0.00     0.000 C 
BRANCH  11  12
ATOM     12  C   UNL     1      -3.948   5.999  10.122  1.00  0.00     0.006 C 
BRANCH  12  13
ATOM     13  C   UNL     1      -2.673   6.102   9.273  1.00  0.00     0.053 C 
BRANCH  13  14
ATOM     14  C   UNL     1      -1.759   7.195   9.747  1.00  0.00     0.041 C 
ATOM     15  O   UNL     1      -2.239   8.301  10.116  1.00  0.00    -0.550 OA
ATOM     16  O   UNL     1      -0.382   7.014   9.733  1.00  0.00    -0.550 OA
ENDBRANCH  13  14
ENDBRANCH  12  13
ENDBRANCH  11  12
ENDBRANCH  10  11
ENDBRANCH   9  10
ENDBRANCH   8   9
ENDBRANCH   7   8
ENDBRANCH   6   7
ENDBRANCH   5   6
ENDBRANCH   4   5
ENDBRANCH   3   4
ENDBRANCH   2   3
ENDBRANCH   1   2
BRANCH   1  17
ATOM     17  C   UNL     1       1.134   0.830  -0.165  1.00  0.00     0.000 C 
BRANCH  17  18
ATOM     18  C   UNL     1       2.659   0.746  -0.002  1.00  0.00     0.000 C 
BRANCH  18  19
ATOM     19  C   UNL     1       3.343   1.937  -0.689  1.00  0.00     0.000 C 
BRANCH  19  20
ATOM     20  C   UNL     1       2.390   3.124  -0.913  1.00  0.00     0.000 C 
BRANCH  20  21
ATOM     21  C   UNL     1       3.041   4.511  -0.757  1.00  0.00     0.000 C 
BRANCH  21  22
ATOM     22  C   UNL     1       2.022   5.665  -0.633  1.00  0.00    -0.000 C 
BRANCH  22  23
ATOM     23  C   UNL     1       2.402   6.871  -1.508  1.00  0.00    -0.000 C 
BRANCH  23  24
ATOM     24  C   UNL     1       1.178   7.721  -1.913  1.00  0.00    -0.000 C 
BRANCH  24  25
ATOM     25  C   UNL     1      -0.009   7.605  -0.939  1.00  0.00    -0.000 C 
BRANCH  25  26
ATOM     26  C   UNL     1      -1.302   8.301  -1.403  1.00  0.00    -0.000 C 
BRANCH  26  27
ATOM     27  C   UNL     1      -2.573   7.899  -0.628  1.00  0.00    -0.000 C 
BRANCH  27  28
ATOM     28  C   UNL     1      -3.524   9.061  -0.288  1.00  0.00    -0.000 C 
BRANCH  28  29
ATOM     29  C   UNL     1      -4.285   9.620  -1.509  1.00  0.00    -0.003 C 
ATOM     30  C   UNL     1      -5.779   9.303  -1.467  1.00  0.00     0.004 C 
ENDBRANCH  28  29
ENDBRANCH  27  28
ENDBRANCH  26  27
ENDBRANCH  25  26
ENDBRANCH  24  25
ENDBRANCH  23  24
ENDBRANCH  22  23
ENDBRANCH  21  22
ENDBRANCH  20  21
ENDBRANCH  19  20
ENDBRANCH  18  19
ENDBRANCH  17  18
ENDBRANCH   1  17
TORSDOF 26
ENDMDL
MODEL 7
REMARK VINA RESULT:    10.523      2.968      9.319
REMARK INTER + INTRA:          25.774
REMARK INTER:                  27.042
REMARK INTRA:                  -1.268
REMARK UNBOUND:                -0.744
REMARK SMILES CCCCCCCCCCCCCCCCCCCCCCCCCCCC(=O)[O-]
REMARK SMILES IDX 15 1 16 2 17 3 18 4 19 5 20 6 21 7 22 8 23 9 24 10 25 11
REMARK SMILES IDX 26 12 27 13 28 14 29 15 30 16 14 17 13 18 12 19 11 20 10 21
REMARK SMILES IDX 9 22 8 23 7 24 6 25 5 26 4 27 3 28 2 29 1 30
REMARK H PARENT
REMARK Flexibility Score: inf
ROOT
ATOM      1  C   UNL     1       1.056   0.778   0.587  1.00  0.00     0.000 C 
ENDROOT
BRANCH   1   2
ATOM      2  C   UNL     1       0.121   1.880   1.116  1.00  0.00     0.000 C 
BRANCH   2   3
ATOM      3  C   UNL     1      -1.190   1.323   1.692  1.00  0.00     0.000 C 
BRANCH   3   4
ATOM      4  C   UNL     1      -2.206   2.445   1.934  1.00  0.00     0.000 C 
BRANCH   4   5
ATOM      5  C   UNL     1      -1.997   3.082   3.315  1.00  0.00     0.000 C 
BRANCH   5   6
ATOM      6  C   UNL     1      -3.309   3.252   4.099  1.00  0.00     0.000 C 
BRANCH   6   7
ATOM      7  C   UNL     1      -3.140   3.437   5.622  1.00  0.00     0.000 C 
BRANCH   7   8
ATOM      8  C   UNL     1      -3.765   2.330   6.493  1.00  0.00     0.000 C 
BRANCH   8   9
ATOM      9  C   UNL     1      -4.126   2.755   7.930  1.00  0.00     0.000 C 
BRANCH   9  10
ATOM     10  C   UNL     1      -5.644   2.810   8.201  1.00  0.00     0.000 C 
BRANCH  10  11
ATOM     11  C   UNL     1      -6.043   3.983   9.109  1.00  0.00     0.000 C 
BRANCH  11  12
ATOM     12  C   UNL     1      -4.899   4.353  10.064  1.00  0.00     0.006 C 
BRANCH  12  13
ATOM     13  C   UNL     1      -4.462   5.817   9.911  1.00  0.00     0.053 C 
BRANCH  13  14
ATOM     14  C   UNL     1      -3.581   6.027   8.714  1.00  0.00     0.041 C 
ATOM     15  O   UNL     1      -4.084   6.055   7.558  1.00  0.00    -0.550 OA
ATOM     16  O   UNL     1      -2.205   6.141   8.867  1.00  0.00    -0.550 OA
ENDBRANCH  13  14
ENDBRANCH  12  13
ENDBRANCH  11  12
ENDBRANCH  10  11
ENDBRANCH   9  10
ENDBRANCH   8   9
ENDBRANCH   7   8
ENDBRANCH   6   7
ENDBRANCH   5   6
ENDBRANCH   4   5
ENDBRANCH   3   4
ENDBRANCH   2   3
ENDBRANCH   1   2
BRANCH   1  17
ATOM     17  C   UNL     1       2.389   1.281   0.006  1.00  0.00     0.000 C 
BRANCH  17  18
ATOM     18  C   UNL     1       2.205   2.382  -1.049  1.00  0.00     0.000 C 
BRANCH  18  19
ATOM     19  C   UNL     1       3.039   3.620  -0.689  1.00  0.00     0.000 C 
BRANCH  19  20
ATOM     20  C   UNL     1       2.177   4.871  -0.447  1.00  0.00     0.000 C 
BRANCH  20  21
ATOM     21  C   UNL     1       2.418   6.022  -1.441  1.00  0.00     0.000 C 
BRANCH  21  22
ATOM     22  C   UNL     1       2.071   7.416  -0.873  1.00  0.00    -0.000 C 
BRANCH  22  23
ATOM     23  C   UNL     1       1.123   8.200  -1.796  1.00  0.00    -0.000 C 
BRANCH  23  24
ATOM     24  C   UNL     1      -0.171   7.421  -2.120  1.00  0.00    -0.000 C 
BRANCH  24  25
ATOM     25  C   UNL     1      -1.460   8.222  -1.858  1.00  0.00    -0.000 C 
BRANCH  25  26
ATOM     26  C   UNL     1      -1.855   8.355  -0.375  1.00  0.00    -0.000 C 
BRANCH  26  27
ATOM     27  C   UNL     1      -3.369   8.278  -0.095  1.00  0.00    -0.000 C 
BRANCH  27  28
ATOM     28  C   UNL     1      -4.104   9.631  -0.113  1.00  0.00    -0.000 C 
BRANCH  28  29
ATOM     29  C   UNL     1      -5.173   9.743  -1.221  1.00  0.00    -0.003 C 
ATOM     30  C   UNL     1      -4.743   9.071  -2.525  1.00  0.00     0.004 C 
ENDBRANCH  28  29
ENDBRANCH  27  28
ENDBRANCH  26  27
ENDBRANCH  25  26
ENDBRANCH  24  25
ENDBRANCH  23  24
ENDBRANCH  22  23
ENDBRANCH  21  22
ENDBRANCH  20  21
ENDBRANCH  19  20
ENDBRANCH  18  19
ENDBRANCH  17  18
ENDBRANCH   1  17
TORSDOF 26
ENDMDL
MODEL 8
REMARK VINA RESULT:    10.565      1.596      2.591
REMARK INTER + INTRA:          25.879
REMARK INTER:                  26.200
REMARK INTRA:                  -0.321
REMARK UNBOUND:                -0.744
REMARK SMILES CCCCCCCCCCCCCCCCCCCCCCCCCCCC(=O)[O-]
REMARK SMILES IDX 15 1 16 2 17 3 18 4 19 5 20 6 21 7 22 8 23 9 24 10 25 11
REMARK SMILES IDX 26 12 27 13 28 14 29 15 30 16 14 17 13 18 12 19 11 20 10 21
REMARK SMILES IDX 9 22 8 23 7 24 6 25 5 26 4 27 3 28 2 29 1 30
REMARK H PARENT
REMARK Flexibility Score: inf
ROOT
ATOM      1  C   UNL     1       0.056   0.942   1.206  1.00  0.00     0.000 C 
ENDROOT
BRANCH   1   2
ATOM      2  C   UNL     1       1.210   1.160   0.212  1.00  0.00     0.000 C 
BRANCH   2   3
ATOM      3  C   UNL     1       1.517   2.646  -0.028  1.00  0.00     0.000 C 
BRANCH   3   4
ATOM      4  C   UNL     1       2.975   2.845  -0.459  1.00  0.00     0.000 C 
BRANCH   4   5
ATOM      5  C   UNL     1       3.267   4.328  -0.726  1.00  0.00     0.000 C 
BRANCH   5   6
ATOM      6  C   UNL     1       2.038   5.095  -1.246  1.00  0.00     0.000 C 
BRANCH   6   7
ATOM      7  C   UNL     1       1.805   6.475  -0.595  1.00  0.00     0.000 C 
BRANCH   7   8
ATOM      8  C   UNL     1       1.798   7.669  -1.568  1.00  0.00     0.000 C 
BRANCH   8   9
ATOM      9  C   UNL     1       0.489   7.858  -2.359  1.00  0.00     0.000 C 
BRANCH   9  10
ATOM     10  C   UNL     1      -0.778   7.457  -1.575  1.00  0.00     0.000 C 
BRANCH  10  11
ATOM     11  C   UNL     1      -1.874   8.533  -1.626  1.00  0.00     0.000 C 
BRANCH  11  12
ATOM     12  C   UNL     1      -2.503   8.743  -0.241  1.00  0.00     0.006 C 
BRANCH  12  13
ATOM     13  C   UNL     1      -4.024   8.533  -0.252  1.00  0.00     0.053 C 
BRANCH  13  14
ATOM     14  C   UNL     1      -4.656   9.015  -1.525  1.00  0.00     0.041 C 
ATOM     15  O   UNL     1      -5.821   9.496  -1.506  1.00  0.00    -0.550 OA
ATOM     16  O   UNL     1      -3.985   8.889  -2.735  1.00  0.00    -0.550 OA
ENDBRANCH  13  14
ENDBRANCH  12  13
ENDBRANCH  11  12
ENDBRANCH  10  11
ENDBRANCH   9  10
ENDBRANCH   8   9
ENDBRANCH   7   8
ENDBRANCH   6   7
ENDBRANCH   5   6
ENDBRANCH   4   5
ENDBRANCH   3   4
ENDBRANCH   2   3
ENDBRANCH   1   2
BRANCH   1  17
ATOM     17  C   UNL     1      -0.723   2.214   1.586  1.00  0.00     0.000 C 
BRANCH  17  18
ATOM     18  C   UNL     1      -1.970   1.922   2.434  1.00  0.00     0.000 C 
BRANCH  18  19
ATOM     19  C   UNL     1      -2.634   3.231   2.886  1.00  0.00     0.000 C 
BRANCH  19  20
ATOM     20  C   UNL     1      -1.932   3.869   4.097  1.00  0.00     0.000 C 
BRANCH  20  21
ATOM     21  C   UNL     1      -2.842   4.110   5.316  1.00  0.00     0.000 C 
BRANCH  21  22
ATOM     22  C   UNL     1      -3.049   5.604   5.652  1.00  0.00    -0.000 C 
BRANCH  22  23
ATOM     23  C   UNL     1      -3.989   5.804   6.853  1.00  0.00    -0.000 C 
BRANCH  23  24
ATOM     24  C   UNL     1      -3.940   4.626   7.849  1.00  0.00    -0.000 C 
BRANCH  24  25
ATOM     25  C   UNL     1      -4.245   5.030   9.304  1.00  0.00    -0.000 C 
BRANCH  25  26
ATOM     26  C   UNL     1      -3.707   6.411   9.723  1.00  0.00    -0.000 C 
BRANCH  26  27
ATOM     27  C   UNL     1      -2.179   6.484   9.915  1.00  0.00    -0.000 C 
BRANCH  27  28
ATOM     28  C   UNL     1      -1.582   7.902   9.857  1.00  0.00    -0.000 C 
BRANCH  28  29
ATOM     29  C   UNL     1      -0.062   7.949  10.124  1.00  0.00    -0.003 C 
ATOM     30  C   UNL     1       0.510   9.362  10.027  1.00  0.00     0.004 C 
ENDBRANCH  28  29
ENDBRANCH  27  28
ENDBRANCH  26  27
ENDBRANCH  25  26
ENDBRANCH  24  25
ENDBRANCH  23  24
ENDBRANCH  22  23
ENDBRANCH  21  22
ENDBRANCH  20  21
ENDBRANCH  19  20
ENDBRANCH  18  19
ENDBRANCH  17  18
ENDBRANCH   1  17
TORSDOF 26
ENDMDL
