MODEL 1
REMARK VINA RESULT:   114.386      0.000      0.000
REMARK INTER + INTRA:         117.729
REMARK INTER:                 117.729
REMARK INTRA:                   0.000
REMARK UNBOUND:                 0.000
REMARK SMILES CC1(C)CC[C@@]2(C)CC[C@]3(C)C(=CC[C@H]4[C@]5(C)CC[C@H](O)C(C)(C)[C@H]5CC[C@@]43C)[C@H]2C1
REMARK SMILES IDX 1 1 2 2 4 3 5 4 6 5 8 6 9 7 10 8 12 9 13 10 14 11 15 12
REMARK SMILES IDX 28 13 27 14 26 15 25 16 16 17 18 18 19 19 20 20 22 21 23 22
REMARK SMILES IDX 24 23 17 24 29 25 30 26 31 27 11 28 7 29 3 30 21 31
REMARK H PARENT 21 32
REMARK Flexibility Score: inf
ROOT
ATOM      1  C   UNL     1      -3.030 -10.380  11.436  1.00  0.00     0.011 C 
ATOM      2  C   UNL     1      -4.004  -9.726  12.446  1.00  0.00    -0.035 C 
ATOM      3  C   UNL     1      -4.763  -8.534  11.774  1.00  0.00     0.007 C 
ATOM      4  C   UNL     1      -4.626  -7.208  12.545  1.00  0.00     0.008 C 
ATOM      5  C   UNL     1      -3.134  -6.815  12.760  1.00  0.00    -0.026 C 
ATOM      6  C   UNL     1      -3.108  -5.517  13.623  1.00  0.00     0.008 C 
ATOM      7  C   UNL     1      -1.690  -5.076  14.082  1.00  0.00     0.012 C 
ATOM      8  C   UNL     1      -0.748  -6.233  14.612  1.00  0.00    -0.006 C 
ATOM      9  C   UNL     1      -1.645  -7.482  14.780  1.00  0.00    -0.064 C 
ATOM     10  C   UNL     1      -2.031  -7.914  16.019  1.00  0.00    -0.027 C 
ATOM     11  C   UNL     1      -1.613  -7.287  17.325  1.00  0.00     0.032 C 
ATOM     12  C   UNL     1      -1.076  -5.853  17.142  1.00  0.00     0.006 C 
ATOM     13  C   UNL     1       0.007  -5.851  15.988  1.00  0.00    -0.020 C 
ATOM     14  C   UNL     1       0.731  -4.462  15.876  1.00  0.00     0.008 C 
ATOM     15  C   UNL     1       1.105  -3.839  17.224  1.00  0.00     0.005 C 
ATOM     16  C   UNL     1      -0.158  -3.665  18.098  1.00  0.00     0.003 C 
ATOM     17  C   UNL     1      -0.755  -5.067  18.499  1.00  0.00    -0.025 C 
ATOM     18  C   UNL     1      -2.097  -4.812  19.261  1.00  0.00     0.010 C 
ATOM     19  C   UNL     1      -1.967  -3.827  20.435  1.00  0.00     0.033 C 
ATOM     20  C   UNL     1      -1.393  -2.471  20.002  1.00  0.00     0.120 C 
ATOM     21  C   UNL     1      -0.018  -2.597  19.260  1.00  0.00    -0.006 C 
ATOM     22  C   UNL     1       0.301  -1.194  18.661  1.00  0.00     0.014 C 
ATOM     23  C   UNL     1       1.125  -2.936  20.270  1.00  0.00     0.014 C 
ATOM     24  C   UNL     1       0.164  -5.891  19.455  1.00  0.00     0.012 C 
ATOM     25  C   UNL     1       1.125  -6.917  16.272  1.00  0.00     0.012 C 
ATOM     26  C   UNL     1      -2.347  -7.993  13.493  1.00  0.00     0.022 C 
ATOM     27  C   UNL     1      -3.227  -9.264  13.713  1.00  0.00     0.015 C 
ATOM     28  C   UNL     1       0.321  -6.525  13.506  1.00  0.00     0.017 C 
ATOM     29  C   UNL     1      -2.530  -6.486  11.356  1.00  0.00     0.012 C 
ATOM     30  C   UNL     1      -5.024 -10.805  12.877  1.00  0.00     0.011 C 
ENDROOT
BRANCH  20  31
ATOM     31  O   UNL     1      -2.348  -1.837  19.178  1.00  0.00    -0.393 OA
ATOM     32  H   UNL     1      -2.491  -0.918  19.528  1.00  0.00     0.210 HD
ENDBRANCH  20  31
TORSDOF 1
ENDMDL
