MODEL 1
REMARK VINA RESULT:    -4.420      0.000      0.000
REMARK INTER + INTRA:          -8.226
REMARK INTER:                  -7.521
REMARK INTRA:                  -0.706
REMARK UNBOUND:                -0.706
REMARK SMILES CCCCCCCCCCCCCC(=O)[O-]
REMARK SMILES IDX 8 1 9 2 10 3 11 4 12 5 13 6 14 7 15 8 16 9 7 10 6 11 5 12
REMARK SMILES IDX 4 13 3 14 2 15 1 16
REMARK H PARENT
REMARK Flexibility Score: inf
ROOT
ATOM      1  C   UNL     1     -44.953  27.335  -1.002  1.00  0.00     0.000 C 
ENDROOT
BRANCH   1   2
ATOM      2  C   UNL     1     -43.623  27.300  -0.231  1.00  0.00     0.000 C 
BRANCH   2   3
ATOM      3  C   UNL     1     -42.858  28.638  -0.318  1.00  0.00     0.000 C 
BRANCH   3   4
ATOM      4  C   UNL     1     -42.572  29.280   1.054  1.00  0.00     0.000 C 
BRANCH   4   5
ATOM      5  C   UNL     1     -43.784  29.352   2.003  1.00  0.00     0.006 C 
BRANCH   5   6
ATOM      6  C   UNL     1     -43.659  28.470   3.256  1.00  0.00     0.053 C 
BRANCH   6   7
ATOM      7  C   UNL     1     -44.649  27.346   3.248  1.00  0.00     0.041 C 
ATOM      8  O   UNL     1     -45.874  27.580   3.074  1.00  0.00    -0.550 OA
ATOM      9  O   UNL     1     -44.221  26.042   3.465  1.00  0.00    -0.550 OA
ENDBRANCH   6   7
ENDBRANCH   5   6
ENDBRANCH   4   5
ENDBRANCH   3   4
ENDBRANCH   2   3
ENDBRANCH   1   2
BRANCH   1  10
ATOM     10  C   UNL     1     -45.255  26.016  -1.732  1.00  0.00     0.000 C 
BRANCH  10  11
ATOM     11  C   UNL     1     -46.418  26.124  -2.741  1.00  0.00    -0.000 C 
BRANCH  11  12
ATOM     12  C   UNL     1     -46.352  27.423  -3.563  1.00  0.00    -0.000 C 
BRANCH  12  13
ATOM     13  C   UNL     1     -46.883  27.250  -4.998  1.00  0.00    -0.000 C 
BRANCH  13  14
ATOM     14  C   UNL     1     -45.963  26.448  -5.940  1.00  0.00    -0.000 C 
BRANCH  14  15
ATOM     15  C   UNL     1     -45.523  27.197  -7.210  1.00  0.00    -0.003 C 
ATOM     16  C   UNL     1     -45.347  28.698  -6.985  1.00  0.00     0.004 C 
ENDBRANCH  14  15
ENDBRANCH  13  14
ENDBRANCH  12  13
ENDBRANCH  11  12
ENDBRANCH  10  11
ENDBRANCH   1  10
TORSDOF 12
ENDMDL
MODEL 2
REMARK VINA RESULT:    -4.414      0.654      1.431
REMARK INTER + INTRA:          -8.216
REMARK INTER:                  -7.403
REMARK INTRA:                  -0.813
REMARK UNBOUND:                -0.706
REMARK SMILES CCCCCCCCCCCCCC(=O)[O-]
REMARK SMILES IDX 8 1 9 2 10 3 11 4 12 5 13 6 14 7 15 8 16 9 7 10 6 11 5 12
REMARK SMILES IDX 4 13 3 14 2 15 1 16
REMARK H PARENT
REMARK Flexibility Score: inf
ROOT
ATOM      1  C   UNL     1     -43.971  27.128  -0.113  1.00  0.00     0.000 C 
ENDROOT
BRANCH   1   2
ATOM      2  C   UNL     1     -42.742  28.046  -0.219  1.00  0.00     0.000 C 
BRANCH   2   3
ATOM      3  C   UNL     1     -43.029  29.473   0.296  1.00  0.00     0.000 C 
BRANCH   3   4
ATOM      4  C   UNL     1     -42.671  29.682   1.780  1.00  0.00     0.000 C 
BRANCH   4   5
ATOM      5  C   UNL     1     -43.859  29.582   2.756  1.00  0.00     0.006 C 
BRANCH   5   6
ATOM      6  C   UNL     1     -43.758  28.421   3.759  1.00  0.00     0.053 C 
BRANCH   6   7
ATOM      7  C   UNL     1     -44.639  27.273   3.375  1.00  0.00     0.041 C 
ATOM      8  O   UNL     1     -44.208  26.093   3.439  1.00  0.00    -0.550 OA
ATOM      9  O   UNL     1     -45.929  27.511   2.914  1.00  0.00    -0.550 OA
ENDBRANCH   6   7
ENDBRANCH   5   6
ENDBRANCH   4   5
ENDBRANCH   3   4
ENDBRANCH   2   3
ENDBRANCH   1   2
BRANCH   1  10
ATOM     10  C   UNL     1     -44.921  27.261  -1.314  1.00  0.00     0.000 C 
BRANCH  10  11
ATOM     11  C   UNL     1     -45.556  25.923  -1.747  1.00  0.00    -0.000 C 
BRANCH  11  12
ATOM     12  C   UNL     1     -46.247  26.027  -3.118  1.00  0.00    -0.000 C 
BRANCH  12  13
ATOM     13  C   UNL     1     -46.503  27.483  -3.549  1.00  0.00    -0.000 C 
BRANCH  13  14
ATOM     14  C   UNL     1     -46.191  27.788  -5.028  1.00  0.00    -0.000 C 
BRANCH  14  15
ATOM     15  C   UNL     1     -45.961  26.549  -5.912  1.00  0.00    -0.003 C 
ATOM     16  C   UNL     1     -45.527  26.905  -7.334  1.00  0.00     0.004 C 
ENDBRANCH  14  15
ENDBRANCH  13  14
ENDBRANCH  12  13
ENDBRANCH  11  12
ENDBRANCH  10  11
ENDBRANCH   1  10
TORSDOF 12
ENDMDL
MODEL 3
REMARK VINA RESULT:    -4.129      2.768      4.891
REMARK INTER + INTRA:          -7.732
REMARK INTER:                  -6.623
REMARK INTRA:                  -1.109
REMARK UNBOUND:                -0.706
REMARK SMILES CCCCCCCCCCCCCC(=O)[O-]
REMARK SMILES IDX 8 1 9 2 10 3 11 4 12 5 13 6 14 7 15 8 16 9 7 10 6 11 5 12
REMARK SMILES IDX 4 13 3 14 2 15 1 16
REMARK H PARENT
REMARK Flexibility Score: inf
ROOT
ATOM      1  C   UNL     1     -44.219  27.050   3.081  1.00  0.00     0.000 C 
ENDROOT
BRANCH   1   2
ATOM      2  C   UNL     1     -45.016  28.363   3.011  1.00  0.00     0.000 C 
BRANCH   2   3
ATOM      3  C   UNL     1     -45.827  28.628   4.298  1.00  0.00     0.000 C 
BRANCH   3   4
ATOM      4  C   UNL     1     -45.850  27.436   5.274  1.00  0.00     0.000 C 
BRANCH   4   5
ATOM      5  C   UNL     1     -45.177  27.697   6.635  1.00  0.00     0.006 C 
BRANCH   5   6
ATOM      6  C   UNL     1     -43.738  27.166   6.741  1.00  0.00     0.053 C 
BRANCH   6   7
ATOM      7  C   UNL     1     -42.729  28.268   6.659  1.00  0.00     0.041 C 
ATOM      8  O   UNL     1     -42.567  28.902   5.583  1.00  0.00    -0.550 OA
ATOM      9  O   UNL     1     -41.943  28.576   7.763  1.00  0.00    -0.550 OA
ENDBRANCH   6   7
ENDBRANCH   5   6
ENDBRANCH   4   5
ENDBRANCH   3   4
ENDBRANCH   2   3
ENDBRANCH   1   2
BRANCH   1  10
ATOM     10  C   UNL     1     -43.181  26.921   1.955  1.00  0.00     0.000 C 
BRANCH  10  11
ATOM     11  C   UNL     1     -42.911  28.247   1.213  1.00  0.00    -0.000 C 
BRANCH  11  12
ATOM     12  C   UNL     1     -43.111  28.112  -0.306  1.00  0.00    -0.000 C 
BRANCH  12  13
ATOM     13  C   UNL     1     -44.197  27.085  -0.676  1.00  0.00    -0.000 C 
BRANCH  13  14
ATOM     14  C   UNL     1     -45.459  27.679  -1.333  1.00  0.00    -0.000 C 
BRANCH  14  15
ATOM     15  C   UNL     1     -46.271  26.691  -2.190  1.00  0.00    -0.003 C 
ATOM     16  C   UNL     1     -45.828  25.240  -2.008  1.00  0.00     0.004 C 
ENDBRANCH  14  15
ENDBRANCH  13  14
ENDBRANCH  12  13
ENDBRANCH  11  12
ENDBRANCH  10  11
ENDBRANCH   1  10
TORSDOF 12
ENDMDL
MODEL 4
REMARK VINA RESULT:    -4.127      1.946      3.185
REMARK INTER + INTRA:          -7.728
REMARK INTER:                  -6.662
REMARK INTRA:                  -1.066
REMARK UNBOUND:                -0.706
REMARK SMILES CCCCCCCCCCCCCC(=O)[O-]
REMARK SMILES IDX 8 1 9 2 10 3 11 4 12 5 13 6 14 7 15 8 16 9 7 10 6 11 5 12
REMARK SMILES IDX 4 13 3 14 2 15 1 16
REMARK H PARENT
REMARK Flexibility Score: inf
ROOT
ATOM      1  C   UNL     1     -43.051  27.819   0.223  1.00  0.00     0.000 C 
ENDROOT
BRANCH   1   2
ATOM      2  C   UNL     1     -42.981  28.029   1.744  1.00  0.00     0.000 C 
BRANCH   2   3
ATOM      3  C   UNL     1     -43.983  27.136   2.507  1.00  0.00     0.000 C 
BRANCH   3   4
ATOM      4  C   UNL     1     -45.201  27.901   3.059  1.00  0.00     0.000 C 
BRANCH   4   5
ATOM      5  C   UNL     1     -45.270  27.995   4.595  1.00  0.00     0.006 C 
BRANCH   5   6
ATOM      6  C   UNL     1     -44.178  27.198   5.327  1.00  0.00     0.053 C 
BRANCH   6   7
ATOM      7  C   UNL     1     -43.178  28.097   5.986  1.00  0.00     0.041 C 
ATOM      8  O   UNL     1     -42.654  29.043   5.342  1.00  0.00    -0.550 OA
ATOM      9  O   UNL     1     -42.800  27.869   7.304  1.00  0.00    -0.550 OA
ENDBRANCH   6   7
ENDBRANCH   5   6
ENDBRANCH   4   5
ENDBRANCH   3   4
ENDBRANCH   2   3
ENDBRANCH   1   2
BRANCH   1  10
ATOM     10  C   UNL     1     -44.150  28.661  -0.446  1.00  0.00     0.000 C 
BRANCH  10  11
ATOM     11  C   UNL     1     -45.299  27.815  -1.035  1.00  0.00    -0.000 C 
BRANCH  11  12
ATOM     12  C   UNL     1     -44.863  26.368  -1.324  1.00  0.00    -0.000 C 
BRANCH  12  13
ATOM     13  C   UNL     1     -45.980  25.524  -1.964  1.00  0.00    -0.000 C 
BRANCH  13  14
ATOM     14  C   UNL     1     -46.866  26.278  -2.977  1.00  0.00    -0.000 C 
BRANCH  14  15
ATOM     15  C   UNL     1     -46.271  26.405  -4.391  1.00  0.00    -0.003 C 
ATOM     16  C   UNL     1     -46.281  27.841  -4.915  1.00  0.00     0.004 C 
ENDBRANCH  14  15
ENDBRANCH  13  14
ENDBRANCH  12  13
ENDBRANCH  11  12
ENDBRANCH  10  11
ENDBRANCH   1  10
TORSDOF 12
ENDMDL
MODEL 5
REMARK VINA RESULT:    -4.066      3.123      4.553
REMARK INTER + INTRA:          -7.624
REMARK INTER:                  -6.386
REMARK INTRA:                  -1.238
REMARK UNBOUND:                -0.706
REMARK SMILES CCCCCCCCCCCCCC(=O)[O-]
REMARK SMILES IDX 8 1 9 2 10 3 11 4 12 5 13 6 14 7 15 8 16 9 7 10 6 11 5 12
REMARK SMILES IDX 4 13 3 14 2 15 1 16
REMARK H PARENT
REMARK Flexibility Score: inf
ROOT
ATOM      1  C   UNL     1     -42.528  27.879   0.712  1.00  0.00     0.000 C 
ENDROOT
BRANCH   1   2
ATOM      2  C   UNL     1     -43.026  28.127   2.145  1.00  0.00     0.000 C 
BRANCH   2   3
ATOM      3  C   UNL     1     -44.121  27.123   2.569  1.00  0.00     0.000 C 
BRANCH   3   4
ATOM      4  C   UNL     1     -44.739  27.424   3.948  1.00  0.00     0.000 C 
BRANCH   4   5
ATOM      5  C   UNL     1     -43.738  27.896   5.020  1.00  0.00     0.006 C 
BRANCH   5   6
ATOM      6  C   UNL     1     -43.821  27.123   6.347  1.00  0.00     0.053 C 
BRANCH   6   7
ATOM      7  C   UNL     1     -43.153  27.861   7.465  1.00  0.00     0.041 C 
ATOM      8  O   UNL     1     -42.045  28.428   7.278  1.00  0.00    -0.550 OA
ATOM      9  O   UNL     1     -43.740  27.895   8.724  1.00  0.00    -0.550 OA
ENDBRANCH   6   7
ENDBRANCH   5   6
ENDBRANCH   4   5
ENDBRANCH   3   4
ENDBRANCH   2   3
ENDBRANCH   1   2
BRANCH   1  10
ATOM     10  C   UNL     1     -42.532  29.153  -0.149  1.00  0.00     0.000 C 
BRANCH  10  11
ATOM     11  C   UNL     1     -43.885  29.896  -0.142  1.00  0.00    -0.000 C 
BRANCH  11  12
ATOM     12  C   UNL     1     -44.890  29.277  -1.129  1.00  0.00    -0.000 C 
BRANCH  12  13
ATOM     13  C   UNL     1     -46.102  28.639  -0.426  1.00  0.00    -0.000 C 
BRANCH  13  14
ATOM     14  C   UNL     1     -46.114  27.098  -0.419  1.00  0.00    -0.000 C 
BRANCH  14  15
ATOM     15  C   UNL     1     -45.030  26.436  -1.289  1.00  0.00    -0.003 C 
ATOM     16  C   UNL     1     -45.610  25.557  -2.396  1.00  0.00     0.004 C 
ENDBRANCH  14  15
ENDBRANCH  13  14
ENDBRANCH  12  13
ENDBRANCH  11  12
ENDBRANCH  10  11
ENDBRANCH   1  10
TORSDOF 12
ENDMDL
MODEL 6
REMARK VINA RESULT:    -4.033      3.937      7.365
REMARK INTER + INTRA:          -7.567
REMARK INTER:                  -6.074
REMARK INTRA:                  -1.494
REMARK UNBOUND:                -0.706
REMARK SMILES CCCCCCCCCCCCCC(=O)[O-]
REMARK SMILES IDX 8 1 9 2 10 3 11 4 12 5 13 6 14 7 15 8 16 9 7 10 6 11 5 12
REMARK SMILES IDX 4 13 3 14 2 15 1 16
REMARK H PARENT
REMARK Flexibility Score: inf
ROOT
ATOM      1  C   UNL     1     -45.611  28.143  -1.560  1.00  0.00     0.000 C 
ENDROOT
BRANCH   1   2
ATOM      2  C   UNL     1     -45.166  26.689  -1.337  1.00  0.00     0.000 C 
BRANCH   2   3
ATOM      3  C   UNL     1     -45.476  25.786  -2.551  1.00  0.00     0.000 C 
BRANCH   3   4
ATOM      4  C   UNL     1     -46.589  26.336  -3.464  1.00  0.00     0.000 C 
BRANCH   4   5
ATOM      5  C   UNL     1     -46.176  26.555  -4.933  1.00  0.00     0.006 C 
BRANCH   5   6
ATOM      6  C   UNL     1     -46.174  28.027  -5.376  1.00  0.00     0.053 C 
BRANCH   6   7
ATOM      7  C   UNL     1     -45.570  28.200  -6.735  1.00  0.00     0.041 C 
ATOM      8  O   UNL     1     -44.926  29.245  -7.016  1.00  0.00    -0.550 OA
ATOM      9  O   UNL     1     -45.746  27.219  -7.703  1.00  0.00    -0.550 OA
ENDBRANCH   6   7
ENDBRANCH   5   6
ENDBRANCH   4   5
ENDBRANCH   3   4
ENDBRANCH   2   3
ENDBRANCH   1   2
BRANCH   1  10
ATOM     10  C   UNL     1     -46.275  28.761  -0.319  1.00  0.00     0.000 C 
BRANCH  10  11
ATOM     11  C   UNL     1     -46.387  27.782   0.869  1.00  0.00    -0.000 C 
BRANCH  11  12
ATOM     12  C   UNL     1     -45.825  28.382   2.169  1.00  0.00    -0.000 C 
BRANCH  12  13
ATOM     13  C   UNL     1     -44.320  28.698   2.079  1.00  0.00    -0.000 C 
BRANCH  13  14
ATOM     14  C   UNL     1     -43.413  27.477   1.832  1.00  0.00    -0.000 C 
BRANCH  14  15
ATOM     15  C   UNL     1     -42.326  27.682   0.761  1.00  0.00    -0.003 C 
ATOM     16  C   UNL     1     -42.424  29.040   0.066  1.00  0.00     0.004 C 
ENDBRANCH  14  15
ENDBRANCH  13  14
ENDBRANCH  12  13
ENDBRANCH  11  12
ENDBRANCH  10  11
ENDBRANCH   1  10
TORSDOF 12
ENDMDL
MODEL 7
REMARK VINA RESULT:    -4.009      1.797      3.557
REMARK INTER + INTRA:          -7.528
REMARK INTER:                  -6.668
REMARK INTRA:                  -0.860
REMARK UNBOUND:                -0.706
REMARK SMILES CCCCCCCCCCCCCC(=O)[O-]
REMARK SMILES IDX 8 1 9 2 10 3 11 4 12 5 13 6 14 7 15 8 16 9 7 10 6 11 5 12
REMARK SMILES IDX 4 13 3 14 2 15 1 16
REMARK H PARENT
REMARK Flexibility Score: inf
ROOT
ATOM      1  C   UNL     1     -42.872  27.500   1.515  1.00  0.00     0.000 C 
ENDROOT
BRANCH   1   2
ATOM      2  C   UNL     1     -43.747  28.401   2.403  1.00  0.00     0.000 C 
BRANCH   2   3
ATOM      3  C   UNL     1     -42.926  29.133   3.487  1.00  0.00     0.000 C 
BRANCH   3   4
ATOM      4  C   UNL     1     -43.702  29.373   4.796  1.00  0.00     0.000 C 
BRANCH   4   5
ATOM      5  C   UNL     1     -43.431  28.344   5.911  1.00  0.00     0.006 C 
BRANCH   5   6
ATOM      6  C   UNL     1     -44.133  26.991   5.707  1.00  0.00     0.053 C 
BRANCH   6   7
ATOM      7  C   UNL     1     -45.624  27.128   5.724  1.00  0.00     0.041 C 
ATOM      8  O   UNL     1     -46.241  27.215   6.817  1.00  0.00    -0.550 OA
ATOM      9  O   UNL     1     -46.335  27.127   4.530  1.00  0.00    -0.550 OA
ENDBRANCH   6   7
ENDBRANCH   5   6
ENDBRANCH   4   5
ENDBRANCH   3   4
ENDBRANCH   2   3
ENDBRANCH   1   2
BRANCH   1  10
ATOM     10  C   UNL     1     -43.003  27.830   0.019  1.00  0.00     0.000 C 
BRANCH  10  11
ATOM     11  C   UNL     1     -44.249  28.678  -0.317  1.00  0.00    -0.000 C 
BRANCH  11  12
ATOM     12  C   UNL     1     -45.307  27.871  -1.089  1.00  0.00    -0.000 C 
BRANCH  12  13
ATOM     13  C   UNL     1     -44.881  26.413  -1.340  1.00  0.00    -0.000 C 
BRANCH  13  14
ATOM     14  C   UNL     1     -45.882  25.573  -2.159  1.00  0.00    -0.000 C 
BRANCH  14  15
ATOM     15  C   UNL     1     -46.828  26.388  -3.059  1.00  0.00    -0.003 C 
ATOM     16  C   UNL     1     -46.316  26.524  -4.493  1.00  0.00     0.004 C 
ENDBRANCH  14  15
ENDBRANCH  13  14
ENDBRANCH  12  13
ENDBRANCH  11  12
ENDBRANCH  10  11
ENDBRANCH   1  10
TORSDOF 12
ENDMDL
MODEL 8
REMARK VINA RESULT:    -3.984      1.690      2.758
REMARK INTER + INTRA:          -7.484
REMARK INTER:                  -6.069
REMARK INTRA:                  -1.416
REMARK UNBOUND:                -0.706
REMARK SMILES CCCCCCCCCCCCCC(=O)[O-]
REMARK SMILES IDX 8 1 9 2 10 3 11 4 12 5 13 6 14 7 15 8 16 9 7 10 6 11 5 12
REMARK SMILES IDX 4 13 3 14 2 15 1 16
REMARK H PARENT
REMARK Flexibility Score: inf
ROOT
ATOM      1  C   UNL     1     -43.817  27.780  -0.398  1.00  0.00     0.000 C 
ENDROOT
BRANCH   1   2
ATOM      2  C   UNL     1     -42.813  27.947   0.754  1.00  0.00     0.000 C 
BRANCH   2   3
ATOM      3  C   UNL     1     -42.631  29.423   1.167  1.00  0.00     0.000 C 
BRANCH   3   4
ATOM      4  C   UNL     1     -43.337  29.790   2.487  1.00  0.00     0.000 C 
BRANCH   4   5
ATOM      5  C   UNL     1     -42.965  28.903   3.691  1.00  0.00     0.006 C 
BRANCH   5   6
ATOM      6  C   UNL     1     -44.173  28.363   4.476  1.00  0.00     0.053 C 
BRANCH   6   7
ATOM      7  C   UNL     1     -44.906  27.304   3.713  1.00  0.00     0.041 C 
ATOM      8  O   UNL     1     -44.300  26.274   3.316  1.00  0.00    -0.550 OA
ATOM      9  O   UNL     1     -46.252  27.470   3.411  1.00  0.00    -0.550 OA
ENDBRANCH   6   7
ENDBRANCH   5   6
ENDBRANCH   4   5
ENDBRANCH   3   4
ENDBRANCH   2   3
ENDBRANCH   1   2
BRANCH   1  10
ATOM     10  C   UNL     1     -45.265  28.078   0.024  1.00  0.00     0.000 C 
BRANCH  10  11
ATOM     11  C   UNL     1     -45.907  29.242  -0.759  1.00  0.00    -0.000 C 
BRANCH  11  12
ATOM     12  C   UNL     1     -46.927  28.747  -1.799  1.00  0.00    -0.000 C 
BRANCH  12  13
ATOM     13  C   UNL     1     -46.280  28.391  -3.149  1.00  0.00    -0.000 C 
BRANCH  13  14
ATOM     14  C   UNL     1     -46.608  26.980  -3.677  1.00  0.00    -0.000 C 
BRANCH  14  15
ATOM     15  C   UNL     1     -45.758  25.847  -3.073  1.00  0.00    -0.003 C 
ATOM     16  C   UNL     1     -46.495  25.062  -1.989  1.00  0.00     0.004 C 
ENDBRANCH  14  15
ENDBRANCH  13  14
ENDBRANCH  12  13
ENDBRANCH  11  12
ENDBRANCH  10  11
ENDBRANCH   1  10
TORSDOF 12
ENDMDL
MODEL 9
REMARK VINA RESULT:    -3.956      3.634      8.079
REMARK INTER + INTRA:          -7.437
REMARK INTER:                  -6.703
REMARK INTRA:                  -0.735
REMARK UNBOUND:                -0.706
REMARK SMILES CCCCCCCCCCCCCC(=O)[O-]
REMARK SMILES IDX 8 1 9 2 10 3 11 4 12 5 13 6 14 7 15 8 16 9 7 10 6 11 5 12
REMARK SMILES IDX 4 13 3 14 2 15 1 16
REMARK H PARENT
REMARK Flexibility Score: inf
ROOT
ATOM      1  C   UNL     1     -44.121  27.168   0.276  1.00  0.00     0.000 C 
ENDROOT
BRANCH   1   2
ATOM      2  C   UNL     1     -45.305  27.173  -0.706  1.00  0.00     0.000 C 
BRANCH   2   3
ATOM      3  C   UNL     1     -45.221  26.024  -1.734  1.00  0.00     0.000 C 
BRANCH   3   4
ATOM      4  C   UNL     1     -46.391  26.000  -2.735  1.00  0.00     0.000 C 
BRANCH   4   5
ATOM      5  C   UNL     1     -46.290  27.027  -3.879  1.00  0.00     0.006 C 
BRANCH   5   6
ATOM      6  C   UNL     1     -46.678  26.476  -5.261  1.00  0.00     0.053 C 
BRANCH   6   7
ATOM      7  C   UNL     1     -45.803  27.023  -6.346  1.00  0.00     0.041 C 
ATOM      8  O   UNL     1     -45.453  28.232  -6.330  1.00  0.00    -0.550 OA
ATOM      9  O   UNL     1     -45.399  26.203  -7.393  1.00  0.00    -0.550 OA
ENDBRANCH   6   7
ENDBRANCH   5   6
ENDBRANCH   4   5
ENDBRANCH   3   4
ENDBRANCH   2   3
ENDBRANCH   1   2
BRANCH   1  10
ATOM     10  C   UNL     1     -42.871  27.857  -0.294  1.00  0.00     0.000 C 
BRANCH  10  11
ATOM     11  C   UNL     1     -42.411  29.077   0.533  1.00  0.00    -0.000 C 
BRANCH  11  12
ATOM     12  C   UNL     1     -43.490  29.544   1.525  1.00  0.00    -0.000 C 
BRANCH  12  13
ATOM     13  C   UNL     1     -42.921  29.864   2.919  1.00  0.00    -0.000 C 
BRANCH  13  14
ATOM     14  C   UNL     1     -43.139  28.766   3.979  1.00  0.00    -0.000 C 
BRANCH  14  15
ATOM     15  C   UNL     1     -44.399  27.905   3.774  1.00  0.00    -0.003 C 
ATOM     16  C   UNL     1     -45.155  27.636   5.074  1.00  0.00     0.004 C 
ENDBRANCH  14  15
ENDBRANCH  13  14
ENDBRANCH  12  13
ENDBRANCH  11  12
ENDBRANCH  10  11
ENDBRANCH   1  10
TORSDOF 12
ENDMDL
