MODEL 1
REMARK VINA RESULT:    -4.434      0.000      0.000
REMARK INTER + INTRA:          -5.581
REMARK INTER:                  -5.342
REMARK INTRA:                  -0.239
REMARK UNBOUND:                -0.239
REMARK SMILES NC(=O)C[C@@H]([NH3+])C(=O)[O-]
REMARK SMILES IDX 4 1 5 2 6 3 7 7 8 8 9 9 2 10 3 11 1 12
REMARK H PARENT 6 4 6 5 6 6 1 13 1 14
REMARK Flexibility Score: inf
ROOT
ATOM      1  C   UNL     1     120.997 155.002 158.686  1.00  0.00     0.171 C 
ENDROOT
BRANCH   1   2
ATOM      2  C   UNL     1     121.662 156.344 158.322  1.00  0.00     0.237 C 
BRANCH   2   3
ATOM      3  N   UNL     1     122.996 156.142 157.740  1.00  0.00    -0.350 N 
ATOM      4  H   UNL     1     123.609 156.959 157.967  1.00  0.00     0.345 HD
ATOM      5  H   UNL     1     122.936 156.035 156.702  1.00  0.00     0.345 HD
ATOM      6  H   UNL     1     123.439 155.288 158.149  1.00  0.00     0.345 HD
ENDBRANCH   2   3
BRANCH   2   7
ATOM      7  C   UNL     1     120.786 157.096 157.354  1.00  0.00     0.100 C 
ATOM      8  O   UNL     1     120.197 158.147 157.720  1.00  0.00    -0.544 OA
ATOM      9  O   UNL     1     120.608 156.626 156.058  1.00  0.00    -0.544 OA
ENDBRANCH   2   7
ENDBRANCH   1   2
BRANCH   1  10
ATOM     10  C   UNL     1     121.309 154.592 160.096  1.00  0.00     0.223 C 
ATOM     11  O   UNL     1     122.327 155.060 160.672  1.00  0.00    -0.275 OA
ATOM     12  N   UNL     1     120.481 153.650 160.778  1.00  0.00    -0.369 N 
ATOM     13  H   UNL     1     120.708 153.361 161.755  1.00  0.00     0.159 HD
ATOM     14  H   UNL     1     119.647 153.234 160.309  1.00  0.00     0.159 HD
ENDBRANCH   1  10
TORSDOF 4
ENDMDL
MODEL 2
REMARK VINA RESULT:    -4.326      3.580      4.894
REMARK INTER + INTRA:          -5.449
REMARK INTER:                  -4.981
REMARK INTRA:                  -0.468
REMARK UNBOUND:                -0.239
REMARK SMILES NC(=O)C[C@@H]([NH3+])C(=O)[O-]
REMARK SMILES IDX 4 1 5 2 6 3 7 7 8 8 9 9 2 10 3 11 1 12
REMARK H PARENT 6 4 6 5 6 6 1 13 1 14
REMARK Flexibility Score: inf
ROOT
ATOM      1  C   UNL     1     121.809 152.618 161.050  1.00  0.00     0.171 C 
ENDROOT
BRANCH   1   2
ATOM      2  C   UNL     1     120.423 151.965 161.212  1.00  0.00     0.237 C 
BRANCH   2   3
ATOM      3  N   UNL     1     119.469 152.880 161.854  1.00  0.00    -0.350 N 
ATOM      4  H   UNL     1     119.865 153.849 161.874  1.00  0.00     0.345 HD
ATOM      5  H   UNL     1     119.262 152.574 162.833  1.00  0.00     0.345 HD
ATOM      6  H   UNL     1     118.578 152.911 161.308  1.00  0.00     0.345 HD
ENDBRANCH   2   3
BRANCH   2   7
ATOM      7  C   UNL     1     119.903 151.540 159.864  1.00  0.00     0.100 C 
ATOM      8  O   UNL     1     118.981 150.686 159.782  1.00  0.00    -0.544 OA
ATOM      9  O   UNL     1     120.449 152.074 158.702  1.00  0.00    -0.544 OA
ENDBRANCH   2   7
ENDBRANCH   1   2
BRANCH   1  10
ATOM     10  C   UNL     1     121.714 154.114 160.985  1.00  0.00     0.223 C 
ATOM     11  O   UNL     1     121.630 154.783 162.049  1.00  0.00    -0.275 OA
ATOM     12  N   UNL     1     121.682 154.785 159.724  1.00  0.00    -0.369 N 
ATOM     13  H   UNL     1     121.605 155.825 159.684  1.00  0.00     0.159 HD
ATOM     14  H   UNL     1     121.727 154.246 158.832  1.00  0.00     0.159 HD
ENDBRANCH   1  10
TORSDOF 4
ENDMDL
MODEL 3
REMARK VINA RESULT:    -4.299      1.806      2.170
REMARK INTER + INTRA:          -5.417
REMARK INTER:                  -4.966
REMARK INTRA:                  -0.451
REMARK UNBOUND:                -0.239
REMARK SMILES NC(=O)C[C@@H]([NH3+])C(=O)[O-]
REMARK SMILES IDX 4 1 5 2 6 3 7 7 8 8 9 9 2 10 3 11 1 12
REMARK H PARENT 6 4 6 5 6 6 1 13 1 14
REMARK Flexibility Score: inf
ROOT
ATOM      1  C   UNL     1     120.466 156.364 158.002  1.00  0.00     0.171 C 
ENDROOT
BRANCH   1   2
ATOM      2  C   UNL     1     121.602 156.823 157.067  1.00  0.00     0.237 C 
BRANCH   2   3
ATOM      3  N   UNL     1     122.876 156.176 157.412  1.00  0.00    -0.350 N 
ATOM      4  H   UNL     1     122.785 155.681 158.329  1.00  0.00     0.345 HD
ATOM      5  H   UNL     1     123.645 156.882 157.478  1.00  0.00     0.345 HD
ATOM      6  H   UNL     1     123.123 155.464 156.688  1.00  0.00     0.345 HD
ENDBRANCH   2   3
BRANCH   2   7
ATOM      7  C   UNL     1     121.237 156.517 155.639  1.00  0.00     0.100 C 
ATOM      8  O   UNL     1     121.637 155.452 155.098  1.00  0.00    -0.544 OA
ATOM      9  O   UNL     1     120.471 157.414 154.903  1.00  0.00    -0.544 OA
ENDBRANCH   2   7
ENDBRANCH   1   2
BRANCH   1  10
ATOM     10  C   UNL     1     120.641 154.936 158.429  1.00  0.00     0.223 C 
ATOM     11  O   UNL     1     121.258 154.674 159.496  1.00  0.00    -0.275 OA
ATOM     12  N   UNL     1     120.145 153.869 157.619  1.00  0.00    -0.369 N 
ATOM     13  H   UNL     1     120.279 152.877 157.915  1.00  0.00     0.159 HD
ATOM     14  H   UNL     1     119.653 154.067 156.720  1.00  0.00     0.159 HD
ENDBRANCH   1  10
TORSDOF 4
ENDMDL
MODEL 4
REMARK VINA RESULT:    -4.247      2.574      4.418
REMARK INTER + INTRA:          -5.355
REMARK INTER:                  -5.098
REMARK INTRA:                  -0.257
REMARK UNBOUND:                -0.239
REMARK SMILES NC(=O)C[C@@H]([NH3+])C(=O)[O-]
REMARK SMILES IDX 4 1 5 2 6 3 7 7 8 8 9 9 2 10 3 11 1 12
REMARK H PARENT 6 4 6 5 6 6 1 13 1 14
REMARK Flexibility Score: inf
ROOT
ATOM      1  C   UNL     1     121.232 154.728 159.555  1.00  0.00     0.171 C 
ENDROOT
BRANCH   1   2
ATOM      2  C   UNL     1     121.484 153.676 160.653  1.00  0.00     0.237 C 
BRANCH   2   3
ATOM      3  N   UNL     1     121.171 154.206 161.988  1.00  0.00    -0.350 N 
ATOM      4  H   UNL     1     121.736 153.704 162.711  1.00  0.00     0.345 HD
ATOM      5  H   UNL     1     120.154 154.088 162.204  1.00  0.00     0.345 HD
ATOM      6  H   UNL     1     121.417 155.221 162.037  1.00  0.00     0.345 HD
ENDBRANCH   2   3
BRANCH   2   7
ATOM      7  C   UNL     1     120.657 152.449 160.378  1.00  0.00     0.100 C 
ATOM      8  O   UNL     1     119.719 152.130 161.156  1.00  0.00    -0.544 OA
ATOM      9  O   UNL     1     120.932 151.650 159.274  1.00  0.00    -0.544 OA
ENDBRANCH   2   7
ENDBRANCH   1   2
BRANCH   1  10
ATOM     10  C   UNL     1     122.364 155.707 159.454  1.00  0.00     0.223 C 
ATOM     11  O   UNL     1     122.842 156.221 160.500  1.00  0.00    -0.275 OA
ATOM     12  N   UNL     1     122.882 156.089 158.178  1.00  0.00    -0.369 N 
ATOM     13  H   UNL     1     123.663 156.778 158.112  1.00  0.00     0.159 HD
ATOM     14  H   UNL     1     122.483 155.691 157.300  1.00  0.00     0.159 HD
ENDBRANCH   1  10
TORSDOF 4
ENDMDL
MODEL 5
REMARK VINA RESULT:    -4.119      2.189      2.593
REMARK INTER + INTRA:          -5.201
REMARK INTER:                  -4.957
REMARK INTRA:                  -0.244
REMARK UNBOUND:                -0.239
REMARK SMILES NC(=O)C[C@@H]([NH3+])C(=O)[O-]
REMARK SMILES IDX 4 1 5 2 6 3 7 7 8 8 9 9 2 10 3 11 1 12
REMARK H PARENT 6 4 6 5 6 6 1 13 1 14
REMARK Flexibility Score: inf
ROOT
ATOM      1  C   UNL     1     122.250 156.374 157.296  1.00  0.00     0.171 C 
ENDROOT
BRANCH   1   2
ATOM      2  C   UNL     1     120.801 156.547 156.796  1.00  0.00     0.237 C 
BRANCH   2   3
ATOM      3  N   UNL     1     120.157 157.716 157.411  1.00  0.00    -0.350 N 
ATOM      4  H   UNL     1     120.275 158.552 156.793  1.00  0.00     0.345 HD
ATOM      5  H   UNL     1     120.576 157.920 158.348  1.00  0.00     0.345 HD
ATOM      6  H   UNL     1     119.132 157.543 157.523  1.00  0.00     0.345 HD
ENDBRANCH   2   3
BRANCH   2   7
ATOM      7  C   UNL     1     120.796 156.684 155.297  1.00  0.00     0.100 C 
ATOM      8  O   UNL     1     120.176 157.633 154.750  1.00  0.00    -0.544 OA
ATOM      9  O   UNL     1     121.462 155.754 154.506  1.00  0.00    -0.544 OA
ENDBRANCH   2   7
ENDBRANCH   1   2
BRANCH   1  10
ATOM     10  C   UNL     1     122.293 155.852 158.702  1.00  0.00     0.223 C 
ATOM     11  O   UNL     1     121.276 155.297 159.195  1.00  0.00    -0.275 OA
ATOM     12  N   UNL     1     123.469 156.010 159.499  1.00  0.00    -0.369 N 
ATOM     13  H   UNL     1     123.490 155.654 160.480  1.00  0.00     0.159 HD
ATOM     14  H   UNL     1     124.313 156.487 159.114  1.00  0.00     0.159 HD
ENDBRANCH   1  10
TORSDOF 4
ENDMDL
MODEL 6
REMARK VINA RESULT:    -4.097      7.200      9.251
REMARK INTER + INTRA:          -5.174
REMARK INTER:                  -5.054
REMARK INTRA:                  -0.120
REMARK UNBOUND:                -0.239
REMARK SMILES NC(=O)C[C@@H]([NH3+])C(=O)[O-]
REMARK SMILES IDX 4 1 5 2 6 3 7 7 8 8 9 9 2 10 3 11 1 12
REMARK H PARENT 6 4 6 5 6 6 1 13 1 14
REMARK Flexibility Score: inf
ROOT
ATOM      1  C   UNL     1     117.810 158.003 150.700  1.00  0.00     0.171 C 
ENDROOT
BRANCH   1   2
ATOM      2  C   UNL     1     118.085 158.692 152.051  1.00  0.00     0.237 C 
BRANCH   2   3
ATOM      3  N   UNL     1     117.142 158.243 153.085  1.00  0.00    -0.350 N 
ATOM      4  H   UNL     1     116.172 158.547 152.835  1.00  0.00     0.345 HD
ATOM      5  H   UNL     1     117.396 158.642 154.018  1.00  0.00     0.345 HD
ATOM      6  H   UNL     1     117.144 157.200 153.144  1.00  0.00     0.345 HD
ENDBRANCH   2   3
BRANCH   2   7
ATOM      7  C   UNL     1     119.499 158.408 152.485  1.00  0.00     0.100 C 
ATOM      8  O   UNL     1     120.468 158.812 151.789  1.00  0.00    -0.544 OA
ATOM      9  O   UNL     1     119.745 157.683 153.645  1.00  0.00    -0.544 OA
ENDBRANCH   2   7
ENDBRANCH   1   2
BRANCH   1  10
ATOM     10  C   UNL     1     117.747 158.994 149.575  1.00  0.00     0.223 C 
ATOM     11  O   UNL     1     117.441 160.192 149.813  1.00  0.00    -0.275 OA
ATOM     12  N   UNL     1     117.998 158.582 148.230  1.00  0.00    -0.369 N 
ATOM     13  H   UNL     1     117.942 159.273 147.449  1.00  0.00     0.159 HD
ATOM     14  H   UNL     1     118.230 157.588 148.011  1.00  0.00     0.159 HD
ENDBRANCH   1  10
TORSDOF 4
ENDMDL
MODEL 7
REMARK VINA RESULT:    -4.047      4.085      5.235
REMARK INTER + INTRA:          -5.114
REMARK INTER:                  -4.816
REMARK INTRA:                  -0.299
REMARK UNBOUND:                -0.239
REMARK SMILES NC(=O)C[C@@H]([NH3+])C(=O)[O-]
REMARK SMILES IDX 4 1 5 2 6 3 7 7 8 8 9 9 2 10 3 11 1 12
REMARK H PARENT 6 4 6 5 6 6 1 13 1 14
REMARK Flexibility Score: inf
ROOT
ATOM      1  C   UNL     1     120.041 151.035 159.480  1.00  0.00     0.171 C 
ENDROOT
BRANCH   1   2
ATOM      2  C   UNL     1     120.812 152.362 159.622  1.00  0.00     0.237 C 
BRANCH   2   3
ATOM      3  N   UNL     1     120.396 153.336 158.602  1.00  0.00    -0.350 N 
ATOM      4  H   UNL     1     120.005 154.189 159.065  1.00  0.00     0.345 HD
ATOM      5  H   UNL     1     119.670 152.925 157.971  1.00  0.00     0.345 HD
ATOM      6  H   UNL     1     121.220 153.631 158.031  1.00  0.00     0.345 HD
ENDBRANCH   2   3
BRANCH   2   7
ATOM      7  C   UNL     1     120.592 152.931 160.998  1.00  0.00     0.100 C 
ATOM      8  O   UNL     1     119.662 152.490 161.724  1.00  0.00    -0.544 OA
ATOM      9  O   UNL     1     121.402 153.957 161.471  1.00  0.00    -0.544 OA
ENDBRANCH   2   7
ENDBRANCH   1   2
BRANCH   1  10
ATOM     10  C   UNL     1     119.678 150.753 158.052  1.00  0.00     0.223 C 
ATOM     11  O   UNL     1     120.582 150.695 157.177  1.00  0.00    -0.275 OA
ATOM     12  N   UNL     1     118.312 150.582 157.670  1.00  0.00    -0.369 N 
ATOM     13  H   UNL     1     118.064 150.396 156.673  1.00  0.00     0.159 HD
ATOM     14  H   UNL     1     117.548 150.649 158.378  1.00  0.00     0.159 HD
ENDBRANCH   1  10
TORSDOF 4
ENDMDL
MODEL 8
REMARK VINA RESULT:    -3.980      6.038      7.371
REMARK INTER + INTRA:          -5.034
REMARK INTER:                  -4.569
REMARK INTRA:                  -0.464
REMARK UNBOUND:                -0.239
REMARK SMILES NC(=O)C[C@@H]([NH3+])C(=O)[O-]
REMARK SMILES IDX 4 1 5 2 6 3 7 7 8 8 9 9 2 10 3 11 1 12
REMARK H PARENT 6 4 6 5 6 6 1 13 1 14
REMARK Flexibility Score: inf
ROOT
ATOM      1  C   UNL     1     120.177 157.173 152.108  1.00  0.00     0.171 C 
ENDROOT
BRANCH   1   2
ATOM      2  C   UNL     1     118.831 157.921 152.183  1.00  0.00     0.237 C 
BRANCH   2   3
ATOM      3  N   UNL     1     118.659 158.589 153.481  1.00  0.00    -0.350 N 
ATOM      4  H   UNL     1     119.410 158.280 154.141  1.00  0.00     0.345 HD
ATOM      5  H   UNL     1     117.725 158.362 153.894  1.00  0.00     0.345 HD
ATOM      6  H   UNL     1     118.742 159.624 153.364  1.00  0.00     0.345 HD
ENDBRANCH   2   3
BRANCH   2   7
ATOM      7  C   UNL     1     118.750 158.929 151.068  1.00  0.00     0.100 C 
ATOM      8  O   UNL     1     119.799 159.317 150.489  1.00  0.00    -0.544 OA
ATOM      9  O   UNL     1     117.521 159.451 150.683  1.00  0.00    -0.544 OA
ENDBRANCH   2   7
ENDBRANCH   1   2
BRANCH   1  10
ATOM     10  C   UNL     1     121.183 157.745 153.063  1.00  0.00     0.223 C 
ATOM     11  O   UNL     1     121.270 157.282 154.231  1.00  0.00    -0.275 OA
ATOM     12  N   UNL     1     122.021 158.833 152.669  1.00  0.00    -0.369 N 
ATOM     13  H   UNL     1     122.712 159.234 153.340  1.00  0.00     0.159 HD
ATOM     14  H   UNL     1     121.947 159.244 151.713  1.00  0.00     0.159 HD
ENDBRANCH   1  10
TORSDOF 4
ENDMDL
MODEL 9
REMARK VINA RESULT:    -3.895      5.770      7.270
REMARK INTER + INTRA:          -4.931
REMARK INTER:                  -4.427
REMARK INTRA:                  -0.504
REMARK UNBOUND:                -0.239
REMARK SMILES NC(=O)C[C@@H]([NH3+])C(=O)[O-]
REMARK SMILES IDX 4 1 5 2 6 3 7 7 8 8 9 9 2 10 3 11 1 12
REMARK H PARENT 6 4 6 5 6 6 1 13 1 14
REMARK Flexibility Score: inf
ROOT
ATOM      1  C   UNL     1     119.259 157.028 151.722  1.00  0.00     0.171 C 
ENDROOT
BRANCH   1   2
ATOM      2  C   UNL     1     120.643 157.442 152.261  1.00  0.00     0.237 C 
BRANCH   2   3
ATOM      3  N   UNL     1     120.793 158.903 152.292  1.00  0.00    -0.350 N 
ATOM      4  H   UNL     1     120.497 159.270 153.227  1.00  0.00     0.345 HD
ATOM      5  H   UNL     1     120.211 159.352 151.548  1.00  0.00     0.345 HD
ATOM      6  H   UNL     1     121.795 159.164 152.150  1.00  0.00     0.345 HD
ENDBRANCH   2   3
BRANCH   2   7
ATOM      7  C   UNL     1     120.839 156.873 153.641  1.00  0.00     0.100 C 
ATOM      8  O   UNL     1     121.561 155.855 153.810  1.00  0.00    -0.544 OA
ATOM      9  O   UNL     1     120.210 157.456 154.736  1.00  0.00    -0.544 OA
ENDBRANCH   2   7
ENDBRANCH   1   2
BRANCH   1  10
ATOM     10  C   UNL     1     118.231 158.095 151.958  1.00  0.00     0.223 C 
ATOM     11  O   UNL     1     118.093 159.027 151.123  1.00  0.00    -0.275 OA
ATOM     12  N   UNL     1     117.429 158.080 153.141  1.00  0.00    -0.369 N 
ATOM     13  H   UNL     1     116.721 158.830 153.305  1.00  0.00     0.159 HD
ATOM     14  H   UNL     1     117.545 157.328 153.855  1.00  0.00     0.159 HD
ENDBRANCH   1  10
TORSDOF 4
ENDMDL
