MODEL 1
REMARK VINA RESULT:    -4.416      0.000      0.000
REMARK INTER + INTRA:          -4.545
REMARK INTER:                  -4.545
REMARK INTRA:                   0.000
REMARK UNBOUND:                 0.000
REMARK SMILES Nc1ncnc2nc[nH]c12
REMARK SMILES IDX 8 1 7 2 6 3 5 4 4 5 3 6 2 7 10 8 9 9 1 11
REMARK H PARENT 9 10 1 12 1 13
REMARK Flexibility Score: inf
ROOT
ATOM      1  C   UNL     1      -3.442  -6.628  11.352  1.00  0.00     0.199 A 
ATOM      2  N   UNL     1      -4.261  -7.027  12.364  1.00  0.00    -0.217 NA
ATOM      3  C   UNL     1      -5.471  -6.652  11.915  1.00  0.00     0.182 A 
ATOM      4  N   UNL     1      -6.655  -6.818  12.551  1.00  0.00    -0.215 NA
ATOM      5  C   UNL     1      -7.789  -6.369  11.932  1.00  0.00     0.226 A 
ATOM      6  N   UNL     1      -7.718  -5.768  10.701  1.00  0.00    -0.217 NA
ATOM      7  C   UNL     1      -6.524  -5.599  10.057  1.00  0.00     0.152 A 
ATOM      8  C   UNL     1      -5.380  -6.062  10.701  1.00  0.00     0.127 A 
ATOM      9  N   UNL     1      -4.096  -6.035  10.321  1.00  0.00    -0.340 N 
ATOM     10  H   UNL     1      -3.683  -5.653   9.443  1.00  0.00     0.168 HD
ENDROOT
BRANCH   7  11
ATOM     11  N   UNL     1      -6.475  -4.971   8.777  1.00  0.00    -0.382 N 
ATOM     12  H   UNL     1      -6.355  -5.526   7.902  1.00  0.00     0.158 HD
ATOM     13  H   UNL     1      -6.560  -3.933   8.702  1.00  0.00     0.158 HD
ENDBRANCH   7  11
TORSDOF 1
ENDMDL
MODEL 2
REMARK VINA RESULT:    -4.110     14.064     14.765
REMARK INTER + INTRA:          -4.230
REMARK INTER:                  -4.230
REMARK INTRA:                   0.000
REMARK UNBOUND:                 0.000
REMARK SMILES Nc1ncnc2nc[nH]c12
REMARK SMILES IDX 8 1 7 2 6 3 5 4 4 5 3 6 2 7 10 8 9 9 1 11
REMARK H PARENT 9 10 1 12 1 13
REMARK Flexibility Score: inf
ROOT
ATOM      1  C   UNL     1       2.438   6.777   9.520  1.00  0.00     0.199 A 
ATOM      2  N   UNL     1       1.685   7.678  10.208  1.00  0.00    -0.217 NA
ATOM      3  C   UNL     1       0.501   7.603   9.576  1.00  0.00     0.182 A 
ATOM      4  N   UNL     1      -0.617   8.307   9.869  1.00  0.00    -0.215 NA
ATOM      5  C   UNL     1      -1.733   8.092   9.109  1.00  0.00     0.226 A 
ATOM      6  N   UNL     1      -1.710   7.186   8.079  1.00  0.00    -0.217 NA
ATOM      7  C   UNL     1      -0.582   6.474   7.781  1.00  0.00     0.152 A 
ATOM      8  C   UNL     1       0.546   6.705   8.565  1.00  0.00     0.127 A 
ATOM      9  N   UNL     1       1.769   6.165   8.509  1.00  0.00    -0.340 N 
ATOM     10  H   UNL     1       2.136   5.443   7.851  1.00  0.00     0.168 HD
ENDROOT
BRANCH   7  11
ATOM     11  N   UNL     1      -0.581   5.537   6.705  1.00  0.00    -0.382 N 
ATOM     12  H   UNL     1      -0.437   4.516   6.871  1.00  0.00     0.158 HD
ATOM     13  H   UNL     1      -0.727   5.867   5.725  1.00  0.00     0.158 HD
ENDBRANCH   7  11
TORSDOF 1
ENDMDL
MODEL 3
REMARK VINA RESULT:    -4.068      1.216      3.246
REMARK INTER + INTRA:          -4.187
REMARK INTER:                  -4.187
REMARK INTRA:                   0.000
REMARK UNBOUND:                 0.000
REMARK SMILES Nc1ncnc2nc[nH]c12
REMARK SMILES IDX 8 1 7 2 6 3 5 4 4 5 3 6 2 7 10 8 9 9 1 11
REMARK H PARENT 9 10 1 12 1 13
REMARK Flexibility Score: inf
ROOT
ATOM      1  C   UNL     1      -6.658  -5.947  10.383  1.00  0.00     0.199 A 
ATOM      2  N   UNL     1      -6.756  -6.685  11.523  1.00  0.00    -0.217 NA
ATOM      3  C   UNL     1      -5.466  -6.923  11.820  1.00  0.00     0.182 A 
ATOM      4  N   UNL     1      -4.998  -7.627  12.877  1.00  0.00    -0.215 NA
ATOM      5  C   UNL     1      -3.644  -7.762  13.014  1.00  0.00     0.226 A 
ATOM      6  N   UNL     1      -2.793  -7.197  12.099  1.00  0.00    -0.217 NA
ATOM      7  C   UNL     1      -3.263  -6.486  11.031  1.00  0.00     0.152 A 
ATOM      8  C   UNL     1      -4.644  -6.357  10.906  1.00  0.00     0.127 A 
ATOM      9  N   UNL     1      -5.380  -5.730   9.981  1.00  0.00    -0.340 N 
ATOM     10  H   UNL     1      -5.060  -5.195   9.144  1.00  0.00     0.168 HD
ENDROOT
BRANCH   7  11
ATOM     11  N   UNL     1      -2.358  -5.906  10.092  1.00  0.00    -0.382 N 
ATOM     12  H   UNL     1      -1.454  -5.483  10.396  1.00  0.00     0.158 HD
ATOM     13  H   UNL     1      -2.594  -5.901   9.075  1.00  0.00     0.158 HD
ENDBRANCH   7  11
TORSDOF 1
ENDMDL
MODEL 4
REMARK VINA RESULT:    -3.992     14.117     15.145
REMARK INTER + INTRA:          -4.109
REMARK INTER:                  -4.109
REMARK INTRA:                   0.000
REMARK UNBOUND:                 0.000
REMARK SMILES Nc1ncnc2nc[nH]c12
REMARK SMILES IDX 8 1 7 2 6 3 5 4 4 5 3 6 2 7 10 8 9 9 1 11
REMARK H PARENT 9 10 1 12 1 13
REMARK Flexibility Score: inf
ROOT
ATOM      1  C   UNL     1      -3.320   8.290   8.460  1.00  0.00     0.199 A 
ATOM      2  N   UNL     1      -2.423   8.979   9.216  1.00  0.00    -0.217 NA
ATOM      3  C   UNL     1      -1.272   8.338   8.948  1.00  0.00     0.182 A 
ATOM      4  N   UNL     1      -0.049   8.628   9.452  1.00  0.00    -0.215 NA
ATOM      5  C   UNL     1       1.010   7.858   9.058  1.00  0.00     0.226 A 
ATOM      6  N   UNL     1       0.828   6.822   8.178  1.00  0.00    -0.217 NA
ATOM      7  C   UNL     1      -0.405   6.528   7.668  1.00  0.00     0.152 A 
ATOM      8  C   UNL     1      -1.473   7.321   8.078  1.00  0.00     0.127 A 
ATOM      9  N   UNL     1      -2.770   7.271   7.753  1.00  0.00    -0.340 N 
ATOM     10  H   UNL     1      -3.257   6.610   7.108  1.00  0.00     0.168 HD
ENDROOT
BRANCH   7  11
ATOM     11  N   UNL     1      -0.570   5.445   6.753  1.00  0.00    -0.382 N 
ATOM     12  H   UNL     1      -0.466   5.581   5.723  1.00  0.00     0.158 HD
ATOM     13  H   UNL     1      -0.800   4.491   7.109  1.00  0.00     0.158 HD
ENDBRANCH   7  11
TORSDOF 1
ENDMDL
MODEL 5
REMARK VINA RESULT:    -3.976      1.840      3.786
REMARK INTER + INTRA:          -4.092
REMARK INTER:                  -4.092
REMARK INTRA:                   0.000
REMARK UNBOUND:                 0.000
REMARK SMILES Nc1ncnc2nc[nH]c12
REMARK SMILES IDX 8 1 7 2 6 3 5 4 4 5 3 6 2 7 10 8 9 9 1 11
REMARK H PARENT 9 10 1 12 1 13
REMARK Flexibility Score: inf
ROOT
ATOM      1  C   UNL     1      -5.907  -6.339  11.943  1.00  0.00     0.199 A 
ATOM      2  N   UNL     1      -5.678  -7.573  12.471  1.00  0.00    -0.217 NA
ATOM      3  C   UNL     1      -4.416  -7.820  12.080  1.00  0.00     0.182 A 
ATOM      4  N   UNL     1      -3.691  -8.932  12.345  1.00  0.00    -0.215 NA
ATOM      5  C   UNL     1      -2.414  -9.001  11.860  1.00  0.00     0.226 A 
ATOM      6  N   UNL     1      -1.892  -7.968  11.126  1.00  0.00    -0.217 NA
ATOM      7  C   UNL     1      -2.621  -6.843  10.857  1.00  0.00     0.152 A 
ATOM      8  C   UNL     1      -3.919  -6.789  11.358  1.00  0.00     0.127 A 
ATOM      9  N   UNL     1      -4.851  -5.834  11.257  1.00  0.00    -0.340 N 
ATOM     10  H   UNL     1      -4.793  -4.912  10.770  1.00  0.00     0.168 HD
ENDROOT
BRANCH   7  11
ATOM     11  N   UNL     1      -2.056  -5.780  10.091  1.00  0.00    -0.382 N 
ATOM     12  H   UNL     1      -2.274  -4.781  10.303  1.00  0.00     0.158 HD
ATOM     13  H   UNL     1      -1.410  -5.993   9.300  1.00  0.00     0.158 HD
ENDBRANCH   7  11
TORSDOF 1
ENDMDL
MODEL 6
REMARK VINA RESULT:    -3.837      3.772      4.123
REMARK INTER + INTRA:          -3.949
REMARK INTER:                  -3.949
REMARK INTRA:                   0.000
REMARK UNBOUND:                 0.000
REMARK SMILES Nc1ncnc2nc[nH]c12
REMARK SMILES IDX 8 1 7 2 6 3 5 4 4 5 3 6 2 7 10 8 9 9 1 11
REMARK H PARENT 9 10 1 12 1 13
REMARK Flexibility Score: inf
ROOT
ATOM      1  C   UNL     1      -2.781  -7.555  13.835  1.00  0.00     0.199 A 
ATOM      2  N   UNL     1      -3.075  -8.784  13.331  1.00  0.00    -0.217 NA
ATOM      3  C   UNL     1      -2.969  -8.582  12.006  1.00  0.00     0.182 A 
ATOM      4  N   UNL     1      -3.165  -9.500  11.030  1.00  0.00    -0.215 NA
ATOM      5  C   UNL     1      -3.009  -9.104   9.731  1.00  0.00     0.226 A 
ATOM      6  N   UNL     1      -2.665  -7.809   9.435  1.00  0.00    -0.217 NA
ATOM      7  C   UNL     1      -2.467  -6.881  10.418  1.00  0.00     0.152 A 
ATOM      8  C   UNL     1      -2.629  -7.301  11.735  1.00  0.00     0.127 A 
ATOM      9  N   UNL     1      -2.504  -6.627  12.885  1.00  0.00    -0.340 N 
ATOM     10  H   UNL     1      -2.251  -5.624  13.031  1.00  0.00     0.168 HD
ENDROOT
BRANCH   7  11
ATOM     11  N   UNL     1      -2.109  -5.540  10.086  1.00  0.00    -0.382 N 
ATOM     12  H   UNL     1      -2.180  -4.768  10.785  1.00  0.00     0.158 HD
ATOM     13  H   UNL     1      -1.768  -5.313   9.126  1.00  0.00     0.158 HD
ENDBRANCH   7  11
TORSDOF 1
ENDMDL
MODEL 7
REMARK VINA RESULT:    -3.833      0.988      3.069
REMARK INTER + INTRA:          -3.945
REMARK INTER:                  -3.945
REMARK INTRA:                   0.000
REMARK UNBOUND:                 0.000
REMARK SMILES Nc1ncnc2nc[nH]c12
REMARK SMILES IDX 8 1 7 2 6 3 5 4 4 5 3 6 2 7 10 8 9 9 1 11
REMARK H PARENT 9 10 1 12 1 13
REMARK Flexibility Score: inf
ROOT
ATOM      1  C   UNL     1      -9.125  -5.847  12.053  1.00  0.00     0.199 A 
ATOM      2  N   UNL     1      -8.221  -6.459  12.866  1.00  0.00    -0.217 NA
ATOM      3  C   UNL     1      -7.098  -6.415  12.129  1.00  0.00     0.182 A 
ATOM      4  N   UNL     1      -5.882  -6.896  12.480  1.00  0.00    -0.215 NA
ATOM      5  C   UNL     1      -4.852  -6.757  11.591  1.00  0.00     0.226 A 
ATOM      6  N   UNL     1      -5.056  -6.147  10.380  1.00  0.00    -0.217 NA
ATOM      7  C   UNL     1      -6.283  -5.660  10.023  1.00  0.00     0.152 A 
ATOM      8  C   UNL     1      -7.320  -5.809  10.940  1.00  0.00     0.127 A 
ATOM      9  N   UNL     1      -8.604  -5.439  10.868  1.00  0.00    -0.340 N 
ATOM     10  H   UNL     1      -9.101  -4.950  10.091  1.00  0.00     0.168 HD
ENDROOT
BRANCH   7  11
ATOM     11  N   UNL     1      -6.471  -5.028   8.758  1.00  0.00    -0.382 N 
ATOM     12  H   UNL     1      -7.422  -4.909   8.344  1.00  0.00     0.158 HD
ATOM     13  H   UNL     1      -5.647  -4.673   8.224  1.00  0.00     0.158 HD
ENDBRANCH   7  11
TORSDOF 1
ENDMDL
MODEL 8
REMARK VINA RESULT:    -3.805      2.194      3.414
REMARK INTER + INTRA:          -3.916
REMARK INTER:                  -3.916
REMARK INTRA:                   0.000
REMARK UNBOUND:                 0.000
REMARK SMILES Nc1ncnc2nc[nH]c12
REMARK SMILES IDX 8 1 7 2 6 3 5 4 4 5 3 6 2 7 10 8 9 9 1 11
REMARK H PARENT 9 10 1 12 1 13
REMARK Flexibility Score: inf
ROOT
ATOM      1  C   UNL     1      -1.128  -7.782   9.642  1.00  0.00     0.199 A 
ATOM      2  N   UNL     1      -1.130  -8.556  10.761  1.00  0.00    -0.217 NA
ATOM      3  C   UNL     1      -2.251  -8.154  11.384  1.00  0.00     0.182 A 
ATOM      4  N   UNL     1      -2.730  -8.616  12.563  1.00  0.00    -0.215 NA
ATOM      5  C   UNL     1      -3.895  -8.083  13.041  1.00  0.00     0.226 A 
ATOM      6  N   UNL     1      -4.552  -7.106  12.337  1.00  0.00    -0.217 NA
ATOM      7  C   UNL     1      -4.071  -6.638  11.146  1.00  0.00     0.152 A 
ATOM      8  C   UNL     1      -2.884  -7.192  10.674  1.00  0.00     0.127 A 
ATOM      9  N   UNL     1      -2.188  -6.938   9.560  1.00  0.00    -0.340 N 
ATOM     10  H   UNL     1      -2.398  -6.255   8.799  1.00  0.00     0.168 HD
ENDROOT
BRANCH   7  11
ATOM     11  N   UNL     1      -4.772  -5.621  10.432  1.00  0.00    -0.382 N 
ATOM     12  H   UNL     1      -5.273  -5.829   9.540  1.00  0.00     0.158 HD
ATOM     13  H   UNL     1      -4.793  -4.644  10.799  1.00  0.00     0.158 HD
ENDBRANCH   7  11
TORSDOF 1
ENDMDL
MODEL 9
REMARK VINA RESULT:    -3.695      3.077      3.711
REMARK INTER + INTRA:          -3.803
REMARK INTER:                  -3.803
REMARK INTRA:                   0.000
REMARK UNBOUND:                 0.000
REMARK SMILES Nc1ncnc2nc[nH]c12
REMARK SMILES IDX 8 1 7 2 6 3 5 4 4 5 3 6 2 7 10 8 9 9 1 11
REMARK H PARENT 9 10 1 12 1 13
REMARK Flexibility Score: inf
ROOT
ATOM      1  C   UNL     1      -4.732  -8.908   8.881  1.00  0.00     0.199 A 
ATOM      2  N   UNL     1      -5.050  -9.368  10.122  1.00  0.00    -0.217 NA
ATOM      3  C   UNL     1      -4.325  -8.564  10.918  1.00  0.00     0.182 A 
ATOM      4  N   UNL     1      -4.276  -8.598  12.271  1.00  0.00    -0.215 NA
ATOM      5  C   UNL     1      -3.476  -7.692  12.911  1.00  0.00     0.226 A 
ATOM      6  N   UNL     1      -2.745  -6.780  12.193  1.00  0.00    -0.217 NA
ATOM      7  C   UNL     1      -2.793  -6.743  10.827  1.00  0.00     0.152 A 
ATOM      8  C   UNL     1      -3.613  -7.672  10.191  1.00  0.00     0.127 A 
ATOM      9  N   UNL     1      -3.856  -7.871   8.891  1.00  0.00    -0.340 N 
ATOM     10  H   UNL     1      -3.471  -7.358   8.067  1.00  0.00     0.168 HD
ENDROOT
BRANCH   7  11
ATOM     11  N   UNL     1      -2.025  -5.785  10.101  1.00  0.00    -0.382 N 
ATOM     12  H   UNL     1      -1.346  -6.077   9.363  1.00  0.00     0.158 HD
ATOM     13  H   UNL     1      -2.135  -4.766  10.303  1.00  0.00     0.158 HD
ENDBRANCH   7  11
TORSDOF 1
ENDMDL
