MODEL 1
REMARK VINA RESULT:    -4.426      0.000      0.000
REMARK INTER + INTRA:          -6.365
REMARK INTER:                  -6.754
REMARK INTRA:                   0.390
REMARK UNBOUND:                 0.390
REMARK SMILES CC1=CCC[C@@H](C)C(=O)C[C@H](C(C)C)C(=O)C1
REMARK SMILES IDX 8 1 9 2 6 3 7 4 5 5 4 6 3 7 2 8 1 9 10 11 11 12 15 13 16 14
REMARK SMILES IDX 17 15 12 17 13 18 14 19
REMARK H PARENT
REMARK Flexibility Score: 70.00
ROOT
ATOM      1  C   UNL     1      13.183  17.651  23.918  1.00  0.00     0.136 C 
ATOM      2  O   UNL     1      12.517  17.270  22.966  1.00  0.00    -0.299 OA
ENDROOT
BRANCH   1   3
ATOM      3  C   UNL     1      14.132  18.823  23.743  1.00  0.00     0.053 C 
ATOM      4  C   UNL     1      13.380  20.043  23.191  1.00  0.00     0.016 C 
BRANCH   3   5
ATOM      5  C   UNL     1      15.308  18.435  22.820  1.00  0.00     0.015 C 
BRANCH   5   6
ATOM      6  C   UNL     1      15.719  16.962  23.012  1.00  0.00     0.028 C 
BRANCH   6   7
ATOM      7  C   UNL     1      16.972  16.793  23.837  1.00  0.00    -0.028 C 
ATOM      8  C   UNL     1      17.133  15.910  24.854  1.00  0.00    -0.070 CG0
ATOM      9  C   UNL     1      18.427  15.964  25.628  1.00  0.00     0.039 C 
ATOM     10  G   UNL     1      16.109  14.843  25.218  1.00  0.00     0.000 G0
ENDBRANCH   6   7
ENDBRANCH   5   6
ENDBRANCH   3   5
ENDBRANCH   1   3
BRANCH   1  11
ATOM     11  C   UNL     1      13.033  16.945  25.248  1.00  0.00     0.087 C 
BRANCH  11  12
ATOM     12  C   UNL     1      13.583  15.497  25.204  1.00  0.00     0.066 C 
BRANCH  12  13
ATOM     13  C   UNL     1      14.908  15.390  25.945  1.00  0.00     0.140 C 
ATOM     14  O   UNL     1      14.993  15.721  27.118  1.00  0.00    -0.299 OA
BRANCH  13  15
ATOM     15  C   UNL     1      16.121  14.839  25.236  1.00  0.00     0.106 CG0
ATOM     16  G   UNL     1      17.148  15.895  24.850  1.00  0.00     0.000 G0
ENDBRANCH  13  15
ENDBRANCH  12  13
BRANCH  12  17
ATOM     17  C   UNL     1      12.519  14.442  25.640  1.00  0.00    -0.006 C 
ATOM     18  C   UNL     1      11.958  14.747  27.038  1.00  0.00     0.008 C 
ATOM     19  C   UNL     1      11.370  14.237  24.636  1.00  0.00     0.008 C 
ENDBRANCH  12  17
ENDBRANCH  11  12
ENDBRANCH   1  11
TORSDOF 1
ENDMDL
MODEL 2
REMARK VINA RESULT:    -4.340      2.481      5.518
REMARK INTER + INTRA:          -6.234
REMARK INTER:                  -6.056
REMARK INTRA:                  -0.178
REMARK UNBOUND:                 0.390
REMARK SMILES CC1=CCC[C@@H](C)C(=O)C[C@H](C(C)C)C(=O)C1
REMARK SMILES IDX 8 1 9 2 6 3 7 4 5 5 4 6 3 7 2 8 1 9 10 11 11 12 15 13 16 14
REMARK SMILES IDX 17 15 12 17 13 18 14 19
REMARK H PARENT
REMARK Flexibility Score: 70.00
ROOT
ATOM      1  C   UNL     1      14.473  17.077  24.749  1.00  0.00     0.136 C 
ATOM      2  O   UNL     1      15.483  17.011  24.064  1.00  0.00    -0.299 OA
ENDROOT
BRANCH   1   3
ATOM      3  C   UNL     1      14.456  16.420  26.117  1.00  0.00     0.053 C 
ATOM      4  C   UNL     1      15.636  15.447  26.259  1.00  0.00     0.016 C 
BRANCH   3   5
ATOM      5  C   UNL     1      13.112  15.695  26.355  1.00  0.00     0.015 C 
BRANCH   5   6
ATOM      6  C   UNL     1      12.865  14.597  25.302  1.00  0.00     0.028 C 
BRANCH   6   7
ATOM      7  C   UNL     1      11.413  14.455  24.914  1.00  0.00    -0.028 C 
ATOM      8  C   UNL     1      10.871  14.846  23.734  1.00  0.00    -0.070 CG0
ATOM      9  C   UNL     1       9.376  14.714  23.574  1.00  0.00     0.039 C 
ATOM     10  G   UNL     1      11.689  15.357  22.555  1.00  0.00     0.000 G0
ENDBRANCH   6   7
ENDBRANCH   5   6
ENDBRANCH   3   5
ENDBRANCH   1   3
BRANCH   1  11
ATOM     11  C   UNL     1      13.269  17.822  24.213  1.00  0.00     0.087 C 
BRANCH  11  12
ATOM     12  C   UNL     1      13.060  17.577  22.698  1.00  0.00     0.066 C 
BRANCH  12  13
ATOM     13  C   UNL     1      11.744  16.860  22.434  1.00  0.00     0.140 C 
ATOM     14  O   UNL     1      10.746  17.490  22.115  1.00  0.00    -0.299 OA
BRANCH  13  15
ATOM     15  C   UNL     1      11.676  15.356  22.535  1.00  0.00     0.106 CG0
ATOM     16  G   UNL     1      10.877  14.848  23.728  1.00  0.00     0.000 G0
ENDBRANCH  13  15
ENDBRANCH  12  13
BRANCH  12  17
ATOM     17  C   UNL     1      13.265  18.872  21.851  1.00  0.00    -0.006 C 
ATOM     18  C   UNL     1      13.130  20.138  22.711  1.00  0.00     0.008 C 
ATOM     19  C   UNL     1      14.574  18.910  21.043  1.00  0.00     0.008 C 
ENDBRANCH  12  17
ENDBRANCH  11  12
ENDBRANCH   1  11
TORSDOF 1
ENDMDL
MODEL 3
REMARK VINA RESULT:    -4.338      1.874      3.982
REMARK INTER + INTRA:          -6.231
REMARK INTER:                  -6.335
REMARK INTRA:                   0.104
REMARK UNBOUND:                 0.390
REMARK SMILES CC1=CCC[C@@H](C)C(=O)C[C@H](C(C)C)C(=O)C1
REMARK SMILES IDX 8 1 9 2 6 3 7 4 5 5 4 6 3 7 2 8 1 9 10 11 11 12 15 13 16 14
REMARK SMILES IDX 17 15 12 17 13 18 14 19
REMARK H PARENT
REMARK Flexibility Score: 70.00
ROOT
ATOM      1  C   UNL     1      15.587  17.784  22.765  1.00  0.00     0.136 C 
ATOM      2  O   UNL     1      16.665  18.362  22.748  1.00  0.00    -0.299 OA
ENDROOT
BRANCH   1   3
ATOM      3  C   UNL     1      14.398  18.402  22.054  1.00  0.00     0.053 C 
ATOM      4  C   UNL     1      13.754  19.486  22.931  1.00  0.00     0.016 C 
BRANCH   3   5
ATOM      5  C   UNL     1      13.368  17.315  21.674  1.00  0.00     0.015 C 
BRANCH   5   6
ATOM      6  C   UNL     1      12.141  17.345  22.606  1.00  0.00     0.028 C 
BRANCH   6   7
ATOM      7  C   UNL     1      11.984  16.089  23.429  1.00  0.00    -0.028 C 
ATOM      8  C   UNL     1      12.556  15.861  24.637  1.00  0.00    -0.070 CG0
ATOM      9  C   UNL     1      12.363  14.499  25.256  1.00  0.00     0.039 C 
ATOM     10  G   UNL     1      13.332  16.914  25.418  1.00  0.00     0.000 G0
ENDBRANCH   6   7
ENDBRANCH   5   6
ENDBRANCH   3   5
ENDBRANCH   1   3
BRANCH   1  11
ATOM     11  C   UNL     1      15.477  16.459  23.488  1.00  0.00     0.087 C 
BRANCH  11  12
ATOM     12  C   UNL     1      15.903  16.569  24.974  1.00  0.00     0.066 C 
BRANCH  12  13
ATOM     13  C   UNL     1      14.698  16.477  25.899  1.00  0.00     0.140 C 
ATOM     14  O   UNL     1      14.822  16.060  27.042  1.00  0.00    -0.299 OA
BRANCH  13  15
ATOM     15  C   UNL     1      13.344  16.934  25.414  1.00  0.00     0.106 CG0
ATOM     16  G   UNL     1      12.559  15.865  24.664  1.00  0.00     0.000 G0
ENDBRANCH  13  15
ENDBRANCH  12  13
BRANCH  12  17
ATOM     17  C   UNL     1      17.064  15.591  25.335  1.00  0.00    -0.006 C 
ATOM     18  C   UNL     1      16.795  14.173  24.806  1.00  0.00     0.008 C 
ATOM     19  C   UNL     1      18.462  16.067  24.903  1.00  0.00     0.008 C 
ENDBRANCH  12  17
ENDBRANCH  11  12
ENDBRANCH   1  11
TORSDOF 1
ENDMDL
MODEL 4
REMARK VINA RESULT:    -4.262      2.282      4.597
REMARK INTER + INTRA:          -6.115
REMARK INTER:                  -5.895
REMARK INTRA:                  -0.221
REMARK UNBOUND:                 0.390
REMARK SMILES CC1=CCC[C@@H](C)C(=O)C[C@H](C(C)C)C(=O)C1
REMARK SMILES IDX 8 1 9 2 6 3 7 4 5 5 4 6 3 7 2 8 1 9 10 11 11 12 15 13 16 14
REMARK SMILES IDX 17 15 12 17 13 18 14 19
REMARK H PARENT
REMARK Flexibility Score: 70.00
ROOT
ATOM      1  C   UNL     1      13.629  15.627  25.401  1.00  0.00     0.136 C 
ATOM      2  O   UNL     1      13.925  14.623  26.034  1.00  0.00    -0.299 OA
ENDROOT
BRANCH   1   3
ATOM      3  C   UNL     1      12.243  15.746  24.795  1.00  0.00     0.053 C 
ATOM      4  C   UNL     1      11.380  14.540  25.192  1.00  0.00     0.016 C 
BRANCH   3   5
ATOM      5  C   UNL     1      12.332  15.879  23.258  1.00  0.00     0.015 C 
BRANCH   5   6
ATOM      6  C   UNL     1      12.088  17.329  22.798  1.00  0.00     0.028 C 
BRANCH   6   7
ATOM      7  C   UNL     1      12.936  17.733  21.617  1.00  0.00    -0.028 C 
ATOM      8  C   UNL     1      14.124  18.384  21.685  1.00  0.00    -0.070 CG0
ATOM      9  C   UNL     1      14.773  18.793  20.386  1.00  0.00     0.039 C 
ATOM     10  G   UNL     1      14.856  18.676  22.989  1.00  0.00     0.000 G0
ENDBRANCH   6   7
ENDBRANCH   5   6
ENDBRANCH   3   5
ENDBRANCH   1   3
BRANCH   1  11
ATOM     11  C   UNL     1      14.657  16.727  25.248  1.00  0.00     0.087 C 
BRANCH  11  12
ATOM     12  C   UNL     1      15.652  16.440  24.096  1.00  0.00     0.066 C 
BRANCH  12  13
ATOM     13  C   UNL     1      15.971  17.707  23.316  1.00  0.00     0.140 C 
ATOM     14  O   UNL     1      17.108  17.929  22.926  1.00  0.00    -0.299 OA
BRANCH  13  15
ATOM     15  C   UNL     1      14.868  18.685  22.991  1.00  0.00     0.106 CG0
ATOM     16  G   UNL     1      14.121  18.373  21.701  1.00  0.00     0.000 G0
ENDBRANCH  13  15
ENDBRANCH  12  13
BRANCH  12  17
ATOM     17  C   UNL     1      16.910  15.651  24.577  1.00  0.00    -0.006 C 
ATOM     18  C   UNL     1      17.178  15.872  26.074  1.00  0.00     0.008 C 
ATOM     19  C   UNL     1      16.887  14.147  24.253  1.00  0.00     0.008 C 
ENDBRANCH  12  17
ENDBRANCH  11  12
ENDBRANCH   1  11
TORSDOF 1
ENDMDL
MODEL 5
REMARK VINA RESULT:    -4.168      9.882     11.843
REMARK INTER + INTRA:          -5.971
REMARK INTER:                  -5.625
REMARK INTRA:                  -0.346
REMARK UNBOUND:                 0.390
REMARK SMILES CC1=CCC[C@@H](C)C(=O)C[C@H](C(C)C)C(=O)C1
REMARK SMILES IDX 8 1 9 2 6 3 7 4 5 5 4 6 3 7 2 8 1 9 10 11 11 12 15 13 16 14
REMARK SMILES IDX 17 15 12 17 13 18 14 19
REMARK H PARENT
REMARK Flexibility Score: 70.00
ROOT
ATOM      1  C   UNL     1      17.509  16.729  14.118  1.00  0.00     0.136 C 
ATOM      2  O   UNL     1      17.028  17.639  13.456  1.00  0.00    -0.299 OA
ENDROOT
BRANCH   1   3
ATOM      3  C   UNL     1      17.046  16.522  15.548  1.00  0.00     0.053 C 
ATOM      4  C   UNL     1      15.569  16.104  15.577  1.00  0.00     0.016 C 
BRANCH   3   5
ATOM      5  C   UNL     1      17.273  17.803  16.382  1.00  0.00     0.015 C 
BRANCH   5   6
ATOM      6  C   UNL     1      18.774  18.113  16.548  1.00  0.00     0.028 C 
BRANCH   6   7
ATOM      7  C   UNL     1      19.571  16.946  17.077  1.00  0.00    -0.028 C 
ATOM      8  C   UNL     1      20.650  16.390  16.471  1.00  0.00    -0.070 CG0
ATOM      9  C   UNL     1      21.251  15.160  17.106  1.00  0.00     0.039 C 
ATOM     10  G   UNL     1      21.312  16.965  15.225  1.00  0.00     0.000 G0
ENDBRANCH   6   7
ENDBRANCH   5   6
ENDBRANCH   3   5
ENDBRANCH   1   3
BRANCH   1  11
ATOM     11  C   UNL     1      18.548  15.831  13.483  1.00  0.00     0.087 C 
BRANCH  11  12
ATOM     12  C   UNL     1      19.829  16.609  13.090  1.00  0.00     0.066 C 
BRANCH  12  13
ATOM     13  C   UNL     1      21.012  16.190  13.950  1.00  0.00     0.140 C 
ATOM     14  O   UNL     1      21.725  15.255  13.616  1.00  0.00    -0.299 OA
BRANCH  13  15
ATOM     15  C   UNL     1      21.330  16.955  15.212  1.00  0.00     0.106 CG0
ATOM     16  G   UNL     1      20.658  16.399  16.461  1.00  0.00     0.000 G0
ENDBRANCH  13  15
ENDBRANCH  12  13
BRANCH  12  17
ATOM     17  C   UNL     1      20.106  16.563  11.555  1.00  0.00    -0.006 C 
ATOM     18  C   UNL     1      19.560  15.276  10.918  1.00  0.00     0.008 C 
ATOM     19  C   UNL     1      19.613  17.797  10.777  1.00  0.00     0.008 C 
ENDBRANCH  12  17
ENDBRANCH  11  12
ENDBRANCH   1  11
TORSDOF 1
ENDMDL
MODEL 6
REMARK VINA RESULT:    -4.083     10.327     12.134
REMARK INTER + INTRA:          -5.842
REMARK INTER:                  -5.659
REMARK INTRA:                  -0.183
REMARK UNBOUND:                 0.390
REMARK SMILES CC1=CCC[C@@H](C)C(=O)C[C@H](C(C)C)C(=O)C1
REMARK SMILES IDX 8 1 9 2 6 3 7 4 5 5 4 6 3 7 2 8 1 9 10 11 11 12 15 13 16 14
REMARK SMILES IDX 17 15 12 17 13 18 14 19
REMARK H PARENT
REMARK Flexibility Score: 70.00
ROOT
ATOM      1  C   UNL     1      18.761  17.087  16.069  1.00  0.00     0.136 C 
ATOM      2  O   UNL     1      18.274  18.209  16.065  1.00  0.00    -0.299 OA
ENDROOT
BRANCH   1   3
ATOM      3  C   UNL     1      19.842  16.748  17.078  1.00  0.00     0.053 C 
ATOM      4  C   UNL     1      20.547  18.025  17.559  1.00  0.00     0.016 C 
BRANCH   3   5
ATOM      5  C   UNL     1      20.857  15.753  16.471  1.00  0.00     0.015 C 
BRANCH   5   6
ATOM      6  C   UNL     1      21.857  16.461  15.536  1.00  0.00     0.028 C 
BRANCH   6   7
ATOM      7  C   UNL     1      22.333  15.590  14.399  1.00  0.00    -0.028 C 
ATOM      8  C   UNL     1      21.789  15.549  13.157  1.00  0.00    -0.070 CG0
ATOM      9  C   UNL     1      22.342  14.536  12.186  1.00  0.00     0.039 C 
ATOM     10  G   UNL     1      20.697  16.498  12.680  1.00  0.00     0.000 G0
ENDBRANCH   6   7
ENDBRANCH   5   6
ENDBRANCH   3   5
ENDBRANCH   1   3
BRANCH   1  11
ATOM     11  C   UNL     1      18.262  16.067  15.069  1.00  0.00     0.087 C 
BRANCH  11  12
ATOM     12  C   UNL     1      18.251  16.625  13.624  1.00  0.00     0.066 C 
BRANCH  12  13
ATOM     13  C   UNL     1      19.289  15.927  12.758  1.00  0.00     0.140 C 
ATOM     14  O   UNL     1      18.993  14.936  12.107  1.00  0.00    -0.299 OA
BRANCH  13  15
ATOM     15  C   UNL     1      20.691  16.482  12.675  1.00  0.00     0.106 CG0
ATOM     16  G   UNL     1      21.770  15.520  13.154  1.00  0.00     0.000 G0
ENDBRANCH  13  15
ENDBRANCH  12  13
BRANCH  12  17
ATOM     17  C   UNL     1      16.817  16.652  13.007  1.00  0.00    -0.006 C 
ATOM     18  C   UNL     1      15.741  16.343  14.059  1.00  0.00     0.008 C 
ATOM     19  C   UNL     1      16.469  17.946  12.249  1.00  0.00     0.008 C 
ENDBRANCH  12  17
ENDBRANCH  11  12
ENDBRANCH   1  11
TORSDOF 1
ENDMDL
MODEL 7
REMARK VINA RESULT:    -4.076      1.806      4.681
REMARK INTER + INTRA:          -5.831
REMARK INTER:                  -6.099
REMARK INTRA:                   0.268
REMARK UNBOUND:                 0.390
REMARK SMILES CC1=CCC[C@@H](C)C(=O)C[C@H](C(C)C)C(=O)C1
REMARK SMILES IDX 8 1 9 2 6 3 7 4 5 5 4 6 3 7 2 8 1 9 10 11 11 12 15 13 16 14
REMARK SMILES IDX 17 15 12 17 13 18 14 19
REMARK H PARENT
REMARK Flexibility Score: 70.00
ROOT
ATOM      1  C   UNL     1      16.225  16.408  23.684  1.00  0.00     0.136 C 
ATOM      2  O   UNL     1      15.979  15.413  23.017  1.00  0.00    -0.299 OA
ENDROOT
BRANCH   1   3
ATOM      3  C   UNL     1      17.391  16.384  24.655  1.00  0.00     0.053 C 
ATOM      4  C   UNL     1      18.616  15.725  24.006  1.00  0.00     0.016 C 
BRANCH   3   5
ATOM      5  C   UNL     1      16.996  15.652  25.958  1.00  0.00     0.015 C 
BRANCH   5   6
ATOM      6  C   UNL     1      15.758  16.290  26.615  1.00  0.00     0.028 C 
BRANCH   6   7
ATOM      7  C   UNL     1      14.534  15.408  26.570  1.00  0.00    -0.028 C 
ATOM      8  C   UNL     1      13.349  15.733  25.997  1.00  0.00    -0.070 CG0
ATOM      9  C   UNL     1      12.209  14.755  26.146  1.00  0.00     0.039 C 
ATOM     10  G   UNL     1      13.124  16.995  25.175  1.00  0.00     0.000 G0
ENDBRANCH   6   7
ENDBRANCH   5   6
ENDBRANCH   3   5
ENDBRANCH   1   3
BRANCH   1  11
ATOM     11  C   UNL     1      15.362  17.639  23.512  1.00  0.00     0.087 C 
BRANCH  11  12
ATOM     12  C   UNL     1      14.048  17.328  22.752  1.00  0.00     0.066 C 
BRANCH  12  13
ATOM     13  C   UNL     1      12.985  16.780  23.693  1.00  0.00     0.140 C 
ATOM     14  O   UNL     1      12.043  16.134  23.258  1.00  0.00    -0.299 OA
BRANCH  13  15
ATOM     15  C   UNL     1      13.110  17.009  25.179  1.00  0.00     0.106 CG0
ATOM     16  G   UNL     1      13.341  15.738  25.986  1.00  0.00     0.000 G0
ENDBRANCH  13  15
ENDBRANCH  12  13
BRANCH  12  17
ATOM     17  C   UNL     1      13.570  18.527  21.875  1.00  0.00    -0.006 C 
ATOM     18  C   UNL     1      13.345  19.792  22.718  1.00  0.00     0.008 C 
ATOM     19  C   UNL     1      14.474  18.841  20.669  1.00  0.00     0.008 C 
ENDBRANCH  12  17
ENDBRANCH  11  12
ENDBRANCH   1  11
TORSDOF 1
ENDMDL
MODEL 8
REMARK VINA RESULT:    -3.817      4.782      6.344
REMARK INTER + INTRA:          -5.436
REMARK INTER:                  -5.478
REMARK INTRA:                   0.042
REMARK UNBOUND:                 0.390
REMARK SMILES CC1=CCC[C@@H](C)C(=O)C[C@H](C(C)C)C(=O)C1
REMARK SMILES IDX 8 1 9 2 6 3 7 4 5 5 4 6 3 7 2 8 1 9 10 11 11 12 15 13 16 14
REMARK SMILES IDX 17 15 12 17 13 18 14 19
REMARK H PARENT
REMARK Flexibility Score: 70.00
ROOT
ATOM      1  C   UNL     1      20.227  17.351  24.955  1.00  0.00     0.136 C 
ATOM      2  O   UNL     1      21.331  17.605  25.416  1.00  0.00    -0.299 OA
ENDROOT
BRANCH   1   3
ATOM      3  C   UNL     1      19.729  18.123  23.747  1.00  0.00     0.053 C 
ATOM      4  C   UNL     1      18.509  17.423  23.130  1.00  0.00     0.016 C 
BRANCH   3   5
ATOM      5  C   UNL     1      20.858  18.285  22.704  1.00  0.00     0.015 C 
BRANCH   5   6
ATOM      6  C   UNL     1      21.110  16.975  21.932  1.00  0.00     0.028 C 
BRANCH   6   7
ATOM      7  C   UNL     1      22.455  16.357  22.226  1.00  0.00    -0.028 C 
ATOM      8  C   UNL     1      22.658  15.191  22.889  1.00  0.00    -0.070 CG0
ATOM      9  C   UNL     1      24.084  14.790  23.175  1.00  0.00     0.039 C 
ATOM     10  G   UNL     1      21.537  14.249  23.309  1.00  0.00     0.000 G0
ENDBRANCH   6   7
ENDBRANCH   5   6
ENDBRANCH   3   5
ENDBRANCH   1   3
BRANCH   1  11
ATOM     11  C   UNL     1      19.394  16.265  25.600  1.00  0.00     0.087 C 
BRANCH  11  12
ATOM     12  C   UNL     1      19.522  14.912  24.855  1.00  0.00     0.066 C 
BRANCH  12  13
ATOM     13  C   UNL     1      20.980  14.506  24.700  1.00  0.00     0.140 C 
ATOM     14  O   UNL     1      21.695  14.367  25.681  1.00  0.00    -0.299 OA
BRANCH  13  15
ATOM     15  C   UNL     1      21.542  14.242  23.324  1.00  0.00     0.106 CG0
ATOM     16  G   UNL     1      22.636  15.214  22.903  1.00  0.00     0.000 G0
ENDBRANCH  13  15
ENDBRANCH  12  13
BRANCH  12  17
ATOM     17  C   UNL     1      18.612  13.805  25.472  1.00  0.00    -0.006 C 
ATOM     18  C   UNL     1      17.132  14.031  25.128  1.00  0.00     0.008 C 
ATOM     19  C   UNL     1      19.028  12.364  25.123  1.00  0.00     0.008 C 
ENDBRANCH  12  17
ENDBRANCH  11  12
ENDBRANCH   1  11
TORSDOF 1
ENDMDL
MODEL 9
REMARK VINA RESULT:    -3.817     10.153     12.004
REMARK INTER + INTRA:          -5.435
REMARK INTER:                  -5.341
REMARK INTRA:                  -0.094
REMARK UNBOUND:                 0.390
REMARK SMILES CC1=CCC[C@@H](C)C(=O)C[C@H](C(C)C)C(=O)C1
REMARK SMILES IDX 8 1 9 2 6 3 7 4 5 5 4 6 3 7 2 8 1 9 10 11 11 12 15 13 16 14
REMARK SMILES IDX 17 15 12 17 13 18 14 19
REMARK H PARENT
REMARK Flexibility Score: 70.00
ROOT
ATOM      1  C   UNL     1      17.727  17.483  15.937  1.00  0.00     0.136 C 
ATOM      2  O   UNL     1      17.348  17.613  17.093  1.00  0.00    -0.299 OA
ENDROOT
BRANCH   1   3
ATOM      3  C   UNL     1      16.713  17.180  14.849  1.00  0.00     0.053 C 
ATOM      4  C   UNL     1      16.347  15.689  14.859  1.00  0.00     0.016 C 
BRANCH   3   5
ATOM      5  C   UNL     1      17.258  17.605  13.467  1.00  0.00     0.015 C 
BRANCH   5   6
ATOM      6  C   UNL     1      17.629  16.384  12.602  1.00  0.00     0.028 C 
BRANCH   6   7
ATOM      7  C   UNL     1      18.788  16.641  11.671  1.00  0.00    -0.028 C 
ATOM      8  C   UNL     1      20.079  16.296  11.905  1.00  0.00    -0.070 CG0
ATOM      9  C   UNL     1      21.113  16.733  10.897  1.00  0.00     0.039 C 
ATOM     10  G   UNL     1      20.528  15.455  13.093  1.00  0.00     0.000 G0
ENDBRANCH   6   7
ENDBRANCH   5   6
ENDBRANCH   3   5
ENDBRANCH   1   3
BRANCH   1  11
ATOM     11  C   UNL     1      19.200  17.640  15.626  1.00  0.00     0.087 C 
BRANCH  11  12
ATOM     12  C   UNL     1      19.921  16.273  15.517  1.00  0.00     0.066 C 
BRANCH  12  13
ATOM     13  C   UNL     1      20.881  16.251  14.336  1.00  0.00     0.140 C 
ATOM     14  O   UNL     1      21.939  16.859  14.383  1.00  0.00    -0.299 OA
BRANCH  13  15
ATOM     15  C   UNL     1      20.538  15.444  13.107  1.00  0.00     0.106 CG0
ATOM     16  G   UNL     1      20.086  16.284  11.919  1.00  0.00     0.000 G0
ENDBRANCH  13  15
ENDBRANCH  12  13
BRANCH  12  17
ATOM     17  C   UNL     1      20.560  15.827  16.869  1.00  0.00    -0.006 C 
ATOM     18  C   UNL     1      21.696  14.815  16.653  1.00  0.00     0.008 C 
ATOM     19  C   UNL     1      21.037  16.984  17.765  1.00  0.00     0.008 C 
ENDBRANCH  12  17
ENDBRANCH  11  12
ENDBRANCH   1  11
TORSDOF 1
ENDMDL
