MODEL 1
REMARK VINA RESULT:    -3.489      0.000      0.000
REMARK INTER + INTRA:          -5.795
REMARK INTER:                  -5.121
REMARK INTRA:                  -0.674
REMARK UNBOUND:                -0.674
REMARK SMILES C=C1C=C[C@@H](C(C)C)CCC(C)=CCC1
REMARK SMILES IDX 3 1 4 2 5 3 9 4 10 5 11 6 12 7 13 8 6 10 7 11 8 12 2 13 1 14
REMARK SMILES IDX 15 15 14 16
REMARK H PARENT
REMARK Flexibility Score: 70.00
ROOT
ATOM      1  C   UNL     1     140.671 135.518 134.693  1.00  0.00    -0.001 C 
ATOM      2  C   UNL     1     140.039 134.396 135.081  1.00  0.00    -0.023 C 
ENDROOT
BRANCH   2   3
ATOM      3  C   UNL     1     138.716 134.345 135.823  1.00  0.00     0.014 C 
BRANCH   3   4
ATOM      4  C   UNL     1     138.939 134.280 137.369  1.00  0.00     0.012 C 
BRANCH   4   5
ATOM      5  C   UNL     1     138.171 135.383 138.141  1.00  0.00     0.031 C 
BRANCH   5   6
ATOM      6  C   UNL     1     139.038 136.319 138.980  1.00  0.00    -0.077 C 
ATOM      7  C   UNL     1     139.325 135.931 140.412  1.00  0.00     0.039 C 
ATOM      8  C   UNL     1     139.496 137.532 138.571  1.00  0.00    -0.028 CG0
ATOM      9  G   UNL     1     139.500 138.071 137.160  1.00  0.00     0.000 G0
ENDBRANCH   5   6
ENDBRANCH   4   5
ENDBRANCH   3   4
BRANCH   3  10
ATOM     10  C   UNL     1     137.801 133.210 135.263  1.00  0.00    -0.010 C 
ATOM     11  C   UNL     1     137.868 133.014 133.735  1.00  0.00     0.008 C 
ATOM     12  C   UNL     1     138.063 131.876 135.980  1.00  0.00     0.008 C 
ENDBRANCH   3  10
ENDBRANCH   2   3
BRANCH   1  13
ATOM     13  C   UNL     1     140.271 136.910 135.033  1.00  0.00    -0.055 C 
ATOM     14  C   UNL     1     139.534 137.585 134.147  1.00  0.00     0.012 C 
BRANCH  13  15
ATOM     15  C   UNL     1     140.708 137.601 136.315  1.00  0.00     0.039 C 
BRANCH  15  16
ATOM     16  C   UNL     1     139.521 138.099 137.162  1.00  0.00     0.032 CG0
ATOM     17  G   UNL     1     139.496 137.556 138.571  1.00  0.00     0.000 G0
ENDBRANCH  15  16
ENDBRANCH  13  15
ENDBRANCH   1  13
TORSDOF 1
ENDMDL
MODEL 2
REMARK VINA RESULT:    -3.354      1.427      2.189
REMARK INTER + INTRA:          -5.597
REMARK INTER:                  -4.991
REMARK INTRA:                  -0.607
REMARK UNBOUND:                -0.674
REMARK SMILES C=C1C=C[C@@H](C(C)C)CCC(C)=CCC1
REMARK SMILES IDX 3 1 4 2 5 3 9 4 10 5 11 6 12 7 13 8 6 10 7 11 8 12 2 13 1 14
REMARK SMILES IDX 15 15 14 16
REMARK H PARENT
REMARK Flexibility Score: 70.00
ROOT
ATOM      1  C   UNL     1     140.620 135.742 134.854  1.00  0.00    -0.001 C 
ATOM      2  C   UNL     1     140.239 134.469 135.060  1.00  0.00    -0.023 C 
ENDROOT
BRANCH   2   3
ATOM      3  C   UNL     1     138.975 134.035 135.778  1.00  0.00     0.014 C 
BRANCH   3   4
ATOM      4  C   UNL     1     139.218 133.904 137.317  1.00  0.00     0.012 C 
BRANCH   4   5
ATOM      5  C   UNL     1     138.547 135.034 138.138  1.00  0.00     0.031 C 
BRANCH   5   6
ATOM      6  C   UNL     1     137.129 135.404 137.706  1.00  0.00    -0.077 C 
ATOM      7  C   UNL     1     135.996 134.503 138.140  1.00  0.00     0.039 C 
ATOM      8  C   UNL     1     136.811 136.431 136.874  1.00  0.00    -0.028 CG0
ATOM      9  G   UNL     1     137.713 137.565 136.447  1.00  0.00     0.000 G0
ENDBRANCH   5   6
ENDBRANCH   4   5
ENDBRANCH   3   4
BRANCH   3  10
ATOM     10  C   UNL     1     138.363 132.759 135.119  1.00  0.00    -0.010 C 
ATOM     11  C   UNL     1     137.830 131.706 136.111  1.00  0.00     0.008 C 
ATOM     12  C   UNL     1     137.273 133.125 134.099  1.00  0.00     0.008 C 
ENDBRANCH   3  10
ENDBRANCH   2   3
BRANCH   1  13
ATOM     13  C   UNL     1     139.956 136.954 135.405  1.00  0.00    -0.055 C 
ATOM     14  C   UNL     1     140.673 137.756 136.196  1.00  0.00     0.012 C 
BRANCH  13  15
ATOM     15  C   UNL     1     138.495 137.283 135.143  1.00  0.00     0.039 C 
BRANCH  15  16
ATOM     16  C   UNL     1     137.707 137.581 136.433  1.00  0.00     0.032 CG0
ATOM     17  G   UNL     1     136.818 136.448 136.890  1.00  0.00     0.000 G0
ENDBRANCH  15  16
ENDBRANCH  13  15
ENDBRANCH   1  13
TORSDOF 1
ENDMDL
MODEL 3
REMARK VINA RESULT:    -3.336      3.709      5.137
REMARK INTER + INTRA:          -5.571
REMARK INTER:                  -4.938
REMARK INTRA:                  -0.633
REMARK UNBOUND:                -0.674
REMARK SMILES C=C1C=C[C@@H](C(C)C)CCC(C)=CCC1
REMARK SMILES IDX 3 1 4 2 5 3 9 4 10 5 11 6 12 7 13 8 6 10 7 11 8 12 2 13 1 14
REMARK SMILES IDX 15 15 14 16
REMARK H PARENT
REMARK Flexibility Score: 70.00
ROOT
ATOM      1  C   UNL     1     136.791 140.505 134.816  1.00  0.00    -0.001 C 
ATOM      2  C   UNL     1     137.992 139.972 135.101  1.00  0.00    -0.023 C 
ENDROOT
BRANCH   2   3
ATOM      3  C   UNL     1     138.222 138.696 135.889  1.00  0.00     0.014 C 
BRANCH   3   4
ATOM      4  C   UNL     1     138.405 138.999 137.412  1.00  0.00     0.012 C 
BRANCH   4   5
ATOM      5  C   UNL     1     137.444 138.186 138.315  1.00  0.00     0.031 C 
BRANCH   5   6
ATOM      6  C   UNL     1     136.543 139.015 139.227  1.00  0.00    -0.077 C 
ATOM      7  C   UNL     1     137.059 139.376 140.600  1.00  0.00     0.039 C 
ATOM      8  C   UNL     1     135.263 139.375 138.939  1.00  0.00    -0.028 CG0
ATOM      9  G   UNL     1     134.579 139.294 137.595  1.00  0.00     0.000 G0
ENDBRANCH   5   6
ENDBRANCH   4   5
ENDBRANCH   3   4
BRANCH   3  10
ATOM     10  C   UNL     1     139.376 137.849 135.265  1.00  0.00    -0.010 C 
ATOM     11  C   UNL     1     139.727 138.203 133.806  1.00  0.00     0.008 C 
ATOM     12  C   UNL     1     140.639 137.896 136.140  1.00  0.00     0.008 C 
ENDBRANCH   3  10
ENDBRANCH   2   3
BRANCH   1  13
ATOM     13  C   UNL     1     135.478 140.030 135.329  1.00  0.00    -0.055 C 
ATOM     14  C   UNL     1     134.763 139.208 134.556  1.00  0.00     0.012 C 
BRANCH  13  15
ATOM     15  C   UNL     1     134.905 140.480 136.663  1.00  0.00     0.039 C 
BRANCH  15  16
ATOM     16  C   UNL     1     134.576 139.303 137.602  1.00  0.00     0.032 CG0
ATOM     17  G   UNL     1     135.259 139.377 138.947  1.00  0.00     0.000 G0
ENDBRANCH  15  16
ENDBRANCH  13  15
ENDBRANCH   1  13
TORSDOF 1
ENDMDL
MODEL 4
REMARK VINA RESULT:    -3.323      3.579      5.136
REMARK INTER + INTRA:          -5.551
REMARK INTER:                  -4.913
REMARK INTRA:                  -0.638
REMARK UNBOUND:                -0.674
REMARK SMILES C=C1C=C[C@@H](C(C)C)CCC(C)=CCC1
REMARK SMILES IDX 3 1 4 2 5 3 9 4 10 5 11 6 12 7 13 8 6 10 7 11 8 12 2 13 1 14
REMARK SMILES IDX 15 15 14 16
REMARK H PARENT
REMARK Flexibility Score: 70.00
ROOT
ATOM      1  C   UNL     1     135.659 131.947 134.710  1.00  0.00    -0.001 C 
ATOM      2  C   UNL     1     134.410 132.384 134.947  1.00  0.00    -0.023 C 
ENDROOT
BRANCH   2   3
ATOM      3  C   UNL     1     134.051 133.692 135.625  1.00  0.00     0.014 C 
BRANCH   3   4
ATOM      4  C   UNL     1     133.982 133.522 137.178  1.00  0.00     0.012 C 
BRANCH   4   5
ATOM      5  C   UNL     1     135.141 134.234 137.921  1.00  0.00     0.031 C 
BRANCH   5   6
ATOM      6  C   UNL     1     135.533 135.601 137.365  1.00  0.00    -0.077 C 
ATOM      7  C   UNL     1     134.677 136.791 137.733  1.00  0.00     0.039 C 
ATOM      8  C   UNL     1     136.540 135.822 136.479  1.00  0.00    -0.028 CG0
ATOM      9  G   UNL     1     137.634 134.857 136.091  1.00  0.00     0.000 G0
ENDBRANCH   5   6
ENDBRANCH   4   5
ENDBRANCH   3   4
BRANCH   3  10
ATOM     10  C   UNL     1     132.767 134.319 134.995  1.00  0.00    -0.010 C 
ATOM     11  C   UNL     1     131.745 134.867 136.011  1.00  0.00     0.008 C 
ATOM     12  C   UNL     1     133.122 135.404 133.965  1.00  0.00     0.008 C 
ENDBRANCH   3  10
ENDBRANCH   2   3
BRANCH   1  13
ATOM     13  C   UNL     1     136.916 132.587 135.185  1.00  0.00    -0.055 C 
ATOM     14  C   UNL     1     137.711 131.882 135.994  1.00  0.00     0.012 C 
BRANCH  13  15
ATOM     15  C   UNL     1     137.298 134.014 134.826  1.00  0.00     0.039 C 
BRANCH  15  16
ATOM     16  C   UNL     1     137.637 134.871 136.061  1.00  0.00     0.032 CG0
ATOM     17  G   UNL     1     136.535 135.816 136.478  1.00  0.00     0.000 G0
ENDBRANCH  15  16
ENDBRANCH  13  15
ENDBRANCH   1  13
TORSDOF 1
ENDMDL
MODEL 5
REMARK VINA RESULT:    -3.284      5.695      7.222
REMARK INTER + INTRA:          -5.494
REMARK INTER:                  -4.863
REMARK INTRA:                  -0.631
REMARK UNBOUND:                -0.674
REMARK SMILES C=C1C=C[C@@H](C(C)C)CCC(C)=CCC1
REMARK SMILES IDX 3 1 4 2 5 3 9 4 10 5 11 6 12 7 13 8 6 10 7 11 8 12 2 13 1 14
REMARK SMILES IDX 15 15 14 16
REMARK H PARENT
REMARK Flexibility Score: 70.00
ROOT
ATOM      1  C   UNL     1     132.040 136.978 134.929  1.00  0.00    -0.001 C 
ATOM      2  C   UNL     1     132.672 138.118 135.261  1.00  0.00    -0.023 C 
ENDROOT
BRANCH   2   3
ATOM      3  C   UNL     1     134.032 138.207 135.928  1.00  0.00     0.014 C 
BRANCH   3   4
ATOM      4  C   UNL     1     133.894 138.256 137.485  1.00  0.00     0.012 C 
BRANCH   4   5
ATOM      5  C   UNL     1     134.580 137.061 138.194  1.00  0.00     0.031 C 
BRANCH   5   6
ATOM      6  C   UNL     1     133.675 136.231 139.101  1.00  0.00    -0.077 C 
ATOM      7  C   UNL     1     133.420 136.733 140.504  1.00  0.00     0.039 C 
ATOM      8  C   UNL     1     133.154 135.016 138.781  1.00  0.00    -0.028 CG0
ATOM      9  G   UNL     1     133.112 134.380 137.412  1.00  0.00     0.000 G0
ENDBRANCH   5   6
ENDBRANCH   4   5
ENDBRANCH   3   4
BRANCH   3  10
ATOM     10  C   UNL     1     134.879 139.373 135.326  1.00  0.00    -0.010 C 
ATOM     11  C   UNL     1     134.716 139.578 133.806  1.00  0.00     0.008 C 
ATOM     12  C   UNL     1     134.619 140.693 136.069  1.00  0.00     0.008 C 
ENDBRANCH   3  10
ENDBRANCH   2   3
BRANCH   1  13
ATOM     13  C   UNL     1     132.483 135.600 135.273  1.00  0.00    -0.055 C 
ATOM     14  C   UNL     1     133.327 134.987 134.440  1.00  0.00     0.012 C 
BRANCH  13  15
ATOM     15  C   UNL     1     131.976 134.855 136.498  1.00  0.00     0.039 C 
BRANCH  15  16
ATOM     16  C   UNL     1     133.114 134.356 137.409  1.00  0.00     0.032 CG0
ATOM     17  G   UNL     1     133.151 135.014 138.768  1.00  0.00     0.000 G0
ENDBRANCH  15  16
ENDBRANCH  13  15
ENDBRANCH   1  13
TORSDOF 1
ENDMDL
MODEL 6
REMARK VINA RESULT:    -3.248      3.159      4.971
REMARK INTER + INTRA:          -5.442
REMARK INTER:                  -4.836
REMARK INTRA:                  -0.605
REMARK UNBOUND:                -0.674
REMARK SMILES C=C1C=C[C@@H](C(C)C)CCC(C)=CCC1
REMARK SMILES IDX 3 1 4 2 5 3 9 4 10 5 11 6 12 7 13 8 6 10 7 11 8 12 2 13 1 14
REMARK SMILES IDX 15 15 14 16
REMARK H PARENT
REMARK Flexibility Score: 70.00
ROOT
ATOM      1  C   UNL     1     139.375 139.766 135.857  1.00  0.00    -0.001 C 
ATOM      2  C   UNL     1     138.241 140.069 135.200  1.00  0.00    -0.023 C 
ENDROOT
BRANCH   2   3
ATOM      3  C   UNL     1     136.930 139.316 135.319  1.00  0.00     0.014 C 
BRANCH   3   4
ATOM      4  C   UNL     1     136.921 138.050 134.401  1.00  0.00     0.012 C 
BRANCH   4   5
ATOM      5  C   UNL     1     136.679 136.734 135.182  1.00  0.00     0.031 C 
BRANCH   5   6
ATOM      6  C   UNL     1     135.980 136.891 136.530  1.00  0.00    -0.077 C 
ATOM      7  C   UNL     1     134.469 136.906 136.551  1.00  0.00     0.039 C 
ATOM      8  C   UNL     1     136.610 137.121 137.713  1.00  0.00    -0.028 CG0
ATOM      9  G   UNL     1     138.088 136.982 137.994  1.00  0.00     0.000 G0
ENDBRANCH   5   6
ENDBRANCH   4   5
ENDBRANCH   3   4
BRANCH   3  10
ATOM     10  C   UNL     1     135.712 140.269 135.100  1.00  0.00    -0.010 C 
ATOM     11  C   UNL     1     134.686 139.785 134.056  1.00  0.00     0.008 C 
ATOM     12  C   UNL     1     135.005 140.586 136.429  1.00  0.00     0.008 C 
ENDBRANCH   3  10
ENDBRANCH   2   3
BRANCH   1  13
ATOM     13  C   UNL     1     139.600 138.568 136.709  1.00  0.00    -0.055 C 
ATOM     14  C   UNL     1     140.473 137.651 136.283  1.00  0.00     0.012 C 
BRANCH  13  15
ATOM     15  C   UNL     1     138.845 138.327 138.006  1.00  0.00     0.039 C 
BRANCH  15  16
ATOM     16  C   UNL     1     138.078 136.990 138.013  1.00  0.00     0.032 CG0
ATOM     17  G   UNL     1     136.602 137.123 137.720  1.00  0.00     0.000 G0
ENDBRANCH  15  16
ENDBRANCH  13  15
ENDBRANCH   1  13
TORSDOF 1
ENDMDL
MODEL 7
REMARK VINA RESULT:    -3.191      4.301      6.063
REMARK INTER + INTRA:          -5.358
REMARK INTER:                  -4.637
REMARK INTRA:                  -0.720
REMARK UNBOUND:                -0.674
REMARK SMILES C=C1C=C[C@@H](C(C)C)CCC(C)=CCC1
REMARK SMILES IDX 3 1 4 2 5 3 9 4 10 5 11 6 12 7 13 8 6 10 7 11 8 12 2 13 1 14
REMARK SMILES IDX 15 15 14 16
REMARK H PARENT
REMARK Flexibility Score: 70.00
ROOT
ATOM      1  C   UNL     1     135.248 139.740 138.171  1.00  0.00    -0.001 C 
ATOM      2  C   UNL     1     136.362 139.002 138.325  1.00  0.00    -0.023 C 
ENDROOT
BRANCH   2   3
ATOM      3  C   UNL     1     137.131 138.328 137.205  1.00  0.00     0.014 C 
BRANCH   3   4
ATOM      4  C   UNL     1     137.135 136.774 137.378  1.00  0.00     0.012 C 
BRANCH   4   5
ATOM      5  C   UNL     1     136.160 136.052 136.415  1.00  0.00     0.031 C 
BRANCH   5   6
ATOM      6  C   UNL     1     134.744 135.845 136.949  1.00  0.00    -0.077 C 
ATOM      7  C   UNL     1     134.506 134.703 137.910  1.00  0.00     0.039 C 
ATOM      8  C   UNL     1     133.651 136.549 136.552  1.00  0.00    -0.028 CG0
ATOM      9  G   UNL     1     133.640 137.830 135.752  1.00  0.00     0.000 G0
ENDBRANCH   5   6
ENDBRANCH   4   5
ENDBRANCH   3   4
BRANCH   3  10
ATOM     10  C   UNL     1     138.552 138.955 137.042  1.00  0.00    -0.010 C 
ATOM     11  C   UNL     1     139.717 138.049 137.488  1.00  0.00     0.008 C 
ATOM     12  C   UNL     1     138.784 139.446 135.604  1.00  0.00     0.008 C 
ENDBRANCH   3  10
ENDBRANCH   2   3
BRANCH   1  13
ATOM     13  C   UNL     1     134.486 139.921 136.906  1.00  0.00    -0.055 C 
ATOM     14  C   UNL     1     134.872 140.893 136.076  1.00  0.00     0.012 C 
BRANCH  13  15
ATOM     15  C   UNL     1     133.268 139.083 136.553  1.00  0.00     0.039 C 
BRANCH  15  16
ATOM     16  C   UNL     1     133.623 137.822 135.741  1.00  0.00     0.032 CG0
ATOM     17  G   UNL     1     133.646 136.550 136.555  1.00  0.00     0.000 G0
ENDBRANCH  15  16
ENDBRANCH  13  15
ENDBRANCH   1  13
TORSDOF 1
ENDMDL
MODEL 8
REMARK VINA RESULT:    -3.164      4.943      6.864
REMARK INTER + INTRA:          -5.318
REMARK INTER:                  -4.668
REMARK INTRA:                  -0.650
REMARK UNBOUND:                -0.674
REMARK SMILES C=C1C=C[C@@H](C(C)C)CCC(C)=CCC1
REMARK SMILES IDX 3 1 4 2 5 3 9 4 10 5 11 6 12 7 13 8 6 10 7 11 8 12 2 13 1 14
REMARK SMILES IDX 15 15 14 16
REMARK H PARENT
REMARK Flexibility Score: 70.00
ROOT
ATOM      1  C   UNL     1     131.864 135.493 135.807  1.00  0.00    -0.001 C 
ATOM      2  C   UNL     1     132.225 134.518 136.660  1.00  0.00    -0.023 C 
ENDROOT
BRANCH   2   3
ATOM      3  C   UNL     1     133.647 134.210 137.090  1.00  0.00     0.014 C 
BRANCH   3   4
ATOM      4  C   UNL     1     134.218 132.980 136.312  1.00  0.00     0.012 C 
BRANCH   4   5
ATOM      5  C   UNL     1     135.562 133.280 135.600  1.00  0.00     0.031 C 
BRANCH   5   6
ATOM      6  C   UNL     1     135.513 133.260 134.074  1.00  0.00    -0.077 C 
ATOM      7  C   UNL     1     135.781 131.949 133.371  1.00  0.00     0.039 C 
ATOM      8  C   UNL     1     135.344 134.354 133.286  1.00  0.00    -0.028 CG0
ATOM      9  G   UNL     1     134.892 135.727 133.725  1.00  0.00     0.000 G0
ENDBRANCH   5   6
ENDBRANCH   4   5
ENDBRANCH   3   4
BRANCH   3  10
ATOM     10  C   UNL     1     133.751 134.085 138.643  1.00  0.00    -0.010 C 
ATOM     11  C   UNL     1     135.169 133.809 139.181  1.00  0.00     0.008 C 
ATOM     12  C   UNL     1     133.149 135.314 139.344  1.00  0.00     0.008 C 
ENDBRANCH   3  10
ENDBRANCH   2   3
BRANCH   1  13
ATOM     13  C   UNL     1     132.787 136.357 135.023  1.00  0.00    -0.055 C 
ATOM     14  C   UNL     1     133.072 137.569 135.505  1.00  0.00     0.012 C 
BRANCH  13  15
ATOM     15  C   UNL     1     133.371 135.934 133.684  1.00  0.00     0.039 C 
BRANCH  15  16
ATOM     16  C   UNL     1     134.898 135.735 133.733  1.00  0.00     0.032 CG0
ATOM     17  G   UNL     1     135.358 134.367 133.287  1.00  0.00     0.000 G0
ENDBRANCH  15  16
ENDBRANCH  13  15
ENDBRANCH   1  13
TORSDOF 1
ENDMDL
MODEL 9
REMARK VINA RESULT:    -3.034      2.533      3.677
REMARK INTER + INTRA:          -5.127
REMARK INTER:                  -4.385
REMARK INTRA:                  -0.742
REMARK UNBOUND:                -0.674
REMARK SMILES C=C1C=C[C@@H](C(C)C)CCC(C)=CCC1
REMARK SMILES IDX 3 1 4 2 5 3 9 4 10 5 11 6 12 7 13 8 6 10 7 11 8 12 2 13 1 14
REMARK SMILES IDX 15 15 14 16
REMARK H PARENT
REMARK Flexibility Score: 70.00
ROOT
ATOM      1  C   UNL     1     139.574 137.694 137.927  1.00  0.00    -0.001 C 
ATOM      2  C   UNL     1     138.718 136.676 138.127  1.00  0.00    -0.023 C 
ENDROOT
BRANCH   2   3
ATOM      3  C   UNL     1     137.993 135.912 137.035  1.00  0.00     0.014 C 
BRANCH   3   4
ATOM      4  C   UNL     1     136.453 136.179 137.087  1.00  0.00     0.012 C 
BRANCH   4   5
ATOM      5  C   UNL     1     135.924 136.935 135.842  1.00  0.00     0.031 C 
BRANCH   5   6
ATOM      6  C   UNL     1     135.732 138.439 136.022  1.00  0.00    -0.077 C 
ATOM      7  C   UNL     1     134.441 138.922 136.643  1.00  0.00     0.039 C 
ATOM      8  C   UNL     1     136.591 139.393 135.575  1.00  0.00    -0.028 CG0
ATOM      9  G   UNL     1     138.005 139.184 135.087  1.00  0.00     0.000 G0
ENDBRANCH   5   6
ENDBRANCH   4   5
ENDBRANCH   3   4
BRANCH   3  10
ATOM     10  C   UNL     1     138.378 134.399 137.056  1.00  0.00    -0.010 C 
ATOM     11  C   UNL     1     139.585 134.021 136.174  1.00  0.00     0.008 C 
ATOM     12  C   UNL     1     138.596 133.898 138.494  1.00  0.00     0.008 C 
ENDBRANCH   3  10
ENDBRANCH   2   3
BRANCH   1  13
ATOM     13  C   UNL     1     139.865 138.351 136.624  1.00  0.00    -0.055 C 
ATOM     14  C   UNL     1     140.879 137.877 135.896  1.00  0.00     0.012 C 
BRANCH  13  15
ATOM     15  C   UNL     1     139.091 139.559 136.121  1.00  0.00     0.039 C 
BRANCH  15  16
ATOM     16  C   UNL     1     138.008 139.190 135.090  1.00  0.00     0.032 CG0
ATOM     17  G   UNL     1     136.593 139.400 135.576  1.00  0.00     0.000 G0
ENDBRANCH  15  16
ENDBRANCH  13  15
ENDBRANCH   1  13
TORSDOF 1
ENDMDL
