MODEL 1
REMARK VINA RESULT:    -5.909      0.000      0.000
REMARK INTER + INTRA:          -6.347
REMARK INTER:                  -6.254
REMARK INTRA:                  -0.093
REMARK UNBOUND:                -0.093
REMARK SMILES C=C(C)[C@@H]1CC=C(C)C(=O)C1
REMARK SMILES IDX 8 1 7 2 6 3 5 4 4 5 11 6 9 7 10 8 2 9 1 10 3 11
REMARK H PARENT
REMARK Flexibility Score: inf
ROOT
ATOM      1  C   UNL     1      66.857  60.052  26.629  1.00  0.00     0.048 C 
ATOM      2  C   UNL     1      68.257  60.566  26.823  1.00  0.00    -0.012 C 
ATOM      3  C   UNL     1      69.223  60.219  25.955  1.00  0.00    -0.019 C 
ATOM      4  C   UNL     1      70.637  60.718  26.092  1.00  0.00     0.036 C 
ATOM      5  C   UNL     1      71.016  60.913  27.573  1.00  0.00     0.025 C 
ATOM      6  C   UNL     1      69.999  61.840  28.266  1.00  0.00     0.089 C 
ATOM      7  C   UNL     1      68.596  61.351  28.037  1.00  0.00     0.158 C 
ATOM      8  O   UNL     1      67.698  61.647  28.870  1.00  0.00    -0.295 OA
ENDROOT
BRANCH   5   9
ATOM      9  C   UNL     1      72.441  61.428  27.726  1.00  0.00    -0.077 C 
ATOM     10  C   UNL     1      72.846  62.556  27.117  1.00  0.00     0.008 C 
ATOM     11  C   UNL     1      73.430  60.671  28.574  1.00  0.00     0.039 C 
ENDBRANCH   5   9
TORSDOF 1
ENDMDL
MODEL 2
REMARK VINA RESULT:    -5.527      1.571      3.147
REMARK INTER + INTRA:          -5.943
REMARK INTER:                  -5.849
REMARK INTRA:                  -0.094
REMARK UNBOUND:                -0.093
REMARK SMILES C=C(C)[C@@H]1CC=C(C)C(=O)C1
REMARK SMILES IDX 8 1 7 2 6 3 5 4 4 5 11 6 9 7 10 8 2 9 1 10 3 11
REMARK H PARENT
REMARK Flexibility Score: inf
ROOT
ATOM      1  C   UNL     1      69.472  61.397  30.618  1.00  0.00     0.048 C 
ATOM      2  C   UNL     1      69.918  61.264  29.188  1.00  0.00    -0.012 C 
ATOM      3  C   UNL     1      71.198  61.516  28.860  1.00  0.00    -0.019 C 
ATOM      4  C   UNL     1      71.702  61.382  27.448  1.00  0.00     0.036 C 
ATOM      5  C   UNL     1      70.600  61.733  26.429  1.00  0.00     0.025 C 
ATOM      6  C   UNL     1      69.344  60.879  26.685  1.00  0.00     0.089 C 
ATOM      7  C   UNL     1      68.922  60.977  28.125  1.00  0.00     0.158 C 
ATOM      8  O   UNL     1      67.715  60.776  28.427  1.00  0.00    -0.295 OA
ENDROOT
BRANCH   5   9
ATOM      9  C   UNL     1      71.093  61.592  24.996  1.00  0.00    -0.077 C 
ATOM     10  C   UNL     1      71.016  60.420  24.342  1.00  0.00     0.008 C 
ATOM     11  C   UNL     1      71.683  62.780  24.279  1.00  0.00     0.039 C 
ENDBRANCH   5   9
TORSDOF 1
ENDMDL
MODEL 3
REMARK VINA RESULT:    -5.256      2.601      3.730
REMARK INTER + INTRA:          -5.656
REMARK INTER:                  -5.567
REMARK INTRA:                  -0.089
REMARK UNBOUND:                -0.093
REMARK SMILES C=C(C)[C@@H]1CC=C(C)C(=O)C1
REMARK SMILES IDX 8 1 7 2 6 3 5 4 4 5 11 6 9 7 10 8 2 9 1 10 3 11
REMARK H PARENT
REMARK Flexibility Score: inf
ROOT
ATOM      1  C   UNL     1      71.372  60.626  23.264  1.00  0.00     0.048 C 
ATOM      2  C   UNL     1      71.029  60.795  24.718  1.00  0.00    -0.012 C 
ATOM      3  C   UNL     1      70.363  59.823  25.366  1.00  0.00    -0.019 C 
ATOM      4  C   UNL     1      70.009  59.932  26.825  1.00  0.00     0.036 C 
ATOM      5  C   UNL     1      69.740  61.396  27.223  1.00  0.00     0.025 C 
ATOM      6  C   UNL     1      70.943  62.281  26.845  1.00  0.00     0.089 C 
ATOM      7  C   UNL     1      71.314  62.082  25.402  1.00  0.00     0.158 C 
ATOM      8  O   UNL     1      71.907  63.007  24.785  1.00  0.00    -0.295 OA
ENDROOT
BRANCH   5   9
ATOM      9  C   UNL     1      69.390  61.523  28.700  1.00  0.00    -0.077 C 
ATOM     10  C   UNL     1      68.124  61.396  29.132  1.00  0.00     0.008 C 
ATOM     11  C   UNL     1      70.473  61.798  29.711  1.00  0.00     0.039 C 
ENDBRANCH   5   9
TORSDOF 1
ENDMDL
MODEL 4
REMARK VINA RESULT:    -5.000      1.892      4.527
REMARK INTER + INTRA:          -5.385
REMARK INTER:                  -5.291
REMARK INTRA:                  -0.094
REMARK UNBOUND:                -0.093
REMARK SMILES C=C(C)[C@@H]1CC=C(C)C(=O)C1
REMARK SMILES IDX 8 1 7 2 6 3 5 4 4 5 11 6 9 7 10 8 2 9 1 10 3 11
REMARK H PARENT
REMARK Flexibility Score: inf
ROOT
ATOM      1  C   UNL     1      73.842  61.310  28.132  1.00  0.00     0.048 C 
ATOM      2  C   UNL     1      72.339  61.283  28.092  1.00  0.00    -0.012 C 
ATOM      3  C   UNL     1      71.678  60.186  28.503  1.00  0.00    -0.019 C 
ATOM      4  C   UNL     1      70.175  60.110  28.500  1.00  0.00     0.036 C 
ATOM      5  C   UNL     1      69.579  60.935  27.342  1.00  0.00     0.025 C 
ATOM      6  C   UNL     1      70.092  62.386  27.402  1.00  0.00     0.089 C 
ATOM      7  C   UNL     1      71.593  62.414  27.486  1.00  0.00     0.158 C 
ATOM      8  O   UNL     1      72.213  63.428  27.067  1.00  0.00    -0.295 OA
ENDROOT
BRANCH   5   9
ATOM      9  C   UNL     1      68.058  60.876  27.334  1.00  0.00    -0.077 C 
ATOM     10  C   UNL     1      67.325  61.610  28.189  1.00  0.00     0.008 C 
ATOM     11  C   UNL     1      67.342  59.982  26.354  1.00  0.00     0.039 C 
ENDBRANCH   5   9
TORSDOF 1
ENDMDL
MODEL 5
REMARK VINA RESULT:    -4.867      1.811      3.212
REMARK INTER + INTRA:          -5.245
REMARK INTER:                  -5.155
REMARK INTRA:                  -0.090
REMARK UNBOUND:                -0.093
REMARK SMILES C=C(C)[C@@H]1CC=C(C)C(=O)C1
REMARK SMILES IDX 8 1 7 2 6 3 5 4 4 5 11 6 9 7 10 8 2 9 1 10 3 11
REMARK H PARENT
REMARK Flexibility Score: inf
ROOT
ATOM      1  C   UNL     1      68.220  61.729  30.643  1.00  0.00     0.048 C 
ATOM      2  C   UNL     1      68.779  61.560  29.257  1.00  0.00    -0.012 C 
ATOM      3  C   UNL     1      67.977  61.152  28.258  1.00  0.00    -0.019 C 
ATOM      4  C   UNL     1      68.479  60.983  26.848  1.00  0.00     0.036 C 
ATOM      5  C   UNL     1      69.954  60.537  26.834  1.00  0.00     0.025 C 
ATOM      6  C   UNL     1      70.816  61.521  27.648  1.00  0.00     0.089 C 
ATOM      7  C   UNL     1      70.236  61.724  29.020  1.00  0.00     0.158 C 
ATOM      8  O   UNL     1      70.995  62.072  29.964  1.00  0.00    -0.295 OA
ENDROOT
BRANCH   5   9
ATOM      9  C   UNL     1      70.478  60.372  25.414  1.00  0.00    -0.077 C 
ATOM     10  C   UNL     1      70.237  59.256  24.705  1.00  0.00     0.008 C 
ATOM     11  C   UNL     1      71.285  61.472  24.774  1.00  0.00     0.039 C 
ENDBRANCH   5   9
TORSDOF 1
ENDMDL
MODEL 6
REMARK VINA RESULT:    -4.660      2.381      3.803
REMARK INTER + INTRA:          -5.025
REMARK INTER:                  -4.936
REMARK INTRA:                  -0.089
REMARK UNBOUND:                -0.093
REMARK SMILES C=C(C)[C@@H]1CC=C(C)C(=O)C1
REMARK SMILES IDX 8 1 7 2 6 3 5 4 4 5 11 6 9 7 10 8 2 9 1 10 3 11
REMARK H PARENT
REMARK Flexibility Score: inf
ROOT
ATOM      1  C   UNL     1      71.791  61.082  23.404  1.00  0.00     0.048 C 
ATOM      2  C   UNL     1      71.129  61.268  24.742  1.00  0.00    -0.012 C 
ATOM      3  C   UNL     1      71.371  62.380  25.458  1.00  0.00    -0.019 C 
ATOM      4  C   UNL     1      70.723  62.626  26.795  1.00  0.00     0.036 C 
ATOM      5  C   UNL     1      70.487  61.303  27.549  1.00  0.00     0.025 C 
ATOM      6  C   UNL     1      69.675  60.328  26.676  1.00  0.00     0.089 C 
ATOM      7  C   UNL     1      70.312  60.173  25.323  1.00  0.00     0.158 C 
ATOM      8  O   UNL     1      70.114  59.116  24.667  1.00  0.00    -0.295 OA
ENDROOT
BRANCH   5   9
ATOM      9  C   UNL     1      69.823  61.536  28.900  1.00  0.00    -0.077 C 
ATOM     10  C   UNL     1      70.550  61.761  30.008  1.00  0.00     0.008 C 
ATOM     11  C   UNL     1      68.320  61.518  29.015  1.00  0.00     0.039 C 
ENDBRANCH   5   9
TORSDOF 1
ENDMDL
MODEL 7
REMARK VINA RESULT:    -4.637      2.136      3.186
REMARK INTER + INTRA:          -5.001
REMARK INTER:                  -4.906
REMARK INTRA:                  -0.095
REMARK UNBOUND:                -0.093
REMARK SMILES C=C(C)[C@@H]1CC=C(C)C(=O)C1
REMARK SMILES IDX 8 1 7 2 6 3 5 4 4 5 11 6 9 7 10 8 2 9 1 10 3 11
REMARK H PARENT
REMARK Flexibility Score: inf
ROOT
ATOM      1  C   UNL     1      69.434  60.299  29.762  1.00  0.00     0.048 C 
ATOM      2  C   UNL     1      69.846  60.790  28.402  1.00  0.00    -0.012 C 
ATOM      3  C   UNL     1      69.107  60.473  27.324  1.00  0.00    -0.019 C 
ATOM      4  C   UNL     1      69.464  60.952  25.942  1.00  0.00     0.036 C 
ATOM      5  C   UNL     1      70.990  61.078  25.775  1.00  0.00     0.025 C 
ATOM      6  C   UNL     1      71.575  61.982  26.876  1.00  0.00     0.089 C 
ATOM      7  C   UNL     1      71.129  61.518  28.235  1.00  0.00     0.158 C 
ATOM      8  O   UNL     1      71.841  61.785  29.240  1.00  0.00    -0.295 OA
ENDROOT
BRANCH   5   9
ATOM      9  C   UNL     1      71.365  61.572  24.384  1.00  0.00    -0.077 C 
ATOM     10  C   UNL     1      71.619  62.871  24.148  1.00  0.00     0.008 C 
ATOM     11  C   UNL     1      71.457  60.599  23.236  1.00  0.00     0.039 C 
ENDBRANCH   5   9
TORSDOF 1
ENDMDL
MODEL 8
REMARK VINA RESULT:    -4.474      2.496      3.904
REMARK INTER + INTRA:          -4.828
REMARK INTER:                  -4.731
REMARK INTRA:                  -0.098
REMARK UNBOUND:                -0.093
REMARK SMILES C=C(C)[C@@H]1CC=C(C)C(=O)C1
REMARK SMILES IDX 8 1 7 2 6 3 5 4 4 5 11 6 9 7 10 8 2 9 1 10 3 11
REMARK H PARENT
REMARK Flexibility Score: inf
ROOT
ATOM      1  C   UNL     1      71.837  62.480  23.717  1.00  0.00     0.048 C 
ATOM      2  C   UNL     1      71.218  62.132  25.042  1.00  0.00    -0.012 C 
ATOM      3  C   UNL     1      71.252  63.021  26.051  1.00  0.00    -0.019 C 
ATOM      4  C   UNL     1      70.635  62.731  27.392  1.00  0.00     0.036 C 
ATOM      5  C   UNL     1      70.725  61.231  27.733  1.00  0.00     0.025 C 
ATOM      6  C   UNL     1      70.097  60.389  26.606  1.00  0.00     0.089 C 
ATOM      7  C   UNL     1      70.684  60.766  25.274  1.00  0.00     0.158 C 
ATOM      8  O   UNL     1      70.684  59.920  24.340  1.00  0.00    -0.295 OA
ENDROOT
BRANCH   5   9
ATOM      9  C   UNL     1      70.094  60.922  29.084  1.00  0.00    -0.077 C 
ATOM     10  C   UNL     1      69.447  59.764  29.306  1.00  0.00     0.008 C 
ATOM     11  C   UNL     1      70.185  61.922  30.207  1.00  0.00     0.039 C 
ENDBRANCH   5   9
TORSDOF 1
ENDMDL
MODEL 9
REMARK VINA RESULT:    -3.685     17.555     18.777
REMARK INTER + INTRA:          -3.994
REMARK INTER:                  -3.898
REMARK INTRA:                  -0.096
REMARK UNBOUND:                -0.093
REMARK SMILES C=C(C)[C@@H]1CC=C(C)C(=O)C1
REMARK SMILES IDX 8 1 7 2 6 3 5 4 4 5 11 6 9 7 10 8 2 9 1 10 3 11
REMARK H PARENT
REMARK Flexibility Score: inf
ROOT
ATOM      1  C   UNL     1      71.041  77.054  36.765  1.00  0.00     0.048 C 
ATOM      2  C   UNL     1      69.538  77.031  36.706  1.00  0.00    -0.012 C 
ATOM      3  C   UNL     1      68.822  77.125  37.840  1.00  0.00    -0.019 C 
ATOM      4  C   UNL     1      67.317  77.124  37.838  1.00  0.00     0.036 C 
ATOM      5  C   UNL     1      66.764  76.257  36.690  1.00  0.00     0.025 C 
ATOM      6  C   UNL     1      67.351  76.717  35.342  1.00  0.00     0.089 C 
ATOM      7  C   UNL     1      68.852  76.782  35.413  1.00  0.00     0.158 C 
ATOM      8  O   UNL     1      69.523  76.658  34.354  1.00  0.00    -0.295 OA
ENDROOT
BRANCH   5   9
ATOM      9  C   UNL     1      65.241  76.256  36.669  1.00  0.00    -0.077 C 
ATOM     10  C   UNL     1      64.528  76.819  37.659  1.00  0.00     0.008 C 
ATOM     11  C   UNL     1      64.502  75.615  35.523  1.00  0.00     0.039 C 
ENDBRANCH   5   9
TORSDOF 1
ENDMDL
