MODEL 1
REMARK VINA RESULT:    -5.872      0.000      0.000
REMARK INTER + INTRA:          -7.165
REMARK INTER:                  -6.901
REMARK INTRA:                  -0.263
REMARK UNBOUND:                -0.263
REMARK SMILES O=c1cc(-c2ccc(O)c(O)c2)oc2cc(O)cc(O)c12
REMARK SMILES IDX 4 1 3 2 2 3 1 4 21 5 19 6 18 7 16 8 15 9 14 10 13 11 5 12
REMARK SMILES IDX 6 13 7 14 8 15 12 16 10 17 9 18 11 20 20 22 17 24
REMARK H PARENT 9 19 11 21 20 23 17 25
REMARK Flexibility Score: inf
ROOT
ATOM      1  C   UNL     1     -36.577 -20.992   6.985  1.00  0.00     0.138 A 
ATOM      2  C   UNL     1     -36.497 -20.266   8.185  1.00  0.00     0.100 A 
ATOM      3  C   UNL     1     -37.659 -20.021   8.919  1.00  0.00     0.197 A 
ATOM      4  O   UNL     1     -37.577 -19.369   9.994  1.00  0.00    -0.289 OA
ATOM      5  C   UNL     1     -38.894 -20.508   8.447  1.00  0.00     0.107 A 
ATOM      6  C   UNL     1     -40.117 -20.304   9.128  1.00  0.00     0.134 A 
ATOM      7  C   UNL     1     -41.305 -20.827   8.595  1.00  0.00     0.093 A 
ATOM      8  C   UNL     1     -41.290 -21.551   7.396  1.00  0.00     0.123 A 
ATOM      9  C   UNL     1     -40.086 -21.754   6.721  1.00  0.00     0.094 A 
ATOM     10  C   UNL     1     -38.892 -21.240   7.235  1.00  0.00     0.146 A 
ATOM     11  O   UNL     1     -37.758 -21.447   6.573  1.00  0.00    -0.456 OA
ENDROOT
BRANCH   1  12
ATOM     12  C   UNL     1     -35.374 -21.283   6.164  1.00  0.00     0.021 A 
ATOM     13  C   UNL     1     -35.141 -20.635   4.936  1.00  0.00     0.016 A 
ATOM     14  C   UNL     1     -34.006 -20.937   4.180  1.00  0.00     0.051 A 
ATOM     15  C   UNL     1     -33.089 -21.894   4.632  1.00  0.00     0.157 A 
ATOM     16  C   UNL     1     -34.454 -22.252   6.604  1.00  0.00     0.062 A 
ATOM     17  C   UNL     1     -33.314 -22.554   5.845  1.00  0.00     0.158 A 
BRANCH  15  18
ATOM     18  O   UNL     1     -31.955 -22.196   3.880  1.00  0.00    -0.504 OA
ATOM     19  H   UNL     1     -31.662 -21.612   3.105  1.00  0.00     0.293 HD
ENDBRANCH  15  18
BRANCH  17  20
ATOM     20  O   UNL     1     -32.402 -23.509   6.291  1.00  0.00    -0.504 OA
ATOM     21  H   UNL     1     -31.415 -23.297   6.381  1.00  0.00     0.293 HD
ENDBRANCH  17  20
ENDBRANCH   1  12
BRANCH   6  22
ATOM     22  O   UNL     1     -40.162 -19.588  10.325  1.00  0.00    -0.507 OA
ATOM     23  H   UNL     1     -39.318 -19.264  10.784  1.00  0.00     0.293 HD
ENDBRANCH   6  22
BRANCH   8  24
ATOM     24  O   UNL     1     -42.469 -22.071   6.867  1.00  0.00    -0.508 OA
ATOM     25  H   UNL     1     -42.571 -22.249   5.875  1.00  0.00     0.293 HD
ENDBRANCH   8  24
TORSDOF 5
ENDMDL
MODEL 2
REMARK VINA RESULT:    -5.859      4.997      8.644
REMARK INTER + INTRA:          -7.150
REMARK INTER:                  -6.886
REMARK INTRA:                  -0.264
REMARK UNBOUND:                -0.263
REMARK SMILES O=c1cc(-c2ccc(O)c(O)c2)oc2cc(O)cc(O)c12
REMARK SMILES IDX 4 1 3 2 2 3 1 4 21 5 19 6 18 7 16 8 15 9 14 10 13 11 5 12
REMARK SMILES IDX 6 13 7 14 8 15 12 16 10 17 9 18 11 20 20 22 17 24
REMARK H PARENT 9 19 11 21 20 23 17 25
REMARK Flexibility Score: inf
ROOT
ATOM      1  C   UNL     1     -37.556 -20.066  12.288  1.00  0.00     0.138 A 
ATOM      2  C   UNL     1     -36.529 -19.853  11.354  1.00  0.00     0.100 A 
ATOM      3  C   UNL     1     -35.428 -20.711  11.336  1.00  0.00     0.197 A 
ATOM      4  O   UNL     1     -34.512 -20.513  10.493  1.00  0.00    -0.289 OA
ATOM      5  C   UNL     1     -35.365 -21.780  12.251  1.00  0.00     0.107 A 
ATOM      6  C   UNL     1     -34.287 -22.694  12.300  1.00  0.00     0.134 A 
ATOM      7  C   UNL     1     -34.302 -23.737  13.239  1.00  0.00     0.093 A 
ATOM      8  C   UNL     1     -35.375 -23.882  14.127  1.00  0.00     0.123 A 
ATOM      9  C   UNL     1     -36.441 -22.981  14.082  1.00  0.00     0.094 A 
ATOM     10  C   UNL     1     -36.444 -21.936  13.155  1.00  0.00     0.146 A 
ATOM     11  O   UNL     1     -37.470 -21.091  13.134  1.00  0.00    -0.456 OA
ENDROOT
BRANCH   1  12
ATOM     12  C   UNL     1     -38.751 -19.186  12.353  1.00  0.00     0.021 A 
ATOM     13  C   UNL     1     -38.979 -18.328  13.447  1.00  0.00     0.016 A 
ATOM     14  C   UNL     1     -40.118 -17.519  13.487  1.00  0.00     0.051 A 
ATOM     15  C   UNL     1     -41.048 -17.556  12.441  1.00  0.00     0.157 A 
ATOM     16  C   UNL     1     -39.698 -19.226  11.314  1.00  0.00     0.062 A 
ATOM     17  C   UNL     1     -40.839 -18.413  11.354  1.00  0.00     0.158 A 
BRANCH  15  18
ATOM     18  O   UNL     1     -42.184 -16.749  12.477  1.00  0.00    -0.504 OA
ATOM     19  H   UNL     1     -42.297 -16.023  13.175  1.00  0.00     0.293 HD
ENDBRANCH  15  18
BRANCH  17  20
ATOM     20  O   UNL     1     -41.769 -18.451  10.316  1.00  0.00    -0.504 OA
ATOM     21  H   UNL     1     -42.342 -19.270  10.147  1.00  0.00     0.293 HD
ENDBRANCH  17  20
ENDBRANCH   1  12
BRANCH   6  22
ATOM     22  O   UNL     1     -33.205 -22.576  11.427  1.00  0.00    -0.507 OA
ATOM     23  H   UNL     1     -33.328 -22.301  10.459  1.00  0.00     0.293 HD
ENDBRANCH   6  22
BRANCH   8  24
ATOM     24  O   UNL     1     -35.390 -24.917  15.058  1.00  0.00    -0.508 OA
ATOM     25  H   UNL     1     -36.143 -25.595  15.085  1.00  0.00     0.293 HD
ENDBRANCH   8  24
TORSDOF 5
ENDMDL
MODEL 3
REMARK VINA RESULT:    -5.675      2.349      2.843
REMARK INTER + INTRA:          -6.934
REMARK INTER:                  -6.641
REMARK INTRA:                  -0.293
REMARK UNBOUND:                -0.263
REMARK SMILES O=c1cc(-c2ccc(O)c(O)c2)oc2cc(O)cc(O)c12
REMARK SMILES IDX 4 1 3 2 2 3 1 4 21 5 19 6 18 7 16 8 15 9 14 10 13 11 5 12
REMARK SMILES IDX 6 13 7 14 8 15 12 16 10 17 9 18 11 20 20 22 17 24
REMARK H PARENT 9 19 11 21 20 23 17 25
REMARK Flexibility Score: inf
ROOT
ATOM      1  C   UNL     1     -37.255 -20.896   5.857  1.00  0.00     0.138 A 
ATOM      2  C   UNL     1     -38.052 -21.660   6.727  1.00  0.00     0.100 A 
ATOM      3  C   UNL     1     -39.403 -21.343   6.876  1.00  0.00     0.197 A 
ATOM      4  O   UNL     1     -40.110 -22.034   7.657  1.00  0.00    -0.289 OA
ATOM      5  C   UNL     1     -39.949 -20.266   6.150  1.00  0.00     0.107 A 
ATOM      6  C   UNL     1     -41.306 -19.878   6.244  1.00  0.00     0.134 A 
ATOM      7  C   UNL     1     -41.775 -18.796   5.483  1.00  0.00     0.093 A 
ATOM      8  C   UNL     1     -40.911 -18.098   4.631  1.00  0.00     0.123 A 
ATOM      9  C   UNL     1     -39.571 -18.476   4.536  1.00  0.00     0.094 A 
ATOM     10  C   UNL     1     -39.085 -19.551   5.286  1.00  0.00     0.146 A 
ATOM     11  O   UNL     1     -37.804 -19.891   5.179  1.00  0.00    -0.456 OA
ENDROOT
BRANCH   1  12
ATOM     12  C   UNL     1     -35.812 -21.187   5.658  1.00  0.00     0.021 A 
ATOM     13  C   UNL     1     -35.079 -20.608   4.604  1.00  0.00     0.016 A 
ATOM     14  C   UNL     1     -33.725 -20.909   4.435  1.00  0.00     0.051 A 
ATOM     15  C   UNL     1     -33.083 -21.796   5.308  1.00  0.00     0.157 A 
ATOM     16  C   UNL     1     -35.162 -22.087   6.521  1.00  0.00     0.062 A 
ATOM     17  C   UNL     1     -33.803 -22.388   6.352  1.00  0.00     0.158 A 
BRANCH  15  18
ATOM     18  O   UNL     1     -31.732 -22.096   5.142  1.00  0.00    -0.504 OA
ATOM     19  H   UNL     1     -31.290 -22.065   4.231  1.00  0.00     0.293 HD
ENDBRANCH  15  18
BRANCH  17  20
ATOM     20  O   UNL     1     -33.163 -23.273   7.217  1.00  0.00    -0.504 OA
ATOM     21  H   UNL     1     -32.825 -24.174   6.898  1.00  0.00     0.293 HD
ENDBRANCH  17  20
ENDBRANCH   1  12
BRANCH   6  22
ATOM     22  O   UNL     1     -42.190 -20.557   7.084  1.00  0.00    -0.507 OA
ATOM     23  H   UNL     1     -41.871 -21.272   7.728  1.00  0.00     0.293 HD
ENDBRANCH   6  22
BRANCH   8  24
ATOM     24  O   UNL     1     -41.375 -17.024   3.875  1.00  0.00    -0.508 OA
ATOM     25  H   UNL     1     -41.243 -16.066   4.178  1.00  0.00     0.293 HD
ENDBRANCH   8  24
TORSDOF 5
ENDMDL
MODEL 4
REMARK VINA RESULT:    -5.261      5.106      8.478
REMARK INTER + INTRA:          -6.447
REMARK INTER:                  -6.183
REMARK INTRA:                  -0.264
REMARK UNBOUND:                -0.263
REMARK SMILES O=c1cc(-c2ccc(O)c(O)c2)oc2cc(O)cc(O)c12
REMARK SMILES IDX 4 1 3 2 2 3 1 4 21 5 19 6 18 7 16 8 15 9 14 10 13 11 5 12
REMARK SMILES IDX 6 13 7 14 8 15 12 16 10 17 9 18 11 20 20 22 17 24
REMARK H PARENT 9 19 11 21 20 23 17 25
REMARK Flexibility Score: inf
ROOT
ATOM      1  C   UNL     1     -44.509 -20.614   6.244  1.00  0.00     0.138 A 
ATOM      2  C   UNL     1     -45.188 -21.026   5.085  1.00  0.00     0.100 A 
ATOM      3  C   UNL     1     -46.532 -20.687   4.919  1.00  0.00     0.197 A 
ATOM      4  O   UNL     1     -47.132 -21.060   3.875  1.00  0.00    -0.289 OA
ATOM      5  C   UNL     1     -47.187 -19.936   5.914  1.00  0.00     0.107 A 
ATOM      6  C   UNL     1     -48.546 -19.552   5.825  1.00  0.00     0.134 A 
ATOM      7  C   UNL     1     -49.124 -18.798   6.858  1.00  0.00     0.093 A 
ATOM      8  C   UNL     1     -48.368 -18.421   7.974  1.00  0.00     0.123 A 
ATOM      9  C   UNL     1     -47.028 -18.798   8.066  1.00  0.00     0.094 A 
ATOM     10  C   UNL     1     -46.434 -19.549   7.049  1.00  0.00     0.146 A 
ATOM     11  O   UNL     1     -45.155 -19.897   7.161  1.00  0.00    -0.456 OA
ENDROOT
BRANCH   1  12
ATOM     12  C   UNL     1     -43.079 -20.944   6.473  1.00  0.00     0.021 A 
ATOM     13  C   UNL     1     -42.093 -19.942   6.561  1.00  0.00     0.016 A 
ATOM     14  C   UNL     1     -40.754 -20.283   6.766  1.00  0.00     0.051 A 
ATOM     15  C   UNL     1     -40.376 -21.626   6.881  1.00  0.00     0.157 A 
ATOM     16  C   UNL     1     -42.687 -22.291   6.577  1.00  0.00     0.062 A 
ATOM     17  C   UNL     1     -41.343 -22.632   6.785  1.00  0.00     0.158 A 
BRANCH  15  18
ATOM     18  O   UNL     1     -39.040 -21.968   7.088  1.00  0.00    -0.504 OA
ATOM     19  H   UNL     1     -38.750 -22.510   7.894  1.00  0.00     0.293 HD
ENDBRANCH  15  18
BRANCH  17  20
ATOM     20  O   UNL     1     -40.963 -23.968   6.895  1.00  0.00    -0.504 OA
ATOM     21  H   UNL     1     -41.590 -24.721   6.634  1.00  0.00     0.293 HD
ENDBRANCH  17  20
ENDBRANCH   1  12
BRANCH   6  22
ATOM     22  O   UNL     1     -49.323 -19.913   4.724  1.00  0.00    -0.507 OA
ATOM     23  H   UNL     1     -49.783 -20.815   4.668  1.00  0.00     0.293 HD
ENDBRANCH   6  22
BRANCH   8  24
ATOM     24  O   UNL     1     -48.942 -17.672   8.999  1.00  0.00    -0.508 OA
ATOM     25  H   UNL     1     -48.665 -17.797   9.966  1.00  0.00     0.293 HD
ENDBRANCH   8  24
TORSDOF 5
ENDMDL
MODEL 5
REMARK VINA RESULT:    -4.976      4.392      9.336
REMARK INTER + INTRA:          -6.112
REMARK INTER:                  -5.849
REMARK INTRA:                  -0.263
REMARK UNBOUND:                -0.263
REMARK SMILES O=c1cc(-c2ccc(O)c(O)c2)oc2cc(O)cc(O)c12
REMARK SMILES IDX 4 1 3 2 2 3 1 4 21 5 19 6 18 7 16 8 15 9 14 10 13 11 5 12
REMARK SMILES IDX 6 13 7 14 8 15 12 16 10 17 9 18 11 20 20 22 17 24
REMARK H PARENT 9 19 11 21 20 23 17 25
REMARK Flexibility Score: inf
ROOT
ATOM      1  C   UNL     1     -43.898 -20.526   5.696  1.00  0.00     0.138 A 
ATOM      2  C   UNL     1     -43.059 -19.427   5.446  1.00  0.00     0.100 A 
ATOM      3  C   UNL     1     -41.705 -19.508   5.775  1.00  0.00     0.197 A 
ATOM      4  O   UNL     1     -40.960 -18.518   5.547  1.00  0.00    -0.289 OA
ATOM      5  C   UNL     1     -41.199 -20.691   6.349  1.00  0.00     0.107 A 
ATOM      6  C   UNL     1     -39.842 -20.855   6.713  1.00  0.00     0.134 A 
ATOM      7  C   UNL     1     -39.415 -22.068   7.275  1.00  0.00     0.093 A 
ATOM      8  C   UNL     1     -40.319 -23.117   7.478  1.00  0.00     0.123 A 
ATOM      9  C   UNL     1     -41.659 -22.959   7.121  1.00  0.00     0.094 A 
ATOM     10  C   UNL     1     -42.104 -21.759   6.561  1.00  0.00     0.146 A 
ATOM     11  O   UNL     1     -43.386 -21.633   6.231  1.00  0.00    -0.456 OA
ENDROOT
BRANCH   1  12
ATOM     12  C   UNL     1     -45.346 -20.497   5.365  1.00  0.00     0.021 A 
ATOM     13  C   UNL     1     -45.842 -21.041   4.164  1.00  0.00     0.016 A 
ATOM     14  C   UNL     1     -47.208 -20.989   3.875  1.00  0.00     0.051 A 
ATOM     15  C   UNL     1     -48.099 -20.391   4.774  1.00  0.00     0.157 A 
ATOM     16  C   UNL     1     -46.247 -19.887   6.256  1.00  0.00     0.062 A 
ATOM     17  C   UNL     1     -47.618 -19.837   5.965  1.00  0.00     0.158 A 
BRANCH  15  18
ATOM     18  O   UNL     1     -49.463 -20.340   4.488  1.00  0.00    -0.504 OA
ATOM     19  H   UNL     1     -50.004 -19.496   4.634  1.00  0.00     0.293 HD
ENDBRANCH  15  18
BRANCH  17  20
ATOM     20  O   UNL     1     -48.507 -19.238   6.857  1.00  0.00    -0.504 OA
ATOM     21  H   UNL     1     -48.213 -18.493   7.479  1.00  0.00     0.293 HD
ENDBRANCH  17  20
ENDBRANCH   1  12
BRANCH   6  22
ATOM     22  O   UNL     1     -38.918 -19.828   6.522  1.00  0.00    -0.507 OA
ATOM     23  H   UNL     1     -38.049 -19.978   6.020  1.00  0.00     0.293 HD
ENDBRANCH   6  22
BRANCH   8  24
ATOM     24  O   UNL     1     -39.896 -24.322   8.035  1.00  0.00    -0.508 OA
ATOM     25  H   UNL     1     -38.933 -24.629   7.962  1.00  0.00     0.293 HD
ENDBRANCH   8  24
TORSDOF 5
ENDMDL
MODEL 6
REMARK VINA RESULT:    -4.966     10.848     13.751
REMARK INTER + INTRA:          -6.100
REMARK INTER:                  -5.837
REMARK INTRA:                  -0.263
REMARK UNBOUND:                -0.263
REMARK SMILES O=c1cc(-c2ccc(O)c(O)c2)oc2cc(O)cc(O)c12
REMARK SMILES IDX 4 1 3 2 2 3 1 4 21 5 19 6 18 7 16 8 15 9 14 10 13 11 5 12
REMARK SMILES IDX 6 13 7 14 8 15 12 16 10 17 9 18 11 20 20 22 17 24
REMARK H PARENT 9 19 11 21 20 23 17 25
REMARK Flexibility Score: inf
ROOT
ATOM      1  C   UNL     1     -41.857 -22.278  19.111  1.00  0.00     0.138 A 
ATOM      2  C   UNL     1     -41.834 -23.337  20.034  1.00  0.00     0.100 A 
ATOM      3  C   UNL     1     -41.863 -24.653  19.571  1.00  0.00     0.197 A 
ATOM      4  O   UNL     1     -41.841 -25.596  20.407  1.00  0.00    -0.289 OA
ATOM      5  C   UNL     1     -41.913 -24.901  18.185  1.00  0.00     0.107 A 
ATOM      6  C   UNL     1     -41.946 -26.203  17.632  1.00  0.00     0.134 A 
ATOM      7  C   UNL     1     -41.989 -26.366  16.239  1.00  0.00     0.093 A 
ATOM      8  C   UNL     1     -41.998 -25.253  15.392  1.00  0.00     0.123 A 
ATOM      9  C   UNL     1     -41.966 -23.966  15.932  1.00  0.00     0.094 A 
ATOM     10  C   UNL     1     -41.923 -23.783  17.317  1.00  0.00     0.146 A 
ATOM     11  O   UNL     1     -41.894 -22.547  17.807  1.00  0.00    -0.456 OA
ENDROOT
BRANCH   1  12
ATOM     12  C   UNL     1     -41.826 -20.859  19.546  1.00  0.00     0.021 A 
ATOM     13  C   UNL     1     -42.990 -20.065  19.564  1.00  0.00     0.016 A 
ATOM     14  C   UNL     1     -42.929 -18.729  19.968  1.00  0.00     0.051 A 
ATOM     15  C   UNL     1     -41.708 -18.162  20.353  1.00  0.00     0.157 A 
ATOM     16  C   UNL     1     -40.603 -20.276  19.922  1.00  0.00     0.062 A 
ATOM     17  C   UNL     1     -40.542 -18.936  20.328  1.00  0.00     0.158 A 
BRANCH  15  18
ATOM     18  O   UNL     1     -41.645 -16.829  20.758  1.00  0.00    -0.504 OA
ATOM     19  H   UNL     1     -40.984 -16.519  21.461  1.00  0.00     0.293 HD
ENDBRANCH  15  18
BRANCH  17  20
ATOM     20  O   UNL     1     -39.328 -18.367  20.709  1.00  0.00    -0.504 OA
ATOM     21  H   UNL     1     -38.681 -18.856  21.317  1.00  0.00     0.293 HD
ENDBRANCH  17  20
ENDBRANCH   1  12
BRANCH   6  22
ATOM     22  O   UNL     1     -41.938 -27.332  18.453  1.00  0.00    -0.507 OA
ATOM     23  H   UNL     1     -41.827 -28.266  18.074  1.00  0.00     0.293 HD
ENDBRANCH   6  22
BRANCH   8  24
ATOM     24  O   UNL     1     -42.040 -25.414  14.009  1.00  0.00    -0.508 OA
ATOM     25  H   UNL     1     -41.770 -26.286  13.568  1.00  0.00     0.293 HD
ENDBRANCH   8  24
TORSDOF 5
ENDMDL
MODEL 7
REMARK VINA RESULT:    -4.929     10.758     13.405
REMARK INTER + INTRA:          -6.057
REMARK INTER:                  -5.738
REMARK INTRA:                  -0.318
REMARK UNBOUND:                -0.263
REMARK SMILES O=c1cc(-c2ccc(O)c(O)c2)oc2cc(O)cc(O)c12
REMARK SMILES IDX 4 1 3 2 2 3 1 4 21 5 19 6 18 7 16 8 15 9 14 10 13 11 5 12
REMARK SMILES IDX 6 13 7 14 8 15 12 16 10 17 9 18 11 20 20 22 17 24
REMARK H PARENT 9 19 11 21 20 23 17 25
REMARK Flexibility Score: inf
ROOT
ATOM      1  C   UNL     1     -41.880 -21.813  18.279  1.00  0.00     0.138 A 
ATOM      2  C   UNL     1     -43.074 -22.416  17.847  1.00  0.00     0.100 A 
ATOM      3  C   UNL     1     -43.018 -23.596  17.104  1.00  0.00     0.197 A 
ATOM      4  O   UNL     1     -44.093 -24.130  16.722  1.00  0.00    -0.289 OA
ATOM      5  C   UNL     1     -41.766 -24.167  16.801  1.00  0.00     0.107 A 
ATOM      6  C   UNL     1     -41.620 -25.359  16.053  1.00  0.00     0.134 A 
ATOM      7  C   UNL     1     -40.337 -25.868  15.798  1.00  0.00     0.093 A 
ATOM      8  C   UNL     1     -39.201 -25.207  16.279  1.00  0.00     0.123 A 
ATOM      9  C   UNL     1     -39.340 -24.030  17.016  1.00  0.00     0.094 A 
ATOM     10  C   UNL     1     -40.609 -23.508  17.280  1.00  0.00     0.146 A 
ATOM     11  O   UNL     1     -40.714 -22.384  17.984  1.00  0.00    -0.456 OA
ENDROOT
BRANCH   1  12
ATOM     12  C   UNL     1     -41.879 -20.559  19.074  1.00  0.00     0.021 A 
ATOM     13  C   UNL     1     -43.075 -19.891  19.405  1.00  0.00     0.016 A 
ATOM     14  C   UNL     1     -43.043 -18.706  20.144  1.00  0.00     0.051 A 
ATOM     15  C   UNL     1     -41.820 -18.165  20.559  1.00  0.00     0.157 A 
ATOM     16  C   UNL     1     -40.656 -20.000  19.484  1.00  0.00     0.062 A 
ATOM     17  C   UNL     1     -40.624 -18.811  20.227  1.00  0.00     0.158 A 
BRANCH  15  18
ATOM     18  O   UNL     1     -41.785 -16.983  21.299  1.00  0.00    -0.504 OA
ATOM     19  H   UNL     1     -42.046 -16.963  22.278  1.00  0.00     0.293 HD
ENDBRANCH  15  18
BRANCH  17  20
ATOM     20  O   UNL     1     -39.408 -18.268  20.638  1.00  0.00    -0.504 OA
ATOM     21  H   UNL     1     -38.523 -18.663  20.340  1.00  0.00     0.293 HD
ENDBRANCH  17  20
ENDBRANCH   1  12
BRANCH   6  22
ATOM     22  O   UNL     1     -42.735 -26.040  15.562  1.00  0.00    -0.507 OA
ATOM     23  H   UNL     1     -42.960 -26.982  15.863  1.00  0.00     0.293 HD
ENDBRANCH   6  22
BRANCH   8  24
ATOM     24  O   UNL     1     -37.927 -25.711  16.026  1.00  0.00    -0.508 OA
ATOM     25  H   UNL     1     -37.792 -26.609  15.576  1.00  0.00     0.293 HD
ENDBRANCH   8  24
TORSDOF 5
ENDMDL
MODEL 8
REMARK VINA RESULT:    -4.580      8.122     10.353
REMARK INTER + INTRA:          -5.647
REMARK INTER:                  -5.376
REMARK INTRA:                  -0.271
REMARK UNBOUND:                -0.263
REMARK SMILES O=c1cc(-c2ccc(O)c(O)c2)oc2cc(O)cc(O)c12
REMARK SMILES IDX 4 1 3 2 2 3 1 4 21 5 19 6 18 7 16 8 15 9 14 10 13 11 5 12
REMARK SMILES IDX 6 13 7 14 8 15 12 16 10 17 9 18 11 20 20 22 17 24
REMARK H PARENT 9 19 11 21 20 23 17 25
REMARK Flexibility Score: inf
ROOT
ATOM      1  C   UNL     1     -39.629 -21.025  16.373  1.00  0.00     0.138 A 
ATOM      2  C   UNL     1     -39.442 -20.235  17.520  1.00  0.00     0.100 A 
ATOM      3  C   UNL     1     -39.910 -20.693  18.753  1.00  0.00     0.197 A 
ATOM      4  O   UNL     1     -39.736 -19.978  19.776  1.00  0.00    -0.289 OA
ATOM      5  C   UNL     1     -40.558 -21.941  18.830  1.00  0.00     0.107 A 
ATOM      6  C   UNL     1     -41.063 -22.478  20.038  1.00  0.00     0.134 A 
ATOM      7  C   UNL     1     -41.692 -23.732  20.032  1.00  0.00     0.093 A 
ATOM      8  C   UNL     1     -41.825 -24.457  18.842  1.00  0.00     0.123 A 
ATOM      9  C   UNL     1     -41.329 -23.931  17.648  1.00  0.00     0.094 A 
ATOM     10  C   UNL     1     -40.700 -22.684  17.633  1.00  0.00     0.146 A 
ATOM     11  O   UNL     1     -40.238 -22.204  16.482  1.00  0.00    -0.456 OA
ENDROOT
BRANCH   1  12
ATOM     12  C   UNL     1     -39.151 -20.589  15.036  1.00  0.00     0.021 A 
ATOM     13  C   UNL     1     -39.748 -19.512  14.352  1.00  0.00     0.016 A 
ATOM     14  C   UNL     1     -39.285 -19.131  13.090  1.00  0.00     0.051 A 
ATOM     15  C   UNL     1     -38.226 -19.821  12.488  1.00  0.00     0.157 A 
ATOM     16  C   UNL     1     -38.097 -21.284  14.417  1.00  0.00     0.062 A 
ATOM     17  C   UNL     1     -37.632 -20.901  13.151  1.00  0.00     0.158 A 
BRANCH  15  18
ATOM     18  O   UNL     1     -37.761 -19.442  11.229  1.00  0.00    -0.504 OA
ATOM     19  H   UNL     1     -37.345 -20.113  10.593  1.00  0.00     0.293 HD
ENDBRANCH  15  18
BRANCH  17  20
ATOM     20  O   UNL     1     -36.581 -21.588  12.547  1.00  0.00    -0.504 OA
ATOM     21  H   UNL     1     -36.535 -21.711  11.542  1.00  0.00     0.293 HD
ENDBRANCH  17  20
ENDBRANCH   1  12
BRANCH   6  22
ATOM     22  O   UNL     1     -40.944 -21.778  21.239  1.00  0.00    -0.507 OA
ATOM     23  H   UNL     1     -40.973 -22.250  22.136  1.00  0.00     0.293 HD
ENDBRANCH   6  22
BRANCH   8  24
ATOM     24  O   UNL     1     -42.449 -25.703  18.836  1.00  0.00    -0.508 OA
ATOM     25  H   UNL     1     -43.332 -25.855  19.310  1.00  0.00     0.293 HD
ENDBRANCH   8  24
TORSDOF 5
ENDMDL
MODEL 9
REMARK VINA RESULT:    -4.265      1.970      2.637
REMARK INTER + INTRA:          -5.276
REMARK INTER:                  -4.958
REMARK INTRA:                  -0.318
REMARK UNBOUND:                -0.263
REMARK SMILES O=c1cc(-c2ccc(O)c(O)c2)oc2cc(O)cc(O)c12
REMARK SMILES IDX 4 1 3 2 2 3 1 4 21 5 19 6 18 7 16 8 15 9 14 10 13 11 5 12
REMARK SMILES IDX 6 13 7 14 8 15 12 16 10 17 9 18 11 20 20 22 17 24
REMARK H PARENT 9 19 11 21 20 23 17 25
REMARK Flexibility Score: inf
ROOT
ATOM      1  C   UNL     1     -36.906 -20.620   5.390  1.00  0.00     0.138 A 
ATOM      2  C   UNL     1     -37.425 -19.646   4.521  1.00  0.00     0.100 A 
ATOM      3  C   UNL     1     -38.754 -19.242   4.658  1.00  0.00     0.197 A 
ATOM      4  O   UNL     1     -39.211 -18.366   3.875  1.00  0.00    -0.289 OA
ATOM      5  C   UNL     1     -39.554 -19.812   5.668  1.00  0.00     0.107 A 
ATOM      6  C   UNL     1     -40.908 -19.460   5.874  1.00  0.00     0.134 A 
ATOM      7  C   UNL     1     -41.636 -20.071   6.907  1.00  0.00     0.093 A 
ATOM      8  C   UNL     1     -41.034 -21.026   7.734  1.00  0.00     0.123 A 
ATOM      9  C   UNL     1     -39.698 -21.377   7.534  1.00  0.00     0.094 A 
ATOM     10  C   UNL     1     -38.956 -20.780   6.511  1.00  0.00     0.146 A 
ATOM     11  O   UNL     1     -37.686 -21.133   6.340  1.00  0.00    -0.456 OA
ENDROOT
BRANCH   1  12
ATOM     12  C   UNL     1     -35.500 -21.089   5.292  1.00  0.00     0.021 A 
ATOM     13  C   UNL     1     -34.645 -20.652   4.261  1.00  0.00     0.016 A 
ATOM     14  C   UNL     1     -33.330 -21.118   4.187  1.00  0.00     0.051 A 
ATOM     15  C   UNL     1     -32.849 -22.030   5.134  1.00  0.00     0.157 A 
ATOM     16  C   UNL     1     -35.012 -22.015   6.230  1.00  0.00     0.062 A 
ATOM     17  C   UNL     1     -33.691 -22.481   6.156  1.00  0.00     0.158 A 
BRANCH  15  18
ATOM     18  O   UNL     1     -31.536 -22.495   5.063  1.00  0.00    -0.504 OA
ATOM     19  H   UNL     1     -31.316 -23.404   4.672  1.00  0.00     0.293 HD
ENDBRANCH  15  18
BRANCH  17  20
ATOM     20  O   UNL     1     -33.211 -23.392   7.095  1.00  0.00    -0.504 OA
ATOM     21  H   UNL     1     -32.952 -23.102   8.031  1.00  0.00     0.293 HD
ENDBRANCH  17  20
ENDBRANCH   1  12
BRANCH   6  22
ATOM     22  O   UNL     1     -41.534 -18.511   5.065  1.00  0.00    -0.507 OA
ATOM     23  H   UNL     1     -41.003 -17.866   4.492  1.00  0.00     0.293 HD
ENDBRANCH   6  22
BRANCH   8  24
ATOM     24  O   UNL     1     -41.756 -21.633   8.760  1.00  0.00    -0.508 OA
ATOM     25  H   UNL     1     -41.831 -21.209   9.677  1.00  0.00     0.293 HD
ENDBRANCH   8  24
TORSDOF 5
ENDMDL
