MODEL 1
REMARK VINA RESULT:    -7.000      0.000      0.000
REMARK INTER + INTRA:         -15.755
REMARK INTER:                 -12.320
REMARK INTRA:                  -3.436
REMARK UNBOUND:                -3.436
REMARK SMILES COc1cc(-c2[o+]c3cc(O)cc(O[C@H]4O[C@@H](CO)[C@H](O)[C@@H](O)[C@H]4O)c3cc2O[C@H]2O[C@H](CO)[C@H](O)[C@@H](O)[C@H]2O)ccc1O
REMARK SMILES IDX 6 1 28 2 27 3 26 4 13 5 12 6 10 7 9 8 8 9 7 10 5 11 3 12
REMARK SMILES IDX 43 13 4 14 42 15 41 16 2 17 1 18 44 19 29 21 30 22 39 23
REMARK SMILES IDX 31 24 37 25 32 26 35 27 40 28 38 30 33 32 34 33 36 35 14 37
REMARK SMILES IDX 15 38 24 39 16 40 22 41 17 42 20 43 25 44 23 46 18 48 19 49
REMARK SMILES IDX 21 51 11 53
REMARK H PARENT 44 20 40 29 38 31 34 34 36 36 25 45 23 47 19 50 21 52 11 54
REMARK Flexibility Score: inf
ROOT
ATOM      1  C   UNL     1      -0.461 -17.806  29.730  1.00  0.00     0.402 A 
ATOM      2  C   UNL     1       0.318 -17.992  28.538  1.00  0.00     0.229 A 
ATOM      3  C   UNL     1       0.794 -19.245  28.252  1.00  0.00     0.079 A 
ATOM      4  C   UNL     1       0.108 -20.287  28.763  1.00  0.00     0.126 A 
ATOM      5  C   UNL     1      -0.155 -21.415  27.976  1.00  0.00     0.143 A 
ATOM      6  C   UNL     1      -0.974 -22.439  28.464  1.00  0.00     0.094 A 
ATOM      7  C   UNL     1      -1.603 -22.340  29.762  1.00  0.00     0.128 A 
ATOM      8  C   UNL     1      -1.432 -21.158  30.516  1.00  0.00     0.162 A 
ATOM      9  C   UNL     1      -0.675 -20.103  29.965  1.00  0.00     0.368 A 
ATOM     10  O   UNL     1      -0.773 -18.896  30.507  1.00  0.00    -0.202 OA
ENDROOT
BRANCH   1  11
ATOM     11  C   UNL     1      -0.977 -16.482  30.127  1.00  0.00     0.087 A 
ATOM     12  C   UNL     1      -2.756 -14.749  30.116  1.00  0.00     0.161 A 
ATOM     13  C   UNL     1      -2.093 -14.120  31.186  1.00  0.00     0.157 A 
ATOM     14  C   UNL     1      -2.214 -15.970  29.628  1.00  0.00     0.068 A 
ATOM     15  C   UNL     1      -0.760 -14.501  31.523  1.00  0.00     0.051 A 
ATOM     16  C   UNL     1      -0.155 -15.569  30.852  1.00  0.00     0.022 A 
BRANCH  12  17
ATOM     17  O   UNL     1      -3.724 -13.968  29.459  1.00  0.00    -0.493 OA
ATOM     18  C   UNL     1      -4.220 -14.401  28.163  1.00  0.00     0.278 C 
ENDBRANCH  12  17
BRANCH  13  19
ATOM     19  O   UNL     1      -2.656 -13.010  31.866  1.00  0.00    -0.504 OA
ATOM     20  H   UNL     1      -3.540 -13.146  32.416  1.00  0.00     0.293 HD
ENDBRANCH  13  19
ENDBRANCH   1  11
BRANCH   2  21
ATOM     21  O   UNL     1       0.492 -16.874  27.756  1.00  0.00    -0.452 OA
BRANCH  21  22
ATOM     22  C   UNL     1       0.756 -16.892  26.340  1.00  0.00     0.339 C 
ATOM     23  C   UNL     1       1.953 -15.992  25.990  1.00  0.00     0.214 C 
ATOM     24  O   UNL     1      -0.387 -16.481  25.585  1.00  0.00    -0.332 OA
ATOM     25  C   UNL     1       1.670 -14.493  26.228  1.00  0.00     0.180 C 
ATOM     26  C   UNL     1      -0.768 -15.115  25.893  1.00  0.00     0.179 C 
ATOM     27  C   UNL     1       0.352 -14.113  25.445  1.00  0.00     0.177 C 
BRANCH  23  28
ATOM     28  O   UNL     1       3.080 -16.391  26.741  1.00  0.00    -0.384 OA
ATOM     29  H   UNL     1       3.788 -16.667  26.083  1.00  0.00     0.211 HD
ENDBRANCH  23  28
BRANCH  25  30
ATOM     30  O   UNL     1       1.530 -14.303  27.634  1.00  0.00    -0.387 OA
ATOM     31  H   UNL     1       2.359 -13.852  27.970  1.00  0.00     0.211 HD
ENDBRANCH  25  30
BRANCH  26  32
ATOM     32  C   UNL     1      -2.066 -14.817  25.138  1.00  0.00     0.191 C 
BRANCH  32  33
ATOM     33  O   UNL     1      -2.215 -15.639  24.005  1.00  0.00    -0.394 OA
ATOM     34  H   UNL     1      -2.691 -16.485  24.304  1.00  0.00     0.210 HD
ENDBRANCH  32  33
ENDBRANCH  26  32
BRANCH  27  35
ATOM     35  O   UNL     1       0.573 -14.271  24.049  1.00  0.00    -0.387 OA
ATOM     36  H   UNL     1       1.150 -15.088  23.924  1.00  0.00     0.211 HD
ENDBRANCH  27  35
ENDBRANCH  21  22
ENDBRANCH   2  21
BRANCH   5  37
ATOM     37  O   UNL     1       0.223 -21.305  26.612  1.00  0.00    -0.461 OA
BRANCH  37  38
ATOM     38  C   UNL     1      -0.322 -21.955  25.431  1.00  0.00     0.339 C 
ATOM     39  C   UNL     1       0.815 -22.676  24.638  1.00  0.00     0.214 C 
ATOM     40  O   UNL     1      -0.824 -20.845  24.649  1.00  0.00    -0.332 OA
ATOM     41  C   UNL     1       2.044 -21.735  24.561  1.00  0.00     0.180 C 
ATOM     42  C   UNL     1       0.164 -20.217  23.781  1.00  0.00     0.179 C 
ATOM     43  C   UNL     1       1.583 -20.229  24.442  1.00  0.00     0.177 C 
BRANCH  39  44
ATOM     44  O   UNL     1       1.060 -23.966  25.159  1.00  0.00    -0.384 OA
ATOM     45  H   UNL     1       1.972 -23.880  25.557  1.00  0.00     0.211 HD
ENDBRANCH  39  44
BRANCH  41  46
ATOM     46  O   UNL     1       2.833 -21.988  25.677  1.00  0.00    -0.387 OA
ATOM     47  H   UNL     1       3.283 -21.161  25.971  1.00  0.00     0.211 HD
ENDBRANCH  41  46
BRANCH  42  48
ATOM     48  C   UNL     1      -0.309 -18.854  23.259  1.00  0.00     0.191 C 
BRANCH  48  49
ATOM     49  O   UNL     1      -1.433 -18.480  24.062  1.00  0.00    -0.394 OA
ATOM     50  H   UNL     1      -1.113 -18.387  25.010  1.00  0.00     0.210 HD
ENDBRANCH  48  49
ENDBRANCH  42  48
BRANCH  43  51
ATOM     51  O   UNL     1       2.567 -19.429  23.813  1.00  0.00    -0.387 OA
ATOM     52  H   UNL     1       3.134 -20.009  23.249  1.00  0.00     0.211 HD
ENDBRANCH  43  51
ENDBRANCH  37  38
ENDBRANCH   5  37
BRANCH   7  53
ATOM     53  O   UNL     1      -2.313 -23.425  30.341  1.00  0.00    -0.507 OA
ATOM     54  H   UNL     1      -3.339 -23.344  30.307  1.00  0.00     0.293 HD
ENDBRANCH   7  53
TORSDOF 18
ENDMDL
MODEL 2
REMARK VINA RESULT:    -6.981      2.166      5.851
REMARK INTER + INTRA:         -15.722
REMARK INTER:                 -12.076
REMARK INTRA:                  -3.646
REMARK UNBOUND:                -3.436
REMARK SMILES COc1cc(-c2[o+]c3cc(O)cc(O[C@H]4O[C@@H](CO)[C@H](O)[C@@H](O)[C@H]4O)c3cc2O[C@H]2O[C@H](CO)[C@H](O)[C@@H](O)[C@H]2O)ccc1O
REMARK SMILES IDX 6 1 28 2 27 3 26 4 13 5 12 6 10 7 9 8 8 9 7 10 5 11 3 12
REMARK SMILES IDX 43 13 4 14 42 15 41 16 2 17 1 18 44 19 29 21 30 22 39 23
REMARK SMILES IDX 31 24 37 25 32 26 35 27 40 28 38 30 33 32 34 33 36 35 14 37
REMARK SMILES IDX 15 38 24 39 16 40 22 41 17 42 20 43 25 44 23 46 18 48 19 49
REMARK SMILES IDX 21 51 11 53
REMARK H PARENT 44 20 40 29 38 31 34 34 36 36 25 45 23 47 19 50 21 52 11 54
REMARK Flexibility Score: inf
ROOT
ATOM      1  C   UNL     1      -0.968 -15.824  25.855  1.00  0.00     0.402 A 
ATOM      2  C   UNL     1      -1.352 -16.368  27.127  1.00  0.00     0.229 A 
ATOM      3  C   UNL     1      -1.849 -17.644  27.174  1.00  0.00     0.079 A 
ATOM      4  C   UNL     1      -1.473 -18.479  26.184  1.00  0.00     0.126 A 
ATOM      5  C   UNL     1      -1.103 -19.797  26.474  1.00  0.00     0.143 A 
ATOM      6  C   UNL     1      -0.593 -20.624  25.466  1.00  0.00     0.094 A 
ATOM      7  C   UNL     1      -0.394 -20.128  24.122  1.00  0.00     0.128 A 
ATOM      8  C   UNL     1      -0.661 -18.769  23.848  1.00  0.00     0.162 A 
ATOM      9  C   UNL     1      -1.089 -17.934  24.901  1.00  0.00     0.368 A 
ATOM     10  O   UNL     1      -1.034 -16.619  24.735  1.00  0.00    -0.202 OA
ENDROOT
BRANCH   1  11
ATOM     11  C   UNL     1      -0.461 -14.445  25.716  1.00  0.00     0.087 A 
ATOM     12  C   UNL     1      -0.730 -11.992  25.995  1.00  0.00     0.161 A 
ATOM     13  C   UNL     1       0.655 -11.857  25.782  1.00  0.00     0.157 A 
ATOM     14  C   UNL     1      -1.271 -13.307  26.015  1.00  0.00     0.068 A 
ATOM     15  C   UNL     1       1.407 -12.954  25.264  1.00  0.00     0.051 A 
ATOM     16  C   UNL     1       0.783 -14.190  25.067  1.00  0.00     0.022 A 
BRANCH  12  17
ATOM     17  O   UNL     1      -1.476 -10.804  25.889  1.00  0.00    -0.493 OA
ATOM     18  C   UNL     1      -1.795 -10.061  27.098  1.00  0.00     0.278 C 
ENDBRANCH  12  17
BRANCH  13  19
ATOM     19  O   UNL     1       1.319 -10.613  25.934  1.00  0.00    -0.504 OA
ATOM     20  H   UNL     1       2.342 -10.609  26.173  1.00  0.00     0.293 HD
ENDBRANCH  13  19
ENDBRANCH   1  11
BRANCH   2  21
ATOM     21  O   UNL     1      -1.151 -15.549  28.213  1.00  0.00    -0.452 OA
BRANCH  21  22
ATOM     22  C   UNL     1      -1.220 -15.971  29.589  1.00  0.00     0.339 C 
ATOM     23  C   UNL     1      -2.255 -15.145  30.369  1.00  0.00     0.214 C 
ATOM     24  O   UNL     1       0.052 -15.876  30.235  1.00  0.00    -0.332 OA
ATOM     25  C   UNL     1      -1.850 -13.664  30.527  1.00  0.00     0.180 C 
ATOM     26  C   UNL     1       0.530 -14.507  30.273  1.00  0.00     0.179 C 
ATOM     27  C   UNL     1      -0.405 -13.617  31.163  1.00  0.00     0.177 C 
BRANCH  23  28
ATOM     28  O   UNL     1      -3.510 -15.232  29.728  1.00  0.00    -0.384 OA
ATOM     29  H   UNL     1      -4.205 -14.971  30.404  1.00  0.00     0.211 HD
ENDBRANCH  23  28
BRANCH  25  30
ATOM     30  O   UNL     1      -1.883 -13.072  29.230  1.00  0.00    -0.387 OA
ATOM     31  H   UNL     1      -2.162 -12.115  29.333  1.00  0.00     0.211 HD
ENDBRANCH  25  30
BRANCH  26  32
ATOM     32  C   UNL     1       1.943 -14.528  30.863  1.00  0.00     0.191 C 
BRANCH  32  33
ATOM     33  O   UNL     1       2.129 -15.610  31.743  1.00  0.00    -0.394 OA
ATOM     34  H   UNL     1       1.748 -16.437  31.293  1.00  0.00     0.210 HD
ENDBRANCH  32  33
ENDBRANCH  26  32
BRANCH  27  35
ATOM     35  O   UNL     1      -0.450 -14.171  32.472  1.00  0.00    -0.387 OA
ATOM     36  H   UNL     1      -0.402 -13.405  33.126  1.00  0.00     0.211 HD
ENDBRANCH  27  35
ENDBRANCH  21  22
ENDBRANCH   2  21
BRANCH   5  37
ATOM     37  O   UNL     1      -1.022 -20.117  27.855  1.00  0.00    -0.461 OA
BRANCH  37  38
ATOM     38  C   UNL     1      -0.525 -21.313  28.515  1.00  0.00     0.339 C 
ATOM     39  C   UNL     1      -1.423 -21.666  29.743  1.00  0.00     0.214 C 
ATOM     40  O   UNL     1       0.787 -20.910  28.978  1.00  0.00    -0.332 OA
ATOM     41  C   UNL     1      -1.729 -20.364  30.528  1.00  0.00     0.180 C 
ATOM     42  C   UNL     1       0.796 -20.254  30.279  1.00  0.00     0.179 C 
ATOM     43  C   UNL     1      -0.490 -19.384  30.481  1.00  0.00     0.177 C 
BRANCH  39  44
ATOM     44  O   UNL     1      -2.548 -22.425  29.351  1.00  0.00    -0.384 OA
ATOM     45  H   UNL     1      -2.165 -23.077  28.698  1.00  0.00     0.211 HD
ENDBRANCH  39  44
BRANCH  41  46
ATOM     46  O   UNL     1      -2.889 -19.818  29.994  1.00  0.00    -0.387 OA
ATOM     47  H   UNL     1      -2.994 -20.093  29.053  1.00  0.00     0.211 HD
ENDBRANCH  41  46
BRANCH  42  48
ATOM     48  C   UNL     1       2.126 -19.539  30.556  1.00  0.00     0.191 C 
BRANCH  48  49
ATOM     49  O   UNL     1       1.921 -18.162  30.225  1.00  0.00    -0.394 OA
ATOM     50  H   UNL     1       2.750 -17.658  30.487  1.00  0.00     0.210 HD
ENDBRANCH  48  49
ENDBRANCH  42  48
BRANCH  43  51
ATOM     51  O   UNL     1      -0.476 -18.504  31.590  1.00  0.00    -0.387 OA
ATOM     52  H   UNL     1       0.458 -18.243  31.774  1.00  0.00     0.211 HD
ENDBRANCH  43  51
ENDBRANCH  37  38
ENDBRANCH   5  37
BRANCH   7  53
ATOM     53  O   UNL     1      -0.021 -20.983  23.050  1.00  0.00    -0.507 OA
ATOM     54  H   UNL     1       0.734 -20.627  22.449  1.00  0.00     0.293 HD
ENDBRANCH   7  53
TORSDOF 18
ENDMDL
MODEL 3
REMARK VINA RESULT:    -6.965      1.111      2.399
REMARK INTER + INTRA:         -15.694
REMARK INTER:                 -12.503
REMARK INTRA:                  -3.191
REMARK UNBOUND:                -3.436
REMARK SMILES COc1cc(-c2[o+]c3cc(O)cc(O[C@H]4O[C@@H](CO)[C@H](O)[C@@H](O)[C@H]4O)c3cc2O[C@H]2O[C@H](CO)[C@H](O)[C@@H](O)[C@H]2O)ccc1O
REMARK SMILES IDX 6 1 28 2 27 3 26 4 13 5 12 6 10 7 9 8 8 9 7 10 5 11 3 12
REMARK SMILES IDX 43 13 4 14 42 15 41 16 2 17 1 18 44 19 29 21 30 22 39 23
REMARK SMILES IDX 31 24 37 25 32 26 35 27 40 28 38 30 33 32 34 33 36 35 14 37
REMARK SMILES IDX 15 38 24 39 16 40 22 41 17 42 20 43 25 44 23 46 18 48 19 49
REMARK SMILES IDX 21 51 11 53
REMARK H PARENT 44 20 40 29 38 31 34 34 36 36 25 45 23 47 19 50 21 52 11 54
REMARK Flexibility Score: inf
ROOT
ATOM      1  C   UNL     1      -0.495 -17.502  29.818  1.00  0.00     0.402 A 
ATOM      2  C   UNL     1       0.394 -17.595  28.696  1.00  0.00     0.229 A 
ATOM      3  C   UNL     1       0.860 -18.830  28.325  1.00  0.00     0.079 A 
ATOM      4  C   UNL     1       0.094 -19.890  28.653  1.00  0.00     0.126 A 
ATOM      5  C   UNL     1      -0.120 -20.920  27.728  1.00  0.00     0.143 A 
ATOM      6  C   UNL     1      -1.014 -21.956  28.021  1.00  0.00     0.094 A 
ATOM      7  C   UNL     1      -1.768 -21.966  29.255  1.00  0.00     0.128 A 
ATOM      8  C   UNL     1      -1.640 -20.876  30.143  1.00  0.00     0.162 A 
ATOM      9  C   UNL     1      -0.801 -19.801  29.785  1.00  0.00     0.368 A 
ATOM     10  O   UNL     1      -0.917 -18.653  30.440  1.00  0.00    -0.202 OA
ENDROOT
BRANCH   1  11
ATOM     11  C   UNL     1      -1.010 -16.206  30.303  1.00  0.00     0.087 A 
ATOM     12  C   UNL     1      -2.783 -14.470  30.397  1.00  0.00     0.161 A 
ATOM     13  C   UNL     1      -2.126 -13.919  31.514  1.00  0.00     0.157 A 
ATOM     14  C   UNL     1      -2.241 -15.656  29.831  1.00  0.00     0.068 A 
ATOM     15  C   UNL     1      -0.797 -14.327  31.833  1.00  0.00     0.051 A 
ATOM     16  C   UNL     1      -0.190 -15.350  31.095  1.00  0.00     0.022 A 
BRANCH  12  17
ATOM     17  O   UNL     1      -3.743 -13.641  29.789  1.00  0.00    -0.493 OA
ATOM     18  C   UNL     1      -3.301 -12.616  28.857  1.00  0.00     0.278 C 
ENDBRANCH  12  17
BRANCH  13  19
ATOM     19  O   UNL     1      -2.690 -12.856  32.264  1.00  0.00    -0.504 OA
ATOM     20  H   UNL     1      -2.433 -11.868  32.016  1.00  0.00     0.293 HD
ENDBRANCH  13  19
ENDBRANCH   1  11
BRANCH   2  21
ATOM     21  O   UNL     1       0.680 -16.411  28.058  1.00  0.00    -0.452 OA
BRANCH  21  22
ATOM     22  C   UNL     1       1.466 -16.289  26.857  1.00  0.00     0.339 C 
ATOM     23  C   UNL     1       1.912 -14.835  26.634  1.00  0.00     0.214 C 
ATOM     24  O   UNL     1       0.750 -16.750  25.709  1.00  0.00    -0.332 OA
ATOM     25  C   UNL     1       0.736 -13.884  26.324  1.00  0.00     0.180 C 
ATOM     26  C   UNL     1      -0.445 -15.963  25.472  1.00  0.00     0.179 C 
ATOM     27  C   UNL     1      -0.071 -14.485  25.106  1.00  0.00     0.177 C 
BRANCH  23  28
ATOM     28  O   UNL     1       2.613 -14.376  27.770  1.00  0.00    -0.384 OA
ATOM     29  H   UNL     1       2.632 -13.373  27.718  1.00  0.00     0.211 HD
ENDBRANCH  23  28
BRANCH  25  30
ATOM     30  O   UNL     1      -0.061 -13.795  27.502  1.00  0.00    -0.387 OA
ATOM     31  H   UNL     1      -0.534 -12.910  27.491  1.00  0.00     0.211 HD
ENDBRANCH  25  30
BRANCH  26  32
ATOM     32  C   UNL     1      -1.202 -16.610  24.310  1.00  0.00     0.191 C 
BRANCH  32  33
ATOM     33  O   UNL     1      -0.342 -17.323  23.454  1.00  0.00    -0.394 OA
ATOM     34  H   UNL     1      -0.837 -17.473  22.580  1.00  0.00     0.210 HD
ENDBRANCH  32  33
ENDBRANCH  26  32
BRANCH  27  35
ATOM     35  O   UNL     1       0.760 -14.497  23.952  1.00  0.00    -0.387 OA
ATOM     36  H   UNL     1       0.251 -14.044  23.208  1.00  0.00     0.211 HD
ENDBRANCH  27  35
ENDBRANCH  21  22
ENDBRANCH   2  21
BRANCH   5  37
ATOM     37  O   UNL     1       0.397 -20.685  26.427  1.00  0.00    -0.461 OA
BRANCH  37  38
ATOM     38  C   UNL     1       1.759 -20.779  25.927  1.00  0.00     0.339 C 
ATOM     39  C   UNL     1       1.799 -20.439  24.402  1.00  0.00     0.214 C 
ATOM     40  O   UNL     1       2.083 -22.178  26.116  1.00  0.00    -0.332 OA
ATOM     41  C   UNL     1       0.618 -21.156  23.700  1.00  0.00     0.180 C 
ATOM     42  C   UNL     1       1.678 -23.049  25.021  1.00  0.00     0.179 C 
ATOM     43  C   UNL     1       0.339 -22.557  24.375  1.00  0.00     0.177 C 
BRANCH  39  44
ATOM     44  O   UNL     1       1.884 -19.045  24.193  1.00  0.00    -0.384 OA
ATOM     45  H   UNL     1       1.185 -18.877  23.499  1.00  0.00     0.211 HD
ENDBRANCH  39  44
BRANCH  41  46
ATOM     46  O   UNL     1      -0.472 -20.296  23.736  1.00  0.00    -0.387 OA
ATOM     47  H   UNL     1      -0.944 -20.378  24.598  1.00  0.00     0.211 HD
ENDBRANCH  41  46
BRANCH  42  48
ATOM     48  C   UNL     1       1.713 -24.531  25.418  1.00  0.00     0.191 C 
BRANCH  48  49
ATOM     49  O   UNL     1       2.890 -24.710  26.212  1.00  0.00    -0.394 OA
ATOM     50  H   UNL     1       3.667 -24.340  25.693  1.00  0.00     0.210 HD
ENDBRANCH  48  49
ENDBRANCH  42  48
BRANCH  43  51
ATOM     51  O   UNL     1      -0.284 -23.457  23.476  1.00  0.00    -0.387 OA
ATOM     52  H   UNL     1      -1.262 -23.392  23.591  1.00  0.00     0.211 HD
ENDBRANCH  43  51
ENDBRANCH  37  38
ENDBRANCH   5  37
BRANCH   7  53
ATOM     53  O   UNL     1      -2.566 -23.076  29.642  1.00  0.00    -0.507 OA
ATOM     54  H   UNL     1      -2.492 -23.342  30.634  1.00  0.00     0.293 HD
ENDBRANCH   7  53
TORSDOF 18
ENDMDL
MODEL 4
REMARK VINA RESULT:    -6.881      1.935      8.690
REMARK INTER + INTRA:         -15.547
REMARK INTER:                 -12.476
REMARK INTRA:                  -3.071
REMARK UNBOUND:                -3.436
REMARK SMILES COc1cc(-c2[o+]c3cc(O)cc(O[C@H]4O[C@@H](CO)[C@H](O)[C@@H](O)[C@H]4O)c3cc2O[C@H]2O[C@H](CO)[C@H](O)[C@@H](O)[C@H]2O)ccc1O
REMARK SMILES IDX 6 1 28 2 27 3 26 4 13 5 12 6 10 7 9 8 8 9 7 10 5 11 3 12
REMARK SMILES IDX 43 13 4 14 42 15 41 16 2 17 1 18 44 19 29 21 30 22 39 23
REMARK SMILES IDX 31 24 37 25 32 26 35 27 40 28 38 30 33 32 34 33 36 35 14 37
REMARK SMILES IDX 15 38 24 39 16 40 22 41 17 42 20 43 25 44 23 46 18 48 19 49
REMARK SMILES IDX 21 51 11 53
REMARK H PARENT 44 20 40 29 38 31 34 34 36 36 25 45 23 47 19 50 21 52 11 54
REMARK Flexibility Score: inf
ROOT
ATOM      1  C   UNL     1       0.444 -16.959  26.112  1.00  0.00     0.402 A 
ATOM      2  C   UNL     1      -0.099 -16.884  27.439  1.00  0.00     0.229 A 
ATOM      3  C   UNL     1      -0.040 -15.688  28.107  1.00  0.00     0.079 A 
ATOM      4  C   UNL     1       0.020 -14.573  27.352  1.00  0.00     0.126 A 
ATOM      5  C   UNL     1      -0.753 -13.453  27.683  1.00  0.00     0.143 A 
ATOM      6  C   UNL     1      -0.788 -12.344  26.830  1.00  0.00     0.094 A 
ATOM      7  C   UNL     1      -0.070 -12.343  25.575  1.00  0.00     0.128 A 
ATOM      8  C   UNL     1       0.622 -13.509  25.182  1.00  0.00     0.162 A 
ATOM      9  C   UNL     1       0.569 -14.646  26.016  1.00  0.00     0.368 A 
ATOM     10  O   UNL     1       0.935 -15.820  25.520  1.00  0.00    -0.202 OA
ENDROOT
BRANCH   1  11
ATOM     11  C   UNL     1       0.453 -18.219  25.342  1.00  0.00     0.087 A 
ATOM     12  C   UNL     1       1.600 -20.274  24.551  1.00  0.00     0.161 A 
ATOM     13  C   UNL     1       0.342 -20.783  24.177  1.00  0.00     0.157 A 
ATOM     14  C   UNL     1       1.636 -19.004  25.189  1.00  0.00     0.068 A 
ATOM     15  C   UNL     1      -0.791 -19.916  24.122  1.00  0.00     0.051 A 
ATOM     16  C   UNL     1      -0.666 -18.587  24.539  1.00  0.00     0.022 A 
BRANCH  12  17
ATOM     17  O   UNL     1       2.710 -20.945  24.008  1.00  0.00    -0.493 OA
ATOM     18  C   UNL     1       3.521 -21.786  24.875  1.00  0.00     0.278 C 
ENDBRANCH  12  17
BRANCH  13  19
ATOM     19  O   UNL     1       0.180 -22.113  23.713  1.00  0.00    -0.504 OA
ATOM     20  H   UNL     1      -0.440 -22.767  24.252  1.00  0.00     0.293 HD
ENDBRANCH  13  19
ENDBRANCH   1  11
BRANCH   2  21
ATOM     21  O   UNL     1      -0.672 -18.038  27.918  1.00  0.00    -0.452 OA
BRANCH  21  22
ATOM     22  C   UNL     1       0.058 -19.184  28.397  1.00  0.00     0.339 C 
ATOM     23  C   UNL     1      -0.895 -20.338  28.750  1.00  0.00     0.214 C 
ATOM     24  O   UNL     1       0.857 -18.861  29.537  1.00  0.00    -0.332 OA
ATOM     25  C   UNL     1      -1.799 -20.026  29.961  1.00  0.00     0.180 C 
ATOM     26  C   UNL     1       0.043 -18.424  30.656  1.00  0.00     0.179 C 
ATOM     27  C   UNL     1      -0.872 -19.591  31.164  1.00  0.00     0.177 C 
BRANCH  23  28
ATOM     28  O   UNL     1      -1.691 -20.653  27.627  1.00  0.00    -0.384 OA
ATOM     29  H   UNL     1      -1.092 -21.104  26.959  1.00  0.00     0.211 HD
ENDBRANCH  23  28
BRANCH  25  30
ATOM     30  O   UNL     1      -2.691 -18.985  29.570  1.00  0.00    -0.387 OA
ATOM     31  H   UNL     1      -3.324 -18.816  30.330  1.00  0.00     0.211 HD
ENDBRANCH  25  30
BRANCH  26  32
ATOM     32  C   UNL     1       0.992 -17.983  31.773  1.00  0.00     0.191 C 
BRANCH  32  33
ATOM     33  O   UNL     1       0.414 -16.996  32.593  1.00  0.00    -0.394 OA
ATOM     34  H   UNL     1       0.532 -16.102  32.124  1.00  0.00     0.210 HD
ENDBRANCH  32  33
ENDBRANCH  26  32
BRANCH  27  35
ATOM     35  O   UNL     1      -0.047 -20.686  31.541  1.00  0.00    -0.387 OA
ATOM     36  H   UNL     1      -0.403 -21.047  32.413  1.00  0.00     0.211 HD
ENDBRANCH  27  35
ENDBRANCH  21  22
ENDBRANCH   2  21
BRANCH   5  37
ATOM     37  O   UNL     1      -1.670 -13.642  28.750  1.00  0.00    -0.461 OA
BRANCH  37  38
ATOM     38  C   UNL     1      -1.749 -12.991  30.047  1.00  0.00     0.339 C 
ATOM     39  C   UNL     1      -2.153 -14.024  31.147  1.00  0.00     0.214 C 
ATOM     40  O   UNL     1      -2.822 -12.034  29.869  1.00  0.00    -0.332 OA
ATOM     41  C   UNL     1      -3.305 -14.907  30.603  1.00  0.00     0.180 C 
ATOM     42  C   UNL     1      -4.156 -12.565  30.115  1.00  0.00     0.179 C 
ATOM     43  C   UNL     1      -4.258 -14.063  29.669  1.00  0.00     0.177 C 
BRANCH  39  44
ATOM     44  O   UNL     1      -1.023 -14.718  31.633  1.00  0.00    -0.384 OA
ATOM     45  H   UNL     1      -1.370 -15.169  32.454  1.00  0.00     0.211 HD
ENDBRANCH  39  44
BRANCH  41  46
ATOM     46  O   UNL     1      -2.727 -15.999  29.966  1.00  0.00    -0.387 OA
ATOM     47  H   UNL     1      -1.754 -15.868  29.880  1.00  0.00     0.211 HD
ENDBRANCH  41  46
BRANCH  42  48
ATOM     48  C   UNL     1      -5.255 -11.640  29.575  1.00  0.00     0.191 C 
BRANCH  48  49
ATOM     49  O   UNL     1      -5.625 -12.156  28.293  1.00  0.00    -0.394 OA
ATOM     50  H   UNL     1      -6.624 -12.078  28.209  1.00  0.00     0.210 HD
ENDBRANCH  48  49
ENDBRANCH  42  48
BRANCH  43  51
ATOM     51  O   UNL     1      -5.563 -14.609  29.622  1.00  0.00    -0.387 OA
ATOM     52  H   UNL     1      -6.144 -14.092  30.231  1.00  0.00     0.211 HD
ENDBRANCH  43  51
ENDBRANCH  37  38
ENDBRANCH   5  37
BRANCH   7  53
ATOM     53  O   UNL     1       0.033 -11.180  24.766  1.00  0.00    -0.507 OA
ATOM     54  H   UNL     1      -0.861 -10.720  24.546  1.00  0.00     0.293 HD
ENDBRANCH   7  53
TORSDOF 18
ENDMDL
MODEL 5
REMARK VINA RESULT:    -6.720      1.745      7.098
REMARK INTER + INTRA:         -15.264
REMARK INTER:                 -11.597
REMARK INTRA:                  -3.666
REMARK UNBOUND:                -3.436
REMARK SMILES COc1cc(-c2[o+]c3cc(O)cc(O[C@H]4O[C@@H](CO)[C@H](O)[C@@H](O)[C@H]4O)c3cc2O[C@H]2O[C@H](CO)[C@H](O)[C@@H](O)[C@H]2O)ccc1O
REMARK SMILES IDX 6 1 28 2 27 3 26 4 13 5 12 6 10 7 9 8 8 9 7 10 5 11 3 12
REMARK SMILES IDX 43 13 4 14 42 15 41 16 2 17 1 18 44 19 29 21 30 22 39 23
REMARK SMILES IDX 31 24 37 25 32 26 35 27 40 28 38 30 33 32 34 33 36 35 14 37
REMARK SMILES IDX 15 38 24 39 16 40 22 41 17 42 20 43 25 44 23 46 18 48 19 49
REMARK SMILES IDX 21 51 11 53
REMARK H PARENT 44 20 40 29 38 31 34 34 36 36 25 45 23 47 19 50 21 52 11 54
REMARK Flexibility Score: inf
ROOT
ATOM      1  C   UNL     1      -0.195 -19.287  29.286  1.00  0.00     0.402 A 
ATOM      2  C   UNL     1      -0.587 -18.529  28.132  1.00  0.00     0.229 A 
ATOM      3  C   UNL     1      -1.122 -17.279  28.315  1.00  0.00     0.079 A 
ATOM      4  C   UNL     1      -0.777 -16.632  29.446  1.00  0.00     0.126 A 
ATOM      5  C   UNL     1      -0.445 -15.273  29.409  1.00  0.00     0.143 A 
ATOM      6  C   UNL     1       0.034 -14.632  30.558  1.00  0.00     0.094 A 
ATOM      7  C   UNL     1       0.241 -15.361  31.789  1.00  0.00     0.128 A 
ATOM      8  C   UNL     1       0.013 -16.755  31.805  1.00  0.00     0.162 A 
ATOM      9  C   UNL     1      -0.384 -17.393  30.611  1.00  0.00     0.368 A 
ATOM     10  O   UNL     1      -0.290 -18.714  30.532  1.00  0.00    -0.202 OA
ENDROOT
BRANCH   1  11
ATOM     11  C   UNL     1       0.353 -20.653  29.174  1.00  0.00     0.087 A 
ATOM     12  C   UNL     1       0.043 -23.108  28.969  1.00  0.00     0.161 A 
ATOM     13  C   UNL     1       1.397 -23.206  28.597  1.00  0.00     0.157 A 
ATOM     14  C   UNL     1      -0.486 -21.809  29.203  1.00  0.00     0.068 A 
ATOM     15  C   UNL     1       2.273 -22.096  28.791  1.00  0.00     0.051 A 
ATOM     16  C   UNL     1       1.758 -20.881  29.254  1.00  0.00     0.022 A 
BRANCH  12  17
ATOM     17  O   UNL     1      -0.572 -24.317  29.341  1.00  0.00    -0.493 OA
ATOM     18  C   UNL     1      -1.897 -24.281  29.939  1.00  0.00     0.278 C 
ENDBRANCH  12  17
BRANCH  13  19
ATOM     19  O   UNL     1       1.966 -24.429  28.159  1.00  0.00    -0.504 OA
ATOM     20  H   UNL     1       2.315 -25.113  28.877  1.00  0.00     0.293 HD
ENDBRANCH  13  19
ENDBRANCH   1  11
BRANCH   2  21
ATOM     21  O   UNL     1      -0.356 -19.127  26.915  1.00  0.00    -0.452 OA
BRANCH  21  22
ATOM     22  C   UNL     1       0.452 -18.567  25.862  1.00  0.00     0.339 C 
ATOM     23  C   UNL     1      -0.334 -18.496  24.542  1.00  0.00     0.214 C 
ATOM     24  O   UNL     1       1.653 -19.317  25.662  1.00  0.00    -0.332 OA
ATOM     25  C   UNL     1      -0.667 -19.887  23.962  1.00  0.00     0.180 C 
ATOM     26  C   UNL     1       1.370 -20.680  25.253  1.00  0.00     0.179 C 
ATOM     27  C   UNL     1       0.681 -20.704  23.845  1.00  0.00     0.177 C 
BRANCH  23  28
ATOM     28  O   UNL     1      -1.523 -17.762  24.739  1.00  0.00    -0.384 OA
ATOM     29  H   UNL     1      -1.714 -17.771  25.726  1.00  0.00     0.211 HD
ENDBRANCH  23  28
BRANCH  25  30
ATOM     30  O   UNL     1      -1.593 -20.509  24.851  1.00  0.00    -0.387 OA
ATOM     31  H   UNL     1      -1.439 -21.499  24.817  1.00  0.00     0.211 HD
ENDBRANCH  25  30
BRANCH  26  32
ATOM     32  C   UNL     1       2.703 -21.430  25.192  1.00  0.00     0.191 C 
BRANCH  32  33
ATOM     33  O   UNL     1       2.716 -22.397  24.171  1.00  0.00    -0.394 OA
ATOM     34  H   UNL     1       1.808 -22.372  23.716  1.00  0.00     0.210 HD
ENDBRANCH  32  33
ENDBRANCH  26  32
BRANCH  27  35
ATOM     35  O   UNL     1       1.537 -20.065  22.907  1.00  0.00    -0.387 OA
ATOM     36  H   UNL     1       2.421 -19.905  23.365  1.00  0.00     0.211 HD
ENDBRANCH  27  35
ENDBRANCH  21  22
ENDBRANCH   2  21
BRANCH   5  37
ATOM     37  O   UNL     1      -0.367 -14.701  28.112  1.00  0.00    -0.461 OA
BRANCH  37  38
ATOM     38  C   UNL     1      -0.341 -13.308  27.699  1.00  0.00     0.339 C 
ATOM     39  C   UNL     1      -1.445 -13.041  26.626  1.00  0.00     0.214 C 
ATOM     40  O   UNL     1       0.965 -13.170  27.089  1.00  0.00    -0.332 OA
ATOM     41  C   UNL     1      -1.431 -14.200  25.597  1.00  0.00     0.180 C 
ATOM     42  C   UNL     1       1.018 -13.533  25.679  1.00  0.00     0.179 C 
ATOM     43  C   UNL     1       0.043 -14.718  25.364  1.00  0.00     0.177 C 
BRANCH  39  44
ATOM     44  O   UNL     1      -2.692 -12.774  27.234  1.00  0.00    -0.384 OA
ATOM     45  H   UNL     1      -2.511 -12.934  28.203  1.00  0.00     0.211 HD
ENDBRANCH  39  44
BRANCH  41  46
ATOM     46  O   UNL     1      -2.296 -15.182  26.063  1.00  0.00    -0.387 OA
ATOM     47  H   UNL     1      -1.989 -16.073  25.773  1.00  0.00     0.211 HD
ENDBRANCH  41  46
BRANCH  42  48
ATOM     48  C   UNL     1       2.459 -13.715  25.182  1.00  0.00     0.191 C 
BRANCH  48  49
ATOM     49  O   UNL     1       2.851 -15.040  25.554  1.00  0.00    -0.394 OA
ATOM     50  H   UNL     1       3.439 -15.401  24.823  1.00  0.00     0.210 HD
ENDBRANCH  48  49
ENDBRANCH  42  48
BRANCH  43  51
ATOM     51  O   UNL     1       0.192 -15.322  24.093  1.00  0.00    -0.387 OA
ATOM     52  H   UNL     1       0.279 -14.611  23.413  1.00  0.00     0.211 HD
ENDBRANCH  43  51
ENDBRANCH  37  38
ENDBRANCH   5  37
BRANCH   7  53
ATOM     53  O   UNL     1       0.581 -14.709  33.004  1.00  0.00    -0.507 OA
ATOM     54  H   UNL     1       1.229 -15.228  33.613  1.00  0.00     0.293 HD
ENDBRANCH   7  53
TORSDOF 18
ENDMDL
MODEL 6
REMARK VINA RESULT:    -6.700      1.851      2.999
REMARK INTER + INTRA:         -15.227
REMARK INTER:                 -12.497
REMARK INTRA:                  -2.730
REMARK UNBOUND:                -3.436
REMARK SMILES COc1cc(-c2[o+]c3cc(O)cc(O[C@H]4O[C@@H](CO)[C@H](O)[C@@H](O)[C@H]4O)c3cc2O[C@H]2O[C@H](CO)[C@H](O)[C@@H](O)[C@H]2O)ccc1O
REMARK SMILES IDX 6 1 28 2 27 3 26 4 13 5 12 6 10 7 9 8 8 9 7 10 5 11 3 12
REMARK SMILES IDX 43 13 4 14 42 15 41 16 2 17 1 18 44 19 29 21 30 22 39 23
REMARK SMILES IDX 31 24 37 25 32 26 35 27 40 28 38 30 33 32 34 33 36 35 14 37
REMARK SMILES IDX 15 38 24 39 16 40 22 41 17 42 20 43 25 44 23 46 18 48 19 49
REMARK SMILES IDX 21 51 11 53
REMARK H PARENT 44 20 40 29 38 31 34 34 36 36 25 45 23 47 19 50 21 52 11 54
REMARK Flexibility Score: inf
ROOT
ATOM      1  C   UNL     1      -0.832 -15.712  30.406  1.00  0.00     0.402 A 
ATOM      2  C   UNL     1      -0.577 -15.811  28.997  1.00  0.00     0.229 A 
ATOM      3  C   UNL     1       0.176 -16.860  28.536  1.00  0.00     0.079 A 
ATOM      4  C   UNL     1       0.185 -17.977  29.290  1.00  0.00     0.126 A 
ATOM      5  C   UNL     1       0.072 -19.236  28.689  1.00  0.00     0.143 A 
ATOM      6  C   UNL     1      -0.046 -20.386  29.478  1.00  0.00     0.094 A 
ATOM      7  C   UNL     1      -0.100 -20.301  30.920  1.00  0.00     0.128 A 
ATOM      8  C   UNL     1      -0.098 -19.028  31.530  1.00  0.00     0.162 A 
ATOM      9  C   UNL     1      -0.069 -17.881  30.710  1.00  0.00     0.368 A 
ATOM     10  O   UNL     1      -0.386 -16.707  31.243  1.00  0.00    -0.202 OA
ENDROOT
BRANCH   1  11
ATOM     11  C   UNL     1      -1.601 -14.592  30.985  1.00  0.00     0.087 A 
ATOM     12  C   UNL     1      -3.751 -13.429  31.423  1.00  0.00     0.161 A 
ATOM     13  C   UNL     1      -3.088 -12.657  32.395  1.00  0.00     0.157 A 
ATOM     14  C   UNL     1      -3.003 -14.440  30.759  1.00  0.00     0.068 A 
ATOM     15  C   UNL     1      -1.662 -12.654  32.454  1.00  0.00     0.051 A 
ATOM     16  C   UNL     1      -0.933 -13.499  31.610  1.00  0.00     0.022 A 
BRANCH  12  17
ATOM     17  O   UNL     1      -5.004 -12.939  31.012  1.00  0.00    -0.493 OA
ATOM     18  C   UNL     1      -6.209 -13.612  31.470  1.00  0.00     0.278 C 
ENDBRANCH  12  17
BRANCH  13  19
ATOM     19  O   UNL     1      -3.786 -11.761  33.244  1.00  0.00    -0.504 OA
ATOM     20  H   UNL     1      -3.253 -11.247  33.988  1.00  0.00     0.293 HD
ENDBRANCH  13  19
ENDBRANCH   1  11
BRANCH   2  21
ATOM     21  O   UNL     1      -1.152 -14.837  28.215  1.00  0.00    -0.452 OA
BRANCH  21  22
ATOM     22  C   UNL     1      -0.624 -13.509  28.030  1.00  0.00     0.339 C 
ATOM     23  C   UNL     1      -1.557 -12.661  27.149  1.00  0.00     0.214 C 
ATOM     24  O   UNL     1       0.683 -13.538  27.450  1.00  0.00    -0.332 OA
ATOM     25  C   UNL     1      -1.633 -13.164  25.692  1.00  0.00     0.180 C 
ATOM     26  C   UNL     1       0.670 -14.138  26.130  1.00  0.00     0.179 C 
ATOM     27  C   UNL     1      -0.160 -13.260  25.130  1.00  0.00     0.177 C 
BRANCH  23  28
ATOM     28  O   UNL     1      -2.850 -12.639  27.716  1.00  0.00    -0.384 OA
ATOM     29  H   UNL     1      -3.016 -13.551  28.104  1.00  0.00     0.211 HD
ENDBRANCH  23  28
BRANCH  25  30
ATOM     30  O   UNL     1      -2.282 -14.434  25.712  1.00  0.00    -0.387 OA
ATOM     31  H   UNL     1      -2.941 -14.433  26.467  1.00  0.00     0.211 HD
ENDBRANCH  25  30
BRANCH  26  32
ATOM     32  C   UNL     1       2.121 -14.239  25.653  1.00  0.00     0.191 C 
BRANCH  32  33
ATOM     33  O   UNL     1       2.263 -13.835  24.313  1.00  0.00    -0.394 OA
ATOM     34  H   UNL     1       1.965 -14.610  23.728  1.00  0.00     0.210 HD
ENDBRANCH  32  33
ENDBRANCH  26  32
BRANCH  27  35
ATOM     35  O   UNL     1       0.411 -11.959  25.084  1.00  0.00    -0.387 OA
ATOM     36  H   UNL     1       0.533 -11.648  26.036  1.00  0.00     0.211 HD
ENDBRANCH  27  35
ENDBRANCH  21  22
ENDBRANCH   2  21
BRANCH   5  37
ATOM     37  O   UNL     1      -0.187 -19.222  27.293  1.00  0.00    -0.461 OA
BRANCH  37  38
ATOM     38  C   UNL     1      -1.439 -19.366  26.569  1.00  0.00     0.339 C 
ATOM     39  C   UNL     1      -1.376 -20.606  25.620  1.00  0.00     0.214 C 
ATOM     40  O   UNL     1      -1.500 -18.156  25.775  1.00  0.00    -0.332 OA
ATOM     41  C   UNL     1      -0.006 -20.610  24.895  1.00  0.00     0.180 C 
ATOM     42  C   UNL     1      -0.812 -18.235  24.493  1.00  0.00     0.179 C 
ATOM     43  C   UNL     1       0.468 -19.133  24.594  1.00  0.00     0.177 C 
BRANCH  39  44
ATOM     44  O   UNL     1      -1.709 -21.792  26.309  1.00  0.00    -0.384 OA
ATOM     45  H   UNL     1      -0.826 -22.116  26.645  1.00  0.00     0.211 HD
ENDBRANCH  39  44
BRANCH  41  46
ATOM     46  O   UNL     1       0.883 -21.326  25.687  1.00  0.00    -0.387 OA
ATOM     47  H   UNL     1       0.393 -21.962  26.260  1.00  0.00     0.211 HD
ENDBRANCH  41  46
BRANCH  42  48
ATOM     48  C   UNL     1      -0.598 -16.851  23.866  1.00  0.00     0.191 C 
BRANCH  48  49
ATOM     49  O   UNL     1      -1.865 -16.445  23.339  1.00  0.00    -0.394 OA
ATOM     50  H   UNL     1      -2.046 -16.998  22.519  1.00  0.00     0.210 HD
ENDBRANCH  48  49
ENDBRANCH  42  48
BRANCH  43  51
ATOM     51  O   UNL     1       1.351 -19.080  23.490  1.00  0.00    -0.387 OA
ATOM     52  H   UNL     1       1.574 -20.003  23.219  1.00  0.00     0.211 HD
ENDBRANCH  43  51
ENDBRANCH  37  38
ENDBRANCH   5  37
BRANCH   7  53
ATOM     53  O   UNL     1      -0.069 -21.457  31.746  1.00  0.00    -0.507 OA
ATOM     54  H   UNL     1      -0.684 -22.226  31.446  1.00  0.00     0.293 HD
ENDBRANCH   7  53
TORSDOF 18
ENDMDL
MODEL 7
REMARK VINA RESULT:    -6.695      1.874      3.478
REMARK INTER + INTRA:         -15.220
REMARK INTER:                 -12.307
REMARK INTRA:                  -2.913
REMARK UNBOUND:                -3.436
REMARK SMILES COc1cc(-c2[o+]c3cc(O)cc(O[C@H]4O[C@@H](CO)[C@H](O)[C@@H](O)[C@H]4O)c3cc2O[C@H]2O[C@H](CO)[C@H](O)[C@@H](O)[C@H]2O)ccc1O
REMARK SMILES IDX 6 1 28 2 27 3 26 4 13 5 12 6 10 7 9 8 8 9 7 10 5 11 3 12
REMARK SMILES IDX 43 13 4 14 42 15 41 16 2 17 1 18 44 19 29 21 30 22 39 23
REMARK SMILES IDX 31 24 37 25 32 26 35 27 40 28 38 30 33 32 34 33 36 35 14 37
REMARK SMILES IDX 15 38 24 39 16 40 22 41 17 42 20 43 25 44 23 46 18 48 19 49
REMARK SMILES IDX 21 51 11 53
REMARK H PARENT 44 20 40 29 38 31 34 34 36 36 25 45 23 47 19 50 21 52 11 54
REMARK Flexibility Score: inf
ROOT
ATOM      1  C   UNL     1      -0.872 -15.815  30.432  1.00  0.00     0.402 A 
ATOM      2  C   UNL     1      -0.403 -15.918  29.079  1.00  0.00     0.229 A 
ATOM      3  C   UNL     1       0.590 -16.818  28.792  1.00  0.00     0.079 A 
ATOM      4  C   UNL     1       0.700 -17.882  29.613  1.00  0.00     0.126 A 
ATOM      5  C   UNL     1       0.912 -19.161  29.086  1.00  0.00     0.143 A 
ATOM      6  C   UNL     1       0.900 -20.281  29.926  1.00  0.00     0.094 A 
ATOM      7  C   UNL     1       0.624 -20.152  31.340  1.00  0.00     0.128 A 
ATOM      8  C   UNL     1       0.301 -18.879  31.860  1.00  0.00     0.162 A 
ATOM      9  C   UNL     1       0.232 -17.781  30.977  1.00  0.00     0.368 A 
ATOM     10  O   UNL     1      -0.371 -16.671  31.384  1.00  0.00    -0.202 OA
ENDROOT
BRANCH   1  11
ATOM     11  C   UNL     1      -1.910 -14.844  30.828  1.00  0.00     0.087 A 
ATOM     12  C   UNL     1      -4.277 -14.094  30.881  1.00  0.00     0.161 A 
ATOM     13  C   UNL     1      -3.924 -13.185  31.896  1.00  0.00     0.157 A 
ATOM     14  C   UNL     1      -3.265 -14.965  30.391  1.00  0.00     0.068 A 
ATOM     15  C   UNL     1      -2.548 -12.913  32.162  1.00  0.00     0.051 A 
ATOM     16  C   UNL     1      -1.556 -13.628  31.483  1.00  0.00     0.022 A 
BRANCH  12  17
ATOM     17  O   UNL     1      -5.520 -13.860  30.264  1.00  0.00    -0.493 OA
ATOM     18  C   UNL     1      -6.657 -14.688  30.631  1.00  0.00     0.278 C 
ENDBRANCH  12  17
BRANCH  13  19
ATOM     19  O   UNL     1      -4.896 -12.413  32.581  1.00  0.00    -0.504 OA
ATOM     20  H   UNL     1      -5.021 -12.556  33.614  1.00  0.00     0.293 HD
ENDBRANCH  13  19
ENDBRANCH   1  11
BRANCH   2  21
ATOM     21  O   UNL     1      -1.032 -15.105  28.165  1.00  0.00    -0.452 OA
BRANCH  21  22
ATOM     22  C   UNL     1      -0.733 -13.711  27.957  1.00  0.00     0.339 C 
ATOM     23  C   UNL     1      -1.711 -13.080  26.953  1.00  0.00     0.214 C 
ATOM     24  O   UNL     1       0.608 -13.522  27.500  1.00  0.00    -0.332 OA
ATOM     25  C   UNL     1      -1.554 -13.641  25.523  1.00  0.00     0.180 C 
ATOM     26  C   UNL     1       0.832 -14.162  26.218  1.00  0.00     0.179 C 
ATOM     27  C   UNL     1      -0.039 -13.487  25.102  1.00  0.00     0.177 C 
BRANCH  23  28
ATOM     28  O   UNL     1      -3.037 -13.274  27.399  1.00  0.00    -0.384 OA
ATOM     29  H   UNL     1      -3.138 -14.252  27.606  1.00  0.00     0.211 HD
ENDBRANCH  23  28
BRANCH  25  30
ATOM     30  O   UNL     1      -1.964 -15.006  25.553  1.00  0.00    -0.387 OA
ATOM     31  H   UNL     1      -2.611 -15.119  26.311  1.00  0.00     0.211 HD
ENDBRANCH  25  30
BRANCH  26  32
ATOM     32  C   UNL     1       2.317 -14.013  25.880  1.00  0.00     0.191 C 
BRANCH  32  33
ATOM     33  O   UNL     1       2.526 -13.818  24.502  1.00  0.00    -0.394 OA
ATOM     34  H   UNL     1       1.636 -13.545  24.095  1.00  0.00     0.210 HD
ENDBRANCH  32  33
ENDBRANCH  26  32
BRANCH  27  35
ATOM     35  O   UNL     1       0.293 -12.106  25.039  1.00  0.00    -0.387 OA
ATOM     36  H   UNL     1      -0.253 -11.697  24.296  1.00  0.00     0.211 HD
ENDBRANCH  27  35
ENDBRANCH  21  22
ENDBRANCH   2  21
BRANCH   5  37
ATOM     37  O   UNL     1       0.857 -19.252  27.670  1.00  0.00    -0.461 OA
BRANCH  37  38
ATOM     38  C   UNL     1       1.912 -19.515  26.704  1.00  0.00     0.339 C 
ATOM     39  C   UNL     1       1.688 -18.663  25.414  1.00  0.00     0.214 C 
ATOM     40  O   UNL     1       1.727 -20.918  26.392  1.00  0.00    -0.332 OA
ATOM     41  C   UNL     1       0.188 -18.727  25.027  1.00  0.00     0.180 C 
ATOM     42  C   UNL     1       0.764 -21.182  25.331  1.00  0.00     0.179 C 
ATOM     43  C   UNL     1      -0.412 -20.148  25.367  1.00  0.00     0.177 C 
BRANCH  39  44
ATOM     44  O   UNL     1       2.230 -17.366  25.560  1.00  0.00    -0.384 OA
ATOM     45  H   UNL     1       1.566 -16.789  25.087  1.00  0.00     0.211 HD
ENDBRANCH  39  44
BRANCH  41  46
ATOM     46  O   UNL     1      -0.455 -17.683  25.679  1.00  0.00    -0.387 OA
ATOM     47  H   UNL     1      -0.855 -18.001  26.522  1.00  0.00     0.211 HD
ENDBRANCH  41  46
BRANCH  42  48
ATOM     48  C   UNL     1       0.344 -22.657  25.287  1.00  0.00     0.191 C 
BRANCH  48  49
ATOM     49  O   UNL     1      -0.056 -22.924  23.939  1.00  0.00    -0.394 OA
ATOM     50  H   UNL     1      -0.711 -23.686  23.960  1.00  0.00     0.210 HD
ENDBRANCH  48  49
ENDBRANCH  42  48
BRANCH  43  51
ATOM     51  O   UNL     1      -1.530 -20.452  24.554  1.00  0.00    -0.387 OA
ATOM     52  H   UNL     1      -2.007 -21.223  24.948  1.00  0.00     0.211 HD
ENDBRANCH  43  51
ENDBRANCH  37  38
ENDBRANCH   5  37
BRANCH   7  53
ATOM     53  O   UNL     1       0.752 -21.245  32.236  1.00  0.00    -0.507 OA
ATOM     54  H   UNL     1       1.578 -21.842  32.084  1.00  0.00     0.293 HD
ENDBRANCH   7  53
TORSDOF 18
ENDMDL
MODEL 8
REMARK VINA RESULT:    -6.634      2.096      7.342
REMARK INTER + INTRA:         -15.112
REMARK INTER:                 -11.866
REMARK INTRA:                  -3.246
REMARK UNBOUND:                -3.436
REMARK SMILES COc1cc(-c2[o+]c3cc(O)cc(O[C@H]4O[C@@H](CO)[C@H](O)[C@@H](O)[C@H]4O)c3cc2O[C@H]2O[C@H](CO)[C@H](O)[C@@H](O)[C@H]2O)ccc1O
REMARK SMILES IDX 6 1 28 2 27 3 26 4 13 5 12 6 10 7 9 8 8 9 7 10 5 11 3 12
REMARK SMILES IDX 43 13 4 14 42 15 41 16 2 17 1 18 44 19 29 21 30 22 39 23
REMARK SMILES IDX 31 24 37 25 32 26 35 27 40 28 38 30 33 32 34 33 36 35 14 37
REMARK SMILES IDX 15 38 24 39 16 40 22 41 17 42 20 43 25 44 23 46 18 48 19 49
REMARK SMILES IDX 21 51 11 53
REMARK H PARENT 44 20 40 29 38 31 34 34 36 36 25 45 23 47 19 50 21 52 11 54
REMARK Flexibility Score: inf
ROOT
ATOM      1  C   UNL     1       0.007 -20.264  28.874  1.00  0.00     0.402 A 
ATOM      2  C   UNL     1      -0.492 -19.650  27.677  1.00  0.00     0.229 A 
ATOM      3  C   UNL     1      -1.218 -18.491  27.784  1.00  0.00     0.079 A 
ATOM      4  C   UNL     1      -0.987 -17.730  28.872  1.00  0.00     0.126 A 
ATOM      5  C   UNL     1      -0.873 -16.340  28.750  1.00  0.00     0.143 A 
ATOM      6  C   UNL     1      -0.509 -15.562  29.855  1.00  0.00     0.094 A 
ATOM      7  C   UNL     1      -0.199 -16.173  31.129  1.00  0.00     0.128 A 
ATOM      8  C   UNL     1      -0.205 -17.581  31.232  1.00  0.00     0.162 A 
ATOM      9  C   UNL     1      -0.487 -18.346  30.080  1.00  0.00     0.368 A 
ATOM     10  O   UNL     1      -0.187 -19.638  30.083  1.00  0.00    -0.202 OA
ENDROOT
BRANCH   1  11
ATOM     11  C   UNL     1       0.764 -21.531  28.846  1.00  0.00     0.087 A 
ATOM     12  C   UNL     1       0.864 -23.997  28.564  1.00  0.00     0.161 A 
ATOM     13  C   UNL     1       2.261 -23.883  28.434  1.00  0.00     0.157 A 
ATOM     14  C   UNL     1       0.115 -22.797  28.715  1.00  0.00     0.068 A 
ATOM     15  C   UNL     1       2.915 -22.665  28.789  1.00  0.00     0.051 A 
ATOM     16  C   UNL     1       2.152 -21.555  29.168  1.00  0.00     0.022 A 
BRANCH  12  17
ATOM     17  O   UNL     1       0.382 -25.295  28.810  1.00  0.00    -0.493 OA
ATOM     18  C   UNL     1      -0.817 -25.462  29.615  1.00  0.00     0.278 C 
ENDBRANCH  12  17
BRANCH  13  19
ATOM     19  O   UNL     1       3.073 -24.994  28.090  1.00  0.00    -0.504 OA
ATOM     20  H   UNL     1       3.426 -25.621  28.855  1.00  0.00     0.293 HD
ENDBRANCH  13  19
ENDBRANCH   1  11
BRANCH   2  21
ATOM     21  O   UNL     1      -0.160 -20.277  26.499  1.00  0.00    -0.452 OA
BRANCH  21  22
ATOM     22  C   UNL     1       1.153 -20.276  25.905  1.00  0.00     0.339 C 
ATOM     23  C   UNL     1       1.157 -19.502  24.576  1.00  0.00     0.214 C 
ATOM     24  O   UNL     1       1.633 -21.605  25.684  1.00  0.00    -0.332 OA
ATOM     25  C   UNL     1       0.325 -20.191  23.473  1.00  0.00     0.180 C 
ATOM     26  C   UNL     1       0.788 -22.332  24.756  1.00  0.00     0.179 C 
ATOM     27  C   UNL     1       0.838 -21.679  23.332  1.00  0.00     0.177 C 
BRANCH  23  28
ATOM     28  O   UNL     1       0.675 -18.192  24.792  1.00  0.00    -0.384 OA
ATOM     29  H   UNL     1       1.090 -17.607  24.089  1.00  0.00     0.211 HD
ENDBRANCH  23  28
BRANCH  25  30
ATOM     30  O   UNL     1      -1.043 -20.132  23.872  1.00  0.00    -0.387 OA
ATOM     31  H   UNL     1      -1.569 -19.739  23.115  1.00  0.00     0.211 HD
ENDBRANCH  25  30
BRANCH  26  32
ATOM     32  C   UNL     1       1.308 -23.770  24.687  1.00  0.00     0.191 C 
BRANCH  32  33
ATOM     33  O   UNL     1       2.653 -23.862  25.089  1.00  0.00    -0.394 OA
ATOM     34  H   UNL     1       2.669 -23.849  26.105  1.00  0.00     0.210 HD
ENDBRANCH  32  33
ENDBRANCH  26  32
BRANCH  27  35
ATOM     35  O   UNL     1       2.187 -21.670  22.882  1.00  0.00    -0.387 OA
ATOM     36  H   UNL     1       2.745 -21.250  23.608  1.00  0.00     0.211 HD
ENDBRANCH  27  35
ENDBRANCH  21  22
ENDBRANCH   2  21
BRANCH   5  37
ATOM     37  O   UNL     1      -0.876 -15.844  27.419  1.00  0.00    -0.461 OA
BRANCH  37  38
ATOM     38  C   UNL     1      -1.978 -15.383  26.591  1.00  0.00     0.339 C 
ATOM     39  C   UNL     1      -1.487 -15.130  25.130  1.00  0.00     0.214 C 
ATOM     40  O   UNL     1      -2.341 -14.120  27.201  1.00  0.00    -0.332 OA
ATOM     41  C   UNL     1      -0.132 -14.379  25.181  1.00  0.00     0.180 C 
ATOM     42  C   UNL     1      -1.576 -12.974  26.727  1.00  0.00     0.179 C 
ATOM     43  C   UNL     1      -0.098 -13.378  26.403  1.00  0.00     0.177 C 
BRANCH  39  44
ATOM     44  O   UNL     1      -1.500 -16.324  24.374  1.00  0.00    -0.384 OA
ATOM     45  H   UNL     1      -0.661 -16.783  24.662  1.00  0.00     0.211 HD
ENDBRANCH  39  44
BRANCH  41  46
ATOM     46  O   UNL     1       0.874 -15.337  25.221  1.00  0.00    -0.387 OA
ATOM     47  H   UNL     1       0.922 -15.817  24.361  1.00  0.00     0.211 HD
ENDBRANCH  41  46
BRANCH  42  48
ATOM     48  C   UNL     1      -1.741 -11.752  27.641  1.00  0.00     0.191 C 
BRANCH  48  49
ATOM     49  O   UNL     1      -1.858 -10.616  26.779  1.00  0.00    -0.394 OA
ATOM     50  H   UNL     1      -1.743  -9.792  27.343  1.00  0.00     0.210 HD
ENDBRANCH  48  49
ENDBRANCH  42  48
BRANCH  43  51
ATOM     51  O   UNL     1       0.802 -12.309  26.179  1.00  0.00    -0.387 OA
ATOM     52  H   UNL     1       0.613 -11.594  26.834  1.00  0.00     0.211 HD
ENDBRANCH  43  51
ENDBRANCH  37  38
ENDBRANCH   5  37
BRANCH   7  53
ATOM     53  O   UNL     1       0.026 -15.402  32.300  1.00  0.00    -0.507 OA
ATOM     54  H   UNL     1      -0.594 -15.619  33.093  1.00  0.00     0.293 HD
ENDBRANCH   7  53
TORSDOF 18
ENDMDL
MODEL 9
REMARK VINA RESULT:    -6.603      3.045      5.615
REMARK INTER + INTRA:         -15.056
REMARK INTER:                 -11.271
REMARK INTRA:                  -3.786
REMARK UNBOUND:                -3.436
REMARK SMILES COc1cc(-c2[o+]c3cc(O)cc(O[C@H]4O[C@@H](CO)[C@H](O)[C@@H](O)[C@H]4O)c3cc2O[C@H]2O[C@H](CO)[C@H](O)[C@@H](O)[C@H]2O)ccc1O
REMARK SMILES IDX 6 1 28 2 27 3 26 4 13 5 12 6 10 7 9 8 8 9 7 10 5 11 3 12
REMARK SMILES IDX 43 13 4 14 42 15 41 16 2 17 1 18 44 19 29 21 30 22 39 23
REMARK SMILES IDX 31 24 37 25 32 26 35 27 40 28 38 30 33 32 34 33 36 35 14 37
REMARK SMILES IDX 15 38 24 39 16 40 22 41 17 42 20 43 25 44 23 46 18 48 19 49
REMARK SMILES IDX 21 51 11 53
REMARK H PARENT 44 20 40 29 38 31 34 34 36 36 25 45 23 47 19 50 21 52 11 54
REMARK Flexibility Score: inf
ROOT
ATOM      1  C   UNL     1      -1.274 -13.233  30.832  1.00  0.00     0.402 A 
ATOM      2  C   UNL     1      -0.592 -14.153  29.967  1.00  0.00     0.229 A 
ATOM      3  C   UNL     1       0.567 -14.737  30.409  1.00  0.00     0.079 A 
ATOM      4  C   UNL     1       0.721 -14.845  31.744  1.00  0.00     0.126 A 
ATOM      5  C   UNL     1       1.219 -16.027  32.304  1.00  0.00     0.143 A 
ATOM      6  C   UNL     1       1.260 -16.186  33.694  1.00  0.00     0.094 A 
ATOM      7  C   UNL     1       0.752 -15.161  34.579  1.00  0.00     0.128 A 
ATOM      8  C   UNL     1       0.149 -14.013  34.021  1.00  0.00     0.162 A 
ATOM      9  C   UNL     1       0.039 -13.917  32.618  1.00  0.00     0.368 A 
ATOM     10  O   UNL     1      -0.793 -13.020  32.102  1.00  0.00    -0.202 OA
ENDROOT
BRANCH   1  11
ATOM     11  C   UNL     1      -2.505 -12.535  30.415  1.00  0.00     0.087 A 
ATOM     12  C   UNL     1      -4.972 -12.460  30.134  1.00  0.00     0.161 A 
ATOM     13  C   UNL     1      -4.869 -11.067  29.961  1.00  0.00     0.157 A 
ATOM     14  C   UNL     1      -3.779 -13.181  30.419  1.00  0.00     0.068 A 
ATOM     15  C   UNL     1      -3.593 -10.468  29.733  1.00  0.00     0.051 A 
ATOM     16  C   UNL     1      -2.439 -11.258  29.785  1.00  0.00     0.022 A 
BRANCH  12  17
ATOM     17  O   UNL     1      -6.194 -13.031  29.735  1.00  0.00    -0.493 OA
ATOM     18  C   UNL     1      -7.016 -13.704  30.727  1.00  0.00     0.278 C 
ENDBRANCH  12  17
BRANCH  13  19
ATOM     19  O   UNL     1      -6.015 -10.237  29.865  1.00  0.00    -0.504 OA
ATOM     20  H   UNL     1      -6.128  -9.624  29.020  1.00  0.00     0.293 HD
ENDBRANCH  13  19
ENDBRANCH   1  11
BRANCH   2  21
ATOM     21  O   UNL     1      -1.197 -14.397  28.757  1.00  0.00    -0.452 OA
BRANCH  21  22
ATOM     22  C   UNL     1      -0.946 -13.657  27.546  1.00  0.00     0.339 C 
ATOM     23  C   UNL     1      -1.957 -14.033  26.450  1.00  0.00     0.214 C 
ATOM     24  O   UNL     1       0.383 -13.871  27.063  1.00  0.00    -0.332 OA
ATOM     25  C   UNL     1      -1.799 -15.486  25.955  1.00  0.00     0.180 C 
ATOM     26  C   UNL     1       0.611 -15.262  26.722  1.00  0.00     0.179 C 
ATOM     27  C   UNL     1      -0.295 -15.693  25.517  1.00  0.00     0.177 C 
BRANCH  23  28
ATOM     28  O   UNL     1      -3.269 -13.830  26.928  1.00  0.00    -0.384 OA
ATOM     29  H   UNL     1      -3.868 -13.761  26.125  1.00  0.00     0.211 HD
ENDBRANCH  23  28
BRANCH  25  30
ATOM     30  O   UNL     1      -2.164 -16.345  27.033  1.00  0.00    -0.387 OA
ATOM     31  H   UNL     1      -3.057 -16.749  26.820  1.00  0.00     0.211 HD
ENDBRANCH  25  30
BRANCH  26  32
ATOM     32  C   UNL     1       2.087 -15.408  26.342  1.00  0.00     0.191 C 
BRANCH  32  33
ATOM     33  O   UNL     1       2.431 -16.748  26.081  1.00  0.00    -0.394 OA
ATOM     34  H   UNL     1       2.766 -16.795  25.123  1.00  0.00     0.210 HD
ENDBRANCH  32  33
ENDBRANCH  26  32
BRANCH  27  35
ATOM     35  O   UNL     1      -0.009 -14.851  24.407  1.00  0.00    -0.387 OA
ATOM     36  H   UNL     1      -0.780 -14.208  24.309  1.00  0.00     0.211 HD
ENDBRANCH  27  35
ENDBRANCH  21  22
ENDBRANCH   2  21
BRANCH   5  37
ATOM     37  O   UNL     1       1.398 -17.102  31.395  1.00  0.00    -0.461 OA
BRANCH  37  38
ATOM     38  C   UNL     1       1.449 -18.536  31.633  1.00  0.00     0.339 C 
ATOM     39  C   UNL     1       2.399 -19.222  30.599  1.00  0.00     0.214 C 
ATOM     40  O   UNL     1       0.086 -18.958  31.386  1.00  0.00    -0.332 OA
ATOM     41  C   UNL     1       2.114 -18.635  29.193  1.00  0.00     0.180 C 
ATOM     42  C   UNL     1      -0.216 -19.254  29.991  1.00  0.00     0.179 C 
ATOM     43  C   UNL     1       0.578 -18.307  29.029  1.00  0.00     0.177 C 
BRANCH  39  44
ATOM     44  O   UNL     1       3.744 -19.165  31.028  1.00  0.00    -0.384 OA
ATOM     45  H   UNL     1       4.221 -19.728  30.354  1.00  0.00     0.211 HD
ENDBRANCH  39  44
BRANCH  41  46
ATOM     46  O   UNL     1       2.939 -17.528  29.029  1.00  0.00    -0.387 OA
ATOM     47  H   UNL     1       2.401 -16.733  28.803  1.00  0.00     0.211 HD
ENDBRANCH  41  46
BRANCH  42  48
ATOM     48  C   UNL     1      -1.726 -19.342  29.733  1.00  0.00     0.191 C 
BRANCH  48  49
ATOM     49  O   UNL     1      -2.186 -17.999  29.561  1.00  0.00    -0.394 OA
ATOM     50  H   UNL     1      -2.962 -18.021  28.922  1.00  0.00     0.210 HD
ENDBRANCH  48  49
ENDBRANCH  42  48
BRANCH  43  51
ATOM     51  O   UNL     1       0.180 -18.327  27.671  1.00  0.00    -0.387 OA
ATOM     52  H   UNL     1       0.845 -18.843  27.154  1.00  0.00     0.211 HD
ENDBRANCH  43  51
ENDBRANCH  37  38
ENDBRANCH   5  37
BRANCH   7  53
ATOM     53  O   UNL     1       0.918 -15.231  35.988  1.00  0.00    -0.507 OA
ATOM     54  H   UNL     1       0.111 -14.907  36.540  1.00  0.00     0.293 HD
ENDBRANCH   7  53
TORSDOF 18
ENDMDL
