MODEL 1
REMARK VINA RESULT:    -3.623      0.000      0.000
REMARK INTER + INTRA:          -5.439
REMARK INTER:                  -5.105
REMARK INTRA:                  -0.334
REMARK UNBOUND:                -0.334
REMARK SMILES CCCCCCCCC(=O)[O-]
REMARK SMILES IDX 6 1 7 2 8 3 9 4 10 5 11 6 5 7 4 8 3 9 2 10 1 11
REMARK H PARENT
REMARK Flexibility Score: inf
ROOT
ATOM      1  C   UNL     1       6.263  10.427  32.953  1.00  0.00     0.000 C 
ENDROOT
BRANCH   1   2
ATOM      2  C   UNL     1       6.472   9.197  33.850  1.00  0.00     0.006 C 
BRANCH   2   3
ATOM      3  C   UNL     1       7.684   8.355  33.428  1.00  0.00     0.053 C 
BRANCH   3   4
ATOM      4  C   UNL     1       7.547   6.954  33.936  1.00  0.00     0.041 C 
ATOM      5  O   UNL     1       6.486   6.308  33.735  1.00  0.00    -0.550 OA
ATOM      6  O   UNL     1       8.611   6.345  34.590  1.00  0.00    -0.550 OA
ENDBRANCH   3   4
ENDBRANCH   2   3
ENDBRANCH   1   2
BRANCH   1   7
ATOM      7  C   UNL     1       5.095  11.310  33.423  1.00  0.00     0.000 C 
BRANCH   7   8
ATOM      8  C   UNL     1       5.003  11.403  34.954  1.00  0.00    -0.000 C 
BRANCH   8   9
ATOM      9  C   UNL     1       5.358  12.802  35.487  1.00  0.00    -0.000 C 
BRANCH   9  10
ATOM     10  C   UNL     1       5.311  13.878  34.392  1.00  0.00    -0.003 C 
ATOM     11  C   UNL     1       5.994  15.179  34.813  1.00  0.00     0.004 C 
ENDBRANCH   9  10
ENDBRANCH   8   9
ENDBRANCH   7   8
ENDBRANCH   1   7
TORSDOF 7
ENDMDL
MODEL 2
REMARK VINA RESULT:    -3.615      2.145      3.342
REMARK INTER + INTRA:          -5.428
REMARK INTER:                  -4.994
REMARK INTRA:                  -0.434
REMARK UNBOUND:                -0.334
REMARK SMILES CCCCCCCCC(=O)[O-]
REMARK SMILES IDX 6 1 7 2 8 3 9 4 10 5 11 6 5 7 4 8 3 9 2 10 1 11
REMARK H PARENT
REMARK Flexibility Score: inf
ROOT
ATOM      1  C   UNL     1       6.524   6.851  33.657  1.00  0.00     0.000 C 
ENDROOT
BRANCH   1   2
ATOM      2  C   UNL     1       6.945   6.006  34.870  1.00  0.00     0.006 C 
BRANCH   2   3
ATOM      3  C   UNL     1       8.267   6.477  35.490  1.00  0.00     0.053 C 
BRANCH   3   4
ATOM      4  C   UNL     1       9.301   5.400  35.393  1.00  0.00     0.041 C 
ATOM      5  O   UNL     1       9.174   4.339  36.059  1.00  0.00    -0.550 OA
ATOM      6  O   UNL     1      10.379   5.547  34.530  1.00  0.00    -0.550 OA
ENDBRANCH   3   4
ENDBRANCH   2   3
ENDBRANCH   1   2
BRANCH   1   7
ATOM      7  C   UNL     1       7.483   8.025  33.393  1.00  0.00     0.000 C 
BRANCH   7   8
ATOM      8  C   UNL     1       6.756   9.378  33.331  1.00  0.00    -0.000 C 
BRANCH   8   9
ATOM      9  C   UNL     1       5.787   9.586  34.508  1.00  0.00    -0.000 C 
BRANCH   9  10
ATOM     10  C   UNL     1       5.154  10.986  34.508  1.00  0.00    -0.003 C 
ATOM     11  C   UNL     1       5.198  11.653  33.133  1.00  0.00     0.004 C 
ENDBRANCH   9  10
ENDBRANCH   8   9
ENDBRANCH   7   8
ENDBRANCH   1   7
TORSDOF 7
ENDMDL
MODEL 3
REMARK VINA RESULT:    -3.522      2.030      3.359
REMARK INTER + INTRA:          -5.298
REMARK INTER:                  -4.829
REMARK INTRA:                  -0.469
REMARK UNBOUND:                -0.334
REMARK SMILES CCCCCCCCC(=O)[O-]
REMARK SMILES IDX 6 1 7 2 8 3 9 4 10 5 11 6 5 7 4 8 3 9 2 10 1 11
REMARK H PARENT
REMARK Flexibility Score: inf
ROOT
ATOM      1  C   UNL     1       8.039   7.272  33.770  1.00  0.00     0.000 C 
ENDROOT
BRANCH   1   2
ATOM      2  C   UNL     1       6.720   6.573  34.138  1.00  0.00     0.006 C 
BRANCH   2   3
ATOM      3  C   UNL     1       6.828   5.749  35.428  1.00  0.00     0.053 C 
BRANCH   3   4
ATOM      4  C   UNL     1       7.362   6.593  36.542  1.00  0.00     0.041 C 
ATOM      5  O   UNL     1       8.467   6.313  37.075  1.00  0.00    -0.550 OA
ATOM      6  O   UNL     1       6.662   7.719  36.959  1.00  0.00    -0.550 OA
ENDBRANCH   3   4
ENDBRANCH   2   3
ENDBRANCH   1   2
BRANCH   1   7
ATOM      7  C   UNL     1       7.845   8.761  33.434  1.00  0.00     0.000 C 
BRANCH   7   8
ATOM      8  C   UNL     1       6.403   9.237  33.674  1.00  0.00    -0.000 C 
BRANCH   8   9
ATOM      9  C   UNL     1       6.103  10.585  32.995  1.00  0.00    -0.000 C 
BRANCH   9  10
ATOM     10  C   UNL     1       5.068  11.416  33.769  1.00  0.00    -0.003 C 
ATOM     11  C   UNL     1       5.039  11.081  35.260  1.00  0.00     0.004 C 
ENDBRANCH   9  10
ENDBRANCH   8   9
ENDBRANCH   7   8
ENDBRANCH   1   7
TORSDOF 7
ENDMDL
MODEL 4
REMARK VINA RESULT:    -3.435      3.450      6.525
REMARK INTER + INTRA:          -5.174
REMARK INTER:                  -4.717
REMARK INTRA:                  -0.457
REMARK UNBOUND:                -0.334
REMARK SMILES CCCCCCCCC(=O)[O-]
REMARK SMILES IDX 6 1 7 2 8 3 9 4 10 5 11 6 5 7 4 8 3 9 2 10 1 11
REMARK H PARENT
REMARK Flexibility Score: inf
ROOT
ATOM      1  C   UNL     1       6.369   5.670  34.775  1.00  0.00     0.000 C 
ENDROOT
BRANCH   1   2
ATOM      2  C   UNL     1       6.126   6.702  33.662  1.00  0.00     0.006 C 
BRANCH   2   3
ATOM      3  C   UNL     1       6.018   8.136  34.197  1.00  0.00     0.053 C 
BRANCH   3   4
ATOM      4  C   UNL     1       6.951   9.041  33.456  1.00  0.00     0.041 C 
ATOM      5  O   UNL     1       8.155   8.715  33.295  1.00  0.00    -0.550 OA
ATOM      6  O   UNL     1       6.477  10.223  32.900  1.00  0.00    -0.550 OA
ENDBRANCH   3   4
ENDBRANCH   2   3
ENDBRANCH   1   2
BRANCH   1   7
ATOM      7  C   UNL     1       7.625   5.982  35.607  1.00  0.00     0.000 C 
BRANCH   7   8
ATOM      8  C   UNL     1       8.388   4.714  36.020  1.00  0.00    -0.000 C 
BRANCH   8   9
ATOM      9  C   UNL     1       9.854   4.724  35.551  1.00  0.00    -0.000 C 
BRANCH   9  10
ATOM     10  C   UNL     1      10.099   5.719  34.406  1.00  0.00    -0.003 C 
ATOM     11  C   UNL     1      11.446   5.505  33.717  1.00  0.00     0.004 C 
ENDBRANCH   9  10
ENDBRANCH   8   9
ENDBRANCH   7   8
ENDBRANCH   1   7
TORSDOF 7
ENDMDL
MODEL 5
REMARK VINA RESULT:    -3.401      3.210      6.215
REMARK INTER + INTRA:          -5.127
REMARK INTER:                  -4.740
REMARK INTRA:                  -0.386
REMARK UNBOUND:                -0.334
REMARK SMILES CCCCCCCCC(=O)[O-]
REMARK SMILES IDX 6 1 7 2 8 3 9 4 10 5 11 6 5 7 4 8 3 9 2 10 1 11
REMARK H PARENT
REMARK Flexibility Score: inf
ROOT
ATOM      1  C   UNL     1       7.397   8.558  33.381  1.00  0.00     0.000 C 
ENDROOT
BRANCH   1   2
ATOM      2  C   UNL     1       6.553   9.790  33.014  1.00  0.00     0.006 C 
BRANCH   2   3
ATOM      3  C   UNL     1       5.630  10.236  34.156  1.00  0.00     0.053 C 
BRANCH   3   4
ATOM      4  C   UNL     1       5.224  11.664  33.969  1.00  0.00     0.041 C 
ATOM      5  O   UNL     1       5.239  12.460  34.944  1.00  0.00    -0.550 OA
ATOM      6  O   UNL     1       4.876  12.128  32.707  1.00  0.00    -0.550 OA
ENDBRANCH   3   4
ENDBRANCH   2   3
ENDBRANCH   1   2
BRANCH   1   7
ATOM      7  C   UNL     1       6.580   7.254  33.360  1.00  0.00     0.000 C 
BRANCH   7   8
ATOM      8  C   UNL     1       6.630   6.505  34.700  1.00  0.00    -0.000 C 
BRANCH   8   9
ATOM      9  C   UNL     1       7.877   6.856  35.531  1.00  0.00    -0.000 C 
BRANCH   9  10
ATOM     10  C   UNL     1       8.918   5.725  35.536  1.00  0.00    -0.003 C 
ATOM     11  C   UNL     1       8.328   4.383  35.968  1.00  0.00     0.004 C 
ENDBRANCH   9  10
ENDBRANCH   8   9
ENDBRANCH   7   8
ENDBRANCH   1   7
TORSDOF 7
ENDMDL
MODEL 6
REMARK VINA RESULT:    -3.189      2.927      6.287
REMARK INTER + INTRA:          -4.827
REMARK INTER:                  -4.266
REMARK INTRA:                  -0.561
REMARK UNBOUND:                -0.334
REMARK SMILES CCCCCCCCC(=O)[O-]
REMARK SMILES IDX 6 1 7 2 8 3 9 4 10 5 11 6 5 7 4 8 3 9 2 10 1 11
REMARK H PARENT
REMARK Flexibility Score: inf
ROOT
ATOM      1  C   UNL     1       7.781   7.426  34.056  1.00  0.00     0.000 C 
ENDROOT
BRANCH   1   2
ATOM      2  C   UNL     1       6.681   8.058  33.188  1.00  0.00     0.006 C 
BRANCH   2   3
ATOM      3  C   UNL     1       6.777   9.588  33.132  1.00  0.00     0.053 C 
BRANCH   3   4
ATOM      4  C   UNL     1       5.624  10.209  33.856  1.00  0.00     0.041 C 
ATOM      5  O   UNL     1       5.130   9.643  34.865  1.00  0.00    -0.550 OA
ATOM      6  O   UNL     1       5.127  11.439  33.443  1.00  0.00    -0.550 OA
ENDBRANCH   3   4
ENDBRANCH   2   3
ENDBRANCH   1   2
BRANCH   1   7
ATOM      7  C   UNL     1       7.244   6.314  34.974  1.00  0.00     0.000 C 
BRANCH   7   8
ATOM      8  C   UNL     1       5.760   6.006  34.723  1.00  0.00    -0.000 C 
BRANCH   8   9
ATOM      9  C   UNL     1       5.423   4.516  34.903  1.00  0.00    -0.000 C 
BRANCH   9  10
ATOM     10  C   UNL     1       5.282   3.778  33.562  1.00  0.00    -0.003 C 
ATOM     11  C   UNL     1       4.875   4.707  32.419  1.00  0.00     0.004 C 
ENDBRANCH   9  10
ENDBRANCH   8   9
ENDBRANCH   7   8
ENDBRANCH   1   7
TORSDOF 7
ENDMDL
MODEL 7
REMARK VINA RESULT:    -3.159      2.563      3.621
REMARK INTER + INTRA:          -4.785
REMARK INTER:                  -4.214
REMARK INTRA:                  -0.571
REMARK UNBOUND:                -0.334
REMARK SMILES CCCCCCCCC(=O)[O-]
REMARK SMILES IDX 6 1 7 2 8 3 9 4 10 5 11 6 5 7 4 8 3 9 2 10 1 11
REMARK H PARENT
REMARK Flexibility Score: inf
ROOT
ATOM      1  C   UNL     1       7.926   7.792  33.735  1.00  0.00     0.000 C 
ENDROOT
BRANCH   1   2
ATOM      2  C   UNL     1       7.447   6.527  34.465  1.00  0.00     0.006 C 
BRANCH   2   3
ATOM      3  C   UNL     1       8.247   6.243  35.743  1.00  0.00     0.053 C 
BRANCH   3   4
ATOM      4  C   UNL     1       8.464   4.771  35.905  1.00  0.00     0.041 C 
ATOM      5  O   UNL     1       9.631   4.310  36.003  1.00  0.00    -0.550 OA
ATOM      6  O   UNL     1       7.374   3.914  35.997  1.00  0.00    -0.550 OA
ENDBRANCH   3   4
ENDBRANCH   2   3
ENDBRANCH   1   2
BRANCH   1   7
ATOM      7  C   UNL     1       6.794   8.494  32.963  1.00  0.00     0.000 C 
BRANCH   7   8
ATOM      8  C   UNL     1       6.434   9.863  33.560  1.00  0.00    -0.000 C 
BRANCH   8   9
ATOM      9  C   UNL     1       5.345   9.771  34.643  1.00  0.00    -0.000 C 
BRANCH   9  10
ATOM     10  C   UNL     1       5.777  10.420  35.968  1.00  0.00    -0.003 C 
ATOM     11  C   UNL     1       6.830   9.598  36.710  1.00  0.00     0.004 C 
ENDBRANCH   9  10
ENDBRANCH   8   9
ENDBRANCH   7   8
ENDBRANCH   1   7
TORSDOF 7
ENDMDL
MODEL 8
REMARK VINA RESULT:    -3.144      1.906      2.896
REMARK INTER + INTRA:          -4.765
REMARK INTER:                  -4.572
REMARK INTRA:                  -0.193
REMARK UNBOUND:                -0.334
REMARK SMILES CCCCCCCCC(=O)[O-]
REMARK SMILES IDX 6 1 7 2 8 3 9 4 10 5 11 6 5 7 4 8 3 9 2 10 1 11
REMARK H PARENT
REMARK Flexibility Score: inf
ROOT
ATOM      1  C   UNL     1       7.222   7.608  33.370  1.00  0.00     0.000 C 
ENDROOT
BRANCH   1   2
ATOM      2  C   UNL     1       6.275   6.646  34.104  1.00  0.00     0.006 C 
BRANCH   2   3
ATOM      3  C   UNL     1       6.986   5.834  35.195  1.00  0.00     0.053 C 
BRANCH   3   4
ATOM      4  C   UNL     1       6.142   4.670  35.611  1.00  0.00     0.041 C 
ATOM      5  O   UNL     1       5.731   3.847  34.753  1.00  0.00    -0.550 OA
ATOM      6  O   UNL     1       5.851   4.468  36.954  1.00  0.00    -0.550 OA
ENDBRANCH   3   4
ENDBRANCH   2   3
ENDBRANCH   1   2
BRANCH   1   7
ATOM      7  C   UNL     1       7.194   9.029  33.959  1.00  0.00     0.000 C 
BRANCH   7   8
ATOM      8  C   UNL     1       6.338   9.996  33.126  1.00  0.00    -0.000 C 
BRANCH   8   9
ATOM      9  C   UNL     1       5.310  10.763  33.978  1.00  0.00    -0.000 C 
BRANCH   9  10
ATOM     10  C   UNL     1       4.899  12.100  33.341  1.00  0.00    -0.003 C 
ATOM     11  C   UNL     1       5.308  13.306  34.186  1.00  0.00     0.004 C 
ENDBRANCH   9  10
ENDBRANCH   8   9
ENDBRANCH   7   8
ENDBRANCH   1   7
TORSDOF 7
ENDMDL
MODEL 9
REMARK VINA RESULT:    -3.143      2.952      6.047
REMARK INTER + INTRA:          -4.763
REMARK INTER:                  -4.193
REMARK INTRA:                  -0.570
REMARK UNBOUND:                -0.334
REMARK SMILES CCCCCCCCC(=O)[O-]
REMARK SMILES IDX 6 1 7 2 8 3 9 4 10 5 11 6 5 7 4 8 3 9 2 10 1 11
REMARK H PARENT
REMARK Flexibility Score: inf
ROOT
ATOM      1  C   UNL     1       6.384   7.127  33.522  1.00  0.00     0.000 C 
ENDROOT
BRANCH   1   2
ATOM      2  C   UNL     1       7.021   8.452  33.973  1.00  0.00     0.006 C 
BRANCH   2   3
ATOM      3  C   UNL     1       6.600   9.639  33.096  1.00  0.00     0.053 C 
BRANCH   3   4
ATOM      4  C   UNL     1       5.588  10.480  33.809  1.00  0.00     0.041 C 
ATOM      5  O   UNL     1       5.009  11.421  33.207  1.00  0.00    -0.550 OA
ATOM      6  O   UNL     1       5.247  10.191  35.124  1.00  0.00    -0.550 OA
ENDBRANCH   3   4
ENDBRANCH   2   3
ENDBRANCH   1   2
BRANCH   1   7
ATOM      7  C   UNL     1       5.208   6.701  34.418  1.00  0.00     0.000 C 
BRANCH   7   8
ATOM      8  C   UNL     1       5.668   5.948  35.676  1.00  0.00    -0.000 C 
BRANCH   8   9
ATOM      9  C   UNL     1       6.567   4.742  35.352  1.00  0.00    -0.000 C 
BRANCH   9  10
ATOM     10  C   UNL     1       7.845   4.715  36.204  1.00  0.00    -0.003 C 
ATOM     11  C   UNL     1       8.986   5.519  35.581  1.00  0.00     0.004 C 
ENDBRANCH   9  10
ENDBRANCH   8   9
ENDBRANCH   7   8
ENDBRANCH   1   7
TORSDOF 7
ENDMDL
