MODEL 1
REMARK VINA RESULT:    -6.175      0.000      0.000
REMARK INTER + INTRA:          -8.613
REMARK INTER:                  -7.799
REMARK INTRA:                  -0.814
REMARK UNBOUND:                -0.814
REMARK SMILES Oc1ccc(CCc2cc(O)cc(O)c2)cc1
REMARK SMILES IDX 6 1 5 2 4 3 3 4 2 5 16 6 17 7 1 8 7 10 8 11 15 12 9 13 13 14
REMARK SMILES IDX 10 15 12 16 14 17 11 19
REMARK H PARENT 1 9 14 18 11 20
REMARK Flexibility Score: inf
ROOT
ATOM      1  C   UNL     1     -25.356  -7.545 -30.056  1.00  0.00     0.040 C 
ENDROOT
BRANCH   1   2
ATOM      2  C   UNL     1     -26.071  -8.639 -29.310  1.00  0.00    -0.047 A 
ATOM      3  C   UNL     1     -25.378  -9.791 -28.905  1.00  0.00     0.007 A 
ATOM      4  C   UNL     1     -26.050 -10.821 -28.240  1.00  0.00     0.046 A 
ATOM      5  C   UNL     1     -27.424 -10.715 -27.984  1.00  0.00     0.115 A 
ATOM      6  C   UNL     1     -27.451  -8.543 -29.061  1.00  0.00     0.007 A 
ATOM      7  C   UNL     1     -28.121  -9.574 -28.398  1.00  0.00     0.046 A 
BRANCH   5   8
ATOM      8  O   UNL     1     -28.104 -11.735 -27.324  1.00  0.00    -0.508 OA
ATOM      9  H   UNL     1     -28.625 -12.439 -27.832  1.00  0.00     0.293 HD
ENDBRANCH   5   8
ENDBRANCH   1   2
BRANCH   1  10
ATOM     10  C   UNL     1     -24.190  -7.000 -29.226  1.00  0.00     0.040 C 
BRANCH  10  11
ATOM     11  C   UNL     1     -24.701  -6.236 -28.034  1.00  0.00    -0.040 A 
ATOM     12  C   UNL     1     -24.285  -6.584 -26.738  1.00  0.00     0.050 A 
ATOM     13  C   UNL     1     -25.552  -5.133 -28.213  1.00  0.00     0.050 A 
ATOM     14  C   UNL     1     -24.733  -5.853 -25.633  1.00  0.00     0.119 A 
ATOM     15  C   UNL     1     -26.001  -4.400 -27.106  1.00  0.00     0.119 A 
ATOM     16  C   UNL     1     -25.594  -4.763 -25.818  1.00  0.00     0.092 A 
BRANCH  14  17
ATOM     17  O   UNL     1     -24.315  -6.218 -24.354  1.00  0.00    -0.508 OA
ATOM     18  H   UNL     1     -23.807  -7.078 -24.189  1.00  0.00     0.293 HD
ENDBRANCH  14  17
BRANCH  15  19
ATOM     19  O   UNL     1     -26.852  -3.309 -27.274  1.00  0.00    -0.508 OA
ATOM     20  H   UNL     1     -27.135  -2.997 -28.196  1.00  0.00     0.293 HD
ENDBRANCH  15  19
ENDBRANCH  10  11
ENDBRANCH   1  10
TORSDOF 6
ENDMDL
MODEL 2
REMARK VINA RESULT:    -6.175      0.052      2.350
REMARK INTER + INTRA:          -8.612
REMARK INTER:                  -7.780
REMARK INTRA:                  -0.832
REMARK UNBOUND:                -0.814
REMARK SMILES Oc1ccc(CCc2cc(O)cc(O)c2)cc1
REMARK SMILES IDX 6 1 5 2 4 3 3 4 2 5 16 6 17 7 1 8 7 10 8 11 15 12 9 13 13 14
REMARK SMILES IDX 10 15 12 16 14 17 11 19
REMARK H PARENT 1 9 14 18 11 20
REMARK Flexibility Score: inf
ROOT
ATOM      1  C   UNL     1     -25.420  -7.491 -30.070  1.00  0.00     0.040 C 
ENDROOT
BRANCH   1   2
ATOM      2  C   UNL     1     -26.122  -8.619 -29.362  1.00  0.00    -0.047 A 
ATOM      3  C   UNL     1     -27.482  -8.511 -29.029  1.00  0.00     0.007 A 
ATOM      4  C   UNL     1     -28.125  -9.546 -28.343  1.00  0.00     0.046 A 
ATOM      5  C   UNL     1     -27.412 -10.694 -27.972  1.00  0.00     0.115 A 
ATOM      6  C   UNL     1     -25.409  -9.767 -28.977  1.00  0.00     0.007 A 
ATOM      7  C   UNL     1     -26.053 -10.800 -28.290  1.00  0.00     0.046 A 
BRANCH   5   8
ATOM      8  O   UNL     1     -28.041 -11.730 -27.288  1.00  0.00    -0.508 OA
ATOM      9  H   UNL     1     -28.887 -11.575 -26.753  1.00  0.00     0.293 HD
ENDBRANCH   5   8
ENDBRANCH   1   2
BRANCH   1  10
ATOM     10  C   UNL     1     -24.217  -7.009 -29.255  1.00  0.00     0.040 C 
BRANCH  10  11
ATOM     11  C   UNL     1     -24.672  -6.216 -28.059  1.00  0.00    -0.040 A 
ATOM     12  C   UNL     1     -25.558  -5.138 -28.219  1.00  0.00     0.050 A 
ATOM     13  C   UNL     1     -24.259  -6.584 -26.768  1.00  0.00     0.050 A 
ATOM     14  C   UNL     1     -26.007  -4.422 -27.105  1.00  0.00     0.119 A 
ATOM     15  C   UNL     1     -24.709  -5.867 -25.650  1.00  0.00     0.119 A 
ATOM     16  C   UNL     1     -25.579  -4.785 -25.821  1.00  0.00     0.092 A 
BRANCH  14  17
ATOM     17  O   UNL     1     -26.881  -3.350 -27.285  1.00  0.00    -0.508 OA
ATOM     18  H   UNL     1     -27.094  -2.709 -26.529  1.00  0.00     0.293 HD
ENDBRANCH  14  17
BRANCH  15  19
ATOM     19  O   UNL     1     -24.298  -6.221 -24.367  1.00  0.00    -0.508 OA
ATOM     20  H   UNL     1     -24.829  -5.949 -23.548  1.00  0.00     0.293 HD
ENDBRANCH  15  19
ENDBRANCH  10  11
ENDBRANCH   1  10
TORSDOF 6
ENDMDL
MODEL 3
REMARK VINA RESULT:    -6.117      1.971      6.198
REMARK INTER + INTRA:          -8.540
REMARK INTER:                  -7.903
REMARK INTRA:                  -0.637
REMARK UNBOUND:                -0.814
REMARK SMILES Oc1ccc(CCc2cc(O)cc(O)c2)cc1
REMARK SMILES IDX 6 1 5 2 4 3 3 4 2 5 16 6 17 7 1 8 7 10 8 11 15 12 9 13 13 14
REMARK SMILES IDX 10 15 12 16 14 17 11 19
REMARK H PARENT 1 9 14 18 11 20
REMARK Flexibility Score: inf
ROOT
ATOM      1  C   UNL     1     -23.466  -8.656 -29.159  1.00  0.00     0.040 C 
ENDROOT
BRANCH   1   2
ATOM      2  C   UNL     1     -24.123  -7.616 -28.291  1.00  0.00    -0.047 A 
ATOM      3  C   UNL     1     -25.446  -7.217 -28.540  1.00  0.00     0.007 A 
ATOM      4  C   UNL     1     -26.045  -6.228 -27.753  1.00  0.00     0.046 A 
ATOM      5  C   UNL     1     -25.323  -5.620 -26.718  1.00  0.00     0.115 A 
ATOM      6  C   UNL     1     -23.400  -6.994 -27.259  1.00  0.00     0.007 A 
ATOM      7  C   UNL     1     -23.999  -6.005 -26.475  1.00  0.00     0.046 A 
BRANCH   5   8
ATOM      8  O   UNL     1     -25.908  -4.634 -25.928  1.00  0.00    -0.508 OA
ATOM      9  H   UNL     1     -26.083  -4.780 -24.941  1.00  0.00     0.293 HD
ENDBRANCH   5   8
ENDBRANCH   1   2
BRANCH   1  10
ATOM     10  C   UNL     1     -23.545 -10.035 -28.499  1.00  0.00     0.040 C 
BRANCH  10  11
ATOM     11  C   UNL     1     -24.773 -10.773 -28.961  1.00  0.00    -0.040 A 
ATOM     12  C   UNL     1     -24.796 -11.390 -30.223  1.00  0.00     0.050 A 
ATOM     13  C   UNL     1     -25.885 -10.898 -28.112  1.00  0.00     0.050 A 
ATOM     14  C   UNL     1     -25.924 -12.103 -30.640  1.00  0.00     0.119 A 
ATOM     15  C   UNL     1     -27.016 -11.614 -28.528  1.00  0.00     0.119 A 
ATOM     16  C   UNL     1     -27.035 -12.212 -29.792  1.00  0.00     0.092 A 
BRANCH  14  17
ATOM     17  O   UNL     1     -25.931 -12.703 -31.898  1.00  0.00    -0.508 OA
ATOM     18  H   UNL     1     -26.145 -13.687 -32.014  1.00  0.00     0.293 HD
ENDBRANCH  14  17
BRANCH  15  19
ATOM     19  O   UNL     1     -28.125 -11.736 -27.694  1.00  0.00    -0.508 OA
ATOM     20  H   UNL     1     -28.206 -12.497 -27.029  1.00  0.00     0.293 HD
ENDBRANCH  15  19
ENDBRANCH  10  11
ENDBRANCH   1  10
TORSDOF 6
ENDMDL
MODEL 4
REMARK VINA RESULT:    -6.079      2.677      4.048
REMARK INTER + INTRA:          -8.492
REMARK INTER:                  -7.950
REMARK INTRA:                  -0.542
REMARK UNBOUND:                -0.814
REMARK SMILES Oc1ccc(CCc2cc(O)cc(O)c2)cc1
REMARK SMILES IDX 6 1 5 2 4 3 3 4 2 5 16 6 17 7 1 8 7 10 8 11 15 12 9 13 13 14
REMARK SMILES IDX 10 15 12 16 14 17 11 19
REMARK H PARENT 1 9 14 18 11 20
REMARK Flexibility Score: inf
ROOT
ATOM      1  C   UNL     1     -25.313  -8.987 -28.465  1.00  0.00     0.040 C 
ENDROOT
BRANCH   1   2
ATOM      2  C   UNL     1     -24.060  -9.490 -29.131  1.00  0.00    -0.047 A 
ATOM      3  C   UNL     1     -23.169  -8.589 -29.736  1.00  0.00     0.007 A 
ATOM      4  C   UNL     1     -22.021  -9.058 -30.383  1.00  0.00     0.046 A 
ATOM      5  C   UNL     1     -21.760 -10.433 -30.441  1.00  0.00     0.115 A 
ATOM      6  C   UNL     1     -23.799 -10.868 -29.203  1.00  0.00     0.007 A 
ATOM      7  C   UNL     1     -22.652 -11.336 -29.851  1.00  0.00     0.046 A 
BRANCH   5   8
ATOM      8  O   UNL     1     -20.621 -10.913 -31.083  1.00  0.00    -0.508 OA
ATOM      9  H   UNL     1     -19.709 -10.504 -30.919  1.00  0.00     0.293 HD
ENDBRANCH   5   8
ENDBRANCH   1   2
BRANCH   1  10
ATOM     10  C   UNL     1     -25.691  -7.605 -29.002  1.00  0.00     0.040 C 
BRANCH  10  11
ATOM     11  C   UNL     1     -25.649  -6.579 -27.901  1.00  0.00    -0.040 A 
ATOM     12  C   UNL     1     -26.381  -5.386 -28.017  1.00  0.00     0.050 A 
ATOM     13  C   UNL     1     -24.924  -6.833 -26.725  1.00  0.00     0.050 A 
ATOM     14  C   UNL     1     -26.370  -4.447 -26.980  1.00  0.00     0.119 A 
ATOM     15  C   UNL     1     -24.913  -5.893 -25.685  1.00  0.00     0.119 A 
ATOM     16  C   UNL     1     -25.632  -4.701 -25.816  1.00  0.00     0.092 A 
BRANCH  14  17
ATOM     17  O   UNL     1     -27.096  -3.266 -27.115  1.00  0.00    -0.508 OA
ATOM     18  H   UNL     1     -27.227  -2.632 -26.335  1.00  0.00     0.293 HD
ENDBRANCH  14  17
BRANCH  15  19
ATOM     19  O   UNL     1     -24.190  -6.135 -24.519  1.00  0.00    -0.508 OA
ATOM     20  H   UNL     1     -24.402  -6.923 -23.918  1.00  0.00     0.293 HD
ENDBRANCH  15  19
ENDBRANCH  10  11
ENDBRANCH   1  10
TORSDOF 6
ENDMDL
MODEL 5
REMARK VINA RESULT:    -6.077      2.683      3.510
REMARK INTER + INTRA:          -8.489
REMARK INTER:                  -7.944
REMARK INTRA:                  -0.544
REMARK UNBOUND:                -0.814
REMARK SMILES Oc1ccc(CCc2cc(O)cc(O)c2)cc1
REMARK SMILES IDX 6 1 5 2 4 3 3 4 2 5 16 6 17 7 1 8 7 10 8 11 15 12 9 13 13 14
REMARK SMILES IDX 10 15 12 16 14 17 11 19
REMARK H PARENT 1 9 14 18 11 20
REMARK Flexibility Score: inf
ROOT
ATOM      1  C   UNL     1     -25.317  -9.036 -28.456  1.00  0.00     0.040 C 
ENDROOT
BRANCH   1   2
ATOM      2  C   UNL     1     -24.060  -9.521 -29.126  1.00  0.00    -0.047 A 
ATOM      3  C   UNL     1     -23.132  -8.603 -29.642  1.00  0.00     0.007 A 
ATOM      4  C   UNL     1     -21.979  -9.055 -30.293  1.00  0.00     0.046 A 
ATOM      5  C   UNL     1     -21.750 -10.429 -30.445  1.00  0.00     0.115 A 
ATOM      6  C   UNL     1     -23.831 -10.898 -29.291  1.00  0.00     0.007 A 
ATOM      7  C   UNL     1     -22.679 -11.347 -29.944  1.00  0.00     0.046 A 
BRANCH   5   8
ATOM      8  O   UNL     1     -20.606 -10.891 -31.092  1.00  0.00    -0.508 OA
ATOM      9  H   UNL     1     -19.707 -10.912 -30.627  1.00  0.00     0.293 HD
ENDBRANCH   5   8
ENDBRANCH   1   2
BRANCH   1  10
ATOM     10  C   UNL     1     -25.716  -7.659 -28.993  1.00  0.00     0.040 C 
BRANCH  10  11
ATOM     11  C   UNL     1     -25.706  -6.637 -27.888  1.00  0.00    -0.040 A 
ATOM     12  C   UNL     1     -24.969  -6.869 -26.716  1.00  0.00     0.050 A 
ATOM     13  C   UNL     1     -26.386  -5.418 -28.045  1.00  0.00     0.050 A 
ATOM     14  C   UNL     1     -24.931  -5.906 -25.702  1.00  0.00     0.119 A 
ATOM     15  C   UNL     1     -26.349  -4.452 -27.030  1.00  0.00     0.119 A 
ATOM     16  C   UNL     1     -25.625  -4.699 -25.860  1.00  0.00     0.092 A 
BRANCH  14  17
ATOM     17  O   UNL     1     -24.200  -6.157 -24.542  1.00  0.00    -0.508 OA
ATOM     18  H   UNL     1     -24.534  -5.863 -23.632  1.00  0.00     0.293 HD
ENDBRANCH  14  17
BRANCH  15  19
ATOM     19  O   UNL     1     -27.028  -3.244 -27.176  1.00  0.00    -0.508 OA
ATOM     20  H   UNL     1     -27.168  -2.822 -28.086  1.00  0.00     0.293 HD
ENDBRANCH  15  19
ENDBRANCH  10  11
ENDBRANCH   1  10
TORSDOF 6
ENDMDL
MODEL 6
REMARK VINA RESULT:    -6.054      2.818      6.571
REMARK INTER + INTRA:          -8.461
REMARK INTER:                  -7.688
REMARK INTRA:                  -0.773
REMARK UNBOUND:                -0.814
REMARK SMILES Oc1ccc(CCc2cc(O)cc(O)c2)cc1
REMARK SMILES IDX 6 1 5 2 4 3 3 4 2 5 16 6 17 7 1 8 7 10 8 11 15 12 9 13 13 14
REMARK SMILES IDX 10 15 12 16 14 17 11 19
REMARK H PARENT 1 9 14 18 11 20
REMARK Flexibility Score: inf
ROOT
ATOM      1  C   UNL     1     -27.801 -10.290 -27.712  1.00  0.00     0.040 C 
ENDROOT
BRANCH   1   2
ATOM      2  C   UNL     1     -27.358  -8.911 -28.123  1.00  0.00    -0.047 A 
ATOM      3  C   UNL     1     -26.203  -8.341 -27.563  1.00  0.00     0.007 A 
ATOM      4  C   UNL     1     -25.810  -7.048 -27.921  1.00  0.00     0.046 A 
ATOM      5  C   UNL     1     -26.572  -6.308 -28.835  1.00  0.00     0.115 A 
ATOM      6  C   UNL     1     -28.125  -8.161 -29.030  1.00  0.00     0.007 A 
ATOM      7  C   UNL     1     -27.731  -6.868 -29.386  1.00  0.00     0.046 A 
BRANCH   5   8
ATOM      8  O   UNL     1     -26.190  -5.020 -29.199  1.00  0.00    -0.508 OA
ATOM      9  H   UNL     1     -26.736  -4.210 -28.930  1.00  0.00     0.293 HD
ENDBRANCH   5   8
ENDBRANCH   1   2
BRANCH   1  10
ATOM     10  C   UNL     1     -26.638 -11.281 -27.810  1.00  0.00     0.040 C 
BRANCH  10  11
ATOM     11  C   UNL     1     -26.321 -11.583 -29.250  1.00  0.00    -0.040 A 
ATOM     12  C   UNL     1     -27.351 -11.898 -30.151  1.00  0.00     0.050 A 
ATOM     13  C   UNL     1     -24.998 -11.498 -29.715  1.00  0.00     0.050 A 
ATOM     14  C   UNL     1     -27.061 -12.147 -31.496  1.00  0.00     0.119 A 
ATOM     15  C   UNL     1     -24.706 -11.746 -31.064  1.00  0.00     0.119 A 
ATOM     16  C   UNL     1     -25.737 -12.074 -31.951  1.00  0.00     0.092 A 
BRANCH  14  17
ATOM     17  O   UNL     1     -28.096 -12.464 -32.375  1.00  0.00    -0.508 OA
ATOM     18  H   UNL     1     -28.085 -13.319 -32.918  1.00  0.00     0.293 HD
ENDBRANCH  14  17
BRANCH  15  19
ATOM     19  O   UNL     1     -23.396 -11.671 -31.532  1.00  0.00    -0.508 OA
ATOM     20  H   UNL     1     -23.192 -11.593 -32.521  1.00  0.00     0.293 HD
ENDBRANCH  15  19
ENDBRANCH  10  11
ENDBRANCH   1  10
TORSDOF 6
ENDMDL
MODEL 7
REMARK VINA RESULT:    -6.053      1.992      6.040
REMARK INTER + INTRA:          -8.459
REMARK INTER:                  -7.789
REMARK INTRA:                  -0.669
REMARK UNBOUND:                -0.814
REMARK SMILES Oc1ccc(CCc2cc(O)cc(O)c2)cc1
REMARK SMILES IDX 6 1 5 2 4 3 3 4 2 5 16 6 17 7 1 8 7 10 8 11 15 12 9 13 13 14
REMARK SMILES IDX 10 15 12 16 14 17 11 19
REMARK H PARENT 1 9 14 18 11 20
REMARK Flexibility Score: inf
ROOT
ATOM      1  C   UNL     1     -23.393  -8.795 -29.227  1.00  0.00     0.040 C 
ENDROOT
BRANCH   1   2
ATOM      2  C   UNL     1     -24.067  -7.697 -28.449  1.00  0.00    -0.047 A 
ATOM      3  C   UNL     1     -23.407  -7.083 -27.373  1.00  0.00     0.007 A 
ATOM      4  C   UNL     1     -24.046  -6.085 -26.630  1.00  0.00     0.046 A 
ATOM      5  C   UNL     1     -25.355  -5.699 -26.950  1.00  0.00     0.115 A 
ATOM      6  C   UNL     1     -25.383  -7.315 -28.758  1.00  0.00     0.007 A 
ATOM      7  C   UNL     1     -26.021  -6.318 -28.014  1.00  0.00     0.046 A 
BRANCH   5   8
ATOM      8  O   UNL     1     -26.002  -4.707 -26.218  1.00  0.00    -0.508 OA
ATOM      9  H   UNL     1     -26.420  -4.902 -25.316  1.00  0.00     0.293 HD
ENDBRANCH   5   8
ENDBRANCH   1   2
BRANCH   1  10
ATOM     10  C   UNL     1     -23.527 -10.133 -28.495  1.00  0.00     0.040 C 
BRANCH  10  11
ATOM     11  C   UNL     1     -24.752 -10.872 -28.962  1.00  0.00    -0.040 A 
ATOM     12  C   UNL     1     -25.873 -10.985 -28.123  1.00  0.00     0.050 A 
ATOM     13  C   UNL     1     -24.806 -11.403 -30.261  1.00  0.00     0.050 A 
ATOM     14  C   UNL     1     -27.025 -11.642 -28.568  1.00  0.00     0.119 A 
ATOM     15  C   UNL     1     -25.960 -12.061 -30.709  1.00  0.00     0.119 A 
ATOM     16  C   UNL     1     -27.066 -12.183 -29.860  1.00  0.00     0.092 A 
BRANCH  14  17
ATOM     17  O   UNL     1     -28.125 -11.751 -27.719  1.00  0.00    -0.508 OA
ATOM     18  H   UNL     1     -28.308 -11.062 -26.999  1.00  0.00     0.293 HD
ENDBRANCH  14  17
BRANCH  15  19
ATOM     19  O   UNL     1     -26.018 -12.597 -31.993  1.00  0.00    -0.508 OA
ATOM     20  H   UNL     1     -25.705 -12.071 -32.801  1.00  0.00     0.293 HD
ENDBRANCH  15  19
ENDBRANCH  10  11
ENDBRANCH   1  10
TORSDOF 6
ENDMDL
MODEL 8
REMARK VINA RESULT:    -6.053      1.354      2.648
REMARK INTER + INTRA:          -8.458
REMARK INTER:                  -7.901
REMARK INTRA:                  -0.558
REMARK UNBOUND:                -0.814
REMARK SMILES Oc1ccc(CCc2cc(O)cc(O)c2)cc1
REMARK SMILES IDX 6 1 5 2 4 3 3 4 2 5 16 6 17 7 1 8 7 10 8 11 15 12 9 13 13 14
REMARK SMILES IDX 10 15 12 16 14 17 11 19
REMARK H PARENT 1 9 14 18 11 20
REMARK Flexibility Score: inf
ROOT
ATOM      1  C   UNL     1     -23.852  -8.922 -28.505  1.00  0.00     0.040 C 
ENDROOT
BRANCH   1   2
ATOM      2  C   UNL     1     -24.751 -10.063 -28.897  1.00  0.00    -0.047 A 
ATOM      3  C   UNL     1     -24.502 -10.792 -30.071  1.00  0.00     0.007 A 
ATOM      4  C   UNL     1     -25.356 -11.831 -30.451  1.00  0.00     0.046 A 
ATOM      5  C   UNL     1     -26.474 -12.145 -29.668  1.00  0.00     0.115 A 
ATOM      6  C   UNL     1     -25.881 -10.375 -28.121  1.00  0.00     0.007 A 
ATOM      7  C   UNL     1     -26.734 -11.413 -28.504  1.00  0.00     0.046 A 
BRANCH   5   8
ATOM      8  O   UNL     1     -27.332 -13.178 -30.037  1.00  0.00    -0.508 OA
ATOM      9  H   UNL     1     -27.045 -14.148 -29.989  1.00  0.00     0.293 HD
ENDBRANCH   5   8
ENDBRANCH   1   2
BRANCH   1  10
ATOM     10  C   UNL     1     -24.340  -7.613 -29.131  1.00  0.00     0.040 C 
BRANCH  10  11
ATOM     11  C   UNL     1     -24.750  -6.636 -28.062  1.00  0.00    -0.040 A 
ATOM     12  C   UNL     1     -25.587  -5.553 -28.377  1.00  0.00     0.050 A 
ATOM     13  C   UNL     1     -24.345  -6.832 -26.731  1.00  0.00     0.050 A 
ATOM     14  C   UNL     1     -25.996  -4.663 -27.378  1.00  0.00     0.119 A 
ATOM     15  C   UNL     1     -24.755  -5.941 -25.730  1.00  0.00     0.119 A 
ATOM     16  C   UNL     1     -25.576  -4.856 -26.055  1.00  0.00     0.092 A 
BRANCH  14  17
ATOM     17  O   UNL     1     -26.821  -3.590 -27.710  1.00  0.00    -0.508 OA
ATOM     18  H   UNL     1     -27.806  -3.722 -27.910  1.00  0.00     0.293 HD
ENDBRANCH  14  17
BRANCH  15  19
ATOM     19  O   UNL     1     -24.352  -6.124 -24.409  1.00  0.00    -0.508 OA
ATOM     20  H   UNL     1     -24.089  -7.038 -24.058  1.00  0.00     0.293 HD
ENDBRANCH  15  19
ENDBRANCH  10  11
ENDBRANCH   1  10
TORSDOF 6
ENDMDL
MODEL 9
REMARK VINA RESULT:    -5.875      2.936      6.542
REMARK INTER + INTRA:          -8.234
REMARK INTER:                  -7.560
REMARK INTRA:                  -0.674
REMARK UNBOUND:                -0.814
REMARK SMILES Oc1ccc(CCc2cc(O)cc(O)c2)cc1
REMARK SMILES IDX 6 1 5 2 4 3 3 4 2 5 16 6 17 7 1 8 7 10 8 11 15 12 9 13 13 14
REMARK SMILES IDX 10 15 12 16 14 17 11 19
REMARK H PARENT 1 9 14 18 11 20
REMARK Flexibility Score: inf
ROOT
ATOM      1  C   UNL     1     -26.979 -10.108 -27.876  1.00  0.00     0.040 C 
ENDROOT
BRANCH   1   2
ATOM      2  C   UNL     1     -26.921  -8.627 -28.139  1.00  0.00    -0.047 A 
ATOM      3  C   UNL     1     -27.962  -7.989 -28.833  1.00  0.00     0.007 A 
ATOM      4  C   UNL     1     -27.893  -6.619 -29.105  1.00  0.00     0.046 A 
ATOM      5  C   UNL     1     -26.777  -5.876 -28.697  1.00  0.00     0.115 A 
ATOM      6  C   UNL     1     -25.800  -7.879 -27.742  1.00  0.00     0.007 A 
ATOM      7  C   UNL     1     -25.732  -6.511 -28.016  1.00  0.00     0.046 A 
BRANCH   5   8
ATOM      8  O   UNL     1     -26.697  -4.512 -28.963  1.00  0.00    -0.508 OA
ATOM      9  H   UNL     1     -25.848  -3.987 -28.787  1.00  0.00     0.293 HD
ENDBRANCH   5   8
ENDBRANCH   1   2
BRANCH   1  10
ATOM     10  C   UNL     1     -25.615 -10.754 -28.133  1.00  0.00     0.040 C 
BRANCH  10  11
ATOM     11  C   UNL     1     -25.519 -11.239 -29.554  1.00  0.00    -0.040 A 
ATOM     12  C   UNL     1     -24.266 -11.362 -30.177  1.00  0.00     0.050 A 
ATOM     13  C   UNL     1     -26.677 -11.628 -30.249  1.00  0.00     0.050 A 
ATOM     14  C   UNL     1     -24.173 -11.845 -31.486  1.00  0.00     0.119 A 
ATOM     15  C   UNL     1     -26.584 -12.112 -31.561  1.00  0.00     0.119 A 
ATOM     16  C   UNL     1     -25.333 -12.216 -32.179  1.00  0.00     0.092 A 
BRANCH  14  17
ATOM     17  O   UNL     1     -22.922 -11.953 -32.091  1.00  0.00    -0.508 OA
ATOM     18  H   UNL     1     -22.528 -11.193 -32.633  1.00  0.00     0.293 HD
ENDBRANCH  14  17
BRANCH  15  19
ATOM     19  O   UNL     1     -27.728 -12.492 -32.259  1.00  0.00    -0.508 OA
ATOM     20  H   UNL     1     -27.747 -12.515 -33.272  1.00  0.00     0.293 HD
ENDBRANCH  15  19
ENDBRANCH  10  11
ENDBRANCH   1  10
TORSDOF 6
ENDMDL
