MODEL 1
REMARK VINA RESULT:    -4.480      0.000      0.000
REMARK INTER + INTRA:          -6.110
REMARK INTER:                  -6.314
REMARK INTRA:                   0.204
REMARK UNBOUND:                 0.204
REMARK SMILES CC1=CCC(=C(C)C)C(=O)CC(C)=CCC1
REMARK SMILES IDX 12 1 14 2 13 3 15 4 16 5 2 6 1 7 3 8 11 10 9 11 10 12 5 13
REMARK SMILES IDX 6 14 7 15 8 16 4 17
REMARK H PARENT
REMARK Flexibility Score: 60.00
ROOT
ATOM      1  C   UNL     1     -15.891  14.652 -30.234  1.00  0.00    -0.070 C 
ATOM      2  C   UNL     1     -16.457  14.495 -29.018  1.00  0.00    -0.027 C 
ATOM      3  C   UNL     1     -14.835  15.718 -30.389  1.00  0.00     0.039 C 
ENDROOT
BRANCH   2   4
ATOM      4  C   UNL     1     -17.594  13.551 -28.689  1.00  0.00     0.032 C 
BRANCH   4   5
ATOM      5  C   UNL     1     -17.239  12.052 -28.779  1.00  0.00     0.034 C 
BRANCH   5   6
ATOM      6  C   UNL     1     -15.856  11.733 -28.241  1.00  0.00    -0.077 C 
ATOM      7  C   UNL     1     -15.626  11.896 -26.760  1.00  0.00     0.039 C 
ATOM      8  C   UNL     1     -14.800  11.377 -29.011  1.00  0.00    -0.023 CG0
ATOM      9  G   UNL     1     -14.799  11.135 -30.508  1.00  0.00     0.000 G0
ENDBRANCH   5   6
ENDBRANCH   4   5
ENDBRANCH   2   4
BRANCH   1  10
ATOM     10  C   UNL     1     -16.327  13.877 -31.461  1.00  0.00     0.111 C 
BRANCH  10  11
ATOM     11  C   UNL     1     -15.175  13.140 -32.092  1.00  0.00     0.163 C 
ATOM     12  O   UNL     1     -15.062  13.177 -33.347  1.00  0.00    -0.294 OA
BRANCH  11  13
ATOM     13  C   UNL     1     -14.212  12.326 -31.293  1.00  0.00    -0.002 C 
ATOM     14  C   UNL     1     -12.872  12.593 -31.332  1.00  0.00    -0.069 C 
ATOM     15  C   UNL     1     -12.334  13.810 -32.052  1.00  0.00     0.039 C 
ATOM     16  C   UNL     1     -11.857  11.693 -30.662  1.00  0.00     0.039 C 
BRANCH  13  17
ATOM     17  C   UNL     1     -14.773  11.142 -30.523  1.00  0.00     0.066 CG0
ATOM     18  G   UNL     1     -14.782  11.381 -29.025  1.00  0.00     0.000 G0
ENDBRANCH  13  17
ENDBRANCH  11  13
ENDBRANCH  10  11
ENDBRANCH   1  10
TORSDOF 0
ENDMDL
MODEL 2
REMARK VINA RESULT:    -4.200      1.933      3.937
REMARK INTER + INTRA:          -5.716
REMARK INTER:                  -5.920
REMARK INTRA:                   0.204
REMARK UNBOUND:                 0.204
REMARK SMILES CC1=CCC(=C(C)C)C(=O)CC(C)=CCC1
REMARK SMILES IDX 12 1 14 2 13 3 15 4 16 5 2 6 1 7 3 8 11 10 9 11 10 12 5 13
REMARK SMILES IDX 6 14 7 15 8 16 4 17
REMARK H PARENT
REMARK Flexibility Score: 60.00
ROOT
ATOM      1  C   UNL     1     -17.935  12.552 -29.916  1.00  0.00    -0.070 C 
ATOM      2  C   UNL     1     -17.808  13.210 -31.089  1.00  0.00    -0.027 C 
ATOM      3  C   UNL     1     -19.250  11.873 -29.626  1.00  0.00     0.039 C 
ENDROOT
BRANCH   2   4
ATOM      4  C   UNL     1     -16.610  14.030 -31.517  1.00  0.00     0.032 C 
BRANCH   4   5
ATOM      5  C   UNL     1     -15.404  13.204 -32.011  1.00  0.00     0.034 C 
BRANCH   5   6
ATOM      6  C   UNL     1     -14.116  13.528 -31.276  1.00  0.00    -0.077 C 
ATOM      7  C   UNL     1     -13.503  14.887 -31.502  1.00  0.00     0.039 C 
ATOM      8  C   UNL     1     -13.447  12.655 -30.485  1.00  0.00    -0.023 CG0
ATOM      9  G   UNL     1     -13.877  11.252 -30.102  1.00  0.00     0.000 G0
ENDBRANCH   5   6
ENDBRANCH   4   5
ENDBRANCH   2   4
BRANCH   1  10
ATOM     10  C   UNL     1     -16.860  12.543 -28.848  1.00  0.00     0.111 C 
BRANCH  10  11
ATOM     11  C   UNL     1     -16.099  11.244 -28.837  1.00  0.00     0.163 C 
ATOM     12  O   UNL     1     -16.758  10.169 -28.828  1.00  0.00    -0.294 OA
BRANCH  11  13
ATOM     13  C   UNL     1     -14.608  11.190 -28.773  1.00  0.00    -0.002 C 
ATOM     14  C   UNL     1     -13.960  11.184 -27.569  1.00  0.00    -0.069 C 
ATOM     15  C   UNL     1     -14.724  11.073 -26.267  1.00  0.00     0.039 C 
ATOM     16  C   UNL     1     -12.454  11.290 -27.470  1.00  0.00     0.039 C 
BRANCH  13  17
ATOM     17  C   UNL     1     -13.852  11.239 -30.091  1.00  0.00     0.066 CG0
ATOM     18  G   UNL     1     -13.449  12.651 -30.471  1.00  0.00     0.000 G0
ENDBRANCH  13  17
ENDBRANCH  11  13
ENDBRANCH  10  11
ENDBRANCH   1  10
TORSDOF 0
ENDMDL
MODEL 3
REMARK VINA RESULT:    -3.862      1.663      3.051
REMARK INTER + INTRA:          -5.239
REMARK INTER:                  -5.828
REMARK INTRA:                   0.589
REMARK UNBOUND:                 0.204
REMARK SMILES CC1=CCC(=C(C)C)C(=O)CC(C)=CCC1
REMARK SMILES IDX 12 1 14 2 13 3 15 4 16 5 2 6 1 7 3 8 11 10 9 11 10 12 5 13
REMARK SMILES IDX 6 14 7 15 8 16 4 17
REMARK H PARENT
REMARK Flexibility Score: 60.00
ROOT
ATOM      1  C   UNL     1     -15.002  13.470 -31.347  1.00  0.00    -0.070 C 
ATOM      2  C   UNL     1     -16.098  14.036 -30.797  1.00  0.00    -0.027 C 
ATOM      3  C   UNL     1     -15.002  13.237 -32.837  1.00  0.00     0.039 C 
ENDROOT
BRANCH   2   4
ATOM      4  C   UNL     1     -16.327  14.260 -29.317  1.00  0.00     0.032 C 
BRANCH   4   5
ATOM      5  C   UNL     1     -17.589  13.579 -28.747  1.00  0.00     0.034 C 
BRANCH   5   6
ATOM      6  C   UNL     1     -17.544  12.065 -28.839  1.00  0.00    -0.077 C 
ATOM      7  C   UNL     1     -18.705  11.369 -29.504  1.00  0.00     0.039 C 
ATOM      8  C   UNL     1     -16.565  11.295 -28.306  1.00  0.00    -0.023 CG0
ATOM      9  G   UNL     1     -15.302  11.770 -27.614  1.00  0.00     0.000 G0
ENDBRANCH   5   6
ENDBRANCH   4   5
ENDBRANCH   2   4
BRANCH   1  10
ATOM     10  C   UNL     1     -13.822  12.979 -30.534  1.00  0.00     0.111 C 
BRANCH  10  11
ATOM     11  C   UNL     1     -14.108  11.649 -29.886  1.00  0.00     0.163 C 
ATOM     12  O   UNL     1     -14.468  10.694 -30.625  1.00  0.00    -0.294 OA
BRANCH  11  13
ATOM     13  C   UNL     1     -14.040  11.447 -28.408  1.00  0.00    -0.002 C 
ATOM     14  C   UNL     1     -12.925  10.911 -27.827  1.00  0.00    -0.069 C 
ATOM     15  C   UNL     1     -11.669  10.652 -28.630  1.00  0.00     0.039 C 
ATOM     16  C   UNL     1     -12.883  10.548 -26.359  1.00  0.00     0.039 C 
BRANCH  13  17
ATOM     17  C   UNL     1     -15.289  11.770 -27.603  1.00  0.00     0.066 CG0
ATOM     18  G   UNL     1     -16.556  11.303 -28.293  1.00  0.00     0.000 G0
ENDBRANCH  13  17
ENDBRANCH  11  13
ENDBRANCH  10  11
ENDBRANCH   1  10
TORSDOF 0
ENDMDL
MODEL 4
REMARK VINA RESULT:    -3.599      1.546      2.217
REMARK INTER + INTRA:          -4.868
REMARK INTER:                  -5.484
REMARK INTRA:                   0.616
REMARK UNBOUND:                 0.204
REMARK SMILES CC1=CCC(=C(C)C)C(=O)CC(C)=CCC1
REMARK SMILES IDX 12 1 14 2 13 3 15 4 16 5 2 6 1 7 3 8 11 10 9 11 10 12 5 13
REMARK SMILES IDX 6 14 7 15 8 16 4 17
REMARK H PARENT
REMARK Flexibility Score: 60.00
ROOT
ATOM      1  C   UNL     1     -16.378  13.570 -31.446  1.00  0.00    -0.070 C 
ATOM      2  C   UNL     1     -17.493  12.826 -31.283  1.00  0.00    -0.027 C 
ATOM      3  C   UNL     1     -15.526  13.307 -32.663  1.00  0.00     0.039 C 
ENDROOT
BRANCH   2   4
ATOM      4  C   UNL     1     -18.418  12.873 -30.085  1.00  0.00     0.032 C 
BRANCH   4   5
ATOM      5  C   UNL     1     -17.750  12.528 -28.737  1.00  0.00     0.034 C 
BRANCH   5   6
ATOM      6  C   UNL     1     -16.862  11.300 -28.808  1.00  0.00    -0.077 C 
ATOM      7  C   UNL     1     -17.522   9.973 -29.089  1.00  0.00     0.039 C 
ATOM      8  C   UNL     1     -15.528  11.305 -28.568  1.00  0.00    -0.023 CG0
ATOM      9  G   UNL     1     -14.655  12.513 -28.285  1.00  0.00     0.000 G0
ENDBRANCH   5   6
ENDBRANCH   4   5
ENDBRANCH   2   4
BRANCH   1  10
ATOM     10  C   UNL     1     -15.897  14.583 -30.427  1.00  0.00     0.111 C 
BRANCH  10  11
ATOM     11  C   UNL     1     -14.452  14.361 -30.062  1.00  0.00     0.163 C 
ATOM     12  O   UNL     1     -13.635  15.297 -30.274  1.00  0.00    -0.294 OA
BRANCH  11  13
ATOM     13  C   UNL     1     -13.953  13.061 -29.524  1.00  0.00    -0.002 C 
ATOM     14  C   UNL     1     -12.982  12.358 -30.182  1.00  0.00    -0.069 C 
ATOM     15  C   UNL     1     -12.271  12.940 -31.384  1.00  0.00     0.039 C 
ATOM     16  C   UNL     1     -12.568  10.968 -29.751  1.00  0.00     0.039 C 
BRANCH  13  17
ATOM     17  C   UNL     1     -14.634  12.515 -28.279  1.00  0.00     0.066 CG0
ATOM     18  G   UNL     1     -15.519  11.322 -28.582  1.00  0.00     0.000 G0
ENDBRANCH  13  17
ENDBRANCH  11  13
ENDBRANCH  10  11
ENDBRANCH   1  10
TORSDOF 0
ENDMDL
MODEL 5
REMARK VINA RESULT:    -3.574      1.797      3.434
REMARK INTER + INTRA:          -4.832
REMARK INTER:                  -5.965
REMARK INTRA:                   1.132
REMARK UNBOUND:                 0.204
REMARK SMILES CC1=CCC(=C(C)C)C(=O)CC(C)=CCC1
REMARK SMILES IDX 12 1 14 2 13 3 15 4 16 5 2 6 1 7 3 8 11 10 9 11 10 12 5 13
REMARK SMILES IDX 6 14 7 15 8 16 4 17
REMARK H PARENT
REMARK Flexibility Score: 60.00
ROOT
ATOM      1  C   UNL     1     -13.627  11.706 -27.765  1.00  0.00    -0.070 C 
ATOM      2  C   UNL     1     -14.845  11.301 -27.344  1.00  0.00    -0.027 C 
ATOM      3  C   UNL     1     -12.713  12.358 -26.757  1.00  0.00     0.039 C 
ENDROOT
BRANCH   2   4
ATOM      4  C   UNL     1     -15.933  10.719 -28.221  1.00  0.00     0.032 C 
BRANCH   4   5
ATOM      5  C   UNL     1     -17.329  11.346 -28.023  1.00  0.00     0.034 C 
BRANCH   5   6
ATOM      6  C   UNL     1     -17.816  12.113 -29.239  1.00  0.00    -0.077 C 
ATOM      7  C   UNL     1     -19.055  11.609 -29.935  1.00  0.00     0.039 C 
ATOM      8  C   UNL     1     -17.176  13.179 -29.778  1.00  0.00    -0.023 CG0
ATOM      9  G   UNL     1     -15.935  13.867 -29.243  1.00  0.00     0.000 G0
ENDBRANCH   5   6
ENDBRANCH   4   5
ENDBRANCH   2   4
BRANCH   1  10
ATOM     10  C   UNL     1     -13.175  11.622 -29.209  1.00  0.00     0.111 C 
BRANCH  10  11
ATOM     11  C   UNL     1     -14.217  12.169 -30.150  1.00  0.00     0.163 C 
ATOM     12  O   UNL     1     -14.655  11.410 -31.056  1.00  0.00    -0.294 OA
BRANCH  11  13
ATOM     13  C   UNL     1     -14.694  13.582 -30.082  1.00  0.00    -0.002 C 
ATOM     14  C   UNL     1     -13.988  14.587 -30.682  1.00  0.00    -0.069 C 
ATOM     15  C   UNL     1     -12.794  14.290 -31.563  1.00  0.00     0.039 C 
ATOM     16  C   UNL     1     -14.357  16.043 -30.500  1.00  0.00     0.039 C 
BRANCH  13  17
ATOM     17  C   UNL     1     -15.932  13.859 -29.244  1.00  0.00     0.066 CG0
ATOM     18  G   UNL     1     -17.166  13.170 -29.793  1.00  0.00     0.000 G0
ENDBRANCH  13  17
ENDBRANCH  11  13
ENDBRANCH  10  11
ENDBRANCH   1  10
TORSDOF 0
ENDMDL
MODEL 6
REMARK VINA RESULT:    -3.546      2.197      3.603
REMARK INTER + INTRA:          -4.793
REMARK INTER:                  -5.364
REMARK INTRA:                   0.570
REMARK UNBOUND:                 0.204
REMARK SMILES CC1=CCC(=C(C)C)C(=O)CC(C)=CCC1
REMARK SMILES IDX 12 1 14 2 13 3 15 4 16 5 2 6 1 7 3 8 11 10 9 11 10 12 5 13
REMARK SMILES IDX 6 14 7 15 8 16 4 17
REMARK H PARENT
REMARK Flexibility Score: 60.00
ROOT
ATOM      1  C   UNL     1     -15.197  11.469 -28.013  1.00  0.00    -0.070 C 
ATOM      2  C   UNL     1     -15.853  10.301 -28.185  1.00  0.00    -0.027 C 
ATOM      3  C   UNL     1     -13.692  11.455 -28.118  1.00  0.00     0.039 C 
ENDROOT
BRANCH   2   4
ATOM      4  C   UNL     1     -17.344  10.094 -28.023  1.00  0.00     0.032 C 
BRANCH   4   5
ATOM      5  C   UNL     1     -18.137  10.040 -29.345  1.00  0.00     0.034 C 
BRANCH   5   6
ATOM      6  C   UNL     1     -18.710  11.384 -29.754  1.00  0.00    -0.077 C 
ATOM      7  C   UNL     1     -20.147  11.672 -29.395  1.00  0.00     0.039 C 
ATOM      8  C   UNL     1     -18.040  12.314 -30.476  1.00  0.00    -0.023 CG0
ATOM      9  G   UNL     1     -16.594  12.251 -30.929  1.00  0.00     0.000 G0
ENDBRANCH   5   6
ENDBRANCH   4   5
ENDBRANCH   2   4
BRANCH   1  10
ATOM     10  C   UNL     1     -15.887  12.763 -27.633  1.00  0.00     0.111 C 
BRANCH  10  11
ATOM     11  C   UNL     1     -16.090  13.657 -28.828  1.00  0.00     0.163 C 
ATOM     12  O   UNL     1     -16.663  14.766 -28.650  1.00  0.00    -0.294 OA
BRANCH  11  13
ATOM     13  C   UNL     1     -15.695  13.249 -30.209  1.00  0.00    -0.002 C 
ATOM     14  C   UNL     1     -14.631  13.838 -30.834  1.00  0.00    -0.069 C 
ATOM     15  C   UNL     1     -13.726  14.803 -30.100  1.00  0.00     0.039 C 
ATOM     16  C   UNL     1     -14.303  13.563 -32.285  1.00  0.00     0.039 C 
BRANCH  13  17
ATOM     17  C   UNL     1     -16.578  12.232 -30.914  1.00  0.00     0.066 CG0
ATOM     18  G   UNL     1     -18.027  12.325 -30.475  1.00  0.00     0.000 G0
ENDBRANCH  13  17
ENDBRANCH  11  13
ENDBRANCH  10  11
ENDBRANCH   1  10
TORSDOF 0
ENDMDL
MODEL 7
REMARK VINA RESULT:    -3.510      1.943      3.923
REMARK INTER + INTRA:          -4.743
REMARK INTER:                  -5.549
REMARK INTRA:                   0.806
REMARK UNBOUND:                 0.204
REMARK SMILES CC1=CCC(=C(C)C)C(=O)CC(C)=CCC1
REMARK SMILES IDX 12 1 14 2 13 3 15 4 16 5 2 6 1 7 3 8 11 10 9 11 10 12 5 13
REMARK SMILES IDX 6 14 7 15 8 16 4 17
REMARK H PARENT
REMARK Flexibility Score: 60.00
ROOT
ATOM      1  C   UNL     1     -14.691  13.905 -30.590  1.00  0.00    -0.070 C 
ATOM      2  C   UNL     1     -13.975  12.773 -30.761  1.00  0.00    -0.027 C 
ATOM      3  C   UNL     1     -13.934  15.194 -30.382  1.00  0.00     0.039 C 
ENDROOT
BRANCH   2   4
ATOM      4  C   UNL     1     -14.547  11.377 -30.886  1.00  0.00     0.032 C 
BRANCH   4   5
ATOM      5  C   UNL     1     -14.675  10.608 -29.554  1.00  0.00     0.034 C 
BRANCH   5   6
ATOM      6  C   UNL     1     -14.093  11.361 -28.372  1.00  0.00    -0.077 C 
ATOM      7  C   UNL     1     -12.591  11.448 -28.268  1.00  0.00     0.039 C 
ATOM      8  C   UNL     1     -14.829  11.900 -27.370  1.00  0.00    -0.023 CG0
ATOM      9  G   UNL     1     -16.342  11.950 -27.272  1.00  0.00     0.000 G0
ENDBRANCH   5   6
ENDBRANCH   4   5
ENDBRANCH   2   4
BRANCH   1  10
ATOM     10  C   UNL     1     -16.203  13.928 -30.504  1.00  0.00     0.111 C 
BRANCH  10  11
ATOM     11  C   UNL     1     -16.683  13.728 -29.090  1.00  0.00     0.163 C 
ATOM     12  O   UNL     1     -16.739  14.734 -28.333  1.00  0.00    -0.294 OA
BRANCH  11  13
ATOM     13  C   UNL     1     -17.029  12.381 -28.545  1.00  0.00    -0.002 C 
ATOM     14  C   UNL     1     -17.975  11.604 -29.153  1.00  0.00    -0.069 C 
ATOM     15  C   UNL     1     -18.589  12.006 -30.476  1.00  0.00     0.039 C 
ATOM     16  C   UNL     1     -18.461  10.309 -28.540  1.00  0.00     0.039 C 
BRANCH  13  17
ATOM     17  C   UNL     1     -16.358  11.963 -27.247  1.00  0.00     0.066 CG0
ATOM     18  G   UNL     1     -14.847  11.913 -27.368  1.00  0.00     0.000 G0
ENDBRANCH  13  17
ENDBRANCH  11  13
ENDBRANCH  10  11
ENDBRANCH   1  10
TORSDOF 0
ENDMDL
MODEL 8
REMARK VINA RESULT:    -3.204      1.414      2.439
REMARK INTER + INTRA:          -4.312
REMARK INTER:                  -5.685
REMARK INTRA:                   1.373
REMARK UNBOUND:                 0.204
REMARK SMILES CC1=CCC(=C(C)C)C(=O)CC(C)=CCC1
REMARK SMILES IDX 12 1 14 2 13 3 15 4 16 5 2 6 1 7 3 8 11 10 9 11 10 12 5 13
REMARK SMILES IDX 6 14 7 15 8 16 4 17
REMARK H PARENT
REMARK Flexibility Score: 60.00
ROOT
ATOM      1  C   UNL     1     -18.178  12.311 -29.438  1.00  0.00    -0.070 C 
ATOM      2  C   UNL     1     -18.051  10.972 -29.311  1.00  0.00    -0.027 C 
ATOM      3  C   UNL     1     -19.555  12.866 -29.709  1.00  0.00     0.039 C 
ENDROOT
BRANCH   2   4
ATOM      4  C   UNL     1     -16.747  10.223 -29.135  1.00  0.00     0.032 C 
BRANCH   4   5
ATOM      5  C   UNL     1     -16.081  10.398 -27.755  1.00  0.00     0.034 C 
BRANCH   5   6
ATOM      6  C   UNL     1     -14.600  10.719 -27.843  1.00  0.00    -0.077 C 
ATOM      7  C   UNL     1     -13.791  10.652 -26.572  1.00  0.00     0.039 C 
ATOM      8  C   UNL     1     -13.971  11.125 -28.973  1.00  0.00    -0.023 CG0
ATOM      9  G   UNL     1     -14.572  11.247 -30.360  1.00  0.00     0.000 G0
ENDBRANCH   5   6
ENDBRANCH   4   5
ENDBRANCH   2   4
BRANCH   1  10
ATOM     10  C   UNL     1     -17.001  13.265 -29.413  1.00  0.00     0.111 C 
BRANCH  10  11
ATOM     11  C   UNL     1     -16.214  13.210 -30.695  1.00  0.00     0.163 C 
ATOM     12  O   UNL     1     -16.792  13.549 -31.763  1.00  0.00    -0.294 OA
BRANCH  11  13
ATOM     13  C   UNL     1     -14.807  12.712 -30.750  1.00  0.00    -0.002 C 
ATOM     14  C   UNL     1     -13.799  13.515 -31.206  1.00  0.00    -0.069 C 
ATOM     15  C   UNL     1     -14.040  14.975 -31.520  1.00  0.00     0.039 C 
ATOM     16  C   UNL     1     -12.396  12.993 -31.424  1.00  0.00     0.039 C 
BRANCH  13  17
ATOM     17  C   UNL     1     -14.568  11.258 -30.374  1.00  0.00     0.066 CG0
ATOM     18  G   UNL     1     -13.956  11.114 -28.994  1.00  0.00     0.000 G0
ENDBRANCH  13  17
ENDBRANCH  11  13
ENDBRANCH  10  11
ENDBRANCH   1  10
TORSDOF 0
ENDMDL
MODEL 9
REMARK VINA RESULT:    -2.963     10.795     12.631
REMARK INTER + INTRA:          -3.972
REMARK INTER:                  -4.350
REMARK INTRA:                   0.378
REMARK UNBOUND:                 0.204
REMARK SMILES CC1=CCC(=C(C)C)C(=O)CC(C)=CCC1
REMARK SMILES IDX 12 1 14 2 13 3 15 4 16 5 2 6 1 7 3 8 11 10 9 11 10 12 5 13
REMARK SMILES IDX 6 14 7 15 8 16 4 17
REMARK H PARENT
REMARK Flexibility Score: 60.00
ROOT
ATOM      1  C   UNL     1     -25.859  17.096 -30.836  1.00  0.00    -0.070 C 
ATOM      2  C   UNL     1     -27.014  17.359 -31.483  1.00  0.00    -0.027 C 
ATOM      3  C   UNL     1     -25.644  15.697 -30.315  1.00  0.00     0.039 C 
ENDROOT
BRANCH   2   4
ATOM      4  C   UNL     1     -27.454  18.716 -31.990  1.00  0.00     0.032 C 
BRANCH   4   5
ATOM      5  C   UNL     1     -27.082  19.010 -33.459  1.00  0.00     0.034 C 
BRANCH   5   6
ATOM      6  C   UNL     1     -26.509  20.400 -33.663  1.00  0.00    -0.077 C 
ATOM      7  C   UNL     1     -27.479  21.551 -33.763  1.00  0.00     0.039 C 
ATOM      8  C   UNL     1     -25.191  20.667 -33.828  1.00  0.00    -0.023 CG0
ATOM      9  G   UNL     1     -24.041  19.682 -33.749  1.00  0.00     0.000 G0
ENDBRANCH   5   6
ENDBRANCH   4   5
ENDBRANCH   2   4
BRANCH   1  10
ATOM     10  C   UNL     1     -24.818  18.154 -30.529  1.00  0.00     0.111 C 
BRANCH  10  11
ATOM     11  C   UNL     1     -23.790  18.257 -31.625  1.00  0.00     0.163 C 
ATOM     12  O   UNL     1     -23.119  17.228 -31.909  1.00  0.00    -0.294 OA
BRANCH  11  13
ATOM     13  C   UNL     1     -23.501  19.539 -32.334  1.00  0.00    -0.002 C 
ATOM     14  C   UNL     1     -22.853  20.559 -31.695  1.00  0.00    -0.069 C 
ATOM     15  C   UNL     1     -22.269  20.374 -30.311  1.00  0.00     0.039 C 
ATOM     16  C   UNL     1     -22.685  21.922 -32.329  1.00  0.00     0.039 C 
BRANCH  13  17
ATOM     17  C   UNL     1     -24.039  19.690 -33.747  1.00  0.00     0.066 CG0
ATOM     18  G   UNL     1     -25.182  20.684 -33.826  1.00  0.00     0.000 G0
ENDBRANCH  13  17
ENDBRANCH  11  13
ENDBRANCH  10  11
ENDBRANCH   1  10
TORSDOF 0
ENDMDL
