MODEL 1
REMARK VINA RESULT:    -0.544      0.000      0.000
REMARK INTER + INTRA:          -1.854
REMARK INTER:                  -0.990
REMARK INTRA:                  -0.865
REMARK UNBOUND:                -0.865
REMARK SMILES CCCCCCCCCCCCCCCC(=O)[O-]
REMARK SMILES IDX 9 1 10 2 11 3 12 4 13 5 14 6 15 7 16 8 17 9 18 10 8 11 7 12
REMARK SMILES IDX 6 13 5 14 4 15 3 16 2 17 1 18
REMARK H PARENT
REMARK Flexibility Score: inf
ROOT
ATOM      1  C   UNL     1      -4.789  35.113  21.485  1.00  0.00     0.000 C 
ENDROOT
BRANCH   1   2
ATOM      2  C   UNL     1      -4.720  34.661  22.952  1.00  0.00     0.000 C 
BRANCH   2   3
ATOM      3  C   UNL     1      -6.105  34.574  23.610  1.00  0.00     0.000 C 
BRANCH   3   4
ATOM      4  C   UNL     1      -6.121  35.317  24.955  1.00  0.00     0.000 C 
BRANCH   4   5
ATOM      5  C   UNL     1      -5.512  36.729  24.869  1.00  0.00     0.000 C 
BRANCH   5   6
ATOM      6  C   UNL     1      -6.125  37.636  23.788  1.00  0.00     0.006 C 
BRANCH   6   7
ATOM      7  C   UNL     1      -5.410  38.988  23.665  1.00  0.00     0.053 C 
BRANCH   7   8
ATOM      8  C   UNL     1      -5.416  39.454  22.243  1.00  0.00     0.041 C 
ATOM      9  O   UNL     1      -5.509  40.682  21.980  1.00  0.00    -0.550 OA
ATOM     10  O   UNL     1      -5.267  38.538  21.209  1.00  0.00    -0.550 OA
ENDBRANCH   7   8
ENDBRANCH   6   7
ENDBRANCH   5   6
ENDBRANCH   4   5
ENDBRANCH   3   4
ENDBRANCH   2   3
ENDBRANCH   1   2
BRANCH   1  11
ATOM     11  C   UNL     1      -6.111  34.726  20.806  1.00  0.00     0.000 C 
BRANCH  11  12
ATOM     12  C   UNL     1      -5.963  34.726  19.277  1.00  0.00    -0.000 C 
BRANCH  12  13
ATOM     13  C   UNL     1      -4.537  35.074  18.820  1.00  0.00    -0.000 C 
BRANCH  13  14
ATOM     14  C   UNL     1      -4.228  34.566  17.404  1.00  0.00    -0.000 C 
BRANCH  14  15
ATOM     15  C   UNL     1      -3.951  35.738  16.450  1.00  0.00    -0.000 C 
BRANCH  15  16
ATOM     16  C   UNL     1      -2.878  35.412  15.395  1.00  0.00    -0.000 C 
BRANCH  16  17
ATOM     17  C   UNL     1      -2.777  36.424  14.240  1.00  0.00    -0.003 C 
ATOM     18  C   UNL     1      -4.095  37.147  13.962  1.00  0.00     0.004 C 
ENDBRANCH  16  17
ENDBRANCH  15  16
ENDBRANCH  14  15
ENDBRANCH  13  14
ENDBRANCH  12  13
ENDBRANCH  11  12
ENDBRANCH   1  11
TORSDOF 14
ENDMDL
MODEL 2
REMARK VINA RESULT:     0.014      2.650      7.099
REMARK INTER + INTRA:          -0.840
REMARK INTER:                   0.234
REMARK INTRA:                  -1.073
REMARK UNBOUND:                -0.865
REMARK SMILES CCCCCCCCCCCCCCCC(=O)[O-]
REMARK SMILES IDX 9 1 10 2 11 3 12 4 13 5 14 6 15 7 16 8 17 9 18 10 8 11 7 12
REMARK SMILES IDX 6 13 5 14 4 15 3 16 2 17 1 18
REMARK H PARENT
REMARK Flexibility Score: inf
ROOT
ATOM      1  C   UNL     1      -5.218  35.586  22.274  1.00  0.00     0.000 C 
ENDROOT
BRANCH   1   2
ATOM      2  C   UNL     1      -4.603  35.290  20.897  1.00  0.00     0.000 C 
BRANCH   2   3
ATOM      3  C   UNL     1      -5.551  35.635  19.739  1.00  0.00     0.000 C 
BRANCH   3   4
ATOM      4  C   UNL     1      -5.855  34.392  18.890  1.00  0.00     0.000 C 
BRANCH   4   5
ATOM      5  C   UNL     1      -4.799  34.134  17.800  1.00  0.00     0.000 C 
BRANCH   5   6
ATOM      6  C   UNL     1      -4.211  35.400  17.152  1.00  0.00     0.006 C 
BRANCH   6   7
ATOM      7  C   UNL     1      -3.091  35.094  16.150  1.00  0.00     0.053 C 
BRANCH   7   8
ATOM      8  C   UNL     1      -3.108  36.085  15.029  1.00  0.00     0.041 C 
ATOM      9  O   UNL     1      -4.080  36.874  14.896  1.00  0.00    -0.550 OA
ATOM     10  O   UNL     1      -2.027  36.171  14.159  1.00  0.00    -0.550 OA
ENDBRANCH   7   8
ENDBRANCH   6   7
ENDBRANCH   5   6
ENDBRANCH   4   5
ENDBRANCH   3   4
ENDBRANCH   2   3
ENDBRANCH   1   2
BRANCH   1  11
ATOM     11  C   UNL     1      -5.531  34.310  23.070  1.00  0.00     0.000 C 
BRANCH  11  12
ATOM     12  C   UNL     1      -5.856  34.643  24.533  1.00  0.00    -0.000 C 
BRANCH  12  13
ATOM     13  C   UNL     1      -6.125  36.140  24.755  1.00  0.00    -0.000 C 
BRANCH  13  14
ATOM     14  C   UNL     1      -4.973  36.848  25.484  1.00  0.00    -0.000 C 
BRANCH  14  15
ATOM     15  C   UNL     1      -4.832  38.301  25.006  1.00  0.00    -0.000 C 
BRANCH  15  16
ATOM     16  C   UNL     1      -5.750  38.632  23.815  1.00  0.00    -0.000 C 
BRANCH  16  17
ATOM     17  C   UNL     1      -5.104  39.501  22.722  1.00  0.00    -0.003 C 
ATOM     18  C   UNL     1      -5.395  38.998  21.308  1.00  0.00     0.004 C 
ENDBRANCH  16  17
ENDBRANCH  15  16
ENDBRANCH  14  15
ENDBRANCH  13  14
ENDBRANCH  12  13
ENDBRANCH  11  12
ENDBRANCH   1  11
TORSDOF 14
ENDMDL
MODEL 3
REMARK VINA RESULT:     0.373      2.810      7.630
REMARK INTER + INTRA:          -0.187
REMARK INTER:                   0.535
REMARK INTRA:                  -0.723
REMARK UNBOUND:                -0.865
REMARK SMILES CCCCCCCCCCCCCCCC(=O)[O-]
REMARK SMILES IDX 9 1 10 2 11 3 12 4 13 5 14 6 15 7 16 8 17 9 18 10 8 11 7 12
REMARK SMILES IDX 6 13 5 14 4 15 3 16 2 17 1 18
REMARK H PARENT
REMARK Flexibility Score: inf
ROOT
ATOM      1  C   UNL     1      -5.540  37.511  21.279  1.00  0.00     0.000 C 
ENDROOT
BRANCH   1   2
ATOM      2  C   UNL     1      -5.359  36.955  19.857  1.00  0.00     0.000 C 
BRANCH   2   3
ATOM      3  C   UNL     1      -4.734  35.552  19.846  1.00  0.00     0.000 C 
BRANCH   3   4
ATOM      4  C   UNL     1      -5.467  34.633  18.859  1.00  0.00     0.000 C 
BRANCH   4   5
ATOM      5  C   UNL     1      -4.605  34.242  17.645  1.00  0.00     0.000 C 
BRANCH   5   6
ATOM      6  C   UNL     1      -3.893  35.416  16.949  1.00  0.00     0.006 C 
BRANCH   6   7
ATOM      7  C   UNL     1      -3.144  34.993  15.679  1.00  0.00     0.053 C 
BRANCH   7   8
ATOM      8  C   UNL     1      -3.174  36.093  14.665  1.00  0.00     0.041 C 
ATOM      9  O   UNL     1      -4.242  36.721  14.443  1.00  0.00    -0.550 OA
ATOM     10  O   UNL     1      -2.009  36.458  14.000  1.00  0.00    -0.550 OA
ENDBRANCH   7   8
ENDBRANCH   6   7
ENDBRANCH   5   6
ENDBRANCH   4   5
ENDBRANCH   3   4
ENDBRANCH   2   3
ENDBRANCH   1   2
BRANCH   1  11
ATOM     11  C   UNL     1      -5.495  39.045  21.326  1.00  0.00     0.000 C 
BRANCH  11  12
ATOM     12  C   UNL     1      -4.891  39.535  22.650  1.00  0.00    -0.000 C 
BRANCH  12  13
ATOM     13  C   UNL     1      -5.628  38.981  23.879  1.00  0.00    -0.000 C 
BRANCH  13  14
ATOM     14  C   UNL     1      -4.854  37.851  24.574  1.00  0.00    -0.000 C 
BRANCH  14  15
ATOM     15  C   UNL     1      -5.747  37.117  25.586  1.00  0.00    -0.000 C 
BRANCH  15  16
ATOM     16  C   UNL     1      -6.060  35.668  25.170  1.00  0.00    -0.000 C 
BRANCH  16  17
ATOM     17  C   UNL     1      -5.758  35.338  23.698  1.00  0.00    -0.003 C 
ATOM     18  C   UNL     1      -6.114  33.899  23.322  1.00  0.00     0.004 C 
ENDBRANCH  16  17
ENDBRANCH  15  16
ENDBRANCH  14  15
ENDBRANCH  13  14
ENDBRANCH  12  13
ENDBRANCH  11  12
ENDBRANCH   1  11
TORSDOF 14
ENDMDL
MODEL 4
REMARK VINA RESULT:     0.407      0.662      1.038
REMARK INTER + INTRA:          -0.125
REMARK INTER:                  -0.339
REMARK INTRA:                   0.213
REMARK UNBOUND:                -0.865
REMARK SMILES CCCCCCCCCCCCCCCC(=O)[O-]
REMARK SMILES IDX 9 1 10 2 11 3 12 4 13 5 14 6 15 7 16 8 17 9 18 10 8 11 7 12
REMARK SMILES IDX 6 13 5 14 4 15 3 16 2 17 1 18
REMARK H PARENT
REMARK Flexibility Score: inf
ROOT
ATOM      1  C   UNL     1      -4.736  34.901  21.954  1.00  0.00     0.000 C 
ENDROOT
BRANCH   1   2
ATOM      2  C   UNL     1      -4.872  34.730  23.475  1.00  0.00     0.000 C 
BRANCH   2   3
ATOM      3  C   UNL     1      -6.125  35.417  24.038  1.00  0.00     0.000 C 
BRANCH   3   4
ATOM      4  C   UNL     1      -5.810  36.136  25.358  1.00  0.00     0.000 C 
BRANCH   4   5
ATOM      5  C   UNL     1      -4.864  37.338  25.178  1.00  0.00     0.000 C 
BRANCH   5   6
ATOM      6  C   UNL     1      -5.386  38.440  24.239  1.00  0.00     0.006 C 
BRANCH   6   7
ATOM      7  C   UNL     1      -5.785  37.909  22.857  1.00  0.00     0.053 C 
BRANCH   7   8
ATOM      8  C   UNL     1      -5.479  38.923  21.800  1.00  0.00     0.041 C 
ATOM      9  O   UNL     1      -5.421  38.579  20.590  1.00  0.00    -0.550 OA
ATOM     10  O   UNL     1      -5.308  40.258  22.145  1.00  0.00    -0.550 OA
ENDBRANCH   7   8
ENDBRANCH   6   7
ENDBRANCH   5   6
ENDBRANCH   4   5
ENDBRANCH   3   4
ENDBRANCH   2   3
ENDBRANCH   1   2
BRANCH   1  11
ATOM     11  C   UNL     1      -6.093  34.904  21.234  1.00  0.00     0.000 C 
BRANCH  11  12
ATOM     12  C   UNL     1      -5.941  35.372  19.779  1.00  0.00    -0.000 C 
BRANCH  12  13
ATOM     13  C   UNL     1      -4.609  34.931  19.151  1.00  0.00    -0.000 C 
BRANCH  13  14
ATOM     14  C   UNL     1      -4.698  34.764  17.627  1.00  0.00    -0.000 C 
BRANCH  14  15
ATOM     15  C   UNL     1      -3.806  35.788  16.910  1.00  0.00    -0.000 C 
BRANCH  15  16
ATOM     16  C   UNL     1      -3.440  35.364  15.475  1.00  0.00    -0.000 C 
BRANCH  16  17
ATOM     17  C   UNL     1      -3.031  36.519  14.544  1.00  0.00    -0.003 C 
ATOM     18  C   UNL     1      -4.226  37.200  13.875  1.00  0.00     0.004 C 
ENDBRANCH  16  17
ENDBRANCH  15  16
ENDBRANCH  14  15
ENDBRANCH  13  14
ENDBRANCH  12  13
ENDBRANCH  11  12
ENDBRANCH   1  11
TORSDOF 14
ENDMDL
MODEL 5
REMARK VINA RESULT:     0.426      2.085      3.203
REMARK INTER + INTRA:          -0.090
REMARK INTER:                  -0.046
REMARK INTRA:                  -0.044
REMARK UNBOUND:                -0.865
REMARK SMILES CCCCCCCCCCCCCCCC(=O)[O-]
REMARK SMILES IDX 9 1 10 2 11 3 12 4 13 5 14 6 15 7 16 8 17 9 18 10 8 11 7 12
REMARK SMILES IDX 6 13 5 14 4 15 3 16 2 17 1 18
REMARK H PARENT
REMARK Flexibility Score: inf
ROOT
ATOM      1  C   UNL     1      -4.729  35.516  20.275  1.00  0.00     0.000 C 
ENDROOT
BRANCH   1   2
ATOM      2  C   UNL     1      -5.818  36.378  20.933  1.00  0.00     0.000 C 
BRANCH   2   3
ATOM      3  C   UNL     1      -5.744  37.852  20.507  1.00  0.00     0.000 C 
BRANCH   3   4
ATOM      4  C   UNL     1      -4.725  38.620  21.361  1.00  0.00     0.000 C 
BRANCH   4   5
ATOM      5  C   UNL     1      -5.383  39.473  22.461  1.00  0.00     0.000 C 
BRANCH   5   6
ATOM      6  C   UNL     1      -5.520  38.779  23.827  1.00  0.00     0.006 C 
BRANCH   6   7
ATOM      7  C   UNL     1      -5.905  37.299  23.711  1.00  0.00     0.053 C 
BRANCH   7   8
ATOM      8  C   UNL     1      -5.595  36.578  24.985  1.00  0.00     0.041 C 
ATOM      9  O   UNL     1      -6.119  35.457  25.221  1.00  0.00    -0.550 OA
ATOM     10  O   UNL     1      -4.689  37.118  25.889  1.00  0.00    -0.550 OA
ENDBRANCH   7   8
ENDBRANCH   6   7
ENDBRANCH   5   6
ENDBRANCH   4   5
ENDBRANCH   3   4
ENDBRANCH   2   3
ENDBRANCH   1   2
BRANCH   1  11
ATOM     11  C   UNL     1      -4.676  35.689  18.750  1.00  0.00     0.000 C 
BRANCH  11  12
ATOM     12  C   UNL     1      -4.642  34.325  18.045  1.00  0.00    -0.000 C 
BRANCH  12  13
ATOM     13  C   UNL     1      -3.755  34.329  16.789  1.00  0.00    -0.000 C 
BRANCH  13  14
ATOM     14  C   UNL     1      -3.521  35.741  16.233  1.00  0.00    -0.000 C 
BRANCH  14  15
ATOM     15  C   UNL     1      -2.486  35.719  15.098  1.00  0.00    -0.000 C 
BRANCH  15  16
ATOM     16  C   UNL     1      -2.857  36.650  13.929  1.00  0.00    -0.000 C 
BRANCH  16  17
ATOM     17  C   UNL     1      -4.327  37.104  13.905  1.00  0.00    -0.003 C 
ATOM     18  C   UNL     1      -4.486  38.622  14.005  1.00  0.00     0.004 C 
ENDBRANCH  16  17
ENDBRANCH  15  16
ENDBRANCH  14  15
ENDBRANCH  13  14
ENDBRANCH  12  13
ENDBRANCH  11  12
ENDBRANCH   1  11
TORSDOF 14
ENDMDL
MODEL 6
REMARK VINA RESULT:     0.594      3.028      8.051
REMARK INTER + INTRA:           0.215
REMARK INTER:                   0.888
REMARK INTRA:                  -0.673
REMARK UNBOUND:                -0.865
REMARK SMILES CCCCCCCCCCCCCCCC(=O)[O-]
REMARK SMILES IDX 9 1 10 2 11 3 12 4 13 5 14 6 15 7 16 8 17 9 18 10 8 11 7 12
REMARK SMILES IDX 6 13 5 14 4 15 3 16 2 17 1 18
REMARK H PARENT
REMARK Flexibility Score: inf
ROOT
ATOM      1  C   UNL     1      -6.095  35.728  21.226  1.00  0.00     0.000 C 
ENDROOT
BRANCH   1   2
ATOM      2  C   UNL     1      -5.604  35.876  19.777  1.00  0.00     0.000 C 
BRANCH   2   3
ATOM      3  C   UNL     1      -6.014  34.692  18.889  1.00  0.00     0.000 C 
BRANCH   3   4
ATOM      4  C   UNL     1      -4.834  34.216  18.029  1.00  0.00     0.000 C 
BRANCH   4   5
ATOM      5  C   UNL     1      -3.893  35.361  17.612  1.00  0.00     0.000 C 
BRANCH   5   6
ATOM      6  C   UNL     1      -3.290  35.226  16.203  1.00  0.00     0.006 C 
BRANCH   6   7
ATOM      7  C   UNL     1      -4.174  35.845  15.112  1.00  0.00     0.053 C 
BRANCH   7   8
ATOM      8  C   UNL     1      -3.388  36.819  14.293  1.00  0.00     0.041 C 
ATOM      9  O   UNL     1      -2.233  36.521  13.890  1.00  0.00    -0.550 OA
ATOM     10  O   UNL     1      -3.950  38.037  13.931  1.00  0.00    -0.550 OA
ENDBRANCH   7   8
ENDBRANCH   6   7
ENDBRANCH   5   6
ENDBRANCH   4   5
ENDBRANCH   3   4
ENDBRANCH   2   3
ENDBRANCH   1   2
BRANCH   1  11
ATOM     11  C   UNL     1      -4.964  35.376  22.203  1.00  0.00     0.000 C 
BRANCH  11  12
ATOM     12  C   UNL     1      -5.314  34.122  23.018  1.00  0.00    -0.000 C 
BRANCH  12  13
ATOM     13  C   UNL     1      -6.124  34.445  24.284  1.00  0.00    -0.000 C 
BRANCH  13  14
ATOM     14  C   UNL     1      -6.123  35.943  24.623  1.00  0.00    -0.000 C 
BRANCH  14  15
ATOM     15  C   UNL     1      -5.160  36.241  25.782  1.00  0.00    -0.000 C 
BRANCH  15  16
ATOM     16  C   UNL     1      -4.225  37.431  25.494  1.00  0.00    -0.000 C 
BRANCH  16  17
ATOM     17  C   UNL     1      -3.535  38.027  26.733  1.00  0.00    -0.003 C 
ATOM     18  C   UNL     1      -2.343  37.197  27.211  1.00  0.00     0.004 C 
ENDBRANCH  16  17
ENDBRANCH  15  16
ENDBRANCH  14  15
ENDBRANCH  13  14
ENDBRANCH  12  13
ENDBRANCH  11  12
ENDBRANCH   1  11
TORSDOF 14
ENDMDL
MODEL 7
REMARK VINA RESULT:     1.303      2.700      3.065
REMARK INTER + INTRA:           1.505
REMARK INTER:                   1.945
REMARK INTRA:                  -0.440
REMARK UNBOUND:                -0.865
REMARK SMILES CCCCCCCCCCCCCCCC(=O)[O-]
REMARK SMILES IDX 9 1 10 2 11 3 12 4 13 5 14 6 15 7 16 8 17 9 18 10 8 11 7 12
REMARK SMILES IDX 6 13 5 14 4 15 3 16 2 17 1 18
REMARK H PARENT
REMARK Flexibility Score: inf
ROOT
ATOM      1  C   UNL     1      -4.463  35.071  21.670  1.00  0.00     0.000 C 
ENDROOT
BRANCH   1   2
ATOM      2  C   UNL     1      -4.898  34.416  22.991  1.00  0.00     0.000 C 
BRANCH   2   3
ATOM      3  C   UNL     1      -6.125  35.099  23.614  1.00  0.00     0.000 C 
BRANCH   3   4
ATOM      4  C   UNL     1      -5.935  36.621  23.673  1.00  0.00     0.000 C 
BRANCH   4   5
ATOM      5  C   UNL     1      -5.782  37.154  25.109  1.00  0.00     0.000 C 
BRANCH   5   6
ATOM      6  C   UNL     1      -4.554  36.625  25.871  1.00  0.00     0.006 C 
BRANCH   6   7
ATOM      7  C   UNL     1      -3.803  37.725  26.633  1.00  0.00     0.053 C 
BRANCH   7   8
ATOM      8  C   UNL     1      -2.439  37.251  27.024  1.00  0.00     0.041 C 
ATOM      9  O   UNL     1      -1.440  38.001  26.869  1.00  0.00    -0.550 OA
ATOM     10  O   UNL     1      -2.277  36.000  27.607  1.00  0.00    -0.550 OA
ENDBRANCH   7   8
ENDBRANCH   6   7
ENDBRANCH   5   6
ENDBRANCH   4   5
ENDBRANCH   3   4
ENDBRANCH   2   3
ENDBRANCH   1   2
BRANCH   1  11
ATOM     11  C   UNL     1      -5.650  35.407  20.755  1.00  0.00     0.000 C 
BRANCH  11  12
ATOM     12  C   UNL     1      -5.901  34.278  19.745  1.00  0.00    -0.000 C 
BRANCH  12  13
ATOM     13  C   UNL     1      -5.732  34.738  18.288  1.00  0.00    -0.000 C 
BRANCH  13  14
ATOM     14  C   UNL     1      -4.286  34.604  17.788  1.00  0.00    -0.000 C 
BRANCH  14  15
ATOM     15  C   UNL     1      -3.934  35.741  16.817  1.00  0.00    -0.000 C 
BRANCH  15  16
ATOM     16  C   UNL     1      -2.945  35.307  15.719  1.00  0.00    -0.000 C 
BRANCH  16  17
ATOM     17  C   UNL     1      -2.867  36.254  14.508  1.00  0.00    -0.003 C 
ATOM     18  C   UNL     1      -4.188  36.966  14.219  1.00  0.00     0.004 C 
ENDBRANCH  16  17
ENDBRANCH  15  16
ENDBRANCH  14  15
ENDBRANCH  13  14
ENDBRANCH  12  13
ENDBRANCH  11  12
ENDBRANCH   1  11
TORSDOF 14
ENDMDL
MODEL 8
REMARK VINA RESULT:     1.948      3.230      4.918
REMARK INTER + INTRA:           2.678
REMARK INTER:                   4.145
REMARK INTRA:                  -1.467
REMARK UNBOUND:                -0.865
REMARK SMILES CCCCCCCCCCCCCCCC(=O)[O-]
REMARK SMILES IDX 9 1 10 2 11 3 12 4 13 5 14 6 15 7 16 8 17 9 18 10 8 11 7 12
REMARK SMILES IDX 6 13 5 14 4 15 3 16 2 17 1 18
REMARK H PARENT
REMARK Flexibility Score: inf
ROOT
ATOM      1  C   UNL     1      -4.426  35.028  22.386  1.00  0.00     0.000 C 
ENDROOT
BRANCH   1   2
ATOM      2  C   UNL     1      -5.217  33.922  23.102  1.00  0.00     0.000 C 
BRANCH   2   3
ATOM      3  C   UNL     1      -6.098  34.465  24.237  1.00  0.00     0.000 C 
BRANCH   3   4
ATOM      4  C   UNL     1      -6.124  36.001  24.225  1.00  0.00     0.000 C 
BRANCH   4   5
ATOM      5  C   UNL     1      -5.662  36.622  25.556  1.00  0.00     0.000 C 
BRANCH   5   6
ATOM      6  C   UNL     1      -4.255  37.245  25.528  1.00  0.00     0.006 C 
BRANCH   6   7
ATOM      7  C   UNL     1      -3.762  37.669  26.917  1.00  0.00     0.053 C 
BRANCH   7   8
ATOM      8  C   UNL     1      -2.339  37.252  27.117  1.00  0.00     0.041 C 
ATOM      9  O   UNL     1      -1.401  37.972  26.684  1.00  0.00    -0.550 OA
ATOM     10  O   UNL     1      -2.046  36.093  27.825  1.00  0.00    -0.550 OA
ENDBRANCH   7   8
ENDBRANCH   6   7
ENDBRANCH   5   6
ENDBRANCH   4   5
ENDBRANCH   3   4
ENDBRANCH   2   3
ENDBRANCH   1   2
BRANCH   1  11
ATOM     11  C   UNL     1      -3.848  34.566  21.039  1.00  0.00     0.000 C 
BRANCH  11  12
ATOM     12  C   UNL     1      -4.924  34.588  19.944  1.00  0.00    -0.000 C 
BRANCH  12  13
ATOM     13  C   UNL     1      -4.817  35.820  19.032  1.00  0.00    -0.000 C 
BRANCH  13  14
ATOM     14  C   UNL     1      -5.896  36.873  19.328  1.00  0.00    -0.000 C 
BRANCH  14  15
ATOM     15  C   UNL     1      -5.267  38.159  19.884  1.00  0.00    -0.000 C 
BRANCH  15  16
ATOM     16  C   UNL     1      -5.404  38.281  21.412  1.00  0.00    -0.000 C 
BRANCH  16  17
ATOM     17  C   UNL     1      -5.449  39.724  21.945  1.00  0.00    -0.003 C 
ATOM     18  C   UNL     1      -5.254  39.810  23.459  1.00  0.00     0.004 C 
ENDBRANCH  16  17
ENDBRANCH  15  16
ENDBRANCH  14  15
ENDBRANCH  13  14
ENDBRANCH  12  13
ENDBRANCH  11  12
ENDBRANCH   1  11
TORSDOF 14
ENDMDL
