MODEL 1
REMARK VINA RESULT:    25.786      0.000      0.000
REMARK INTER + INTRA:          29.246
REMARK INTER:                  29.555
REMARK INTRA:                  -0.309
REMARK UNBOUND:                -0.309
REMARK SMILES O=C1C[C@@H](c2ccc(O)cc2)Oc2cc(O)cc(O)c21
REMARK SMILES IDX 3 1 4 2 12 3 13 4 14 5 15 6 17 7 18 8 20 9 2 10 1 11 5 12
REMARK SMILES IDX 6 13 11 14 7 15 10 16 8 17 9 18 19 20 16 22
REMARK H PARENT 9 19 19 21 16 23
REMARK Flexibility Score: inf
ROOT
ATOM      1  C   UNL     1      35.751  12.595  41.031  1.00  0.00     0.131 C 
ATOM      2  C   UNL     1      35.265  12.764  42.478  1.00  0.00     0.211 C 
ATOM      3  O   UNL     1      33.868  12.472  42.577  1.00  0.00    -0.484 OA
ATOM      4  C   UNL     1      33.262  11.424  41.869  1.00  0.00     0.138 A 
ATOM      5  C   UNL     1      31.971  11.026  42.223  1.00  0.00     0.093 A 
ATOM      6  C   UNL     1      31.348   9.975  41.546  1.00  0.00     0.123 A 
ATOM      7  C   UNL     1      32.008   9.340  40.492  1.00  0.00     0.093 A 
ATOM      8  C   UNL     1      33.286   9.749  40.094  1.00  0.00     0.133 A 
ATOM      9  C   UNL     1      33.943  10.785  40.810  1.00  0.00     0.102 A 
ATOM     10  C   UNL     1      35.322  11.251  40.523  1.00  0.00     0.174 C 
ATOM     11  O   UNL     1      36.153  10.528  39.914  1.00  0.00    -0.294 OA
ENDROOT
BRANCH   2  12
ATOM     12  C   UNL     1      35.537  14.164  42.972  1.00  0.00    -0.007 A 
ATOM     13  C   UNL     1      36.835  14.536  43.362  1.00  0.00     0.011 A 
ATOM     14  C   UNL     1      34.512  15.126  42.996  1.00  0.00     0.011 A 
ATOM     15  C   UNL     1      37.097  15.840  43.791  1.00  0.00     0.046 A 
ATOM     16  C   UNL     1      34.777  16.430  43.427  1.00  0.00     0.046 A 
ATOM     17  C   UNL     1      36.071  16.790  43.827  1.00  0.00     0.115 A 
BRANCH  17  18
ATOM     18  O   UNL     1      36.346  18.085  44.259  1.00  0.00    -0.508 OA
ATOM     19  H   UNL     1      35.605  18.754  44.433  1.00  0.00     0.293 HD
ENDBRANCH  17  18
ENDBRANCH   2  12
BRANCH   8  20
ATOM     20  O   UNL     1      33.840   9.127  38.973  1.00  0.00    -0.507 OA
ATOM     21  H   UNL     1      33.733   9.466  38.029  1.00  0.00     0.293 HD
ENDBRANCH   8  20
BRANCH   6  22
ATOM     22  O   UNL     1      30.069   9.557  41.907  1.00  0.00    -0.508 OA
ATOM     23  H   UNL     1      29.241   9.943  41.469  1.00  0.00     0.293 HD
ENDBRANCH   6  22
TORSDOF 4
ENDMDL
MODEL 2
REMARK VINA RESULT:    28.319      2.242      6.849
REMARK INTER + INTRA:          32.148
REMARK INTER:                  32.444
REMARK INTRA:                  -0.295
REMARK UNBOUND:                -0.309
REMARK SMILES O=C1C[C@@H](c2ccc(O)cc2)Oc2cc(O)cc(O)c21
REMARK SMILES IDX 3 1 4 2 12 3 13 4 14 5 15 6 17 7 18 8 20 9 2 10 1 11 5 12
REMARK SMILES IDX 6 13 11 14 7 15 10 16 8 17 9 18 19 20 16 22
REMARK H PARENT 9 19 19 21 16 23
REMARK Flexibility Score: inf
ROOT
ATOM      1  C   UNL     1      34.882  13.198  42.665  1.00  0.00     0.131 C 
ATOM      2  C   UNL     1      35.086  13.005  41.156  1.00  0.00     0.211 C 
ATOM      3  O   UNL     1      34.373  14.004  40.421  1.00  0.00    -0.484 OA
ATOM      4  C   UNL     1      34.293  15.340  40.840  1.00  0.00     0.138 A 
ATOM      5  C   UNL     1      33.826  16.303  39.944  1.00  0.00     0.093 A 
ATOM      6  C   UNL     1      33.749  17.644  40.329  1.00  0.00     0.123 A 
ATOM      7  C   UNL     1      34.114  18.017  41.624  1.00  0.00     0.093 A 
ATOM      8  C   UNL     1      34.547  17.061  42.551  1.00  0.00     0.133 A 
ATOM      9  C   UNL     1      34.673  15.705  42.150  1.00  0.00     0.102 A 
ATOM     10  C   UNL     1      35.186  14.622  43.025  1.00  0.00     0.174 C 
ATOM     11  O   UNL     1      35.913  14.864  44.023  1.00  0.00    -0.294 OA
ENDROOT
BRANCH   2  12
ATOM     12  C   UNL     1      34.638  11.630  40.728  1.00  0.00    -0.007 A 
ATOM     13  C   UNL     1      35.588  10.651  40.385  1.00  0.00     0.011 A 
ATOM     14  C   UNL     1      33.273  11.292  40.719  1.00  0.00     0.011 A 
ATOM     15  C   UNL     1      35.177   9.366  40.019  1.00  0.00     0.046 A 
ATOM     16  C   UNL     1      32.865  10.006  40.350  1.00  0.00     0.046 A 
ATOM     17  C   UNL     1      33.817   9.040  39.997  1.00  0.00     0.115 A 
BRANCH  17  18
ATOM     18  O   UNL     1      33.423   7.756  39.628  1.00  0.00    -0.508 OA
ATOM     19  H   UNL     1      34.088   7.082  39.267  1.00  0.00     0.293 HD
ENDBRANCH  17  18
ENDBRANCH   2  12
BRANCH   8  20
ATOM     20  O   UNL     1      34.804  17.499  43.852  1.00  0.00    -0.507 OA
ATOM     21  H   UNL     1      35.283  18.359  44.075  1.00  0.00     0.293 HD
ENDBRANCH   8  20
BRANCH   6  22
ATOM     22  O   UNL     1      33.305  18.616  39.434  1.00  0.00    -0.508 OA
ATOM     23  H   UNL     1      33.213  18.421  38.443  1.00  0.00     0.293 HD
ENDBRANCH   6  22
TORSDOF 4
ENDMDL
