MODEL 1
REMARK VINA RESULT:    -4.074      0.000      0.000
REMARK INTER + INTRA:          -5.081
REMARK INTER:                  -5.027
REMARK INTRA:                  -0.055
REMARK UNBOUND:                -0.055
REMARK SMILES CCCCCC(C)=O
REMARK SMILES IDX 4 1 3 2 2 3 1 4 5 5 6 6 8 7 7 8
REMARK H PARENT
REMARK Flexibility Score: inf
ROOT
ATOM      1  C   UNL     1      25.915  57.325  -9.767  1.00  0.00     0.008 C 
ENDROOT
BRANCH   1   2
ATOM      2  C   UNL     1      26.310  58.810  -9.856  1.00  0.00     0.000 C 
BRANCH   2   3
ATOM      3  C   UNL     1      27.534  59.101 -10.742  1.00  0.00    -0.003 C 
ATOM      4  C   UNL     1      28.113  60.498 -10.523  1.00  0.00     0.004 C 
ENDBRANCH   2   3
ENDBRANCH   1   2
BRANCH   1   5
ATOM      5  C   UNL     1      24.615  57.097  -8.984  1.00  0.00     0.075 C 
BRANCH   5   6
ATOM      6  C   UNL     1      24.563  55.697  -8.435  1.00  0.00     0.129 C 
ATOM      7  O   UNL     1      25.601  55.107  -8.180  1.00  0.00    -0.300 OA
ATOM      8  C   UNL     1      23.246  55.014  -8.221  1.00  0.00     0.087 C 
ENDBRANCH   5   6
ENDBRANCH   1   5
TORSDOF 4
ENDMDL
MODEL 2
REMARK VINA RESULT:    -3.998      2.117      5.144
REMARK INTER + INTRA:          -4.988
REMARK INTER:                  -4.924
REMARK INTRA:                  -0.063
REMARK UNBOUND:                -0.055
REMARK SMILES CCCCCC(C)=O
REMARK SMILES IDX 4 1 3 2 2 3 1 4 5 5 6 6 8 7 7 8
REMARK H PARENT
REMARK Flexibility Score: inf
ROOT
ATOM      1  C   UNL     1      25.540  58.033  -9.432  1.00  0.00     0.008 C 
ENDROOT
BRANCH   1   2
ATOM      2  C   UNL     1      25.336  56.573  -8.989  1.00  0.00     0.000 C 
BRANCH   2   3
ATOM      3  C   UNL     1      23.988  55.956  -9.402  1.00  0.00    -0.003 C 
ATOM      4  C   UNL     1      23.352  55.115  -8.296  1.00  0.00     0.004 C 
ENDBRANCH   2   3
ENDBRANCH   1   2
BRANCH   1   5
ATOM      5  C   UNL     1      26.635  58.189 -10.496  1.00  0.00     0.075 C 
BRANCH   5   6
ATOM      6  C   UNL     1      27.407  59.462 -10.283  1.00  0.00     0.129 C 
ATOM      7  O   UNL     1      27.005  60.288  -9.478  1.00  0.00    -0.300 OA
ATOM      8  C   UNL     1      28.655  59.734 -11.068  1.00  0.00     0.087 C 
ENDBRANCH   5   6
ENDBRANCH   1   5
TORSDOF 4
ENDMDL
MODEL 3
REMARK VINA RESULT:    -3.980      1.818      5.040
REMARK INTER + INTRA:          -4.965
REMARK INTER:                  -4.900
REMARK INTRA:                  -0.065
REMARK UNBOUND:                -0.055
REMARK SMILES CCCCCC(C)=O
REMARK SMILES IDX 4 1 3 2 2 3 1 4 5 5 6 6 8 7 7 8
REMARK H PARENT
REMARK Flexibility Score: inf
ROOT
ATOM      1  C   UNL     1      25.647  56.615  -9.317  1.00  0.00     0.008 C 
ENDROOT
BRANCH   1   2
ATOM      2  C   UNL     1      24.771  55.956  -8.237  1.00  0.00     0.000 C 
BRANCH   2   3
ATOM      3  C   UNL     1      23.628  55.080  -8.780  1.00  0.00    -0.003 C 
ATOM      4  C   UNL     1      22.586  54.730  -7.718  1.00  0.00     0.004 C 
ENDBRANCH   2   3
ENDBRANCH   1   2
BRANCH   1   5
ATOM      5  C   UNL     1      25.461  58.136  -9.393  1.00  0.00     0.075 C 
BRANCH   5   6
ATOM      6  C   UNL     1      26.574  58.771 -10.182  1.00  0.00     0.129 C 
ATOM      7  O   UNL     1      27.030  58.196 -11.158  1.00  0.00    -0.300 OA
ATOM      8  C   UNL     1      27.142  60.093  -9.764  1.00  0.00     0.087 C 
ENDBRANCH   5   6
ENDBRANCH   1   5
TORSDOF 4
ENDMDL
MODEL 4
REMARK VINA RESULT:    -3.439     17.657     18.660
REMARK INTER + INTRA:          -4.298
REMARK INTER:                  -4.115
REMARK INTRA:                  -0.183
REMARK UNBOUND:                -0.055
REMARK SMILES CCCCCC(C)=O
REMARK SMILES IDX 4 1 3 2 2 3 1 4 5 5 6 6 8 7 7 8
REMARK H PARENT
REMARK Flexibility Score: inf
ROOT
ATOM      1  C   UNL     1      17.081  43.405   0.932  1.00  0.00     0.008 C 
ENDROOT
BRANCH   1   2
ATOM      2  C   UNL     1      15.926  44.282   1.447  1.00  0.00     0.000 C 
BRANCH   2   3
ATOM      3  C   UNL     1      15.166  45.055   0.354  1.00  0.00    -0.003 C 
ATOM      4  C   UNL     1      16.028  45.363  -0.870  1.00  0.00     0.004 C 
ENDBRANCH   2   3
ENDBRANCH   1   2
BRANCH   1   5
ATOM      5  C   UNL     1      18.438  43.784   1.541  1.00  0.00     0.075 C 
BRANCH   5   6
ATOM      6  C   UNL     1      19.505  43.822   0.481  1.00  0.00     0.129 C 
ATOM      7  O   UNL     1      19.505  44.719  -0.347  1.00  0.00    -0.300 OA
ATOM      8  C   UNL     1      20.555  42.754   0.422  1.00  0.00     0.087 C 
ENDBRANCH   5   6
ENDBRANCH   1   5
TORSDOF 4
ENDMDL
MODEL 5
REMARK VINA RESULT:    -3.423     16.881     19.088
REMARK INTER + INTRA:          -4.278
REMARK INTER:                  -3.886
REMARK INTRA:                  -0.392
REMARK UNBOUND:                -0.055
REMARK SMILES CCCCCC(C)=O
REMARK SMILES IDX 4 1 3 2 2 3 1 4 5 5 6 6 8 7 7 8
REMARK H PARENT
REMARK Flexibility Score: inf
ROOT
ATOM      1  C   UNL     1      18.040  42.208  -0.365  1.00  0.00     0.008 C 
ENDROOT
BRANCH   1   2
ATOM      2  C   UNL     1      16.914  42.189   0.684  1.00  0.00     0.000 C 
BRANCH   2   3
ATOM      3  C   UNL     1      15.786  43.207   0.438  1.00  0.00    -0.003 C 
ATOM      4  C   UNL     1      15.785  44.354   1.449  1.00  0.00     0.004 C 
ENDBRANCH   2   3
ENDBRANCH   1   2
BRANCH   1   5
ATOM      5  C   UNL     1      19.408  42.567   0.232  1.00  0.00     0.075 C 
BRANCH   5   6
ATOM      6  C   UNL     1      19.474  44.032   0.570  1.00  0.00     0.129 C 
ATOM      7  O   UNL     1      19.781  44.380   1.699  1.00  0.00    -0.300 OA
ATOM      8  C   UNL     1      19.144  45.066  -0.464  1.00  0.00     0.087 C 
ENDBRANCH   5   6
ENDBRANCH   1   5
TORSDOF 4
ENDMDL
MODEL 6
REMARK VINA RESULT:    -3.369     17.926     19.217
REMARK INTER + INTRA:          -4.211
REMARK INTER:                  -3.858
REMARK INTRA:                  -0.353
REMARK UNBOUND:                -0.055
REMARK SMILES CCCCCC(C)=O
REMARK SMILES IDX 4 1 3 2 2 3 1 4 5 5 6 6 8 7 7 8
REMARK H PARENT
REMARK Flexibility Score: inf
ROOT
ATOM      1  C   UNL     1      17.209  43.577   1.204  1.00  0.00     0.008 C 
ENDROOT
BRANCH   1   2
ATOM      2  C   UNL     1      16.958  42.140   0.714  1.00  0.00     0.000 C 
BRANCH   2   3
ATOM      3  C   UNL     1      16.696  42.010  -0.797  1.00  0.00    -0.003 C 
ATOM      4  C   UNL     1      17.656  41.044  -1.490  1.00  0.00     0.004 C 
ENDBRANCH   2   3
ENDBRANCH   1   2
BRANCH   1   5
ATOM      5  C   UNL     1      18.654  43.808   1.665  1.00  0.00     0.075 C 
BRANCH   5   6
ATOM      6  C   UNL     1      19.601  43.758   0.497  1.00  0.00     0.129 C 
ATOM      7  O   UNL     1      19.534  44.611  -0.374  1.00  0.00    -0.300 OA
ATOM      8  C   UNL     1      20.611  42.657   0.384  1.00  0.00     0.087 C 
ENDBRANCH   5   6
ENDBRANCH   1   5
TORSDOF 4
ENDMDL
MODEL 7
REMARK VINA RESULT:    -3.331     17.066     18.958
REMARK INTER + INTRA:          -4.165
REMARK INTER:                  -3.846
REMARK INTRA:                  -0.318
REMARK UNBOUND:                -0.055
REMARK SMILES CCCCCC(C)=O
REMARK SMILES IDX 4 1 3 2 2 3 1 4 5 5 6 6 8 7 7 8
REMARK H PARENT
REMARK Flexibility Score: inf
ROOT
ATOM      1  C   UNL     1      17.921  42.370   0.178  1.00  0.00     0.008 C 
ENDROOT
BRANCH   1   2
ATOM      2  C   UNL     1      19.193  42.743   0.960  1.00  0.00     0.000 C 
BRANCH   2   3
ATOM      3  C   UNL     1      19.507  44.250   0.999  1.00  0.00    -0.003 C 
ATOM      4  C   UNL     1      19.308  44.937  -0.351  1.00  0.00     0.004 C 
ENDBRANCH   2   3
ENDBRANCH   1   2
BRANCH   1   5
ATOM      5  C   UNL     1      16.639  42.536   1.004  1.00  0.00     0.075 C 
BRANCH   5   6
ATOM      6  C   UNL     1      15.894  43.774   0.589  1.00  0.00     0.129 C 
ATOM      7  O   UNL     1      15.832  44.077  -0.593  1.00  0.00    -0.300 OA
ATOM      8  C   UNL     1      15.244  44.651   1.616  1.00  0.00     0.087 C 
ENDBRANCH   5   6
ENDBRANCH   1   5
TORSDOF 4
ENDMDL
MODEL 8
REMARK VINA RESULT:    -3.250      4.670      6.683
REMARK INTER + INTRA:          -4.065
REMARK INTER:                  -3.945
REMARK INTRA:                  -0.120
REMARK UNBOUND:                -0.055
REMARK SMILES CCCCCC(C)=O
REMARK SMILES IDX 4 1 3 2 2 3 1 4 5 5 6 6 8 7 7 8
REMARK H PARENT
REMARK Flexibility Score: inf
ROOT
ATOM      1  C   UNL     1      30.965  59.079 -11.470  1.00  0.00     0.008 C 
ENDROOT
BRANCH   1   2
ATOM      2  C   UNL     1      29.923  59.619 -10.474  1.00  0.00     0.000 C 
BRANCH   2   3
ATOM      3  C   UNL     1      28.548  59.936 -11.089  1.00  0.00    -0.003 C 
ATOM      4  C   UNL     1      27.421  59.083 -10.507  1.00  0.00     0.004 C 
ENDBRANCH   2   3
ENDBRANCH   1   2
BRANCH   1   5
ATOM      5  C   UNL     1      30.337  58.549 -12.765  1.00  0.00     0.075 C 
BRANCH   5   6
ATOM      6  C   UNL     1      31.327  57.717 -13.536  1.00  0.00     0.129 C 
ATOM      7  O   UNL     1      32.358  58.228 -13.946  1.00  0.00    -0.300 OA
ATOM      8  C   UNL     1      31.046  56.273 -13.822  1.00  0.00     0.087 C 
ENDBRANCH   5   6
ENDBRANCH   1   5
TORSDOF 4
ENDMDL
MODEL 9
REMARK VINA RESULT:    -3.209     15.588     17.287
REMARK INTER + INTRA:          -4.015
REMARK INTER:                  -3.853
REMARK INTRA:                  -0.161
REMARK UNBOUND:                -0.055
REMARK SMILES CCCCCC(C)=O
REMARK SMILES IDX 4 1 3 2 2 3 1 4 5 5 6 6 8 7 7 8
REMARK H PARENT
REMARK Flexibility Score: inf
ROOT
ATOM      1  C   UNL     1      31.432  44.485   0.950  1.00  0.00     0.008 C 
ENDROOT
BRANCH   1   2
ATOM      2  C   UNL     1      30.058  45.170   0.841  1.00  0.00     0.000 C 
BRANCH   2   3
ATOM      3  C   UNL     1      29.187  44.686  -0.332  1.00  0.00    -0.003 C 
ATOM      4  C   UNL     1      28.040  45.642  -0.659  1.00  0.00     0.004 C 
ENDBRANCH   2   3
ENDBRANCH   1   2
BRANCH   1   5
ATOM      5  C   UNL     1      32.196  44.462  -0.381  1.00  0.00     0.075 C 
BRANCH   5   6
ATOM      6  C   UNL     1      32.329  43.053  -0.894  1.00  0.00     0.129 C 
ATOM      7  O   UNL     1      31.879  42.763  -1.991  1.00  0.00    -0.300 OA
ATOM      8  C   UNL     1      32.992  42.000  -0.058  1.00  0.00     0.087 C 
ENDBRANCH   5   6
ENDBRANCH   1   5
TORSDOF 4
ENDMDL
