MODEL 1
REMARK VINA RESULT:    14.463      0.000      0.000
REMARK INTER + INTRA:          20.365
REMARK INTER:                  20.382
REMARK INTRA:                  -0.016
REMARK UNBOUND:                -0.016
REMARK SMILES CC1=CCC(=C(C)C)CCC(C)=CCC1
REMARK SMILES IDX 5 1 6 2 7 3 8 4 9 5 10 6 11 7 12 8 13 9 4 11 3 12 2 13 1 14
REMARK SMILES IDX 15 15 14 16
REMARK H PARENT
REMARK Flexibility Score: 60.00
ROOT
ATOM      1  C   UNL     1     145.485 145.348 162.315  1.00  0.00    -0.067 C 
ATOM      2  C   UNL     1     145.004 145.548 161.045  1.00  0.00    -0.077 C 
ATOM      3  C   UNL     1     145.125 146.900 160.369  1.00  0.00     0.039 C 
ATOM      4  C   UNL     1     144.359 144.429 160.249  1.00  0.00     0.039 C 
ENDROOT
BRANCH   1   5
ATOM      5  C   UNL     1     145.310 143.989 163.003  1.00  0.00     0.035 C 
BRANCH   5   6
ATOM      6  C   UNL     1     144.572 144.094 164.357  1.00  0.00     0.035 C 
BRANCH   6   7
ATOM      7  C   UNL     1     145.351 143.462 165.497  1.00  0.00    -0.077 C 
ATOM      8  C   UNL     1     145.806 142.031 165.358  1.00  0.00     0.039 C 
ATOM      9  C   UNL     1     145.646 144.113 166.646  1.00  0.00    -0.028 CG0
ATOM     10  G   UNL     1     145.333 145.561 166.935  1.00  0.00     0.000 G0
ENDBRANCH   6   7
ENDBRANCH   5   6
ENDBRANCH   1   5
BRANCH   1  11
ATOM     11  C   UNL     1     146.236 146.486 163.017  1.00  0.00     0.058 C 
BRANCH  11  12
ATOM     12  C   UNL     1     145.379 147.398 163.859  1.00  0.00    -0.024 C 
ATOM     13  C   UNL     1     145.368 147.435 165.210  1.00  0.00    -0.077 C 
ATOM     14  C   UNL     1     144.484 148.457 165.880  1.00  0.00     0.039 C 
BRANCH  13  15
ATOM     15  C   UNL     1     146.190 146.493 166.079  1.00  0.00     0.034 C 
BRANCH  15  16
ATOM     16  C   UNL     1     145.331 145.553 166.937  1.00  0.00     0.032 CG0
ATOM     17  G   UNL     1     145.645 144.104 166.651  1.00  0.00     0.000 G0
ENDBRANCH  15  16
ENDBRANCH  13  15
ENDBRANCH  11  12
ENDBRANCH   1  11
TORSDOF 0
ENDMDL
MODEL 2
REMARK VINA RESULT:    14.486      0.963      3.437
REMARK INTER + INTRA:          20.397
REMARK INTER:                  20.425
REMARK INTRA:                  -0.028
REMARK UNBOUND:                -0.016
REMARK SMILES CC1=CCC(=C(C)C)CCC(C)=CCC1
REMARK SMILES IDX 5 1 6 2 7 3 8 4 9 5 10 6 11 7 12 8 13 9 4 11 3 12 2 13 1 14
REMARK SMILES IDX 15 15 14 16
REMARK H PARENT
REMARK Flexibility Score: 60.00
ROOT
ATOM      1  C   UNL     1     145.255 145.523 162.261  1.00  0.00    -0.067 C 
ATOM      2  C   UNL     1     145.781 145.320 161.009  1.00  0.00    -0.077 C 
ATOM      3  C   UNL     1     145.724 143.956 160.351  1.00  0.00     0.039 C 
ATOM      4  C   UNL     1     146.413 146.448 160.216  1.00  0.00     0.039 C 
ENDROOT
BRANCH   1   5
ATOM      5  C   UNL     1     145.363 146.896 162.933  1.00  0.00     0.035 C 
BRANCH   5   6
ATOM      6  C   UNL     1     146.130 146.848 164.274  1.00  0.00     0.035 C 
BRANCH   6   7
ATOM      7  C   UNL     1     145.364 147.505 165.409  1.00  0.00    -0.077 C 
ATOM      8  C   UNL     1     144.918 148.936 165.249  1.00  0.00     0.039 C 
ATOM      9  C   UNL     1     145.071 146.875 166.570  1.00  0.00    -0.028 CG0
ATOM     10  G   UNL     1     145.376 145.429 166.881  1.00  0.00     0.000 G0
ENDBRANCH   6   7
ENDBRANCH   5   6
ENDBRANCH   1   5
BRANCH   1  11
ATOM     11  C   UNL     1     144.519 144.371 162.957  1.00  0.00     0.058 C 
BRANCH  11  12
ATOM     12  C   UNL     1     145.380 143.497 163.834  1.00  0.00    -0.024 C 
ATOM     13  C   UNL     1     145.381 143.503 165.187  1.00  0.00    -0.077 C 
ATOM     14  C   UNL     1     146.271 142.514 165.895  1.00  0.00     0.039 C 
BRANCH  13  15
ATOM     15  C   UNL     1     144.542 144.464 166.018  1.00  0.00     0.034 C 
BRANCH  15  16
ATOM     16  C   UNL     1     145.383 145.420 166.876  1.00  0.00     0.032 CG0
ATOM     17  G   UNL     1     145.055 146.863 166.575  1.00  0.00     0.000 G0
ENDBRANCH  15  16
ENDBRANCH  13  15
ENDBRANCH  11  12
ENDBRANCH   1  11
TORSDOF 0
ENDMDL
MODEL 3
REMARK VINA RESULT:    16.343      1.265      3.420
REMARK INTER + INTRA:          23.014
REMARK INTER:                  21.648
REMARK INTRA:                   1.366
REMARK UNBOUND:                -0.016
REMARK SMILES CC1=CCC(=C(C)C)CCC(C)=CCC1
REMARK SMILES IDX 5 1 6 2 7 3 8 4 9 5 10 6 11 7 12 8 13 9 4 11 3 12 2 13 1 14
REMARK SMILES IDX 15 15 14 16
REMARK H PARENT
REMARK Flexibility Score: 60.00
ROOT
ATOM      1  C   UNL     1     145.402 145.444 162.092  1.00  0.00    -0.067 C 
ATOM      2  C   UNL     1     145.259 145.155 160.757  1.00  0.00    -0.077 C 
ATOM      3  C   UNL     1     145.770 143.848 160.183  1.00  0.00     0.039 C 
ATOM      4  C   UNL     1     144.564 146.108 159.803  1.00  0.00     0.039 C 
ENDROOT
BRANCH   1   5
ATOM      5  C   UNL     1     144.924 146.790 162.647  1.00  0.00     0.035 C 
BRANCH   5   6
ATOM      6  C   UNL     1     145.834 147.330 163.774  1.00  0.00     0.035 C 
BRANCH   6   7
ATOM      7  C   UNL     1     145.102 148.273 164.714  1.00  0.00    -0.077 C 
ATOM      8  C   UNL     1     144.624 149.600 164.182  1.00  0.00     0.039 C 
ATOM      9  C   UNL     1     144.868 147.990 166.016  1.00  0.00    -0.028 CG0
ATOM     10  G   UNL     1     145.211 146.690 166.703  1.00  0.00     0.000 G0
ENDBRANCH   6   7
ENDBRANCH   5   6
ENDBRANCH   1   5
BRANCH   1  11
ATOM     11  C   UNL     1     146.003 144.386 163.024  1.00  0.00     0.058 C 
BRANCH  11  12
ATOM     12  C   UNL     1     145.107 143.943 164.155  1.00  0.00    -0.024 C 
ATOM     13  C   UNL     1     145.027 144.535 165.368  1.00  0.00    -0.077 C 
ATOM     14  C   UNL     1     144.029 143.985 166.356  1.00  0.00     0.039 C 
BRANCH  13  15
ATOM     15  C   UNL     1     145.901 145.711 165.784  1.00  0.00     0.034 C 
BRANCH  15  16
ATOM     16  C   UNL     1     145.189 146.694 166.724  1.00  0.00     0.032 CG0
ATOM     17  G   UNL     1     144.883 147.999 166.029  1.00  0.00     0.000 G0
ENDBRANCH  15  16
ENDBRANCH  13  15
ENDBRANCH  11  12
ENDBRANCH   1  11
TORSDOF 0
ENDMDL
MODEL 4
REMARK VINA RESULT:    16.600      3.151      6.399
REMARK INTER + INTRA:          23.377
REMARK INTER:                  22.916
REMARK INTRA:                   0.460
REMARK UNBOUND:                -0.016
REMARK SMILES CC1=CCC(=C(C)C)CCC(C)=CCC1
REMARK SMILES IDX 5 1 6 2 7 3 8 4 9 5 10 6 11 7 12 8 13 9 4 11 3 12 2 13 1 14
REMARK SMILES IDX 15 15 14 16
REMARK H PARENT
REMARK Flexibility Score: 60.00
ROOT
ATOM      1  C   UNL     1     144.979 147.506 163.389  1.00  0.00    -0.067 C 
ATOM      2  C   UNL     1     145.205 147.688 164.731  1.00  0.00    -0.077 C 
ATOM      3  C   UNL     1     145.790 146.577 165.581  1.00  0.00     0.039 C 
ATOM      4  C   UNL     1     144.912 149.008 165.419  1.00  0.00     0.039 C 
ENDROOT
BRANCH   1   5
ATOM      5  C   UNL     1     144.343 148.623 162.554  1.00  0.00     0.035 C 
BRANCH   5   6
ATOM      6  C   UNL     1     145.378 149.410 161.719  1.00  0.00     0.035 C 
BRANCH   6   7
ATOM      7  C   UNL     1     145.178 149.233 160.223  1.00  0.00    -0.077 C 
ATOM      8  C   UNL     1     144.245 150.171 159.501  1.00  0.00     0.039 C 
ATOM      9  C   UNL     1     145.785 148.262 159.502  1.00  0.00    -0.028 CG0
ATOM     10  G   UNL     1     146.798 147.280 160.038  1.00  0.00     0.000 G0
ENDBRANCH   6   7
ENDBRANCH   5   6
ENDBRANCH   1   5
BRANCH   1  11
ATOM     11  C   UNL     1     145.412 146.191 162.730  1.00  0.00     0.058 C 
BRANCH  11  12
ATOM     12  C   UNL     1     144.539 145.724 161.593  1.00  0.00    -0.024 C 
ATOM     13  C   UNL     1     144.950 145.525 160.320  1.00  0.00    -0.077 C 
ATOM     14  C   UNL     1     143.943 145.000 159.328  1.00  0.00     0.039 C 
BRANCH  13  15
ATOM     15  C   UNL     1     146.367 145.816 159.844  1.00  0.00     0.034 C 
BRANCH  15  16
ATOM     16  C   UNL     1     146.792 147.276 160.060  1.00  0.00     0.032 CG0
ATOM     17  G   UNL     1     145.781 148.236 159.482  1.00  0.00     0.000 G0
ENDBRANCH  15  16
ENDBRANCH  13  15
ENDBRANCH  11  12
ENDBRANCH   1  11
TORSDOF 0
ENDMDL
MODEL 5
REMARK VINA RESULT:    17.148      2.965      6.215
REMARK INTER + INTRA:          24.149
REMARK INTER:                  22.718
REMARK INTRA:                   1.431
REMARK UNBOUND:                -0.016
REMARK SMILES CC1=CCC(=C(C)C)CCC(C)=CCC1
REMARK SMILES IDX 5 1 6 2 7 3 8 4 9 5 10 6 11 7 12 8 13 9 4 11 3 12 2 13 1 14
REMARK SMILES IDX 15 15 14 16
REMARK H PARENT
REMARK Flexibility Score: 60.00
ROOT
ATOM      1  C   UNL     1     145.488 145.913 163.058  1.00  0.00    -0.067 C 
ATOM      2  C   UNL     1     145.353 145.510 164.363  1.00  0.00    -0.077 C 
ATOM      3  C   UNL     1     145.371 144.039 164.731  1.00  0.00     0.039 C 
ATOM      4  C   UNL     1     145.211 146.507 165.497  1.00  0.00     0.039 C 
ENDROOT
BRANCH   1   5
ATOM      5  C   UNL     1     145.419 147.402 162.697  1.00  0.00     0.035 C 
BRANCH   5   6
ATOM      6  C   UNL     1     144.571 147.673 161.434  1.00  0.00     0.035 C 
BRANCH   6   7
ATOM      7  C   UNL     1     145.352 148.400 160.352  1.00  0.00    -0.077 C 
ATOM      8  C   UNL     1     145.014 149.839 160.058  1.00  0.00     0.039 C 
ATOM      9  C   UNL     1     146.331 147.816 159.623  1.00  0.00    -0.028 CG0
ATOM     10  G   UNL     1     146.849 146.412 159.821  1.00  0.00     0.000 G0
ENDBRANCH   6   7
ENDBRANCH   5   6
ENDBRANCH   1   5
BRANCH   1  11
ATOM     11  C   UNL     1     145.752 144.860 161.975  1.00  0.00     0.058 C 
BRANCH  11  12
ATOM     12  C   UNL     1     144.660 144.710 160.946  1.00  0.00    -0.024 C 
ATOM     13  C   UNL     1     144.805 144.902 159.615  1.00  0.00    -0.077 C 
ATOM     14  C   UNL     1     143.610 144.648 158.732  1.00  0.00     0.039 C 
BRANCH  13  15
ATOM     15  C   UNL     1     146.105 145.370 158.975  1.00  0.00     0.034 C 
BRANCH  15  16
ATOM     16  C   UNL     1     146.861 146.404 159.822  1.00  0.00     0.032 CG0
ATOM     17  G   UNL     1     146.328 147.798 159.595  1.00  0.00     0.000 G0
ENDBRANCH  15  16
ENDBRANCH  13  15
ENDBRANCH  11  12
ENDBRANCH   1  11
TORSDOF 0
ENDMDL
MODEL 6
REMARK VINA RESULT:    17.330      2.687      5.110
REMARK INTER + INTRA:          24.405
REMARK INTER:                  22.874
REMARK INTRA:                   1.531
REMARK UNBOUND:                -0.016
REMARK SMILES CC1=CCC(=C(C)C)CCC(C)=CCC1
REMARK SMILES IDX 5 1 6 2 7 3 8 4 9 5 10 6 11 7 12 8 13 9 4 11 3 12 2 13 1 14
REMARK SMILES IDX 15 15 14 16
REMARK H PARENT
REMARK Flexibility Score: 60.00
ROOT
ATOM      1  C   UNL     1     145.017 148.104 160.921  1.00  0.00    -0.067 C 
ATOM      2  C   UNL     1     144.672 149.428 160.801  1.00  0.00    -0.077 C 
ATOM      3  C   UNL     1     144.675 150.115 159.449  1.00  0.00     0.039 C 
ATOM      4  C   UNL     1     144.246 150.254 161.999  1.00  0.00     0.039 C 
ENDROOT
BRANCH   1   5
ATOM      5  C   UNL     1     145.056 147.437 162.300  1.00  0.00     0.035 C 
BRANCH   5   6
ATOM      6  C   UNL     1     144.395 146.040 162.308  1.00  0.00     0.035 C 
BRANCH   6   7
ATOM      7  C   UNL     1     145.370 144.935 162.676  1.00  0.00    -0.077 C 
ATOM      8  C   UNL     1     145.232 144.264 164.019  1.00  0.00     0.039 C 
ATOM      9  C   UNL     1     146.374 144.529 161.865  1.00  0.00    -0.028 CG0
ATOM     10  G   UNL     1     146.624 145.035 160.464  1.00  0.00     0.000 G0
ENDBRANCH   6   7
ENDBRANCH   5   6
ENDBRANCH   1   5
BRANCH   1  11
ATOM     11  C   UNL     1     145.317 147.293 159.654  1.00  0.00     0.058 C 
BRANCH  11  12
ATOM     12  C   UNL     1     144.256 146.296 159.264  1.00  0.00    -0.024 C 
ATOM     13  C   UNL     1     144.425 144.955 159.202  1.00  0.00    -0.077 C 
ATOM     14  C   UNL     1     143.228 144.110 158.847  1.00  0.00     0.039 C 
BRANCH  13  15
ATOM     15  C   UNL     1     145.759 144.269 159.461  1.00  0.00     0.034 C 
BRANCH  15  16
ATOM     16  C   UNL     1     146.636 145.010 160.480  1.00  0.00     0.032 CG0
ATOM     17  G   UNL     1     146.382 144.521 161.886  1.00  0.00     0.000 G0
ENDBRANCH  15  16
ENDBRANCH  13  15
ENDBRANCH  11  12
ENDBRANCH   1  11
TORSDOF 0
ENDMDL
MODEL 7
REMARK VINA RESULT:    17.395      2.936      5.480
REMARK INTER + INTRA:          24.497
REMARK INTER:                  22.559
REMARK INTRA:                   1.937
REMARK UNBOUND:                -0.016
REMARK SMILES CC1=CCC(=C(C)C)CCC(C)=CCC1
REMARK SMILES IDX 5 1 6 2 7 3 8 4 9 5 10 6 11 7 12 8 13 9 4 11 3 12 2 13 1 14
REMARK SMILES IDX 15 15 14 16
REMARK H PARENT
REMARK Flexibility Score: 60.00
ROOT
ATOM      1  C   UNL     1     145.364 145.042 163.023  1.00  0.00    -0.067 C 
ATOM      2  C   UNL     1     145.375 145.403 164.347  1.00  0.00    -0.077 C 
ATOM      3  C   UNL     1     145.323 146.862 164.759  1.00  0.00     0.039 C 
ATOM      4  C   UNL     1     145.408 144.370 165.457  1.00  0.00     0.039 C 
ENDROOT
BRANCH   1   5
ATOM      5  C   UNL     1     145.466 143.565 162.624  1.00  0.00     0.035 C 
BRANCH   5   6
ATOM      6  C   UNL     1     146.118 143.364 161.236  1.00  0.00     0.035 C 
BRANCH   6   7
ATOM      7  C   UNL     1     145.187 142.682 160.248  1.00  0.00    -0.077 C 
ATOM      8  C   UNL     1     145.381 141.214 159.965  1.00  0.00     0.039 C 
ATOM      9  C   UNL     1     144.197 143.330 159.592  1.00  0.00    -0.028 CG0
ATOM     10  G   UNL     1     143.812 144.775 159.797  1.00  0.00     0.000 G0
ENDBRANCH   6   7
ENDBRANCH   5   6
ENDBRANCH   1   5
BRANCH   1  11
ATOM     11  C   UNL     1     145.205 146.129 161.954  1.00  0.00     0.058 C 
BRANCH  11  12
ATOM     12  C   UNL     1     146.266 146.134 160.881  1.00  0.00    -0.024 C 
ATOM     13  C   UNL     1     146.039 145.998 159.555  1.00  0.00    -0.077 C 
ATOM     14  C   UNL     1     147.223 146.087 158.625  1.00  0.00     0.039 C 
BRANCH  13  15
ATOM     15  C   UNL     1     144.658 145.749 158.964  1.00  0.00     0.034 C 
BRANCH  15  16
ATOM     16  C   UNL     1     143.802 144.790 159.804  1.00  0.00     0.032 CG0
ATOM     17  G   UNL     1     144.203 143.352 159.578  1.00  0.00     0.000 G0
ENDBRANCH  15  16
ENDBRANCH  13  15
ENDBRANCH  11  12
ENDBRANCH   1  11
TORSDOF 0
ENDMDL
