MODEL 1
REMARK VINA RESULT:    -4.485      0.000      0.000
REMARK INTER + INTRA:          -4.996
REMARK INTER:                  -4.747
REMARK INTRA:                  -0.250
REMARK UNBOUND:                -0.250
REMARK SMILES C=C1CC[C@@]2(C(C)C)C[C@@H]12
REMARK SMILES IDX 5 1 4 2 3 3 2 4 1 5 10 6 9 7 6 8 7 9 8 10
REMARK H PARENT
REMARK Flexibility Score: inf
ROOT
ATOM      1  C   UNL     1      29.720  23.839  12.286  1.00  0.00    -0.020 C 
ATOM      2  C   UNL     1      28.191  23.757  12.497  1.00  0.00     0.012 C 
ATOM      3  C   UNL     1      27.613  25.143  12.196  1.00  0.00     0.031 C 
ATOM      4  C   UNL     1      28.785  25.981  11.811  1.00  0.00    -0.074 C 
ATOM      5  C   UNL     1      28.685  27.267  11.464  1.00  0.00     0.008 C 
ATOM      6  C   UNL     1      30.075  25.243  11.812  1.00  0.00     0.021 C 
ATOM      7  C   UNL     1      30.141  24.084  10.831  1.00  0.00     0.016 C 
ENDROOT
BRANCH   1   8
ATOM      8  C   UNL     1      30.726  22.921  13.065  1.00  0.00    -0.011 C 
ATOM      9  C   UNL     1      30.057  21.664  13.643  1.00  0.00     0.008 C 
ATOM     10  C   UNL     1      31.488  23.641  14.192  1.00  0.00     0.008 C 
ENDBRANCH   1   8
TORSDOF 1
ENDMDL
MODEL 2
REMARK VINA RESULT:    -4.430      1.527      2.678
REMARK INTER + INTRA:          -4.939
REMARK INTER:                  -4.688
REMARK INTRA:                  -0.250
REMARK UNBOUND:                -0.250
REMARK SMILES C=C1CC[C@@]2(C(C)C)C[C@@H]12
REMARK SMILES IDX 5 1 4 2 3 3 2 4 1 5 10 6 9 7 6 8 7 9 8 10
REMARK H PARENT
REMARK Flexibility Score: inf
ROOT
ATOM      1  C   UNL     1      29.253  25.398  11.747  1.00  0.00    -0.020 C 
ATOM      2  C   UNL     1      28.415  26.696  11.786  1.00  0.00     0.012 C 
ATOM      3  C   UNL     1      29.370  27.846  12.123  1.00  0.00     0.031 C 
ATOM      4  C   UNL     1      30.714  27.213  12.255  1.00  0.00    -0.074 C 
ATOM      5  C   UNL     1      31.823  27.901  12.539  1.00  0.00     0.008 C 
ATOM      6  C   UNL     1      30.714  25.748  12.005  1.00  0.00     0.021 C 
ATOM      7  C   UNL     1      30.277  25.346  10.606  1.00  0.00     0.016 C 
ENDROOT
BRANCH   1   8
ATOM      8  C   UNL     1      28.640  23.993  12.079  1.00  0.00    -0.011 C 
ATOM      9  C   UNL     1      27.111  23.965  11.939  1.00  0.00     0.008 C 
ATOM     10  C   UNL     1      29.022  23.456  13.470  1.00  0.00     0.008 C 
ENDBRANCH   1   8
TORSDOF 1
ENDMDL
MODEL 3
REMARK VINA RESULT:    -4.187      1.484      2.790
REMARK INTER + INTRA:          -4.682
REMARK INTER:                  -4.586
REMARK INTRA:                  -0.096
REMARK UNBOUND:                -0.250
REMARK SMILES C=C1CC[C@@]2(C(C)C)C[C@@H]12
REMARK SMILES IDX 5 1 4 2 3 3 2 4 1 5 10 6 9 7 6 8 7 9 8 10
REMARK H PARENT
REMARK Flexibility Score: inf
ROOT
ATOM      1  C   UNL     1      30.798  22.574  12.773  1.00  0.00    -0.020 C 
ATOM      2  C   UNL     1      30.938  23.313  11.424  1.00  0.00     0.012 C 
ATOM      3  C   UNL     1      29.658  24.128  11.214  1.00  0.00     0.031 C 
ATOM      4  C   UNL     1      28.825  23.867  12.423  1.00  0.00    -0.074 C 
ATOM      5  C   UNL     1      27.622  24.414  12.617  1.00  0.00     0.008 C 
ATOM      6  C   UNL     1      29.472  22.968  13.414  1.00  0.00     0.021 C 
ATOM      7  C   UNL     1      30.771  23.500  13.996  1.00  0.00     0.016 C 
ENDROOT
BRANCH   1   8
ATOM      8  C   UNL     1      31.513  21.207  13.061  1.00  0.00    -0.011 C 
ATOM      9  C   UNL     1      32.125  20.581  11.799  1.00  0.00     0.008 C 
ATOM     10  C   UNL     1      30.614  20.163  13.748  1.00  0.00     0.008 C 
ENDBRANCH   1   8
TORSDOF 1
ENDMDL
MODEL 4
REMARK VINA RESULT:    -4.134      1.501      3.256
REMARK INTER + INTRA:          -4.625
REMARK INTER:                  -4.474
REMARK INTRA:                  -0.151
REMARK UNBOUND:                -0.250
REMARK SMILES C=C1CC[C@@]2(C(C)C)C[C@@H]12
REMARK SMILES IDX 5 1 4 2 3 3 2 4 1 5 10 6 9 7 6 8 7 9 8 10
REMARK H PARENT
REMARK Flexibility Score: inf
ROOT
ATOM      1  C   UNL     1      30.284  25.435  12.143  1.00  0.00    -0.020 C 
ATOM      2  C   UNL     1      30.558  24.187  13.013  1.00  0.00     0.012 C 
ATOM      3  C   UNL     1      29.242  23.413  13.128  1.00  0.00     0.031 C 
ATOM      4  C   UNL     1      28.255  24.196  12.330  1.00  0.00    -0.074 C 
ATOM      5  C   UNL     1      26.978  23.832  12.181  1.00  0.00     0.008 C 
ATOM      6  C   UNL     1      28.831  25.404  11.684  1.00  0.00     0.021 C 
ATOM      7  C   UNL     1      29.938  25.118  10.682  1.00  0.00     0.016 C 
ENDROOT
BRANCH   1   8
ATOM      8  C   UNL     1      31.103  26.764  12.299  1.00  0.00    -0.011 C 
ATOM      9  C   UNL     1      32.123  26.701  13.446  1.00  0.00     0.008 C 
ATOM     10  C   UNL     1      30.230  28.019  12.478  1.00  0.00     0.008 C 
ENDBRANCH   1   8
TORSDOF 1
ENDMDL
MODEL 5
REMARK VINA RESULT:    -4.085      1.081      4.119
REMARK INTER + INTRA:          -4.573
REMARK INTER:                  -4.413
REMARK INTRA:                  -0.161
REMARK UNBOUND:                -0.250
REMARK SMILES C=C1CC[C@@]2(C(C)C)C[C@@H]12
REMARK SMILES IDX 5 1 4 2 3 3 2 4 1 5 10 6 9 7 6 8 7 9 8 10
REMARK H PARENT
REMARK Flexibility Score: inf
ROOT
ATOM      1  C   UNL     1      30.270  25.633  11.984  1.00  0.00    -0.020 C 
ATOM      2  C   UNL     1      31.481  25.535  12.939  1.00  0.00     0.012 C 
ATOM      3  C   UNL     1      31.385  24.187  13.660  1.00  0.00     0.031 C 
ATOM      4  C   UNL     1      30.160  23.536  13.113  1.00  0.00    -0.074 C 
ATOM      5  C   UNL     1      29.740  22.326  13.494  1.00  0.00     0.008 C 
ATOM      6  C   UNL     1      29.466  24.342  12.075  1.00  0.00     0.021 C 
ATOM      7  C   UNL     1      30.295  24.620  10.832  1.00  0.00     0.016 C 
ENDROOT
BRANCH   1   8
ATOM      8  C   UNL     1      29.635  27.007  11.572  1.00  0.00    -0.011 C 
ATOM      9  C   UNL     1      30.312  28.203  12.257  1.00  0.00     0.008 C 
ATOM     10  C   UNL     1      28.117  27.092  11.811  1.00  0.00     0.008 C 
ENDBRANCH   1   8
TORSDOF 1
ENDMDL
MODEL 6
REMARK VINA RESULT:    -3.962      1.436      2.724
REMARK INTER + INTRA:          -4.443
REMARK INTER:                  -4.232
REMARK INTRA:                  -0.211
REMARK UNBOUND:                -0.250
REMARK SMILES C=C1CC[C@@]2(C(C)C)C[C@@H]12
REMARK SMILES IDX 5 1 4 2 3 3 2 4 1 5 10 6 9 7 6 8 7 9 8 10
REMARK H PARENT
REMARK Flexibility Score: inf
ROOT
ATOM      1  C   UNL     1      30.582  22.838  13.357  1.00  0.00    -0.020 C 
ATOM      2  C   UNL     1      31.601  23.726  14.105  1.00  0.00     0.012 C 
ATOM      3  C   UNL     1      31.665  25.068  13.370  1.00  0.00     0.031 C 
ATOM      4  C   UNL     1      30.694  24.944  12.244  1.00  0.00    -0.074 C 
ATOM      5  C   UNL     1      30.457  25.925  11.369  1.00  0.00     0.008 C 
ATOM      6  C   UNL     1      29.986  23.638  12.205  1.00  0.00     0.021 C 
ATOM      7  C   UNL     1      29.135  23.344  13.430  1.00  0.00     0.016 C 
ENDROOT
BRANCH   1   8
ATOM      8  C   UNL     1      30.679  21.272  13.349  1.00  0.00    -0.011 C 
ATOM      9  C   UNL     1      31.113  20.697  14.705  1.00  0.00     0.008 C 
ATOM     10  C   UNL     1      31.599  20.707  12.252  1.00  0.00     0.008 C 
ENDBRANCH   1   8
TORSDOF 1
ENDMDL
MODEL 7
REMARK VINA RESULT:    -3.928      1.382      3.872
REMARK INTER + INTRA:          -4.407
REMARK INTER:                  -4.159
REMARK INTRA:                  -0.248
REMARK UNBOUND:                -0.250
REMARK SMILES C=C1CC[C@@]2(C(C)C)C[C@@H]12
REMARK SMILES IDX 5 1 4 2 3 3 2 4 1 5 10 6 9 7 6 8 7 9 8 10
REMARK H PARENT
REMARK Flexibility Score: inf
ROOT
ATOM      1  C   UNL     1      30.686  24.347  12.381  1.00  0.00    -0.020 C 
ATOM      2  C   UNL     1      29.177  24.361  12.711  1.00  0.00     0.012 C 
ATOM      3  C   UNL     1      28.836  23.013  13.353  1.00  0.00     0.031 C 
ATOM      4  C   UNL     1      30.125  22.264  13.398  1.00  0.00    -0.074 C 
ATOM      5  C   UNL     1      30.240  21.033  13.904  1.00  0.00     0.008 C 
ATOM      6  C   UNL     1      31.281  23.028  12.860  1.00  0.00     0.021 C 
ATOM      7  C   UNL     1      31.598  24.309  13.615  1.00  0.00     0.016 C 
ENDROOT
BRANCH   1   8
ATOM      8  C   UNL     1      31.296  25.179  11.199  1.00  0.00    -0.011 C 
ATOM      9  C   UNL     1      30.360  26.296  10.715  1.00  0.00     0.008 C 
ATOM     10  C   UNL     1      31.724  24.329   9.990  1.00  0.00     0.008 C 
ENDBRANCH   1   8
TORSDOF 1
ENDMDL
MODEL 8
REMARK VINA RESULT:    -3.889      2.450      5.145
REMARK INTER + INTRA:          -4.366
REMARK INTER:                  -4.123
REMARK INTRA:                  -0.242
REMARK UNBOUND:                -0.250
REMARK SMILES C=C1CC[C@@]2(C(C)C)C[C@@H]12
REMARK SMILES IDX 5 1 4 2 3 3 2 4 1 5 10 6 9 7 6 8 7 9 8 10
REMARK H PARENT
REMARK Flexibility Score: inf
ROOT
ATOM      1  C   UNL     1      30.309  28.294  11.559  1.00  0.00    -0.020 C 
ATOM      2  C   UNL     1      28.805  28.433  11.885  1.00  0.00     0.012 C 
ATOM      3  C   UNL     1      28.191  27.032  11.816  1.00  0.00     0.031 C 
ATOM      4  C   UNL     1      29.324  26.124  11.474  1.00  0.00    -0.074 C 
ATOM      5  C   UNL     1      29.187  24.802  11.332  1.00  0.00     0.008 C 
ATOM      6  C   UNL     1      30.630  26.819  11.342  1.00  0.00     0.021 C 
ATOM      7  C   UNL     1      31.110  27.510  12.608  1.00  0.00     0.016 C 
ENDROOT
BRANCH   1   8
ATOM      8  C   UNL     1      31.138  29.453  10.903  1.00  0.00    -0.011 C 
ATOM      9  C   UNL     1      30.420  30.810  10.976  1.00  0.00     0.008 C 
ATOM     10  C   UNL     1      31.545  29.184   9.443  1.00  0.00     0.008 C 
ENDBRANCH   1   8
TORSDOF 1
ENDMDL
MODEL 9
REMARK VINA RESULT:    -3.853      1.136      3.987
REMARK INTER + INTRA:          -4.328
REMARK INTER:                  -4.201
REMARK INTRA:                  -0.127
REMARK UNBOUND:                -0.250
REMARK SMILES C=C1CC[C@@]2(C(C)C)C[C@@H]12
REMARK SMILES IDX 5 1 4 2 3 3 2 4 1 5 10 6 9 7 6 8 7 9 8 10
REMARK H PARENT
REMARK Flexibility Score: inf
ROOT
ATOM      1  C   UNL     1      29.720  25.132  11.696  1.00  0.00    -0.020 C 
ATOM      2  C   UNL     1      30.645  24.423  10.682  1.00  0.00     0.012 C 
ATOM      3  C   UNL     1      30.991  23.049  11.263  1.00  0.00     0.031 C 
ATOM      4  C   UNL     1      30.266  22.979  12.564  1.00  0.00    -0.074 C 
ATOM      5  C   UNL     1      30.311  21.917  13.373  1.00  0.00     0.008 C 
ATOM      6  C   UNL     1      29.455  24.189  12.864  1.00  0.00     0.021 C 
ATOM      7  C   UNL     1      28.346  24.470  11.863  1.00  0.00     0.016 C 
ENDROOT
BRANCH   1   8
ATOM      8  C   UNL     1      29.662  26.695  11.832  1.00  0.00    -0.011 C 
ATOM      9  C   UNL     1      29.429  27.398  10.486  1.00  0.00     0.008 C 
ATOM     10  C   UNL     1      30.900  27.311  12.508  1.00  0.00     0.008 C 
ENDBRANCH   1   8
TORSDOF 1
ENDMDL
