MODEL 1
REMARK VINA RESULT:    -5.341      0.000      0.000
REMARK INTER + INTRA:          -9.265
REMARK INTER:                  -8.464
REMARK INTRA:                  -0.801
REMARK UNBOUND:                -0.801
REMARK SMILES CCCCCCCCCCCC(=O)[O-]
REMARK SMILES IDX 7 1 8 2 9 3 10 4 11 5 12 6 13 7 14 8 6 9 5 10 4 11 3 12 2 13
REMARK SMILES IDX 1 14
REMARK H PARENT
REMARK Flexibility Score: inf
ROOT
ATOM      1  C   UNL     1      28.262   2.877   4.122  1.00  0.00     0.000 C 
ENDROOT
BRANCH   1   2
ATOM      2  C   UNL     1      27.247   1.897   4.744  1.00  0.00     0.000 C 
BRANCH   2   3
ATOM      3  C   UNL     1      27.774   1.080   5.942  1.00  0.00     0.000 C 
BRANCH   3   4
ATOM      4  C   UNL     1      29.105   0.348   5.692  1.00  0.00     0.006 C 
BRANCH   4   5
ATOM      5  C   UNL     1      28.913  -1.037   5.064  1.00  0.00     0.053 C 
BRANCH   5   6
ATOM      6  C   UNL     1      28.682  -0.914   3.590  1.00  0.00     0.041 C 
ATOM      7  O   UNL     1      29.488  -0.261   2.875  1.00  0.00    -0.550 OA
ATOM      8  O   UNL     1      27.605  -1.562   2.998  1.00  0.00    -0.550 OA
ENDBRANCH   5   6
ENDBRANCH   4   5
ENDBRANCH   3   4
ENDBRANCH   2   3
ENDBRANCH   1   2
BRANCH   1   9
ATOM      9  C   UNL     1      27.710   4.282   3.822  1.00  0.00     0.000 C 
BRANCH   9  10
ATOM     10  C   UNL     1      27.610   5.165   5.075  1.00  0.00    -0.000 C 
BRANCH  10  11
ATOM     11  C   UNL     1      28.834   6.083   5.198  1.00  0.00    -0.000 C 
BRANCH  11  12
ATOM     12  C   UNL     1      29.961   5.470   6.049  1.00  0.00    -0.000 C 
BRANCH  12  13
ATOM     13  C   UNL     1      29.498   4.443   7.096  1.00  0.00    -0.003 C 
ATOM     14  C   UNL     1      28.991   5.088   8.385  1.00  0.00     0.004 C 
ENDBRANCH  12  13
ENDBRANCH  11  12
ENDBRANCH  10  11
ENDBRANCH   9  10
ENDBRANCH   1   9
TORSDOF 10
ENDMDL
MODEL 2
REMARK VINA RESULT:    -5.078      0.927      1.755
REMARK INTER + INTRA:          -8.847
REMARK INTER:                  -8.480
REMARK INTRA:                  -0.367
REMARK UNBOUND:                -0.801
REMARK SMILES CCCCCCCCCCCC(=O)[O-]
REMARK SMILES IDX 7 1 8 2 9 3 10 4 11 5 12 6 13 7 14 8 6 9 5 10 4 11 3 12 2 13
REMARK SMILES IDX 1 14
REMARK H PARENT
REMARK Flexibility Score: inf
ROOT
ATOM      1  C   UNL     1      27.532   4.175   4.034  1.00  0.00     0.000 C 
ENDROOT
BRANCH   1   2
ATOM      2  C   UNL     1      27.339   2.670   4.312  1.00  0.00     0.000 C 
BRANCH   2   3
ATOM      3  C   UNL     1      28.602   1.803   4.133  1.00  0.00     0.000 C 
BRANCH   3   4
ATOM      4  C   UNL     1      28.941   0.897   5.331  1.00  0.00     0.006 C 
BRANCH   4   5
ATOM      5  C   UNL     1      28.696  -0.588   5.042  1.00  0.00     0.053 C 
BRANCH   5   6
ATOM      6  C   UNL     1      28.646  -0.831   3.565  1.00  0.00     0.041 C 
ATOM      7  O   UNL     1      29.697  -0.756   2.875  1.00  0.00    -0.550 OA
ATOM      8  O   UNL     1      27.448  -1.187   2.959  1.00  0.00    -0.550 OA
ENDBRANCH   5   6
ENDBRANCH   4   5
ENDBRANCH   3   4
ENDBRANCH   2   3
ENDBRANCH   1   2
BRANCH   1   9
ATOM      9  C   UNL     1      27.512   5.075   5.282  1.00  0.00     0.000 C 
BRANCH   9  10
ATOM     10  C   UNL     1      28.059   4.373   6.534  1.00  0.00    -0.000 C 
BRANCH  10  11
ATOM     11  C   UNL     1      29.270   5.127   7.101  1.00  0.00    -0.000 C 
BRANCH  11  12
ATOM     12  C   UNL     1      29.745   6.273   6.190  1.00  0.00    -0.000 C 
BRANCH  12  13
ATOM     13  C   UNL     1      30.621   5.837   5.003  1.00  0.00    -0.003 C 
ATOM     14  C   UNL     1      31.125   4.399   5.126  1.00  0.00     0.004 C 
ENDBRANCH  12  13
ENDBRANCH  11  12
ENDBRANCH  10  11
ENDBRANCH   9  10
ENDBRANCH   1   9
TORSDOF 10
ENDMDL
MODEL 3
REMARK VINA RESULT:    -4.504      2.971      6.068
REMARK INTER + INTRA:          -7.939
REMARK INTER:                  -7.238
REMARK INTRA:                  -0.701
REMARK UNBOUND:                -0.801
REMARK SMILES CCCCCCCCCCCC(=O)[O-]
REMARK SMILES IDX 7 1 8 2 9 3 10 4 11 5 12 6 13 7 14 8 6 9 5 10 4 11 3 12 2 13
REMARK SMILES IDX 1 14
REMARK H PARENT
REMARK Flexibility Score: inf
ROOT
ATOM      1  C   UNL     1      28.756   2.376   5.765  1.00  0.00     0.000 C 
ENDROOT
BRANCH   1   2
ATOM      2  C   UNL     1      28.717   2.910   4.319  1.00  0.00     0.000 C 
BRANCH   2   3
ATOM      3  C   UNL     1      27.651   3.991   4.046  1.00  0.00     0.000 C 
BRANCH   3   4
ATOM      4  C   UNL     1      27.539   5.079   5.130  1.00  0.00     0.006 C 
BRANCH   4   5
ATOM      5  C   UNL     1      28.635   6.145   5.018  1.00  0.00     0.053 C 
BRANCH   5   6
ATOM      6  C   UNL     1      29.868   5.702   5.742  1.00  0.00     0.041 C 
ATOM      7  O   UNL     1      30.951   5.552   5.115  1.00  0.00    -0.550 OA
ATOM      8  O   UNL     1      29.835   5.504   7.116  1.00  0.00    -0.550 OA
ENDBRANCH   5   6
ENDBRANCH   4   5
ENDBRANCH   3   4
ENDBRANCH   2   3
ENDBRANCH   1   2
BRANCH   1   9
ATOM      9  C   UNL     1      27.940   1.093   6.007  1.00  0.00     0.000 C 
BRANCH   9  10
ATOM     10  C   UNL     1      28.823  -0.153   6.167  1.00  0.00    -0.000 C 
BRANCH  10  11
ATOM     11  C   UNL     1      28.445  -1.229   5.139  1.00  0.00    -0.000 C 
BRANCH  11  12
ATOM     12  C   UNL     1      28.055  -0.641   3.771  1.00  0.00    -0.000 C 
BRANCH  12  13
ATOM     13  C   UNL     1      29.240  -0.240   2.875  1.00  0.00    -0.003 C 
ATOM     14  C   UNL     1      30.393  -1.243   2.922  1.00  0.00     0.004 C 
ENDBRANCH  12  13
ENDBRANCH  11  12
ENDBRANCH  10  11
ENDBRANCH   9  10
ENDBRANCH   1   9
TORSDOF 10
ENDMDL
MODEL 4
REMARK VINA RESULT:    -4.304      2.693      5.863
REMARK INTER + INTRA:          -7.622
REMARK INTER:                  -7.174
REMARK INTRA:                  -0.447
REMARK UNBOUND:                -0.801
REMARK SMILES CCCCCCCCCCCC(=O)[O-]
REMARK SMILES IDX 7 1 8 2 9 3 10 4 11 5 12 6 13 7 14 8 6 9 5 10 4 11 3 12 2 13
REMARK SMILES IDX 1 14
REMARK H PARENT
REMARK Flexibility Score: inf
ROOT
ATOM      1  C   UNL     1      27.325   3.671   3.666  1.00  0.00     0.000 C 
ENDROOT
BRANCH   1   2
ATOM      2  C   UNL     1      27.274   4.787   4.729  1.00  0.00     0.000 C 
BRANCH   2   3
ATOM      3  C   UNL     1      28.171   6.009   4.440  1.00  0.00     0.000 C 
BRANCH   3   4
ATOM      4  C   UNL     1      29.604   5.907   4.994  1.00  0.00     0.006 C 
BRANCH   4   5
ATOM      5  C   UNL     1      29.687   6.229   6.490  1.00  0.00     0.053 C 
BRANCH   5   6
ATOM      6  C   UNL     1      29.407   5.004   7.304  1.00  0.00     0.041 C 
ATOM      7  O   UNL     1      29.704   3.864   6.856  1.00  0.00    -0.550 OA
ATOM      8  O   UNL     1      28.862   5.123   8.576  1.00  0.00    -0.550 OA
ENDBRANCH   5   6
ENDBRANCH   4   5
ENDBRANCH   3   4
ENDBRANCH   2   3
ENDBRANCH   1   2
BRANCH   1   9
ATOM      9  C   UNL     1      28.192   2.456   4.040  1.00  0.00     0.000 C 
BRANCH   9  10
ATOM     10  C   UNL     1      27.731   1.769   5.335  1.00  0.00    -0.000 C 
BRANCH  10  11
ATOM     11  C   UNL     1      28.764   0.735   5.805  1.00  0.00    -0.000 C 
BRANCH  11  12
ATOM     12  C   UNL     1      28.478  -0.682   5.276  1.00  0.00    -0.000 C 
BRANCH  12  13
ATOM     13  C   UNL     1      29.002  -0.962   3.856  1.00  0.00    -0.003 C 
ATOM     14  C   UNL     1      27.896  -1.347   2.875  1.00  0.00     0.004 C 
ENDBRANCH  12  13
ENDBRANCH  11  12
ENDBRANCH  10  11
ENDBRANCH   9  10
ENDBRANCH   1   9
TORSDOF 10
ENDMDL
MODEL 5
REMARK VINA RESULT:    -3.963      2.708      5.612
REMARK INTER + INTRA:          -7.080
REMARK INTER:                  -6.484
REMARK INTRA:                  -0.597
REMARK UNBOUND:                -0.801
REMARK SMILES CCCCCCCCCCCC(=O)[O-]
REMARK SMILES IDX 7 1 8 2 9 3 10 4 11 5 12 6 13 7 14 8 6 9 5 10 4 11 3 12 2 13
REMARK SMILES IDX 1 14
REMARK H PARENT
REMARK Flexibility Score: inf
ROOT
ATOM      1  C   UNL     1      27.673   2.509   4.081  1.00  0.00     0.000 C 
ENDROOT
BRANCH   1   2
ATOM      2  C   UNL     1      27.316   4.002   3.931  1.00  0.00     0.000 C 
BRANCH   2   3
ATOM      3  C   UNL     1      27.420   4.834   5.225  1.00  0.00     0.000 C 
BRANCH   3   4
ATOM      4  C   UNL     1      28.185   4.153   6.375  1.00  0.00     0.006 C 
BRANCH   4   5
ATOM      5  C   UNL     1      29.281   5.045   6.970  1.00  0.00     0.053 C 
BRANCH   5   6
ATOM      6  C   UNL     1      30.147   5.602   5.884  1.00  0.00     0.041 C 
ATOM      7  O   UNL     1      30.253   6.849   5.735  1.00  0.00    -0.550 OA
ATOM      8  O   UNL     1      30.876   4.747   5.067  1.00  0.00    -0.550 OA
ENDBRANCH   5   6
ENDBRANCH   4   5
ENDBRANCH   3   4
ENDBRANCH   2   3
ENDBRANCH   1   2
BRANCH   1   9
ATOM      9  C   UNL     1      29.097   2.132   3.637  1.00  0.00     0.000 C 
BRANCH   9  10
ATOM     10  C   UNL     1      29.154   0.794   2.885  1.00  0.00    -0.000 C 
BRANCH  10  11
ATOM     11  C   UNL     1      27.920  -0.064   3.199  1.00  0.00    -0.000 C 
BRANCH  11  12
ATOM     12  C   UNL     1      28.273  -1.396   3.884  1.00  0.00    -0.000 C 
BRANCH  12  13
ATOM     13  C   UNL     1      29.175  -1.268   5.124  1.00  0.00    -0.003 C 
ATOM     14  C   UNL     1      28.690  -0.207   6.111  1.00  0.00     0.004 C 
ENDBRANCH  12  13
ENDBRANCH  11  12
ENDBRANCH  10  11
ENDBRANCH   9  10
ENDBRANCH   1   9
TORSDOF 10
ENDMDL
MODEL 6
REMARK VINA RESULT:    -3.420     17.173     18.861
REMARK INTER + INTRA:          -6.220
REMARK INTER:                  -5.496
REMARK INTRA:                  -0.723
REMARK UNBOUND:                -0.801
REMARK SMILES CCCCCCCCCCCC(=O)[O-]
REMARK SMILES IDX 7 1 8 2 9 3 10 4 11 5 12 6 13 7 14 8 6 9 5 10 4 11 3 12 2 13
REMARK SMILES IDX 1 14
REMARK H PARENT
REMARK Flexibility Score: inf
ROOT
ATOM      1  C   UNL     1      31.034  12.495  21.089  1.00  0.00     0.000 C 
ENDROOT
BRANCH   1   2
ATOM      2  C   UNL     1      31.063  12.220  22.606  1.00  0.00     0.000 C 
BRANCH   2   3
ATOM      3  C   UNL     1      30.309  10.953  23.058  1.00  0.00     0.000 C 
BRANCH   3   4
ATOM      4  C   UNL     1      29.707  10.114  21.915  1.00  0.00     0.006 C 
BRANCH   4   5
ATOM      5  C   UNL     1      28.181   9.998  22.004  1.00  0.00     0.053 C 
BRANCH   5   6
ATOM      6  C   UNL     1      27.535  11.288  21.606  1.00  0.00     0.041 C 
ATOM      7  O   UNL     1      26.936  11.988  22.464  1.00  0.00    -0.550 OA
ATOM      8  O   UNL     1      27.636  11.741  20.297  1.00  0.00    -0.550 OA
ENDBRANCH   5   6
ENDBRANCH   4   5
ENDBRANCH   3   4
ENDBRANCH   2   3
ENDBRANCH   1   2
BRANCH   1   9
ATOM      9  C   UNL     1      31.915  13.667  20.622  1.00  0.00     0.000 C 
BRANCH   9  10
ATOM     10  C   UNL     1      31.366  14.365  19.369  1.00  0.00    -0.000 C 
BRANCH  10  11
ATOM     11  C   UNL     1      30.359  13.467  18.637  1.00  0.00    -0.000 C 
BRANCH  11  12
ATOM     12  C   UNL     1      30.280  13.760  17.128  1.00  0.00    -0.000 C 
BRANCH  12  13
ATOM     13  C   UNL     1      30.422  15.244  16.747  1.00  0.00    -0.003 C 
ATOM     14  C   UNL     1      31.373  15.472  15.573  1.00  0.00     0.004 C 
ENDBRANCH  12  13
ENDBRANCH  11  12
ENDBRANCH  10  11
ENDBRANCH   9  10
ENDBRANCH   1   9
TORSDOF 10
ENDMDL
MODEL 7
REMARK VINA RESULT:    -3.412     16.956     18.701
REMARK INTER + INTRA:          -6.208
REMARK INTER:                  -5.235
REMARK INTRA:                  -0.972
REMARK UNBOUND:                -0.801
REMARK SMILES CCCCCCCCCCCC(=O)[O-]
REMARK SMILES IDX 7 1 8 2 9 3 10 4 11 5 12 6 13 7 14 8 6 9 5 10 4 11 3 12 2 13
REMARK SMILES IDX 1 14
REMARK H PARENT
REMARK Flexibility Score: inf
ROOT
ATOM      1  C   UNL     1      30.906  12.795  20.754  1.00  0.00     0.000 C 
ENDROOT
BRANCH   1   2
ATOM      2  C   UNL     1      31.734  13.687  19.806  1.00  0.00     0.000 C 
BRANCH   2   3
ATOM      3  C   UNL     1      31.345  15.179  19.803  1.00  0.00     0.000 C 
BRANCH   3   4
ATOM      4  C   UNL     1      31.401  15.860  18.423  1.00  0.00     0.006 C 
BRANCH   4   5
ATOM      5  C   UNL     1      30.209  15.496  17.531  1.00  0.00     0.053 C 
BRANCH   5   6
ATOM      6  C   UNL     1      30.630  14.533  16.465  1.00  0.00     0.041 C 
ATOM      7  O   UNL     1      31.305  14.933  15.480  1.00  0.00    -0.550 OA
ATOM      8  O   UNL     1      30.321  13.184  16.585  1.00  0.00    -0.550 OA
ENDBRANCH   5   6
ENDBRANCH   4   5
ENDBRANCH   3   4
ENDBRANCH   2   3
ENDBRANCH   1   2
BRANCH   1   9
ATOM      9  C   UNL     1      29.444  13.235  20.950  1.00  0.00     0.000 C 
BRANCH   9  10
ATOM     10  C   UNL     1      28.505  12.680  19.869  1.00  0.00    -0.000 C 
BRANCH  10  11
ATOM     11  C   UNL     1      27.349  11.889  20.500  1.00  0.00    -0.000 C 
BRANCH  11  12
ATOM     12  C   UNL     1      27.665  11.398  21.924  1.00  0.00    -0.000 C 
BRANCH  12  13
ATOM     13  C   UNL     1      28.048   9.911  22.027  1.00  0.00    -0.003 C 
ATOM     14  C   UNL     1      29.557   9.675  21.960  1.00  0.00     0.004 C 
ENDBRANCH  12  13
ENDBRANCH  11  12
ENDBRANCH  10  11
ENDBRANCH   9  10
ENDBRANCH   1   9
TORSDOF 10
ENDMDL
MODEL 8
REMARK VINA RESULT:    -3.392     17.214     18.948
REMARK INTER + INTRA:          -6.177
REMARK INTER:                  -4.843
REMARK INTRA:                  -1.333
REMARK UNBOUND:                -0.801
REMARK SMILES CCCCCCCCCCCC(=O)[O-]
REMARK SMILES IDX 7 1 8 2 9 3 10 4 11 5 12 6 13 7 14 8 6 9 5 10 4 11 3 12 2 13
REMARK SMILES IDX 1 14
REMARK H PARENT
REMARK Flexibility Score: inf
ROOT
ATOM      1  C   UNL     1      27.684  11.578  20.516  1.00  0.00     0.000 C 
ENDROOT
BRANCH   1   2
ATOM      2  C   UNL     1      27.484  13.072  20.842  1.00  0.00     0.000 C 
BRANCH   2   3
ATOM      3  C   UNL     1      28.308  14.048  19.979  1.00  0.00     0.000 C 
BRANCH   3   4
ATOM      4  C   UNL     1      29.268  13.377  18.979  1.00  0.00     0.006 C 
BRANCH   4   5
ATOM      5  C   UNL     1      30.287  14.357  18.385  1.00  0.00     0.053 C 
BRANCH   5   6
ATOM      6  C   UNL     1      30.020  14.568  16.928  1.00  0.00     0.041 C 
ATOM      7  O   UNL     1      30.625  13.875  16.066  1.00  0.00    -0.550 OA
ATOM      8  O   UNL     1      29.069  15.494  16.522  1.00  0.00    -0.550 OA
ENDBRANCH   5   6
ENDBRANCH   4   5
ENDBRANCH   3   4
ENDBRANCH   2   3
ENDBRANCH   1   2
BRANCH   1   9
ATOM      9  C   UNL     1      28.022  10.687  21.725  1.00  0.00     0.000 C 
BRANCH   9  10
ATOM     10  C   UNL     1      29.527  10.414  21.863  1.00  0.00    -0.000 C 
BRANCH  10  11
ATOM     11  C   UNL     1      30.092  11.081  23.125  1.00  0.00    -0.000 C 
BRANCH  11  12
ATOM     12  C   UNL     1      30.647  12.492  22.861  1.00  0.00    -0.000 C 
BRANCH  12  13
ATOM     13  C   UNL     1      31.555  12.611  21.624  1.00  0.00    -0.003 C 
ATOM     14  C   UNL     1      32.222  13.980  21.501  1.00  0.00     0.004 C 
ENDBRANCH  12  13
ENDBRANCH  11  12
ENDBRANCH  10  11
ENDBRANCH   9  10
ENDBRANCH   1   9
TORSDOF 10
ENDMDL
MODEL 9
REMARK VINA RESULT:    -3.350     16.903     18.894
REMARK INTER + INTRA:          -6.110
REMARK INTER:                  -5.311
REMARK INTRA:                  -0.798
REMARK UNBOUND:                -0.801
REMARK SMILES CCCCCCCCCCCC(=O)[O-]
REMARK SMILES IDX 7 1 8 2 9 3 10 4 11 5 12 6 13 7 14 8 6 9 5 10 4 11 3 12 2 13
REMARK SMILES IDX 1 14
REMARK H PARENT
REMARK Flexibility Score: inf
ROOT
ATOM      1  C   UNL     1      31.722  13.110  20.099  1.00  0.00     0.000 C 
ENDROOT
BRANCH   1   2
ATOM      2  C   UNL     1      31.170  14.313  19.306  1.00  0.00     0.000 C 
BRANCH   2   3
ATOM      3  C   UNL     1      29.752  14.125  18.731  1.00  0.00     0.000 C 
BRANCH   3   4
ATOM      4  C   UNL     1      29.549  14.681  17.310  1.00  0.00     0.006 C 
BRANCH   4   5
ATOM      5  C   UNL     1      30.692  14.313  16.358  1.00  0.00     0.053 C 
BRANCH   5   6
ATOM      6  C   UNL     1      31.295  15.547  15.764  1.00  0.00     0.041 C 
ATOM      7  O   UNL     1      32.003  16.311  16.472  1.00  0.00    -0.550 OA
ATOM      8  O   UNL     1      31.116  15.829  14.415  1.00  0.00    -0.550 OA
ENDBRANCH   5   6
ENDBRANCH   4   5
ENDBRANCH   3   4
ENDBRANCH   2   3
ENDBRANCH   1   2
BRANCH   1   9
ATOM      9  C   UNL     1      32.208  13.437  21.522  1.00  0.00     0.000 C 
BRANCH   9  10
ATOM     10  C   UNL     1      31.560  12.547  22.593  1.00  0.00    -0.000 C 
BRANCH  10  11
ATOM     11  C   UNL     1      30.109  12.209  22.221  1.00  0.00    -0.000 C 
BRANCH  11  12
ATOM     12  C   UNL     1      29.792  10.708  22.340  1.00  0.00    -0.000 C 
BRANCH  12  13
ATOM     13  C   UNL     1      28.452  10.276  21.719  1.00  0.00    -0.003 C 
ATOM     14  C   UNL     1      27.791  11.380  20.894  1.00  0.00     0.004 C 
ENDBRANCH  12  13
ENDBRANCH  11  12
ENDBRANCH  10  11
ENDBRANCH   9  10
ENDBRANCH   1   9
TORSDOF 10
ENDMDL
