MODEL 1
REMARK VINA RESULT:    -3.273      0.000      0.000
REMARK INTER + INTRA:          -4.673
REMARK INTER:                  -4.420
REMARK INTRA:                  -0.252
REMARK UNBOUND:                -0.252
REMARK SMILES C=C1CCC=C(C)CC[C@@H]2[C@@H]1CC2(C)C
REMARK SMILES IDX 11 1 12 2 13 3 10 4 14 5 15 6 9 7 8 8 6 9 7 10 5 11 2 13
REMARK SMILES IDX 1 14 3 15 4 16
REMARK H PARENT
REMARK Flexibility Score: 70.00
ROOT
ATOM      1  C   UNL     1      13.679   5.167  21.006  1.00  0.00     0.018 C 
ATOM      2  C   UNL     1      14.188   4.390  22.228  1.00  0.00     0.015 C 
ATOM      3  C   UNL     1      13.903   3.059  21.505  1.00  0.00    -0.031 C 
ATOM      4  C   UNL     1      13.269   3.851  20.327  1.00  0.00     0.002 C 
ATOM      5  C   UNL     1      15.203   2.282  21.203  1.00  0.00     0.011 C 
ATOM      6  C   UNL     1      12.895   2.159  22.243  1.00  0.00     0.011 C 
ENDROOT
BRANCH   4   7
ATOM      7  C   UNL     1      13.859   3.621  18.912  1.00  0.00     0.009 C 
BRANCH   7   8
ATOM      8  C   UNL     1      12.976   4.116  17.749  1.00  0.00     0.030 C 
BRANCH   8   9
ATOM      9  C   UNL     1      13.289   5.529  17.279  1.00  0.00    -0.077 C 
ATOM     10  C   UNL     1      14.243   5.693  16.126  1.00  0.00     0.039 C 
ATOM     11  C   UNL     1      12.747   6.648  17.823  1.00  0.00    -0.028 CG0
ATOM     12  G   UNL     1      11.694   6.695  18.913  1.00  0.00     0.000 G0
ENDBRANCH   8   9
ENDBRANCH   7   8
ENDBRANCH   4   7
BRANCH   1  13
ATOM     13  C   UNL     1      12.524   6.136  21.253  1.00  0.00    -0.074 C 
ATOM     14  C   UNL     1      11.702   6.017  22.312  1.00  0.00     0.008 C 
BRANCH  13  15
ATOM     15  C   UNL     1      12.262   7.236  20.243  1.00  0.00     0.035 C 
BRANCH  15  16
ATOM     16  C   UNL     1      11.692   6.714  18.915  1.00  0.00     0.032 CG0
ATOM     17  G   UNL     1      12.739   6.648  17.821  1.00  0.00     0.000 G0
ENDBRANCH  15  16
ENDBRANCH  13  15
ENDBRANCH   1  13
TORSDOF 0
ENDMDL
MODEL 2
REMARK VINA RESULT:    -3.232      2.558      4.687
REMARK INTER + INTRA:          -4.618
REMARK INTER:                  -4.372
REMARK INTRA:                  -0.246
REMARK UNBOUND:                -0.252
REMARK SMILES C=C1CCC=C(C)CC[C@@H]2[C@@H]1CC2(C)C
REMARK SMILES IDX 11 1 12 2 13 3 10 4 14 5 15 6 9 7 8 8 6 9 7 10 5 11 2 13
REMARK SMILES IDX 1 14 3 15 4 16
REMARK H PARENT
REMARK Flexibility Score: 70.00
ROOT
ATOM      1  C   UNL     1      13.447   4.158  18.210  1.00  0.00     0.018 C 
ATOM      2  C   UNL     1      11.957   4.498  18.067  1.00  0.00     0.015 C 
ATOM      3  C   UNL     1      12.321   5.939  17.659  1.00  0.00    -0.031 C 
ATOM      4  C   UNL     1      13.818   5.624  17.933  1.00  0.00     0.002 C 
ATOM      5  C   UNL     1      11.928   6.236  16.196  1.00  0.00     0.011 C 
ATOM      6  C   UNL     1      11.745   7.012  18.601  1.00  0.00     0.011 C 
ENDROOT
BRANCH   4   7
ATOM      7  C   UNL     1      14.820   5.847  16.772  1.00  0.00     0.009 C 
BRANCH   7   8
ATOM      8  C   UNL     1      16.284   6.059  17.206  1.00  0.00     0.030 C 
BRANCH   8   9
ATOM      9  C   UNL     1      17.123   4.790  17.229  1.00  0.00    -0.077 C 
ATOM     10  C   UNL     1      18.002   4.503  16.040  1.00  0.00     0.039 C 
ATOM     11  C   UNL     1      17.141   3.910  18.263  1.00  0.00    -0.028 CG0
ATOM     12  G   UNL     1      16.416   4.067  19.585  1.00  0.00     0.000 G0
ENDBRANCH   8   9
ENDBRANCH   7   8
ENDBRANCH   4   7
BRANCH   1  13
ATOM     13  C   UNL     1      13.895   3.642  19.576  1.00  0.00    -0.074 C 
ATOM     14  C   UNL     1      13.128   3.765  20.676  1.00  0.00     0.008 C 
BRANCH  13  15
ATOM     15  C   UNL     1      15.270   3.017  19.708  1.00  0.00     0.035 C 
BRANCH  15  16
ATOM     16  C   UNL     1      16.411   4.039  19.588  1.00  0.00     0.032 CG0
ATOM     17  G   UNL     1      17.162   3.917  18.277  1.00  0.00     0.000 G0
ENDBRANCH  15  16
ENDBRANCH  13  15
ENDBRANCH   1  13
TORSDOF 0
ENDMDL
MODEL 3
REMARK VINA RESULT:    -3.201      3.103      5.158
REMARK INTER + INTRA:          -4.576
REMARK INTER:                  -4.288
REMARK INTRA:                  -0.287
REMARK UNBOUND:                -0.252
REMARK SMILES C=C1CCC=C(C)CC[C@@H]2[C@@H]1CC2(C)C
REMARK SMILES IDX 11 1 12 2 13 3 10 4 14 5 15 6 9 7 8 8 6 9 7 10 5 11 2 13
REMARK SMILES IDX 1 14 3 15 4 16
REMARK H PARENT
REMARK Flexibility Score: 70.00
ROOT
ATOM      1  C   UNL     1      14.096   6.707  17.797  1.00  0.00     0.018 C 
ATOM      2  C   UNL     1      12.785   7.505  17.843  1.00  0.00     0.015 C 
ATOM      3  C   UNL     1      12.019   6.285  17.297  1.00  0.00    -0.031 C 
ATOM      4  C   UNL     1      13.367   5.529  17.131  1.00  0.00     0.002 C 
ATOM      5  C   UNL     1      11.027   5.720  18.337  1.00  0.00     0.011 C 
ATOM      6  C   UNL     1      11.304   6.551  15.959  1.00  0.00     0.011 C 
ENDROOT
BRANCH   4   7
ATOM      7  C   UNL     1      13.515   4.164  17.849  1.00  0.00     0.009 C 
BRANCH   7   8
ATOM      8  C   UNL     1      14.668   3.279  17.337  1.00  0.00     0.030 C 
BRANCH   8   9
ATOM      9  C   UNL     1      15.970   3.431  18.109  1.00  0.00    -0.077 C 
ATOM     10  C   UNL     1      16.244   2.460  19.227  1.00  0.00     0.039 C 
ATOM     11  C   UNL     1      16.906   4.376  17.840  1.00  0.00    -0.028 CG0
ATOM     12  G   UNL     1      16.871   5.373  16.699  1.00  0.00     0.000 G0
ENDBRANCH   8   9
ENDBRANCH   7   8
ENDBRANCH   4   7
BRANCH   1  13
ATOM     13  C   UNL     1      15.224   7.306  16.960  1.00  0.00    -0.074 C 
ATOM     14  C   UNL     1      14.994   8.206  15.985  1.00  0.00     0.008 C 
BRANCH  13  15
ATOM     15  C   UNL     1      16.644   6.833  17.198  1.00  0.00     0.035 C 
BRANCH  15  16
ATOM     16  C   UNL     1      16.895   5.401  16.700  1.00  0.00     0.032 CG0
ATOM     17  G   UNL     1      16.891   4.387  17.827  1.00  0.00     0.000 G0
ENDBRANCH  15  16
ENDBRANCH  13  15
ENDBRANCH   1  13
TORSDOF 0
ENDMDL
MODEL 4
REMARK VINA RESULT:    -3.116      1.498      3.439
REMARK INTER + INTRA:          -4.461
REMARK INTER:                  -4.511
REMARK INTRA:                   0.050
REMARK UNBOUND:                -0.252
REMARK SMILES C=C1CCC=C(C)CC[C@@H]2[C@@H]1CC2(C)C
REMARK SMILES IDX 11 1 12 2 13 3 10 4 14 5 15 6 9 7 8 8 6 9 7 10 5 11 2 13
REMARK SMILES IDX 1 14 3 15 4 16
REMARK H PARENT
REMARK Flexibility Score: 70.00
ROOT
ATOM      1  C   UNL     1      13.086   4.406  19.238  1.00  0.00     0.018 C 
ATOM      2  C   UNL     1      13.507   3.898  20.625  1.00  0.00     0.015 C 
ATOM      3  C   UNL     1      13.244   5.295  21.220  1.00  0.00    -0.031 C 
ATOM      4  C   UNL     1      12.946   5.832  19.792  1.00  0.00     0.002 C 
ATOM      5  C   UNL     1      12.066   5.278  22.218  1.00  0.00     0.011 C 
ATOM      6  C   UNL     1      14.487   5.937  21.863  1.00  0.00     0.011 C 
ENDROOT
BRANCH   4   7
ATOM      7  C   UNL     1      11.571   6.505  19.554  1.00  0.00     0.009 C 
BRANCH   7   8
ATOM      8  C   UNL     1      11.000   6.338  18.131  1.00  0.00     0.030 C 
BRANCH   8   9
ATOM      9  C   UNL     1      11.594   7.286  17.100  1.00  0.00    -0.077 C 
ATOM     10  C   UNL     1      11.098   8.707  17.080  1.00  0.00     0.039 C 
ATOM     11  C   UNL     1      12.556   6.933  16.209  1.00  0.00    -0.028 CG0
ATOM     12  G   UNL     1      13.259   5.592  16.134  1.00  0.00     0.000 G0
ENDBRANCH   8   9
ENDBRANCH   7   8
ENDBRANCH   4   7
BRANCH   1  13
ATOM     13  C   UNL     1      14.120   4.261  18.122  1.00  0.00    -0.074 C 
ATOM     14  C   UNL     1      14.853   3.143  17.964  1.00  0.00     0.008 C 
BRANCH  13  15
ATOM     15  C   UNL     1      14.364   5.435  17.194  1.00  0.00     0.035 C 
BRANCH  15  16
ATOM     16  C   UNL     1      13.272   5.596  16.125  1.00  0.00     0.032 CG0
ATOM     17  G   UNL     1      12.574   6.939  16.209  1.00  0.00     0.000 G0
ENDBRANCH  15  16
ENDBRANCH  13  15
ENDBRANCH   1  13
TORSDOF 0
ENDMDL
MODEL 5
REMARK VINA RESULT:    -3.036      2.201      4.232
REMARK INTER + INTRA:          -4.354
REMARK INTER:                  -4.086
REMARK INTRA:                  -0.268
REMARK UNBOUND:                -0.252
REMARK SMILES C=C1CCC=C(C)CC[C@@H]2[C@@H]1CC2(C)C
REMARK SMILES IDX 11 1 12 2 13 3 10 4 14 5 15 6 9 7 8 8 6 9 7 10 5 11 2 13
REMARK SMILES IDX 1 14 3 15 4 16
REMARK H PARENT
REMARK Flexibility Score: 70.00
ROOT
ATOM      1  C   UNL     1      15.166   5.638  18.614  1.00  0.00     0.018 C 
ATOM      2  C   UNL     1      16.696   5.616  18.743  1.00  0.00     0.015 C 
ATOM      3  C   UNL     1      16.831   5.921  17.238  1.00  0.00    -0.031 C 
ATOM      4  C   UNL     1      15.287   5.812  17.092  1.00  0.00     0.002 C 
ATOM      5  C   UNL     1      17.458   7.310  16.991  1.00  0.00     0.011 C 
ATOM      6  C   UNL     1      17.593   4.838  16.454  1.00  0.00     0.011 C 
ENDROOT
BRANCH   4   7
ATOM      7  C   UNL     1      14.538   7.033  16.501  1.00  0.00     0.009 C 
BRANCH   7   8
ATOM      8  C   UNL     1      13.137   6.727  15.934  1.00  0.00     0.030 C 
BRANCH   8   9
ATOM      9  C   UNL     1      11.998   6.945  16.918  1.00  0.00    -0.077 C 
ATOM     10  C   UNL     1      11.259   8.255  16.862  1.00  0.00     0.039 C 
ATOM     11  C   UNL     1      11.596   6.024  17.830  1.00  0.00    -0.028 CG0
ATOM     12  G   UNL     1      12.135   4.614  17.978  1.00  0.00     0.000 G0
ENDBRANCH   8   9
ENDBRANCH   7   8
ENDBRANCH   4   7
BRANCH   1  13
ATOM     13  C   UNL     1      14.432   4.371  19.047  1.00  0.00    -0.074 C 
ATOM     14  C   UNL     1      15.059   3.186  19.173  1.00  0.00     0.008 C 
BRANCH  13  15
ATOM     15  C   UNL     1      12.937   4.437  19.292  1.00  0.00     0.035 C 
BRANCH  15  16
ATOM     16  C   UNL     1      12.121   4.607  18.001  1.00  0.00     0.032 CG0
ATOM     17  G   UNL     1      11.588   6.016  17.834  1.00  0.00     0.000 G0
ENDBRANCH  15  16
ENDBRANCH  13  15
ENDBRANCH   1  13
TORSDOF 0
ENDMDL
MODEL 6
REMARK VINA RESULT:    -3.030      2.426      5.221
REMARK INTER + INTRA:          -4.345
REMARK INTER:                  -4.129
REMARK INTRA:                  -0.216
REMARK UNBOUND:                -0.252
REMARK SMILES C=C1CCC=C(C)CC[C@@H]2[C@@H]1CC2(C)C
REMARK SMILES IDX 11 1 12 2 13 3 10 4 14 5 15 6 9 7 8 8 6 9 7 10 5 11 2 13
REMARK SMILES IDX 1 14 3 15 4 16
REMARK H PARENT
REMARK Flexibility Score: 70.00
ROOT
ATOM      1  C   UNL     1      14.315   5.146  18.365  1.00  0.00     0.018 C 
ATOM      2  C   UNL     1      13.407   6.273  17.850  1.00  0.00     0.015 C 
ATOM      3  C   UNL     1      12.194   5.613  18.535  1.00  0.00    -0.031 C 
ATOM      4  C   UNL     1      13.094   4.411  18.940  1.00  0.00     0.002 C 
ATOM      5  C   UNL     1      11.640   6.486  19.681  1.00  0.00     0.011 C 
ATOM      6  C   UNL     1      11.068   5.225  17.559  1.00  0.00     0.011 C 
ENDROOT
BRANCH   4   7
ATOM      7  C   UNL     1      13.180   4.059  20.447  1.00  0.00     0.009 C 
BRANCH   7   8
ATOM      8  C   UNL     1      13.857   2.711  20.764  1.00  0.00     0.030 C 
BRANCH   8   9
ATOM      9  C   UNL     1      15.351   2.805  21.035  1.00  0.00    -0.077 C 
ATOM     10  C   UNL     1      15.798   2.995  22.460  1.00  0.00     0.039 C 
ATOM     11  C   UNL     1      16.304   2.711  20.073  1.00  0.00    -0.028 CG0
ATOM     12  G   UNL     1      16.070   2.416  18.605  1.00  0.00     0.000 G0
ENDBRANCH   8   9
ENDBRANCH   7   8
ENDBRANCH   4   7
BRANCH   1  13
ATOM     13  C   UNL     1      15.083   4.359  17.305  1.00  0.00    -0.074 C 
ATOM     14  C   UNL     1      14.646   4.246  16.037  1.00  0.00     0.008 C 
BRANCH  13  15
ATOM     15  C   UNL     1      16.354   3.636  17.708  1.00  0.00     0.035 C 
BRANCH  15  16
ATOM     16  C   UNL     1      16.095   2.411  18.598  1.00  0.00     0.032 CG0
ATOM     17  G   UNL     1      16.276   2.717  20.072  1.00  0.00     0.000 G0
ENDBRANCH  15  16
ENDBRANCH  13  15
ENDBRANCH   1  13
TORSDOF 0
ENDMDL
MODEL 7
REMARK VINA RESULT:    -2.954      1.611      3.661
REMARK INTER + INTRA:          -4.242
REMARK INTER:                  -4.190
REMARK INTRA:                  -0.053
REMARK UNBOUND:                -0.252
REMARK SMILES C=C1CCC=C(C)CC[C@@H]2[C@@H]1CC2(C)C
REMARK SMILES IDX 11 1 12 2 13 3 10 4 14 5 15 6 9 7 8 8 6 9 7 10 5 11 2 13
REMARK SMILES IDX 1 14 3 15 4 16
REMARK H PARENT
REMARK Flexibility Score: 70.00
ROOT
ATOM      1  C   UNL     1      13.522   4.507  18.178  1.00  0.00     0.018 C 
ATOM      2  C   UNL     1      14.435   3.686  19.100  1.00  0.00     0.015 C 
ATOM      3  C   UNL     1      14.151   4.663  20.257  1.00  0.00    -0.031 C 
ATOM      4  C   UNL     1      13.336   5.559  19.282  1.00  0.00     0.002 C 
ATOM      5  C   UNL     1      13.367   3.984  21.400  1.00  0.00     0.011 C 
ATOM      6  C   UNL     1      15.413   5.355  20.805  1.00  0.00     0.011 C 
ENDROOT
BRANCH   4   7
ATOM      7  C   UNL     1      11.866   5.873  19.660  1.00  0.00     0.009 C 
BRANCH   7   8
ATOM      8  C   UNL     1      10.996   6.410  18.507  1.00  0.00     0.030 C 
BRANCH   8   9
ATOM      9  C   UNL     1      11.369   7.807  18.035  1.00  0.00    -0.077 C 
ATOM     10  C   UNL     1      10.875   8.979  18.842  1.00  0.00     0.039 C 
ATOM     11  C   UNL     1      12.134   8.061  16.943  1.00  0.00    -0.028 CG0
ATOM     12  G   UNL     1      12.811   7.029  16.064  1.00  0.00     0.000 G0
ENDBRANCH   8   9
ENDBRANCH   7   8
ENDBRANCH   4   7
BRANCH   1  13
ATOM     13  C   UNL     1      14.159   5.043  16.897  1.00  0.00    -0.074 C 
ATOM     14  C   UNL     1      14.772   4.238  16.010  1.00  0.00     0.008 C 
BRANCH  13  15
ATOM     15  C   UNL     1      14.148   6.538  16.643  1.00  0.00     0.035 C 
BRANCH  15  16
ATOM     16  C   UNL     1      12.822   7.038  16.048  1.00  0.00     0.032 CG0
ATOM     17  G   UNL     1      12.142   8.066  16.931  1.00  0.00     0.000 G0
ENDBRANCH  15  16
ENDBRANCH  13  15
ENDBRANCH   1  13
TORSDOF 0
ENDMDL
MODEL 8
REMARK VINA RESULT:    -2.884      1.764      4.196
REMARK INTER + INTRA:          -4.148
REMARK INTER:                  -4.075
REMARK INTRA:                  -0.073
REMARK UNBOUND:                -0.252
REMARK SMILES C=C1CCC=C(C)CC[C@@H]2[C@@H]1CC2(C)C
REMARK SMILES IDX 11 1 12 2 13 3 10 4 14 5 15 6 9 7 8 8 6 9 7 10 5 11 2 13
REMARK SMILES IDX 1 14 3 15 4 16
REMARK H PARENT
REMARK Flexibility Score: 70.00
ROOT
ATOM      1  C   UNL     1      11.603   6.686  19.788  1.00  0.00     0.018 C 
ATOM      2  C   UNL     1      11.364   8.202  19.840  1.00  0.00     0.015 C 
ATOM      3  C   UNL     1      12.129   8.370  18.512  1.00  0.00    -0.031 C 
ATOM      4  C   UNL     1      12.478   6.856  18.537  1.00  0.00     0.002 C 
ATOM      5  C   UNL     1      11.203   8.854  17.376  1.00  0.00     0.011 C 
ATOM      6  C   UNL     1      13.367   9.280  18.623  1.00  0.00     0.011 C 
ENDROOT
BRANCH   4   7
ATOM      7  C   UNL     1      12.056   6.005  17.312  1.00  0.00     0.009 C 
BRANCH   7   8
ATOM      8  C   UNL     1      12.278   4.488  17.463  1.00  0.00     0.030 C 
BRANCH   8   9
ATOM      9  C   UNL     1      13.729   4.082  17.679  1.00  0.00    -0.077 C 
ATOM     10  C   UNL     1      14.619   3.977  16.468  1.00  0.00     0.039 C 
ATOM     11  C   UNL     1      14.274   3.828  18.895  1.00  0.00    -0.028 CG0
ATOM     12  G   UNL     1      13.582   3.978  20.236  1.00  0.00     0.000 G0
ENDBRANCH   8   9
ENDBRANCH   7   8
ENDBRANCH   4   7
BRANCH   1  13
ATOM     13  C   UNL     1      12.328   6.075  20.986  1.00  0.00    -0.074 C 
ATOM     14  C   UNL     1      11.823   6.126  22.233  1.00  0.00     0.008 C 
BRANCH  13  15
ATOM     15  C   UNL     1      13.686   5.435  20.772  1.00  0.00     0.035 C 
BRANCH  15  16
ATOM     16  C   UNL     1      13.597   3.993  20.248  1.00  0.00     0.032 CG0
ATOM     17  G   UNL     1      14.272   3.825  18.901  1.00  0.00     0.000 G0
ENDBRANCH  15  16
ENDBRANCH  13  15
ENDBRANCH   1  13
TORSDOF 0
ENDMDL
MODEL 9
REMARK VINA RESULT:    -2.857     13.112     15.362
REMARK INTER + INTRA:          -4.111
REMARK INTER:                  -3.841
REMARK INTRA:                  -0.271
REMARK UNBOUND:                -0.252
REMARK SMILES C=C1CCC=C(C)CC[C@@H]2[C@@H]1CC2(C)C
REMARK SMILES IDX 11 1 12 2 13 3 10 4 14 5 15 6 9 7 8 8 6 9 7 10 5 11 2 13
REMARK SMILES IDX 1 14 3 15 4 16
REMARK H PARENT
REMARK Flexibility Score: 70.00
ROOT
ATOM      1  C   UNL     1      27.120   1.498  17.755  1.00  0.00     0.018 C 
ATOM      2  C   UNL     1      27.104   1.921  16.279  1.00  0.00     0.015 C 
ATOM      3  C   UNL     1      27.722   3.281  16.659  1.00  0.00    -0.031 C 
ATOM      4  C   UNL     1      27.612   2.896  18.161  1.00  0.00     0.002 C 
ATOM      5  C   UNL     1      29.145   3.444  16.083  1.00  0.00     0.011 C 
ATOM      6  C   UNL     1      26.844   4.487  16.276  1.00  0.00     0.011 C 
ENDROOT
BRANCH   4   7
ATOM      7  C   UNL     1      28.914   2.924  19.002  1.00  0.00     0.009 C 
BRANCH   7   8
ATOM      8  C   UNL     1      28.704   3.048  20.524  1.00  0.00     0.030 C 
BRANCH   8   9
ATOM      9  C   UNL     1      28.681   1.720  21.267  1.00  0.00    -0.077 C 
ATOM     10  C   UNL     1      29.951   1.265  21.935  1.00  0.00     0.039 C 
ATOM     11  C   UNL     1      27.583   0.930  21.378  1.00  0.00    -0.028 CG0
ATOM     12  G   UNL     1      26.192   1.255  20.871  1.00  0.00     0.000 G0
ENDBRANCH   8   9
ENDBRANCH   7   8
ENDBRANCH   4   7
BRANCH   1  13
ATOM     13  C   UNL     1      25.774   1.103  18.360  1.00  0.00    -0.074 C 
ATOM     14  C   UNL     1      24.604   1.430  17.781  1.00  0.00     0.008 C 
BRANCH  13  15
ATOM     15  C   UNL     1      25.755   0.364  19.684  1.00  0.00     0.035 C 
BRANCH  15  16
ATOM     16  C   UNL     1      26.170   1.245  20.873  1.00  0.00     0.032 CG0
ATOM     17  G   UNL     1      27.567   0.929  21.369  1.00  0.00     0.000 G0
ENDBRANCH  15  16
ENDBRANCH  13  15
ENDBRANCH   1  13
TORSDOF 0
ENDMDL
