MODEL 1
REMARK VINA RESULT:    -4.151      0.000      0.000
REMARK INTER + INTRA:          -9.466
REMARK INTER:                  -7.548
REMARK INTRA:                  -1.918
REMARK UNBOUND:                -1.918
REMARK SMILES CCCCCC=CCC=CCCCCCCCC(=O)[O-]
REMARK SMILES IDX 11 1 12 2 13 3 14 4 15 5 16 6 17 7 18 8 19 9 20 10 10 11
REMARK SMILES IDX 9 12 8 13 7 14 6 15 5 16 4 17 3 18 2 19 1 20
REMARK H PARENT
REMARK Flexibility Score: inf
ROOT
ATOM      1  C   UNL     1       7.732 -29.928  32.868  1.00  0.00     0.027 C 
ENDROOT
BRANCH   1   2
ATOM      2  C   UNL     1       8.307 -28.563  33.262  1.00  0.00     0.004 C 
BRANCH   2   3
ATOM      3  C   UNL     1       8.545 -27.689  32.021  1.00  0.00     0.000 C 
BRANCH   3   4
ATOM      4  C   UNL     1       9.267 -26.373  32.351  1.00  0.00     0.000 C 
BRANCH   4   5
ATOM      5  C   UNL     1      10.390 -26.049  31.351  1.00  0.00     0.000 C 
BRANCH   5   6
ATOM      6  C   UNL     1      10.248 -24.653  30.719  1.00  0.00     0.006 C 
BRANCH   6   7
ATOM      7  C   UNL     1      10.018 -24.675  29.197  1.00  0.00     0.053 C 
BRANCH   7   8
ATOM      8  C   UNL     1      10.444 -25.964  28.564  1.00  0.00     0.041 C 
ATOM      9  O   UNL     1       9.591 -26.846  28.280  1.00  0.00    -0.550 OA
ATOM     10  O   UNL     1      11.782 -26.182  28.262  1.00  0.00    -0.550 OA
ENDBRANCH   7   8
ENDBRANCH   6   7
ENDBRANCH   5   6
ENDBRANCH   4   5
ENDBRANCH   3   4
ENDBRANCH   2   3
ENDBRANCH   1   2
BRANCH   1  11
ATOM     11  C   UNL     1       8.651 -31.043  33.298  1.00  0.00    -0.031 C 
ATOM     12  C   UNL     1       9.493 -31.693  32.475  1.00  0.00    -0.027 C 
BRANCH  12  13
ATOM     13  C   UNL     1       9.663 -31.351  31.016  1.00  0.00     0.054 C 
BRANCH  13  14
ATOM     14  C   UNL     1      10.227 -32.519  30.249  1.00  0.00    -0.027 C 
ATOM     15  C   UNL     1       9.608 -33.119  29.214  1.00  0.00    -0.031 C 
BRANCH  15  16
ATOM     16  C   UNL     1       8.232 -32.756  28.713  1.00  0.00     0.027 C 
BRANCH  16  17
ATOM     17  C   UNL     1       7.135 -33.638  29.334  1.00  0.00     0.004 C 
BRANCH  17  18
ATOM     18  C   UNL     1       6.116 -32.872  30.204  1.00  0.00     0.000 C 
BRANCH  18  19
ATOM     19  C   UNL     1       6.130 -33.240  31.698  1.00  0.00    -0.003 C 
ATOM     20  C   UNL     1       7.027 -34.437  32.009  1.00  0.00     0.004 C 
ENDBRANCH  18  19
ENDBRANCH  17  18
ENDBRANCH  16  17
ENDBRANCH  15  16
ENDBRANCH  13  14
ENDBRANCH  12  13
ENDBRANCH   1  11
TORSDOF 14
ENDMDL
MODEL 2
REMARK VINA RESULT:    -4.148      1.457      3.689
REMARK INTER + INTRA:          -9.462
REMARK INTER:                  -7.200
REMARK INTRA:                  -2.262
REMARK UNBOUND:                -1.918
REMARK SMILES CCCCCC=CCC=CCCCCCCCC(=O)[O-]
REMARK SMILES IDX 11 1 12 2 13 3 14 4 15 5 16 6 17 7 18 8 19 9 20 10 10 11
REMARK SMILES IDX 9 12 8 13 7 14 6 15 5 16 4 17 3 18 2 19 1 20
REMARK H PARENT
REMARK Flexibility Score: inf
ROOT
ATOM      1  C   UNL     1       8.363 -32.308  32.477  1.00  0.00     0.027 C 
ENDROOT
BRANCH   1   2
ATOM      2  C   UNL     1       8.740 -31.048  33.264  1.00  0.00     0.004 C 
BRANCH   2   3
ATOM      3  C   UNL     1       7.911 -29.842  32.797  1.00  0.00     0.000 C 
BRANCH   3   4
ATOM      4  C   UNL     1       8.169 -28.582  33.640  1.00  0.00     0.000 C 
BRANCH   4   5
ATOM      5  C   UNL     1       8.327 -27.318  32.778  1.00  0.00     0.000 C 
BRANCH   5   6
ATOM      6  C   UNL     1       9.672 -27.266  32.030  1.00  0.00     0.006 C 
BRANCH   6   7
ATOM      7  C   UNL     1       9.922 -25.943  31.282  1.00  0.00     0.053 C 
BRANCH   7   8
ATOM      8  C   UNL     1      11.321 -25.827  30.760  1.00  0.00     0.041 C 
ATOM      9  O   UNL     1      12.203 -26.652  31.116  1.00  0.00    -0.550 OA
ATOM     10  O   UNL     1      11.645 -24.823  29.856  1.00  0.00    -0.550 OA
ENDBRANCH   7   8
ENDBRANCH   6   7
ENDBRANCH   5   6
ENDBRANCH   4   5
ENDBRANCH   3   4
ENDBRANCH   2   3
ENDBRANCH   1   2
BRANCH   1  11
ATOM     11  C   UNL     1       6.911 -32.275  32.074  1.00  0.00    -0.031 C 
ATOM     12  C   UNL     1       6.415 -32.867  30.972  1.00  0.00    -0.027 C 
BRANCH  12  13
ATOM     13  C   UNL     1       7.249 -33.689  30.020  1.00  0.00     0.054 C 
BRANCH  13  14
ATOM     14  C   UNL     1       7.703 -32.861  28.845  1.00  0.00    -0.027 C 
ATOM     15  C   UNL     1       8.990 -32.585  28.562  1.00  0.00    -0.031 C 
BRANCH  15  16
ATOM     16  C   UNL     1      10.163 -33.004  29.413  1.00  0.00     0.027 C 
BRANCH  16  17
ATOM     17  C   UNL     1      11.045 -31.810  29.818  1.00  0.00     0.004 C 
BRANCH  17  18
ATOM     18  C   UNL     1      10.355 -30.435  29.694  1.00  0.00     0.000 C 
BRANCH  18  19
ATOM     19  C   UNL     1      11.165 -29.367  28.938  1.00  0.00    -0.003 C 
ATOM     20  C   UNL     1      10.294 -28.245  28.376  1.00  0.00     0.004 C 
ENDBRANCH  18  19
ENDBRANCH  17  18
ENDBRANCH  16  17
ENDBRANCH  15  16
ENDBRANCH  13  14
ENDBRANCH  12  13
ENDBRANCH   1  11
TORSDOF 14
ENDMDL
MODEL 3
REMARK VINA RESULT:    -4.131      3.675      7.675
REMARK INTER + INTRA:          -9.430
REMARK INTER:                  -7.607
REMARK INTRA:                  -1.823
REMARK UNBOUND:                -1.918
REMARK SMILES CCCCCC=CCC=CCCCCCCCC(=O)[O-]
REMARK SMILES IDX 11 1 12 2 13 3 14 4 15 5 16 6 17 7 18 8 19 9 20 10 10 11
REMARK SMILES IDX 9 12 8 13 7 14 6 15 5 16 4 17 3 18 2 19 1 20
REMARK H PARENT
REMARK Flexibility Score: inf
ROOT
ATOM      1  C   UNL     1       9.482 -28.252  33.703  1.00  0.00     0.027 C 
ENDROOT
BRANCH   1   2
ATOM      2  C   UNL     1       8.946 -29.650  34.031  1.00  0.00     0.004 C 
BRANCH   2   3
ATOM      3  C   UNL     1       7.780 -30.022  33.103  1.00  0.00     0.000 C 
BRANCH   3   4
ATOM      4  C   UNL     1       8.077 -31.261  32.244  1.00  0.00     0.000 C 
BRANCH   4   5
ATOM      5  C   UNL     1       9.498 -31.807  32.465  1.00  0.00     0.000 C 
BRANCH   5   6
ATOM      6  C   UNL     1       9.511 -33.226  33.061  1.00  0.00     0.006 C 
BRANCH   6   7
ATOM      7  C   UNL     1       9.472 -33.260  34.600  1.00  0.00     0.053 C 
BRANCH   7   8
ATOM      8  C   UNL     1      10.744 -32.774  35.224  1.00  0.00     0.041 C 
ATOM      9  O   UNL     1      11.857 -33.175  34.793  1.00  0.00    -0.550 OA
ATOM     10  O   UNL     1      10.702 -31.854  36.265  1.00  0.00    -0.550 OA
ENDBRANCH   7   8
ENDBRANCH   6   7
ENDBRANCH   5   6
ENDBRANCH   4   5
ENDBRANCH   3   4
ENDBRANCH   2   3
ENDBRANCH   1   2
BRANCH   1  11
ATOM     11  C   UNL     1       8.367 -27.341  33.258  1.00  0.00    -0.031 C 
ATOM     12  C   UNL     1       8.499 -26.376  32.329  1.00  0.00    -0.027 C 
BRANCH  12  13
ATOM     13  C   UNL     1       9.778 -26.117  31.572  1.00  0.00     0.054 C 
BRANCH  13  14
ATOM     14  C   UNL     1       9.993 -27.156  30.502  1.00  0.00    -0.027 C 
ATOM     15  C   UNL     1      11.195 -27.488  29.995  1.00  0.00    -0.031 C 
BRANCH  15  16
ATOM     16  C   UNL     1      12.496 -26.825  30.373  1.00  0.00     0.027 C 
BRANCH  16  17
ATOM     17  C   UNL     1      13.025 -25.903  29.261  1.00  0.00     0.004 C 
BRANCH  17  18
ATOM     18  C   UNL     1      12.343 -24.521  29.198  1.00  0.00     0.000 C 
BRANCH  18  19
ATOM     19  C   UNL     1      11.420 -24.306  27.985  1.00  0.00    -0.003 C 
ATOM     20  C   UNL     1       9.946 -24.190  28.370  1.00  0.00     0.004 C 
ENDBRANCH  18  19
ENDBRANCH  17  18
ENDBRANCH  16  17
ENDBRANCH  15  16
ENDBRANCH  13  14
ENDBRANCH  12  13
ENDBRANCH   1  11
TORSDOF 14
ENDMDL
MODEL 4
REMARK VINA RESULT:    -4.099      2.784      4.651
REMARK INTER + INTRA:          -9.373
REMARK INTER:                  -7.801
REMARK INTRA:                  -1.572
REMARK UNBOUND:                -1.918
REMARK SMILES CCCCCC=CCC=CCCCCCCCC(=O)[O-]
REMARK SMILES IDX 11 1 12 2 13 3 14 4 15 5 16 6 17 7 18 8 19 9 20 10 10 11
REMARK SMILES IDX 9 12 8 13 7 14 6 15 5 16 4 17 3 18 2 19 1 20
REMARK H PARENT
REMARK Flexibility Score: inf
ROOT
ATOM      1  C   UNL     1      10.016 -27.872  30.667  1.00  0.00     0.027 C 
ENDROOT
BRANCH   1   2
ATOM      2  C   UNL     1      10.665 -27.396  29.362  1.00  0.00     0.004 C 
BRANCH   2   3
ATOM      3  C   UNL     1       9.621 -26.766  28.428  1.00  0.00     0.000 C 
BRANCH   3   4
ATOM      4  C   UNL     1      10.040 -25.377  27.919  1.00  0.00     0.000 C 
BRANCH   4   5
ATOM      5  C   UNL     1      11.001 -24.661  28.884  1.00  0.00     0.000 C 
BRANCH   5   6
ATOM      6  C   UNL     1      12.380 -24.380  28.260  1.00  0.00     0.006 C 
BRANCH   6   7
ATOM      7  C   UNL     1      13.560 -24.603  29.224  1.00  0.00     0.053 C 
BRANCH   7   8
ATOM      8  C   UNL     1      14.885 -24.290  28.600  1.00  0.00     0.041 C 
ATOM      9  O   UNL     1      15.351 -23.121  28.649  1.00  0.00    -0.550 OA
ATOM     10  O   UNL     1      15.622 -25.297  27.988  1.00  0.00    -0.550 OA
ENDBRANCH   7   8
ENDBRANCH   6   7
ENDBRANCH   5   6
ENDBRANCH   4   5
ENDBRANCH   3   4
ENDBRANCH   2   3
ENDBRANCH   1   2
BRANCH   1  11
ATOM     11  C   UNL     1       9.376 -26.720  31.399  1.00  0.00    -0.031 C 
ATOM     12  C   UNL     1       8.940 -26.777  32.671  1.00  0.00    -0.027 C 
BRANCH  12  13
ATOM     13  C   UNL     1       9.085 -27.996  33.548  1.00  0.00     0.054 C 
BRANCH  13  14
ATOM     14  C   UNL     1       7.793 -28.770  33.615  1.00  0.00    -0.027 C 
ATOM     15  C   UNL     1       7.627 -30.016  33.131  1.00  0.00    -0.031 C 
BRANCH  15  16
ATOM     16  C   UNL     1       8.685 -30.794  32.390  1.00  0.00     0.027 C 
BRANCH  16  17
ATOM     17  C   UNL     1       8.680 -32.287  32.764  1.00  0.00     0.004 C 
BRANCH  17  18
ATOM     18  C   UNL     1       9.881 -32.734  33.624  1.00  0.00     0.000 C 
BRANCH  18  19
ATOM     19  C   UNL     1       9.660 -32.648  35.144  1.00  0.00    -0.003 C 
ATOM     20  C   UNL     1      10.155 -31.333  35.745  1.00  0.00     0.004 C 
ENDBRANCH  18  19
ENDBRANCH  17  18
ENDBRANCH  16  17
ENDBRANCH  15  16
ENDBRANCH  13  14
ENDBRANCH  12  13
ENDBRANCH   1  11
TORSDOF 14
ENDMDL
MODEL 5
REMARK VINA RESULT:    -4.094      1.823      2.881
REMARK INTER + INTRA:          -9.363
REMARK INTER:                  -6.940
REMARK INTRA:                  -2.423
REMARK UNBOUND:                -1.918
REMARK SMILES CCCCCC=CCC=CCCCCCCCC(=O)[O-]
REMARK SMILES IDX 11 1 12 2 13 3 14 4 15 5 16 6 17 7 18 8 19 9 20 10 10 11
REMARK SMILES IDX 9 12 8 13 7 14 6 15 5 16 4 17 3 18 2 19 1 20
REMARK H PARENT
REMARK Flexibility Score: inf
ROOT
ATOM      1  C   UNL     1       8.995 -31.880  33.668  1.00  0.00     0.027 C 
ENDROOT
BRANCH   1   2
ATOM      2  C   UNL     1       7.871 -31.339  32.777  1.00  0.00     0.004 C 
BRANCH   2   3
ATOM      3  C   UNL     1       7.828 -29.804  32.820  1.00  0.00     0.000 C 
BRANCH   3   4
ATOM      4  C   UNL     1       8.655 -29.218  33.975  1.00  0.00     0.000 C 
BRANCH   4   5
ATOM      5  C   UNL     1       9.323 -27.883  33.606  1.00  0.00     0.000 C 
BRANCH   5   6
ATOM      6  C   UNL     1       8.564 -27.115  32.508  1.00  0.00     0.006 C 
BRANCH   6   7
ATOM      7  C   UNL     1       9.424 -26.769  31.278  1.00  0.00     0.053 C 
BRANCH   7   8
ATOM      8  C   UNL     1       9.979 -25.379  31.331  1.00  0.00     0.041 C 
ATOM      9  O   UNL     1       9.534 -24.547  32.165  1.00  0.00    -0.550 OA
ATOM     10  O   UNL     1      11.011 -25.009  30.476  1.00  0.00    -0.550 OA
ENDBRANCH   7   8
ENDBRANCH   6   7
ENDBRANCH   5   6
ENDBRANCH   4   5
ENDBRANCH   3   4
ENDBRANCH   2   3
ENDBRANCH   1   2
BRANCH   1  11
ATOM     11  C   UNL     1       9.105 -33.378  33.543  1.00  0.00    -0.031 C 
ATOM     12  C   UNL     1      10.203 -34.026  33.111  1.00  0.00    -0.027 C 
BRANCH  12  13
ATOM     13  C   UNL     1      11.490 -33.331  32.743  1.00  0.00     0.054 C 
BRANCH  13  14
ATOM     14  C   UNL     1      11.902 -33.667  31.333  1.00  0.00    -0.027 C 
ATOM     15  C   UNL     1      11.508 -32.983  30.242  1.00  0.00    -0.031 C 
BRANCH  15  16
ATOM     16  C   UNL     1      10.543 -31.823  30.261  1.00  0.00     0.027 C 
BRANCH  16  17
ATOM     17  C   UNL     1       9.454 -31.953  29.182  1.00  0.00     0.004 C 
BRANCH  17  18
ATOM     18  C   UNL     1       8.910 -33.385  28.992  1.00  0.00     0.000 C 
BRANCH  18  19
ATOM     19  C   UNL     1       7.859 -33.823  30.027  1.00  0.00    -0.003 C 
ATOM     20  C   UNL     1       8.029 -35.275  30.471  1.00  0.00     0.004 C 
ENDBRANCH  18  19
ENDBRANCH  17  18
ENDBRANCH  16  17
ENDBRANCH  15  16
ENDBRANCH  13  14
ENDBRANCH  12  13
ENDBRANCH   1  11
TORSDOF 14
ENDMDL
MODEL 6
REMARK VINA RESULT:    -4.079      2.537      4.517
REMARK INTER + INTRA:          -9.336
REMARK INTER:                  -7.487
REMARK INTRA:                  -1.849
REMARK UNBOUND:                -1.918
REMARK SMILES CCCCCC=CCC=CCCCCCCCC(=O)[O-]
REMARK SMILES IDX 11 1 12 2 13 3 14 4 15 5 16 6 17 7 18 8 19 9 20 10 10 11
REMARK SMILES IDX 9 12 8 13 7 14 6 15 5 16 4 17 3 18 2 19 1 20
REMARK H PARENT
REMARK Flexibility Score: inf
ROOT
ATOM      1  C   UNL     1       7.395 -31.758  32.130  1.00  0.00     0.027 C 
ENDROOT
BRANCH   1   2
ATOM      2  C   UNL     1       8.796 -31.205  32.416  1.00  0.00     0.004 C 
BRANCH   2   3
ATOM      3  C   UNL     1       8.764 -30.206  33.582  1.00  0.00     0.000 C 
BRANCH   3   4
ATOM      4  C   UNL     1       7.759 -29.065  33.359  1.00  0.00     0.000 C 
BRANCH   4   5
ATOM      5  C   UNL     1       8.437 -27.686  33.290  1.00  0.00     0.000 C 
BRANCH   5   6
ATOM      6  C   UNL     1       8.690 -27.212  31.847  1.00  0.00     0.006 C 
BRANCH   6   7
ATOM      7  C   UNL     1      10.042 -26.503  31.647  1.00  0.00     0.053 C 
BRANCH   7   8
ATOM      8  C   UNL     1       9.896 -25.030  31.414  1.00  0.00     0.041 C 
ATOM      9  O   UNL     1       9.522 -24.272  32.347  1.00  0.00    -0.550 OA
ATOM     10  O   UNL     1      10.200 -24.489  30.171  1.00  0.00    -0.550 OA
ENDBRANCH   7   8
ENDBRANCH   6   7
ENDBRANCH   5   6
ENDBRANCH   4   5
ENDBRANCH   3   4
ENDBRANCH   2   3
ENDBRANCH   1   2
BRANCH   1  11
ATOM     11  C   UNL     1       7.429 -32.738  30.985  1.00  0.00    -0.031 C 
ATOM     12  C   UNL     1       7.432 -34.076  31.131  1.00  0.00    -0.027 C 
BRANCH  12  13
ATOM     13  C   UNL     1       7.350 -34.770  32.468  1.00  0.00     0.054 C 
BRANCH  13  14
ATOM     14  C   UNL     1       8.619 -35.526  32.764  1.00  0.00    -0.027 C 
ATOM     15  C   UNL     1       9.465 -35.229  33.769  1.00  0.00    -0.031 C 
BRANCH  15  16
ATOM     16  C   UNL     1       9.304 -34.057  34.704  1.00  0.00     0.027 C 
BRANCH  16  17
ATOM     17  C   UNL     1      10.606 -33.251  34.859  1.00  0.00     0.004 C 
BRANCH  17  18
ATOM     18  C   UNL     1      11.550 -33.322  33.640  1.00  0.00     0.000 C 
BRANCH  18  19
ATOM     19  C   UNL     1      13.034 -33.539  33.980  1.00  0.00    -0.003 C 
ATOM     20  C   UNL     1      13.694 -34.612  33.116  1.00  0.00     0.004 C 
ENDBRANCH  18  19
ENDBRANCH  17  18
ENDBRANCH  16  17
ENDBRANCH  15  16
ENDBRANCH  13  14
ENDBRANCH  12  13
ENDBRANCH   1  11
TORSDOF 14
ENDMDL
MODEL 7
REMARK VINA RESULT:    -4.065      3.345      6.870
REMARK INTER + INTRA:          -9.311
REMARK INTER:                  -7.457
REMARK INTRA:                  -1.854
REMARK UNBOUND:                -1.918
REMARK SMILES CCCCCC=CCC=CCCCCCCCC(=O)[O-]
REMARK SMILES IDX 11 1 12 2 13 3 14 4 15 5 16 6 17 7 18 8 19 9 20 10 10 11
REMARK SMILES IDX 9 12 8 13 7 14 6 15 5 16 4 17 3 18 2 19 1 20
REMARK H PARENT
REMARK Flexibility Score: inf
ROOT
ATOM      1  C   UNL     1       9.292 -27.253  31.386  1.00  0.00     0.027 C 
ENDROOT
BRANCH   1   2
ATOM      2  C   UNL     1       8.836 -26.839  32.790  1.00  0.00     0.004 C 
BRANCH   2   3
ATOM      3  C   UNL     1       8.253 -28.037  33.553  1.00  0.00     0.000 C 
BRANCH   3   4
ATOM      4  C   UNL     1       8.774 -29.385  33.031  1.00  0.00     0.000 C 
BRANCH   4   5
ATOM      5  C   UNL     1       7.655 -30.428  32.868  1.00  0.00     0.000 C 
BRANCH   5   6
ATOM      6  C   UNL     1       8.186 -31.828  32.510  1.00  0.00     0.006 C 
BRANCH   6   7
ATOM      7  C   UNL     1       7.146 -32.739  31.833  1.00  0.00     0.053 C 
BRANCH   7   8
ATOM      8  C   UNL     1       7.566 -34.176  31.801  1.00  0.00     0.041 C 
ATOM      9  O   UNL     1       8.033 -34.726  32.834  1.00  0.00    -0.550 OA
ATOM     10  O   UNL     1       7.415 -34.919  30.637  1.00  0.00    -0.550 OA
ENDBRANCH   7   8
ENDBRANCH   6   7
ENDBRANCH   5   6
ENDBRANCH   4   5
ENDBRANCH   3   4
ENDBRANCH   2   3
ENDBRANCH   1   2
BRANCH   1  11
ATOM     11  C   UNL     1      10.723 -26.845  31.143  1.00  0.00    -0.031 C 
ATOM     12  C   UNL     1      11.096 -25.682  30.578  1.00  0.00    -0.027 C 
BRANCH  12  13
ATOM     13  C   UNL     1      10.122 -24.609  30.158  1.00  0.00     0.054 C 
BRANCH  13  14
ATOM     14  C   UNL     1      10.384 -24.165  28.743  1.00  0.00    -0.027 C 
ATOM     15  C   UNL     1      10.083 -24.891  27.650  1.00  0.00    -0.031 C 
BRANCH  15  16
ATOM     16  C   UNL     1       9.503 -26.283  27.680  1.00  0.00     0.027 C 
BRANCH  16  17
ATOM     17  C   UNL     1      10.559 -27.361  27.377  1.00  0.00     0.004 C 
BRANCH  17  18
ATOM     18  C   UNL     1      10.125 -28.799  27.733  1.00  0.00     0.000 C 
BRANCH  18  19
ATOM     19  C   UNL     1      11.086 -29.556  28.665  1.00  0.00    -0.003 C 
ATOM     20  C   UNL     1      10.361 -30.460  29.662  1.00  0.00     0.004 C 
ENDBRANCH  18  19
ENDBRANCH  17  18
ENDBRANCH  16  17
ENDBRANCH  15  16
ENDBRANCH  13  14
ENDBRANCH  12  13
ENDBRANCH   1  11
TORSDOF 14
ENDMDL
MODEL 8
REMARK VINA RESULT:    -4.013      2.046      3.394
REMARK INTER + INTRA:          -9.216
REMARK INTER:                  -7.311
REMARK INTRA:                  -1.905
REMARK UNBOUND:                -1.918
REMARK SMILES CCCCCC=CCC=CCCCCCCCC(=O)[O-]
REMARK SMILES IDX 11 1 12 2 13 3 14 4 15 5 16 6 17 7 18 8 19 9 20 10 10 11
REMARK SMILES IDX 9 12 8 13 7 14 6 15 5 16 4 17 3 18 2 19 1 20
REMARK H PARENT
REMARK Flexibility Score: inf
ROOT
ATOM      1  C   UNL     1       8.454 -30.824  33.250  1.00  0.00     0.027 C 
ENDROOT
BRANCH   1   2
ATOM      2  C   UNL     1       7.763 -29.498  32.911  1.00  0.00     0.004 C 
BRANCH   2   3
ATOM      3  C   UNL     1       8.164 -28.400  33.908  1.00  0.00     0.000 C 
BRANCH   3   4
ATOM      4  C   UNL     1       8.530 -27.077  33.219  1.00  0.00     0.000 C 
BRANCH   4   5
ATOM      5  C   UNL     1       8.836 -27.256  31.722  1.00  0.00     0.000 C 
BRANCH   5   6
ATOM      6  C   UNL     1      10.339 -27.163  31.400  1.00  0.00     0.006 C 
BRANCH   6   7
ATOM      7  C   UNL     1      10.645 -26.664  29.975  1.00  0.00     0.053 C 
BRANCH   7   8
ATOM      8  C   UNL     1      10.295 -25.221  29.779  1.00  0.00     0.041 C 
ATOM      9  O   UNL     1       9.878 -24.814  28.662  1.00  0.00    -0.550 OA
ATOM     10  O   UNL     1      10.404 -24.328  30.838  1.00  0.00    -0.550 OA
ENDBRANCH   7   8
ENDBRANCH   6   7
ENDBRANCH   5   6
ENDBRANCH   4   5
ENDBRANCH   3   4
ENDBRANCH   2   3
ENDBRANCH   1   2
BRANCH   1  11
ATOM     11  C   UNL     1       7.919 -31.942  32.393  1.00  0.00    -0.031 C 
ATOM     12  C   UNL     1       8.505 -32.383  31.265  1.00  0.00    -0.027 C 
BRANCH  12  13
ATOM     13  C   UNL     1       9.811 -31.842  30.738  1.00  0.00     0.054 C 
BRANCH  13  14
ATOM     14  C   UNL     1      10.697 -32.955  30.242  1.00  0.00    -0.027 C 
ATOM     15  C   UNL     1      11.577 -33.627  31.009  1.00  0.00    -0.031 C 
BRANCH  15  16
ATOM     16  C   UNL     1      11.855 -33.321  32.460  1.00  0.00     0.027 C 
BRANCH  16  17
ATOM     17  C   UNL     1      11.137 -34.295  33.410  1.00  0.00     0.004 C 
BRANCH  17  18
ATOM     18  C   UNL     1      10.392 -33.616  34.578  1.00  0.00     0.000 C 
BRANCH  18  19
ATOM     19  C   UNL     1      11.190 -32.525  35.311  1.00  0.00    -0.003 C 
ATOM     20  C   UNL     1      10.335 -31.708  36.278  1.00  0.00     0.004 C 
ENDBRANCH  18  19
ENDBRANCH  17  18
ENDBRANCH  16  17
ENDBRANCH  15  16
ENDBRANCH  13  14
ENDBRANCH  12  13
ENDBRANCH   1  11
TORSDOF 14
ENDMDL
MODEL 9
REMARK VINA RESULT:    -4.006      4.262      7.097
REMARK INTER + INTRA:          -9.204
REMARK INTER:                  -7.350
REMARK INTRA:                  -1.854
REMARK UNBOUND:                -1.918
REMARK SMILES CCCCCC=CCC=CCCCCCCCC(=O)[O-]
REMARK SMILES IDX 11 1 12 2 13 3 14 4 15 5 16 6 17 7 18 8 19 9 20 10 10 11
REMARK SMILES IDX 9 12 8 13 7 14 6 15 5 16 4 17 3 18 2 19 1 20
REMARK H PARENT
REMARK Flexibility Score: inf
ROOT
ATOM      1  C   UNL     1      10.357 -26.223  27.099  1.00  0.00     0.027 C 
ENDROOT
BRANCH   1   2
ATOM      2  C   UNL     1       9.243 -27.240  27.370  1.00  0.00     0.004 C 
BRANCH   2   3
ATOM      3  C   UNL     1       8.993 -28.121  26.136  1.00  0.00     0.000 C 
BRANCH   3   4
ATOM      4  C   UNL     1       7.503 -28.225  25.773  1.00  0.00     0.000 C 
BRANCH   4   5
ATOM      5  C   UNL     1       6.886 -26.862  25.416  1.00  0.00     0.000 C 
BRANCH   5   6
ATOM      6  C   UNL     1       7.188 -26.425  23.971  1.00  0.00     0.006 C 
BRANCH   6   7
ATOM      7  C   UNL     1       8.059 -25.160  23.867  1.00  0.00     0.053 C 
BRANCH   7   8
ATOM      8  C   UNL     1       7.522 -24.165  22.885  1.00  0.00     0.041 C 
ATOM      9  O   UNL     1       6.306 -23.840  22.909  1.00  0.00    -0.550 OA
ATOM     10  O   UNL     1       8.372 -23.572  21.959  1.00  0.00    -0.550 OA
ENDBRANCH   7   8
ENDBRANCH   6   7
ENDBRANCH   5   6
ENDBRANCH   4   5
ENDBRANCH   3   4
ENDBRANCH   2   3
ENDBRANCH   1   2
BRANCH   1  11
ATOM     11  C   UNL     1       9.827 -24.813  27.177  1.00  0.00    -0.031 C 
ATOM     12  C   UNL     1      10.117 -23.947  28.164  1.00  0.00    -0.027 C 
BRANCH  12  13
ATOM     13  C   UNL     1      11.057 -24.262  29.301  1.00  0.00     0.054 C 
BRANCH  13  14
ATOM     14  C   UNL     1      10.315 -24.343  30.610  1.00  0.00    -0.027 C 
ATOM     15  C   UNL     1      10.138 -25.477  31.315  1.00  0.00    -0.031 C 
BRANCH  15  16
ATOM     16  C   UNL     1      10.595 -26.843  30.868  1.00  0.00     0.027 C 
BRANCH  16  17
ATOM     17  C   UNL     1       9.595 -27.947  31.252  1.00  0.00     0.004 C 
BRANCH  17  18
ATOM     18  C   UNL     1       8.505 -27.503  32.250  1.00  0.00     0.000 C 
BRANCH  18  19
ATOM     19  C   UNL     1       8.023 -28.598  33.217  1.00  0.00    -0.003 C 
ATOM     20  C   UNL     1       8.404 -28.321  34.670  1.00  0.00     0.004 C 
ENDBRANCH  18  19
ENDBRANCH  17  18
ENDBRANCH  16  17
ENDBRANCH  15  16
ENDBRANCH  13  14
ENDBRANCH  12  13
ENDBRANCH   1  11
TORSDOF 14
ENDMDL
