MODEL 1
REMARK VINA RESULT:    -2.349      0.000      0.000
REMARK INTER + INTRA:          -3.143
REMARK INTER:                  -2.899
REMARK INTRA:                  -0.244
REMARK UNBOUND:                -0.244
REMARK SMILES CCCCCC(=O)[O-]
REMARK SMILES IDX 4 1 5 2 6 3 7 4 8 5 3 6 2 7 1 8
REMARK H PARENT
REMARK Flexibility Score: inf
ROOT
ATOM      1  C   UNL     1     -19.751  28.116  -5.359  1.00  0.00     0.006 C 
ENDROOT
BRANCH   1   2
ATOM      2  C   UNL     1     -21.119  27.460  -5.572  1.00  0.00     0.053 C 
BRANCH   2   3
ATOM      3  C   UNL     1     -20.960  26.006  -5.885  1.00  0.00     0.041 C 
ATOM      4  O   UNL     1     -20.984  25.153  -4.959  1.00  0.00    -0.550 OA
ATOM      5  O   UNL     1     -20.735  25.596  -7.193  1.00  0.00    -0.550 OA
ENDBRANCH   2   3
ENDBRANCH   1   2
BRANCH   1   6
ATOM      6  C   UNL     1     -19.645  28.719  -3.950  1.00  0.00     0.000 C 
BRANCH   6   7
ATOM      7  C   UNL     1     -19.359  27.659  -2.875  1.00  0.00    -0.003 C 
ATOM      8  C   UNL     1     -18.178  26.757  -3.234  1.00  0.00     0.004 C 
ENDBRANCH   6   7
ENDBRANCH   1   6
TORSDOF 4
ENDMDL
MODEL 2
REMARK VINA RESULT:    -2.194      2.565      3.925
REMARK INTER + INTRA:          -2.951
REMARK INTER:                  -2.847
REMARK INTRA:                  -0.105
REMARK UNBOUND:                -0.244
REMARK SMILES CCCCCC(=O)[O-]
REMARK SMILES IDX 4 1 5 2 6 3 7 4 8 5 3 6 2 7 1 8
REMARK H PARENT
REMARK Flexibility Score: inf
ROOT
ATOM      1  C   UNL     1     -19.943  26.905  -5.030  1.00  0.00     0.006 C 
ENDROOT
BRANCH   1   2
ATOM      2  C   UNL     1     -19.779  27.730  -3.749  1.00  0.00     0.053 C 
BRANCH   2   3
ATOM      3  C   UNL     1     -20.466  29.052  -3.886  1.00  0.00     0.041 C 
ATOM      4  O   UNL     1     -20.629  29.787  -2.877  1.00  0.00    -0.550 OA
ATOM      5  O   UNL     1     -20.970  29.450  -5.117  1.00  0.00    -0.550 OA
ENDBRANCH   2   3
ENDBRANCH   1   2
BRANCH   1   6
ATOM      6  C   UNL     1     -21.030  25.834  -4.857  1.00  0.00     0.000 C 
BRANCH   6   7
ATOM      7  C   UNL     1     -21.125  24.889  -6.065  1.00  0.00    -0.003 C 
ATOM      8  C   UNL     1     -20.841  25.595  -7.392  1.00  0.00     0.004 C 
ENDBRANCH   6   7
ENDBRANCH   1   6
TORSDOF 4
ENDMDL
MODEL 3
REMARK VINA RESULT:    -1.877      2.070      3.587
REMARK INTER + INTRA:          -2.560
REMARK INTER:                  -2.558
REMARK INTRA:                  -0.002
REMARK UNBOUND:                -0.244
REMARK SMILES CCCCCC(=O)[O-]
REMARK SMILES IDX 4 1 5 2 6 3 7 4 8 5 3 6 2 7 1 8
REMARK H PARENT
REMARK Flexibility Score: inf
ROOT
ATOM      1  C   UNL     1     -19.708  28.266  -4.745  1.00  0.00     0.006 C 
ENDROOT
BRANCH   1   2
ATOM      2  C   UNL     1     -19.317  28.107  -3.272  1.00  0.00     0.053 C 
BRANCH   2   3
ATOM      3  C   UNL     1     -18.422  26.923  -3.092  1.00  0.00     0.041 C 
ATOM      4  O   UNL     1     -18.902  25.759  -3.092  1.00  0.00    -0.550 OA
ATOM      5  O   UNL     1     -17.062  27.105  -2.876  1.00  0.00    -0.550 OA
ENDBRANCH   2   3
ENDBRANCH   1   2
BRANCH   1   6
ATOM      6  C   UNL     1     -21.123  27.724  -4.999  1.00  0.00     0.000 C 
BRANCH   6   7
ATOM      7  C   UNL     1     -21.125  26.236  -5.381  1.00  0.00    -0.003 C 
ATOM      8  C   UNL     1     -20.750  26.001  -6.845  1.00  0.00     0.004 C 
ENDBRANCH   6   7
ENDBRANCH   1   6
TORSDOF 4
ENDMDL
MODEL 4
REMARK VINA RESULT:    -1.874      1.489      2.280
REMARK INTER + INTRA:          -2.557
REMARK INTER:                  -2.428
REMARK INTRA:                  -0.129
REMARK UNBOUND:                -0.244
REMARK SMILES CCCCCC(=O)[O-]
REMARK SMILES IDX 4 1 5 2 6 3 7 4 8 5 3 6 2 7 1 8
REMARK H PARENT
REMARK Flexibility Score: inf
ROOT
ATOM      1  C   UNL     1     -19.479  27.041  -3.190  1.00  0.00     0.006 C 
ENDROOT
BRANCH   1   2
ATOM      2  C   UNL     1     -20.826  26.631  -3.793  1.00  0.00     0.053 C 
BRANCH   2   3
ATOM      3  C   UNL     1     -20.679  26.332  -5.251  1.00  0.00     0.041 C 
ATOM      4  O   UNL     1     -21.121  25.252  -5.724  1.00  0.00    -0.550 OA
ATOM      5  O   UNL     1     -20.010  27.223  -6.080  1.00  0.00    -0.550 OA
ENDBRANCH   2   3
ENDBRANCH   1   2
BRANCH   1   6
ATOM      6  C   UNL     1     -19.421  28.558  -2.957  1.00  0.00     0.000 C 
BRANCH   6   7
ATOM      7  C   UNL     1     -20.816  29.196  -2.875  1.00  0.00    -0.003 C 
ATOM      8  C   UNL     1     -21.125  30.100  -4.070  1.00  0.00     0.004 C 
ENDBRANCH   6   7
ENDBRANCH   1   6
TORSDOF 4
ENDMDL
MODEL 5
REMARK VINA RESULT:    -1.792     14.229     15.210
REMARK INTER + INTRA:          -2.455
REMARK INTER:                  -2.406
REMARK INTRA:                  -0.049
REMARK UNBOUND:                -0.244
REMARK SMILES CCCCCC(=O)[O-]
REMARK SMILES IDX 4 1 5 2 6 3 7 4 8 5 3 6 2 7 1 8
REMARK H PARENT
REMARK Flexibility Score: inf
ROOT
ATOM      1  C   UNL     1     -20.227  41.454  -3.187  1.00  0.00     0.006 C 
ENDROOT
BRANCH   1   2
ATOM      2  C   UNL     1     -21.078  42.715  -3.369  1.00  0.00     0.053 C 
BRANCH   2   3
ATOM      3  C   UNL     1     -20.328  43.744  -4.153  1.00  0.00     0.041 C 
ATOM      4  O   UNL     1     -20.511  43.853  -5.394  1.00  0.00    -0.550 OA
ATOM      5  O   UNL     1     -19.389  44.551  -3.523  1.00  0.00    -0.550 OA
ENDBRANCH   2   3
ENDBRANCH   1   2
BRANCH   1   6
ATOM      6  C   UNL     1     -21.044  40.191  -3.500  1.00  0.00     0.000 C 
BRANCH   6   7
ATOM      7  C   UNL     1     -20.436  38.926  -2.875  1.00  0.00    -0.003 C 
ATOM      8  C   UNL     1     -20.861  37.646  -3.597  1.00  0.00     0.004 C 
ENDBRANCH   6   7
ENDBRANCH   1   6
TORSDOF 4
ENDMDL
MODEL 6
REMARK VINA RESULT:    -1.429     14.794     15.766
REMARK INTER + INTRA:          -2.007
REMARK INTER:                  -1.895
REMARK INTRA:                  -0.112
REMARK UNBOUND:                -0.244
REMARK SMILES CCCCCC(=O)[O-]
REMARK SMILES IDX 4 1 5 2 6 3 7 4 8 5 3 6 2 7 1 8
REMARK H PARENT
REMARK Flexibility Score: inf
ROOT
ATOM      1  C   UNL     1     -20.393  42.747  -4.477  1.00  0.00     0.006 C 
ENDROOT
BRANCH   1   2
ATOM      2  C   UNL     1     -21.124  41.912  -3.420  1.00  0.00     0.053 C 
BRANCH   2   3
ATOM      3  C   UNL     1     -20.372  40.650  -3.138  1.00  0.00     0.041 C 
ATOM      4  O   UNL     1     -19.141  40.691  -2.875  1.00  0.00    -0.550 OA
ATOM      5  O   UNL     1     -21.018  39.423  -3.214  1.00  0.00    -0.550 OA
ENDBRANCH   2   3
ENDBRANCH   1   2
BRANCH   1   6
ATOM      6  C   UNL     1     -20.934  44.185  -4.510  1.00  0.00     0.000 C 
BRANCH   6   7
ATOM      7  C   UNL     1     -20.533  44.994  -3.267  1.00  0.00    -0.003 C 
ATOM      8  C   UNL     1     -19.018  45.122  -3.109  1.00  0.00     0.004 C 
ENDBRANCH   6   7
ENDBRANCH   1   6
TORSDOF 4
ENDMDL
MODEL 7
REMARK VINA RESULT:    -0.697     14.815     15.849
REMARK INTER + INTRA:          -1.104
REMARK INTER:                  -1.020
REMARK INTRA:                  -0.085
REMARK UNBOUND:                -0.244
REMARK SMILES CCCCCC(=O)[O-]
REMARK SMILES IDX 4 1 5 2 6 3 7 4 8 5 3 6 2 7 1 8
REMARK H PARENT
REMARK Flexibility Score: inf
ROOT
ATOM      1  C   UNL     1     -20.155  41.985  -4.378  1.00  0.00     0.006 C 
ENDROOT
BRANCH   1   2
ATOM      2  C   UNL     1     -19.775  41.555  -2.957  1.00  0.00     0.053 C 
BRANCH   2   3
ATOM      3  C   UNL     1     -18.362  41.067  -2.918  1.00  0.00     0.041 C 
ATOM      4  O   UNL     1     -18.119  39.833  -2.876  1.00  0.00    -0.550 OA
ATOM      5  O   UNL     1     -17.313  41.976  -2.877  1.00  0.00    -0.550 OA
ENDBRANCH   2   3
ENDBRANCH   1   2
BRANCH   1   6
ATOM      6  C   UNL     1     -21.091  43.203  -4.351  1.00  0.00     0.000 C 
BRANCH   6   7
ATOM      7  C   UNL     1     -20.337  44.530  -4.529  1.00  0.00    -0.003 C 
ATOM      8  C   UNL     1     -19.828  45.103  -3.206  1.00  0.00     0.004 C 
ENDBRANCH   6   7
ENDBRANCH   1   6
TORSDOF 4
ENDMDL
MODEL 8
REMARK VINA RESULT:    -0.341     13.242     14.168
REMARK INTER + INTRA:          -0.665
REMARK INTER:                  -0.611
REMARK INTRA:                  -0.054
REMARK UNBOUND:                -0.244
REMARK SMILES CCCCCC(=O)[O-]
REMARK SMILES IDX 4 1 5 2 6 3 7 4 8 5 3 6 2 7 1 8
REMARK H PARENT
REMARK Flexibility Score: inf
ROOT
ATOM      1  C   UNL     1     -20.213  40.274  -3.480  1.00  0.00     0.006 C 
ENDROOT
BRANCH   1   2
ATOM      2  C   UNL     1     -21.110  41.417  -3.965  1.00  0.00     0.053 C 
BRANCH   2   3
ATOM      3  C   UNL     1     -20.349  42.705  -3.989  1.00  0.00     0.041 C 
ATOM      4  O   UNL     1     -19.449  42.924  -3.137  1.00  0.00    -0.550 OA
ATOM      5  O   UNL     1     -20.667  43.684  -4.922  1.00  0.00    -0.550 OA
ENDBRANCH   2   3
ENDBRANCH   1   2
BRANCH   1   6
ATOM      6  C   UNL     1     -21.055  39.072  -3.024  1.00  0.00     0.000 C 
BRANCH   6   7
ATOM      7  C   UNL     1     -20.938  37.874  -3.979  1.00  0.00    -0.003 C 
ATOM      8  C   UNL     1     -20.527  36.586  -3.265  1.00  0.00     0.004 C 
ENDBRANCH   6   7
ENDBRANCH   1   6
TORSDOF 4
ENDMDL
MODEL 9
REMARK VINA RESULT:     0.440     14.020     15.045
REMARK INTER + INTRA:           0.299
REMARK INTER:                   0.360
REMARK INTRA:                  -0.061
REMARK UNBOUND:                -0.244
REMARK SMILES CCCCCC(=O)[O-]
REMARK SMILES IDX 4 1 5 2 6 3 7 4 8 5 3 6 2 7 1 8
REMARK H PARENT
REMARK Flexibility Score: inf
ROOT
ATOM      1  C   UNL     1     -19.611  41.096  -3.462  1.00  0.00     0.006 C 
ENDROOT
BRANCH   1   2
ATOM      2  C   UNL     1     -19.404  42.498  -2.878  1.00  0.00     0.053 C 
BRANCH   2   3
ATOM      3  C   UNL     1     -18.070  43.041  -3.282  1.00  0.00     0.041 C 
ATOM      4  O   UNL     1     -17.949  44.255  -3.592  1.00  0.00    -0.550 OA
ATOM      5  O   UNL     1     -16.970  42.197  -3.363  1.00  0.00    -0.550 OA
ENDBRANCH   2   3
ENDBRANCH   1   2
BRANCH   1   6
ATOM      6  C   UNL     1     -21.047  40.607  -3.219  1.00  0.00     0.000 C 
BRANCH   6   7
ATOM      7  C   UNL     1     -21.120  39.093  -2.970  1.00  0.00    -0.003 C 
ATOM      8  C   UNL     1     -20.528  38.275  -4.118  1.00  0.00     0.004 C 
ENDBRANCH   6   7
ENDBRANCH   1   6
TORSDOF 4
ENDMDL
