MODEL 1
REMARK VINA RESULT:    -4.479      0.000      0.000
REMARK INTER + INTRA:          -6.366
REMARK INTER:                  -6.050
REMARK INTRA:                  -0.316
REMARK UNBOUND:                -0.316
REMARK SMILES CCCCCCCC(=O)[O-]
REMARK SMILES IDX 5 1 6 2 7 3 8 4 9 5 10 6 4 7 3 8 2 9 1 10
REMARK H PARENT
REMARK Flexibility Score: inf
ROOT
ATOM      1  C   UNL     1      -1.648   1.878  -2.496  1.00  0.00     0.000 C 
ENDROOT
BRANCH   1   2
ATOM      2  C   UNL     1      -1.877   1.352  -1.069  1.00  0.00     0.006 C 
BRANCH   2   3
ATOM      3  C   UNL     1      -1.699   2.440  -0.001  1.00  0.00     0.053 C 
BRANCH   3   4
ATOM      4  C   UNL     1      -2.505   3.651  -0.351  1.00  0.00     0.041 C 
ATOM      5  O   UNL     1      -3.762   3.595  -0.358  1.00  0.00    -0.550 OA
ATOM      6  O   UNL     1      -1.869   4.857  -0.619  1.00  0.00    -0.550 OA
ENDBRANCH   3   4
ENDBRANCH   2   3
ENDBRANCH   1   2
BRANCH   1   7
ATOM      7  C   UNL     1      -0.155   1.984  -2.852  1.00  0.00     0.000 C 
BRANCH   7   8
ATOM      8  C   UNL     1       0.364   3.430  -2.798  1.00  0.00    -0.000 C 
BRANCH   8   9
ATOM      9  C   UNL     1       1.169   3.818  -4.048  1.00  0.00    -0.003 C 
ATOM     10  C   UNL     1       1.127   2.707  -5.094  1.00  0.00     0.004 C 
ENDBRANCH   8   9
ENDBRANCH   7   8
ENDBRANCH   1   7
TORSDOF 6
ENDMDL
MODEL 2
REMARK VINA RESULT:    -4.387     12.219     12.597
REMARK INTER + INTRA:          -6.241
REMARK INTER:                  -6.085
REMARK INTRA:                  -0.157
REMARK UNBOUND:                -0.316
REMARK SMILES CCCCCCCC(=O)[O-]
REMARK SMILES IDX 5 1 6 2 7 3 8 4 9 5 10 6 4 7 3 8 2 9 1 10
REMARK H PARENT
REMARK Flexibility Score: inf
ROOT
ATOM      1  C   UNL     1       1.644  -9.865  -2.027  1.00  0.00     0.000 C 
ENDROOT
BRANCH   1   2
ATOM      2  C   UNL     1       1.146  -9.156  -0.757  1.00  0.00     0.006 C 
BRANCH   2   3
ATOM      3  C   UNL     1       0.520 -10.125   0.255  1.00  0.00     0.053 C 
BRANCH   3   4
ATOM      4  C   UNL     1      -0.917  -9.779   0.488  1.00  0.00     0.041 C 
ATOM      5  O   UNL     1      -1.428  -9.931   1.628  1.00  0.00    -0.550 OA
ATOM      6  O   UNL     1      -1.679  -9.242  -0.542  1.00  0.00    -0.550 OA
ENDBRANCH   3   4
ENDBRANCH   2   3
ENDBRANCH   1   2
BRANCH   1   7
ATOM      7  C   UNL     1       2.641  -9.009  -2.828  1.00  0.00     0.000 C 
BRANCH   7   8
ATOM      8  C   UNL     1       2.486  -9.189  -4.346  1.00  0.00    -0.000 C 
BRANCH   8   9
ATOM      9  C   UNL     1       3.410  -8.262  -5.151  1.00  0.00    -0.003 C 
ATOM     10  C   UNL     1       4.816  -8.241  -4.558  1.00  0.00     0.004 C 
ENDBRANCH   8   9
ENDBRANCH   7   8
ENDBRANCH   1   7
TORSDOF 6
ENDMDL
MODEL 3
REMARK VINA RESULT:    -4.342      2.614      4.532
REMARK INTER + INTRA:          -6.181
REMARK INTER:                  -5.794
REMARK INTRA:                  -0.387
REMARK UNBOUND:                -0.316
REMARK SMILES CCCCCCCC(=O)[O-]
REMARK SMILES IDX 5 1 6 2 7 3 8 4 9 5 10 6 4 7 3 8 2 9 1 10
REMARK H PARENT
REMARK Flexibility Score: inf
ROOT
ATOM      1  C   UNL     1      -1.618   3.598  -0.834  1.00  0.00     0.000 C 
ENDROOT
BRANCH   1   2
ATOM      2  C   UNL     1      -0.817   4.333  -1.921  1.00  0.00     0.006 C 
BRANCH   2   3
ATOM      3  C   UNL     1       0.630   3.835  -2.029  1.00  0.00     0.053 C 
BRANCH   3   4
ATOM      4  C   UNL     1       0.886   3.261  -3.387  1.00  0.00     0.041 C 
ATOM      5  O   UNL     1       1.582   3.896  -4.222  1.00  0.00    -0.550 OA
ATOM      6  O   UNL     1       0.397   2.002  -3.712  1.00  0.00    -0.550 OA
ENDBRANCH   3   4
ENDBRANCH   2   3
ENDBRANCH   1   2
BRANCH   1   7
ATOM      7  C   UNL     1      -2.090   2.206  -1.288  1.00  0.00     0.000 C 
BRANCH   7   8
ATOM      8  C   UNL     1      -1.273   1.070  -0.652  1.00  0.00    -0.000 C 
BRANCH   8   9
ATOM      9  C   UNL     1      -0.369   1.558   0.491  1.00  0.00    -0.003 C 
ATOM     10  C   UNL     1       0.503   0.424   1.022  1.00  0.00     0.004 C 
ENDBRANCH   8   9
ENDBRANCH   7   8
ENDBRANCH   1   7
TORSDOF 6
ENDMDL
MODEL 4
REMARK VINA RESULT:    -4.228     12.370     13.405
REMARK INTER + INTRA:          -6.027
REMARK INTER:                  -5.876
REMARK INTRA:                  -0.151
REMARK UNBOUND:                -0.316
REMARK SMILES CCCCCCCC(=O)[O-]
REMARK SMILES IDX 5 1 6 2 7 3 8 4 9 5 10 6 4 7 3 8 2 9 1 10
REMARK H PARENT
REMARK Flexibility Score: inf
ROOT
ATOM      1  C   UNL     1       1.029  -8.987  -1.791  1.00  0.00     0.000 C 
ENDROOT
BRANCH   1   2
ATOM      2  C   UNL     1       2.402  -9.191  -2.451  1.00  0.00     0.006 C 
BRANCH   2   3
ATOM      3  C   UNL     1       2.308  -9.356  -3.974  1.00  0.00     0.053 C 
BRANCH   3   4
ATOM      4  C   UNL     1       3.333  -8.504  -4.655  1.00  0.00     0.041 C 
ATOM      5  O   UNL     1       2.998  -7.745  -5.601  1.00  0.00    -0.550 OA
ATOM      6  O   UNL     1       4.649  -8.511  -4.211  1.00  0.00    -0.550 OA
ENDBRANCH   3   4
ENDBRANCH   2   3
ENDBRANCH   1   2
BRANCH   1   7
ATOM      7  C   UNL     1       1.098  -9.050  -0.255  1.00  0.00     0.000 C 
BRANCH   7   8
ATOM      8  C   UNL     1       0.125 -10.081   0.338  1.00  0.00    -0.000 C 
BRANCH   8   9
ATOM      9  C   UNL     1      -1.335  -9.817  -0.063  1.00  0.00    -0.003 C 
ATOM     10  C   UNL     1      -2.214  -9.614   1.169  1.00  0.00     0.004 C 
ENDBRANCH   8   9
ENDBRANCH   7   8
ENDBRANCH   1   7
TORSDOF 6
ENDMDL
MODEL 5
REMARK VINA RESULT:    -4.199      1.914      4.224
REMARK INTER + INTRA:          -5.988
REMARK INTER:                  -5.637
REMARK INTRA:                  -0.351
REMARK UNBOUND:                -0.316
REMARK SMILES CCCCCCCC(=O)[O-]
REMARK SMILES IDX 5 1 6 2 7 3 8 4 9 5 10 6 4 7 3 8 2 9 1 10
REMARK H PARENT
REMARK Flexibility Score: inf
ROOT
ATOM      1  C   UNL     1      -1.598   1.039  -1.982  1.00  0.00     0.000 C 
ENDROOT
BRANCH   1   2
ATOM      2  C   UNL     1      -1.237   2.108  -3.027  1.00  0.00     0.006 C 
BRANCH   2   3
ATOM      3  C   UNL     1       0.269   2.169  -3.315  1.00  0.00     0.053 C 
BRANCH   3   4
ATOM      4  C   UNL     1       0.772   3.571  -3.170  1.00  0.00     0.041 C 
ATOM      5  O   UNL     1       1.581   4.044  -4.009  1.00  0.00    -0.550 OA
ATOM      6  O   UNL     1       0.306   4.372  -2.135  1.00  0.00    -0.550 OA
ENDBRANCH   3   4
ENDBRANCH   2   3
ENDBRANCH   1   2
BRANCH   1   7
ATOM      7  C   UNL     1      -0.725   1.131  -0.719  1.00  0.00     0.000 C 
BRANCH   7   8
ATOM      8  C   UNL     1      -1.211   2.216   0.255  1.00  0.00    -0.000 C 
BRANCH   8   9
ATOM      9  C   UNL     1      -2.645   2.681  -0.043  1.00  0.00    -0.003 C 
ATOM     10  C   UNL     1      -2.681   4.169  -0.380  1.00  0.00     0.004 C 
ENDBRANCH   8   9
ENDBRANCH   7   8
ENDBRANCH   1   7
TORSDOF 6
ENDMDL
MODEL 6
REMARK VINA RESULT:    -4.128     12.085     13.256
REMARK INTER + INTRA:          -5.892
REMARK INTER:                  -5.596
REMARK INTRA:                  -0.296
REMARK UNBOUND:                -0.316
REMARK SMILES CCCCCCCC(=O)[O-]
REMARK SMILES IDX 5 1 6 2 7 3 8 4 9 5 10 6 4 7 3 8 2 9 1 10
REMARK H PARENT
REMARK Flexibility Score: inf
ROOT
ATOM      1  C   UNL     1       2.632  -9.286  -2.667  1.00  0.00     0.000 C 
ENDROOT
BRANCH   1   2
ATOM      2  C   UNL     1       2.304  -9.351  -4.168  1.00  0.00     0.006 C 
BRANCH   2   3
ATOM      3  C   UNL     1       3.058  -8.295  -4.986  1.00  0.00     0.053 C 
BRANCH   3   4
ATOM      4  C   UNL     1       4.532  -8.551  -4.936  1.00  0.00     0.041 C 
ATOM      5  O   UNL     1       5.305  -7.704  -4.419  1.00  0.00    -0.550 OA
ATOM      6  O   UNL     1       5.046  -9.749  -5.417  1.00  0.00    -0.550 OA
ENDBRANCH   3   4
ENDBRANCH   2   3
ENDBRANCH   1   2
BRANCH   1   7
ATOM      7  C   UNL     1       1.493  -9.833  -1.790  1.00  0.00     0.000 C 
BRANCH   7   8
ATOM      8  C   UNL     1       1.067  -8.845  -0.693  1.00  0.00    -0.000 C 
BRANCH   8   9
ATOM      9  C   UNL     1       0.162  -7.722  -1.224  1.00  0.00    -0.003 C 
ATOM     10  C   UNL     1      -1.306  -8.138  -1.189  1.00  0.00     0.004 C 
ENDBRANCH   8   9
ENDBRANCH   7   8
ENDBRANCH   1   7
TORSDOF 6
ENDMDL
MODEL 7
REMARK VINA RESULT:    -4.120     11.654     12.326
REMARK INTER + INTRA:          -5.882
REMARK INTER:                  -5.577
REMARK INTRA:                  -0.305
REMARK UNBOUND:                -0.316
REMARK SMILES CCCCCCCC(=O)[O-]
REMARK SMILES IDX 5 1 6 2 7 3 8 4 9 5 10 6 4 7 3 8 2 9 1 10
REMARK H PARENT
REMARK Flexibility Score: inf
ROOT
ATOM      1  C   UNL     1       2.620  -9.930  -4.012  1.00  0.00     0.000 C 
ENDROOT
BRANCH   1   2
ATOM      2  C   UNL     1       1.480  -9.871  -2.982  1.00  0.00     0.006 C 
BRANCH   2   3
ATOM      3  C   UNL     1       1.805  -8.962  -1.790  1.00  0.00     0.053 C 
BRANCH   3   4
ATOM      4  C   UNL     1       0.548  -8.407  -1.199  1.00  0.00     0.041 C 
ATOM      5  O   UNL     1      -0.151  -9.109  -0.423  1.00  0.00    -0.550 OA
ATOM      6  O   UNL     1       0.174  -7.095  -1.465  1.00  0.00    -0.550 OA
ENDBRANCH   3   4
ENDBRANCH   2   3
ENDBRANCH   1   2
BRANCH   1   7
ATOM      7  C   UNL     1       3.780  -8.982  -3.662  1.00  0.00     0.000 C 
BRANCH   7   8
ATOM      8  C   UNL     1       4.437  -8.368  -4.909  1.00  0.00    -0.000 C 
BRANCH   8   9
ATOM      9  C   UNL     1       3.446  -8.174  -6.066  1.00  0.00    -0.003 C 
ATOM     10  C   UNL     1       3.976  -8.799  -7.354  1.00  0.00     0.004 C 
ENDBRANCH   8   9
ENDBRANCH   7   8
ENDBRANCH   1   7
TORSDOF 6
ENDMDL
MODEL 8
REMARK VINA RESULT:    -3.919      2.109      2.529
REMARK INTER + INTRA:          -5.609
REMARK INTER:                  -5.277
REMARK INTRA:                  -0.332
REMARK UNBOUND:                -0.316
REMARK SMILES CCCCCCCC(=O)[O-]
REMARK SMILES IDX 5 1 6 2 7 3 8 4 9 5 10 6 4 7 3 8 2 9 1 10
REMARK H PARENT
REMARK Flexibility Score: inf
ROOT
ATOM      1  C   UNL     1      -1.343   4.229  -0.680  1.00  0.00     0.000 C 
ENDROOT
BRANCH   1   2
ATOM      2  C   UNL     1      -2.603   3.347  -0.693  1.00  0.00     0.006 C 
BRANCH   2   3
ATOM      3  C   UNL     1      -2.417   2.039   0.087  1.00  0.00     0.053 C 
BRANCH   3   4
ATOM      4  C   UNL     1      -1.176   1.335  -0.363  1.00  0.00     0.041 C 
ATOM      5  O   UNL     1      -1.076   0.921  -1.547  1.00  0.00    -0.550 OA
ATOM      6  O   UNL     1      -0.108   1.181   0.513  1.00  0.00    -0.550 OA
ENDBRANCH   3   4
ENDBRANCH   2   3
ENDBRANCH   1   2
BRANCH   1   7
ATOM      7  C   UNL     1      -0.767   4.453  -2.089  1.00  0.00     0.000 C 
BRANCH   7   8
ATOM      8  C   UNL     1       0.672   3.929  -2.227  1.00  0.00    -0.000 C 
BRANCH   8   9
ATOM      9  C   UNL     1       1.106   3.768  -3.693  1.00  0.00    -0.003 C 
ATOM     10  C   UNL     1       0.831   2.353  -4.194  1.00  0.00     0.004 C 
ENDBRANCH   8   9
ENDBRANCH   7   8
ENDBRANCH   1   7
TORSDOF 6
ENDMDL
MODEL 9
REMARK VINA RESULT:    -3.514     12.866     13.959
REMARK INTER + INTRA:          -5.062
REMARK INTER:                  -4.678
REMARK INTRA:                  -0.385
REMARK UNBOUND:                -0.316
REMARK SMILES CCCCCCCC(=O)[O-]
REMARK SMILES IDX 5 1 6 2 7 3 8 4 9 5 10 6 4 7 3 8 2 9 1 10
REMARK H PARENT
REMARK Flexibility Score: inf
ROOT
ATOM      1  C   UNL     1       7.178   0.790   9.651  1.00  0.00     0.000 C 
ENDROOT
BRANCH   1   2
ATOM      2  C   UNL     1       8.159   1.831   9.088  1.00  0.00     0.006 C 
BRANCH   2   3
ATOM      3  C   UNL     1       7.447   3.027   8.441  1.00  0.00     0.053 C 
BRANCH   3   4
ATOM      4  C   UNL     1       7.583   2.971   6.952  1.00  0.00     0.041 C 
ATOM      5  O   UNL     1       7.058   3.862   6.234  1.00  0.00    -0.550 OA
ATOM      6  O   UNL     1       8.333   1.963   6.359  1.00  0.00    -0.550 OA
ENDBRANCH   3   4
ENDBRANCH   2   3
ENDBRANCH   1   2
BRANCH   1   7
ATOM      7  C   UNL     1       7.848  -0.570   9.913  1.00  0.00     0.000 C 
BRANCH   7   8
ATOM      8  C   UNL     1       7.286  -1.686   9.016  1.00  0.00    -0.000 C 
BRANCH   8   9
ATOM      9  C   UNL     1       7.600  -1.465   7.528  1.00  0.00    -0.003 C 
ATOM     10  C   UNL     1       9.072  -1.739   7.232  1.00  0.00     0.004 C 
ENDBRANCH   8   9
ENDBRANCH   7   8
ENDBRANCH   1   7
TORSDOF 6
ENDMDL
