MODEL 1
REMARK VINA RESULT:    -7.006      0.000      0.000
REMARK INTER + INTRA:          -9.296
REMARK INTER:                  -8.849
REMARK INTRA:                  -0.447
REMARK UNBOUND:                -0.447
REMARK SMILES Oc1cc(O)cc(CCc2ccccc2O)c1
REMARK SMILES IDX 9 1 10 2 12 3 13 4 11 5 14 6 15 7 16 8 8 10 7 11 6 12 17 13
REMARK SMILES IDX 4 14 2 15 3 16 5 17 1 19
REMARK H PARENT 16 9 5 18 1 20
REMARK Flexibility Score: inf
ROOT
ATOM      1  C   UNL     1      15.060  43.683   3.984  1.00  0.00     0.044 C 
ENDROOT
BRANCH   1   2
ATOM      2  C   UNL     1      15.816  43.443   5.270  1.00  0.00    -0.006 A 
ATOM      3  C   UNL     1      17.852  43.761   6.567  1.00  0.00     0.001 A 
ATOM      4  C   UNL     1      17.310  43.015   7.614  1.00  0.00     0.004 A 
ATOM      5  C   UNL     1      17.114  43.971   5.400  1.00  0.00     0.007 A 
ATOM      6  C   UNL     1      16.030  42.471   7.493  1.00  0.00     0.046 A 
ATOM      7  C   UNL     1      15.278  42.669   6.328  1.00  0.00     0.118 A 
BRANCH   7   8
ATOM      8  O   UNL     1      14.012  42.081   6.258  1.00  0.00    -0.508 OA
ATOM      9  H   UNL     1      13.789  41.307   5.648  1.00  0.00     0.293 HD
ENDBRANCH   7   8
ENDBRANCH   1   2
BRANCH   1  10
ATOM     10  C   UNL     1      14.962  45.182   3.682  1.00  0.00     0.040 C 
BRANCH  10  11
ATOM     11  C   UNL     1      13.815  45.799   4.435  1.00  0.00    -0.040 A 
ATOM     12  C   UNL     1      13.921  46.034   5.816  1.00  0.00     0.050 A 
ATOM     13  C   UNL     1      12.653  46.199   3.754  1.00  0.00     0.050 A 
ATOM     14  C   UNL     1      12.869  46.639   6.512  1.00  0.00     0.119 A 
ATOM     15  C   UNL     1      11.600  46.804   4.448  1.00  0.00     0.119 A 
ATOM     16  C   UNL     1      11.707  47.021   5.828  1.00  0.00     0.092 A 
BRANCH  14  17
ATOM     17  O   UNL     1      12.989  46.858   7.883  1.00  0.00    -0.508 OA
ATOM     18  H   UNL     1      12.965  47.791   8.275  1.00  0.00     0.293 HD
ENDBRANCH  14  17
BRANCH  15  19
ATOM     19  O   UNL     1      10.453  47.186   3.757  1.00  0.00    -0.508 OA
ATOM     20  H   UNL     1       9.631  47.527   4.241  1.00  0.00     0.293 HD
ENDBRANCH  15  19
ENDBRANCH  10  11
ENDBRANCH   1  10
TORSDOF 6
ENDMDL
MODEL 2
REMARK VINA RESULT:    -6.983      2.777      5.790
REMARK INTER + INTRA:          -9.267
REMARK INTER:                  -8.488
REMARK INTRA:                  -0.780
REMARK UNBOUND:                -0.447
REMARK SMILES Oc1cc(O)cc(CCc2ccccc2O)c1
REMARK SMILES IDX 9 1 10 2 12 3 13 4 11 5 14 6 15 7 16 8 8 10 7 11 6 12 17 13
REMARK SMILES IDX 4 14 2 15 3 16 5 17 1 19
REMARK H PARENT 16 9 5 18 1 20
REMARK Flexibility Score: inf
ROOT
ATOM      1  C   UNL     1      13.563  45.044   7.093  1.00  0.00     0.044 C 
ENDROOT
BRANCH   1   2
ATOM      2  C   UNL     1      13.582  44.352   5.750  1.00  0.00    -0.006 A 
ATOM      3  C   UNL     1      12.487  42.852   4.174  1.00  0.00     0.001 A 
ATOM      4  C   UNL     1      13.553  42.996   3.286  1.00  0.00     0.004 A 
ATOM      5  C   UNL     1      12.502  43.521   5.401  1.00  0.00     0.007 A 
ATOM      6  C   UNL     1      14.640  43.804   3.625  1.00  0.00     0.046 A 
ATOM      7  C   UNL     1      14.672  44.478   4.853  1.00  0.00     0.118 A 
BRANCH   7   8
ATOM      8  O   UNL     1      15.797  45.254   5.144  1.00  0.00    -0.508 OA
ATOM      9  H   UNL     1      15.823  45.947   5.878  1.00  0.00     0.293 HD
ENDBRANCH   7   8
ENDBRANCH   1   2
BRANCH   1  10
ATOM     10  C   UNL     1      13.436  44.024   8.229  1.00  0.00     0.040 C 
BRANCH  10  11
ATOM     11  C   UNL     1      14.730  43.278   8.416  1.00  0.00    -0.040 A 
ATOM     12  C   UNL     1      15.916  43.978   8.689  1.00  0.00     0.050 A 
ATOM     13  C   UNL     1      14.750  41.874   8.378  1.00  0.00     0.050 A 
ATOM     14  C   UNL     1      17.114  43.286   8.897  1.00  0.00     0.119 A 
ATOM     15  C   UNL     1      15.946  41.178   8.586  1.00  0.00     0.119 A 
ATOM     16  C   UNL     1      17.129  41.886   8.842  1.00  0.00     0.092 A 
BRANCH  14  17
ATOM     17  O   UNL     1      18.282  43.997   9.160  1.00  0.00    -0.508 OA
ATOM     18  H   UNL     1      18.274  44.844   9.715  1.00  0.00     0.293 HD
ENDBRANCH  14  17
BRANCH  15  19
ATOM     19  O   UNL     1      15.949  39.786   8.537  1.00  0.00    -0.508 OA
ATOM     20  H   UNL     1      15.556  39.229   9.285  1.00  0.00     0.293 HD
ENDBRANCH  15  19
ENDBRANCH  10  11
ENDBRANCH   1  10
TORSDOF 6
ENDMDL
MODEL 3
REMARK VINA RESULT:    -6.976      2.802      5.899
REMARK INTER + INTRA:          -9.259
REMARK INTER:                  -8.484
REMARK INTRA:                  -0.774
REMARK UNBOUND:                -0.447
REMARK SMILES Oc1cc(O)cc(CCc2ccccc2O)c1
REMARK SMILES IDX 9 1 10 2 12 3 13 4 11 5 14 6 15 7 16 8 8 10 7 11 6 12 17 13
REMARK SMILES IDX 4 14 2 15 3 16 5 17 1 19
REMARK H PARENT 16 9 5 18 1 20
REMARK Flexibility Score: inf
ROOT
ATOM      1  C   UNL     1      13.621  45.005   7.095  1.00  0.00     0.044 C 
ENDROOT
BRANCH   1   2
ATOM      2  C   UNL     1      13.657  44.327   5.746  1.00  0.00    -0.006 A 
ATOM      3  C   UNL     1      12.590  42.834   4.145  1.00  0.00     0.001 A 
ATOM      4  C   UNL     1      13.661  42.999   3.267  1.00  0.00     0.004 A 
ATOM      5  C   UNL     1      12.588  43.490   5.379  1.00  0.00     0.007 A 
ATOM      6  C   UNL     1      14.737  43.813   3.623  1.00  0.00     0.046 A 
ATOM      7  C   UNL     1      14.753  44.475   4.858  1.00  0.00     0.118 A 
BRANCH   7   8
ATOM      8  O   UNL     1      15.868  45.258   5.166  1.00  0.00    -0.508 OA
ATOM      9  H   UNL     1      15.974  46.219   4.872  1.00  0.00     0.293 HD
ENDBRANCH   7   8
ENDBRANCH   1   2
BRANCH   1  10
ATOM     10  C   UNL     1      13.436  43.976   8.215  1.00  0.00     0.040 C 
BRANCH  10  11
ATOM     11  C   UNL     1      14.719  43.229   8.463  1.00  0.00    -0.040 A 
ATOM     12  C   UNL     1      14.743  41.826   8.401  1.00  0.00     0.050 A 
ATOM     13  C   UNL     1      15.913  43.930   8.700  1.00  0.00     0.050 A 
ATOM     14  C   UNL     1      15.941  41.131   8.598  1.00  0.00     0.119 A 
ATOM     15  C   UNL     1      17.112  43.238   8.897  1.00  0.00     0.119 A 
ATOM     16  C   UNL     1      17.125  41.837   8.849  1.00  0.00     0.092 A 
BRANCH  14  17
ATOM     17  O   UNL     1      15.945  39.739   8.540  1.00  0.00    -0.508 OA
ATOM     18  H   UNL     1      15.490  39.177   9.249  1.00  0.00     0.293 HD
ENDBRANCH  14  17
BRANCH  15  19
ATOM     19  O   UNL     1      18.285  43.950   9.138  1.00  0.00    -0.508 OA
ATOM     20  H   UNL     1      18.511  44.790   8.619  1.00  0.00     0.293 HD
ENDBRANCH  15  19
ENDBRANCH  10  11
ENDBRANCH   1  10
TORSDOF 6
ENDMDL
MODEL 4
REMARK VINA RESULT:    -6.896      1.684      2.691
REMARK INTER + INTRA:          -9.158
REMARK INTER:                  -8.388
REMARK INTRA:                  -0.770
REMARK UNBOUND:                -0.447
REMARK SMILES Oc1cc(O)cc(CCc2ccccc2O)c1
REMARK SMILES IDX 9 1 10 2 12 3 13 4 11 5 14 6 15 7 16 8 8 10 7 11 6 12 17 13
REMARK SMILES IDX 4 14 2 15 3 16 5 17 1 19
REMARK H PARENT 16 9 5 18 1 20
REMARK Flexibility Score: inf
ROOT
ATOM      1  C   UNL     1      16.907  42.968   4.920  1.00  0.00     0.044 C 
ENDROOT
BRANCH   1   2
ATOM      2  C   UNL     1      16.656  43.371   6.355  1.00  0.00    -0.006 A 
ATOM      3  C   UNL     1      17.324  44.701   8.282  1.00  0.00     0.001 A 
ATOM      4  C   UNL     1      16.284  44.151   9.031  1.00  0.00     0.004 A 
ATOM      5  C   UNL     1      17.514  44.311   6.954  1.00  0.00     0.007 A 
ATOM      6  C   UNL     1      15.434  43.204   8.456  1.00  0.00     0.046 A 
ATOM      7  C   UNL     1      15.613  42.800   7.126  1.00  0.00     0.118 A 
BRANCH   7   8
ATOM      8  O   UNL     1      14.744  41.833   6.614  1.00  0.00    -0.508 OA
ATOM      9  H   UNL     1      14.261  41.156   7.188  1.00  0.00     0.293 HD
ENDBRANCH   7   8
ENDBRANCH   1   2
BRANCH   1  10
ATOM     10  C   UNL     1      16.576  44.121   3.966  1.00  0.00     0.040 C 
BRANCH  10  11
ATOM     11  C   UNL     1      15.099  44.408   3.977  1.00  0.00    -0.040 A 
ATOM     12  C   UNL     1      14.189  43.449   3.504  1.00  0.00     0.050 A 
ATOM     13  C   UNL     1      14.615  45.613   4.514  1.00  0.00     0.050 A 
ATOM     14  C   UNL     1      12.813  43.700   3.543  1.00  0.00     0.119 A 
ATOM     15  C   UNL     1      13.240  45.866   4.555  1.00  0.00     0.119 A 
ATOM     16  C   UNL     1      12.340  44.910   4.067  1.00  0.00     0.092 A 
BRANCH  14  17
ATOM     17  O   UNL     1      11.925  42.739   3.063  1.00  0.00    -0.508 OA
ATOM     18  H   UNL     1      12.125  41.750   3.137  1.00  0.00     0.293 HD
ENDBRANCH  14  17
BRANCH  15  19
ATOM     19  O   UNL     1      12.780  47.070   5.084  1.00  0.00    -0.508 OA
ATOM     20  H   UNL     1      12.631  47.883   4.500  1.00  0.00     0.293 HD
ENDBRANCH  15  19
ENDBRANCH  10  11
ENDBRANCH   1  10
TORSDOF 6
ENDMDL
MODEL 5
REMARK VINA RESULT:    -6.875      2.001      4.889
REMARK INTER + INTRA:          -9.131
REMARK INTER:                  -8.473
REMARK INTRA:                  -0.658
REMARK UNBOUND:                -0.447
REMARK SMILES Oc1cc(O)cc(CCc2ccccc2O)c1
REMARK SMILES IDX 9 1 10 2 12 3 13 4 11 5 14 6 15 7 16 8 8 10 7 11 6 12 17 13
REMARK SMILES IDX 4 14 2 15 3 16 5 17 1 19
REMARK H PARENT 16 9 5 18 1 20
REMARK Flexibility Score: inf
ROOT
ATOM      1  C   UNL     1      15.519  43.423   3.679  1.00  0.00     0.044 C 
ENDROOT
BRANCH   1   2
ATOM      2  C   UNL     1      14.319  44.215   4.142  1.00  0.00    -0.006 A 
ATOM      3  C   UNL     1      13.218  46.377   4.357  1.00  0.00     0.001 A 
ATOM      4  C   UNL     1      12.141  45.772   5.005  1.00  0.00     0.004 A 
ATOM      5  C   UNL     1      14.303  45.606   3.932  1.00  0.00     0.007 A 
ATOM      6  C   UNL     1      12.148  44.395   5.235  1.00  0.00     0.046 A 
ATOM      7  C   UNL     1      13.231  43.609   4.819  1.00  0.00     0.118 A 
BRANCH   7   8
ATOM      8  O   UNL     1      13.190  42.240   5.098  1.00  0.00    -0.508 OA
ATOM      9  H   UNL     1      12.418  41.789   5.568  1.00  0.00     0.293 HD
ENDBRANCH   7   8
ENDBRANCH   1   2
BRANCH   1  10
ATOM     10  C   UNL     1      16.763  43.797   4.491  1.00  0.00     0.040 C 
BRANCH  10  11
ATOM     11  C   UNL     1      16.515  43.595   5.961  1.00  0.00    -0.040 A 
ATOM     12  C   UNL     1      16.372  44.703   6.813  1.00  0.00     0.050 A 
ATOM     13  C   UNL     1      16.367  42.299   6.484  1.00  0.00     0.050 A 
ATOM     14  C   UNL     1      16.108  44.518   8.174  1.00  0.00     0.119 A 
ATOM     15  C   UNL     1      16.103  42.112   7.845  1.00  0.00     0.119 A 
ATOM     16  C   UNL     1      15.977  43.222   8.690  1.00  0.00     0.092 A 
BRANCH  14  17
ATOM     17  O   UNL     1      15.975  45.629   9.005  1.00  0.00    -0.508 OA
ATOM     18  H   UNL     1      16.577  45.765   9.808  1.00  0.00     0.293 HD
ENDBRANCH  14  17
BRANCH  15  19
ATOM     19  O   UNL     1      15.966  40.819   8.346  1.00  0.00    -0.508 OA
ATOM     20  H   UNL     1      15.089  40.489   8.729  1.00  0.00     0.293 HD
ENDBRANCH  15  19
ENDBRANCH  10  11
ENDBRANCH   1  10
TORSDOF 6
ENDMDL
MODEL 6
REMARK VINA RESULT:    -6.857      1.709      2.383
REMARK INTER + INTRA:          -9.109
REMARK INTER:                  -8.362
REMARK INTRA:                  -0.747
REMARK UNBOUND:                -0.447
REMARK SMILES Oc1cc(O)cc(CCc2ccccc2O)c1
REMARK SMILES IDX 9 1 10 2 12 3 13 4 11 5 14 6 15 7 16 8 8 10 7 11 6 12 17 13
REMARK SMILES IDX 4 14 2 15 3 16 5 17 1 19
REMARK H PARENT 16 9 5 18 1 20
REMARK Flexibility Score: inf
ROOT
ATOM      1  C   UNL     1      16.910  43.003   4.976  1.00  0.00     0.044 C 
ENDROOT
BRANCH   1   2
ATOM      2  C   UNL     1      16.639  43.449   6.394  1.00  0.00    -0.006 A 
ATOM      3  C   UNL     1      17.266  44.854   8.282  1.00  0.00     0.001 A 
ATOM      4  C   UNL     1      16.227  44.311   9.039  1.00  0.00     0.004 A 
ATOM      5  C   UNL     1      17.475  44.424   6.969  1.00  0.00     0.007 A 
ATOM      6  C   UNL     1      15.400  43.331   8.488  1.00  0.00     0.046 A 
ATOM      7  C   UNL     1      15.598  42.886   7.174  1.00  0.00     0.118 A 
BRANCH   7   8
ATOM      8  O   UNL     1      14.751  41.888   6.687  1.00  0.00    -0.508 OA
ATOM      9  H   UNL     1      15.081  41.046   6.236  1.00  0.00     0.293 HD
ENDBRANCH   7   8
ENDBRANCH   1   2
BRANCH   1  10
ATOM     10  C   UNL     1      16.535  44.104   3.979  1.00  0.00     0.040 C 
BRANCH  10  11
ATOM     11  C   UNL     1      15.058  44.388   4.036  1.00  0.00    -0.040 A 
ATOM     12  C   UNL     1      14.593  45.624   4.515  1.00  0.00     0.050 A 
ATOM     13  C   UNL     1      14.136  43.442   3.558  1.00  0.00     0.050 A 
ATOM     14  C   UNL     1      13.223  45.902   4.538  1.00  0.00     0.119 A 
ATOM     15  C   UNL     1      12.764  43.718   3.580  1.00  0.00     0.119 A 
ATOM     16  C   UNL     1      12.308  44.948   4.073  1.00  0.00     0.092 A 
BRANCH  14  17
ATOM     17  O   UNL     1      12.779  47.131   5.022  1.00  0.00    -0.508 OA
ATOM     18  H   UNL     1      12.588  47.908   4.401  1.00  0.00     0.293 HD
ENDBRANCH  14  17
BRANCH  15  19
ATOM     19  O   UNL     1      11.865  42.765   3.108  1.00  0.00    -0.508 OA
ATOM     20  H   UNL     1      12.169  41.982   2.542  1.00  0.00     0.293 HD
ENDBRANCH  15  19
ENDBRANCH  10  11
ENDBRANCH   1  10
TORSDOF 6
ENDMDL
MODEL 7
REMARK VINA RESULT:    -6.824      2.103      4.905
REMARK INTER + INTRA:          -9.067
REMARK INTER:                  -8.358
REMARK INTRA:                  -0.709
REMARK UNBOUND:                -0.447
REMARK SMILES Oc1cc(O)cc(CCc2ccccc2O)c1
REMARK SMILES IDX 9 1 10 2 12 3 13 4 11 5 14 6 15 7 16 8 8 10 7 11 6 12 17 13
REMARK SMILES IDX 4 14 2 15 3 16 5 17 1 19
REMARK H PARENT 16 9 5 18 1 20
REMARK Flexibility Score: inf
ROOT
ATOM      1  C   UNL     1      15.976  43.274   3.751  1.00  0.00     0.044 C 
ENDROOT
BRANCH   1   2
ATOM      2  C   UNL     1      14.716  44.080   3.962  1.00  0.00    -0.006 A 
ATOM      3  C   UNL     1      13.631  46.260   3.994  1.00  0.00     0.001 A 
ATOM      4  C   UNL     1      12.427  45.663   4.369  1.00  0.00     0.004 A 
ATOM      5  C   UNL     1      14.770  45.477   3.795  1.00  0.00     0.007 A 
ATOM      6  C   UNL     1      12.361  44.281   4.554  1.00  0.00     0.046 A 
ATOM      7  C   UNL     1      13.496  43.481   4.363  1.00  0.00     0.118 A 
BRANCH   7   8
ATOM      8  O   UNL     1      13.373  42.107   4.584  1.00  0.00    -0.508 OA
ATOM      9  H   UNL     1      13.394  41.418   3.846  1.00  0.00     0.293 HD
ENDBRANCH   7   8
ENDBRANCH   1   2
BRANCH   1  10
ATOM     10  C   UNL     1      17.059  43.686   4.753  1.00  0.00     0.040 C 
BRANCH  10  11
ATOM     11  C   UNL     1      16.559  43.533   6.164  1.00  0.00    -0.040 A 
ATOM     12  C   UNL     1      16.245  42.261   6.669  1.00  0.00     0.050 A 
ATOM     13  C   UNL     1      16.459  44.654   7.005  1.00  0.00     0.050 A 
ATOM     14  C   UNL     1      15.812  42.113   7.991  1.00  0.00     0.119 A 
ATOM     15  C   UNL     1      16.026  44.509   8.328  1.00  0.00     0.119 A 
ATOM     16  C   UNL     1      15.699  43.238   8.819  1.00  0.00     0.092 A 
BRANCH  14  17
ATOM     17  O   UNL     1      15.498  40.844   8.473  1.00  0.00    -0.508 OA
ATOM     18  H   UNL     1      15.247  40.087   7.849  1.00  0.00     0.293 HD
ENDBRANCH  14  17
BRANCH  15  19
ATOM     19  O   UNL     1      15.925  45.632   9.145  1.00  0.00    -0.508 OA
ATOM     20  H   UNL     1      16.573  46.407   9.064  1.00  0.00     0.293 HD
ENDBRANCH  15  19
ENDBRANCH  10  11
ENDBRANCH   1  10
TORSDOF 6
ENDMDL
MODEL 8
REMARK VINA RESULT:    -6.745      2.722      5.588
REMARK INTER + INTRA:          -8.966
REMARK INTER:                  -8.430
REMARK INTRA:                  -0.536
REMARK UNBOUND:                -0.447
REMARK SMILES Oc1cc(O)cc(CCc2ccccc2O)c1
REMARK SMILES IDX 9 1 10 2 12 3 13 4 11 5 14 6 15 7 16 8 8 10 7 11 6 12 17 13
REMARK SMILES IDX 4 14 2 15 3 16 5 17 1 19
REMARK H PARENT 16 9 5 18 1 20
REMARK Flexibility Score: inf
ROOT
ATOM      1  C   UNL     1      13.272  46.311   7.104  1.00  0.00     0.044 C 
ENDROOT
BRANCH   1   2
ATOM      2  C   UNL     1      12.021  45.835   7.805  1.00  0.00    -0.006 A 
ATOM      3  C   UNL     1       9.611  46.018   8.098  1.00  0.00     0.001 A 
ATOM      4  C   UNL     1       9.649  45.035   9.087  1.00  0.00     0.004 A 
ATOM      5  C   UNL     1      10.789  46.421   7.463  1.00  0.00     0.007 A 
ATOM      6  C   UNL     1      10.867  44.456   9.449  1.00  0.00     0.046 A 
ATOM      7  C   UNL     1      12.057  44.851   8.825  1.00  0.00     0.118 A 
BRANCH   7   8
ATOM      8  O   UNL     1      13.247  44.251   9.246  1.00  0.00    -0.508 OA
ATOM      9  H   UNL     1      13.328  43.269   9.469  1.00  0.00     0.293 HD
ENDBRANCH   7   8
ENDBRANCH   1   2
BRANCH   1  10
ATOM     10  C   UNL     1      13.537  45.482   5.843  1.00  0.00     0.040 C 
BRANCH  10  11
ATOM     11  C   UNL     1      14.931  44.916   5.867  1.00  0.00    -0.040 A 
ATOM     12  C   UNL     1      15.783  45.180   6.952  1.00  0.00     0.050 A 
ATOM     13  C   UNL     1      15.370  44.071   4.834  1.00  0.00     0.050 A 
ATOM     14  C   UNL     1      17.068  44.627   6.992  1.00  0.00     0.119 A 
ATOM     15  C   UNL     1      16.655  43.517   4.872  1.00  0.00     0.119 A 
ATOM     16  C   UNL     1      17.504  43.798   5.950  1.00  0.00     0.092 A 
BRANCH  14  17
ATOM     17  O   UNL     1      17.902  44.906   8.073  1.00  0.00    -0.508 OA
ATOM     18  H   UNL     1      17.621  45.543   8.808  1.00  0.00     0.293 HD
ENDBRANCH  14  17
BRANCH  15  19
ATOM     19  O   UNL     1      17.075  42.688   3.835  1.00  0.00    -0.508 OA
ATOM     20  H   UNL     1      16.415  42.253   3.202  1.00  0.00     0.293 HD
ENDBRANCH  15  19
ENDBRANCH  10  11
ENDBRANCH   1  10
TORSDOF 6
ENDMDL
MODEL 9
REMARK VINA RESULT:    -6.724      2.700      5.917
REMARK INTER + INTRA:          -8.940
REMARK INTER:                  -8.401
REMARK INTRA:                  -0.539
REMARK UNBOUND:                -0.447
REMARK SMILES Oc1cc(O)cc(CCc2ccccc2O)c1
REMARK SMILES IDX 9 1 10 2 12 3 13 4 11 5 14 6 15 7 16 8 8 10 7 11 6 12 17 13
REMARK SMILES IDX 4 14 2 15 3 16 5 17 1 19
REMARK H PARENT 16 9 5 18 1 20
REMARK Flexibility Score: inf
ROOT
ATOM      1  C   UNL     1      13.268  46.310   7.119  1.00  0.00     0.044 C 
ENDROOT
BRANCH   1   2
ATOM      2  C   UNL     1      11.979  45.859   7.766  1.00  0.00    -0.006 A 
ATOM      3  C   UNL     1       9.563  46.093   7.958  1.00  0.00     0.001 A 
ATOM      4  C   UNL     1       9.539  45.106   8.944  1.00  0.00     0.004 A 
ATOM      5  C   UNL     1      10.775  46.472   7.375  1.00  0.00     0.007 A 
ATOM      6  C   UNL     1      10.728  44.500   9.354  1.00  0.00     0.046 A 
ATOM      7  C   UNL     1      11.952  44.871   8.782  1.00  0.00     0.118 A 
BRANCH   7   8
ATOM      8  O   UNL     1      13.109  44.244   9.250  1.00  0.00    -0.508 OA
ATOM      9  H   UNL     1      13.953  44.149   8.703  1.00  0.00     0.293 HD
ENDBRANCH   7   8
ENDBRANCH   1   2
BRANCH   1  10
ATOM     10  C   UNL     1      13.567  45.479   5.867  1.00  0.00     0.040 C 
BRANCH  10  11
ATOM     11  C   UNL     1      14.933  44.855   5.961  1.00  0.00    -0.040 A 
ATOM     12  C   UNL     1      15.399  44.016   4.936  1.00  0.00     0.050 A 
ATOM     13  C   UNL     1      15.775  45.152   7.046  1.00  0.00     0.050 A 
ATOM     14  C   UNL     1      16.682  43.461   5.006  1.00  0.00     0.119 A 
ATOM     15  C   UNL     1      17.058  44.599   7.118  1.00  0.00     0.119 A 
ATOM     16  C   UNL     1      17.509  43.750   6.099  1.00  0.00     0.092 A 
BRANCH  14  17
ATOM     17  O   UNL     1      17.125  42.625   3.983  1.00  0.00    -0.508 OA
ATOM     18  H   UNL     1      17.995  42.112   4.056  1.00  0.00     0.293 HD
ENDBRANCH  14  17
BRANCH  15  19
ATOM     19  O   UNL     1      17.875  44.899   8.205  1.00  0.00    -0.508 OA
ATOM     20  H   UNL     1      18.632  45.567   8.131  1.00  0.00     0.293 HD
ENDBRANCH  15  19
ENDBRANCH  10  11
ENDBRANCH   1  10
TORSDOF 6
ENDMDL
