MODEL 1
REMARK VINA RESULT:    -3.890      0.000      0.000
REMARK INTER + INTRA:          -4.732
REMARK INTER:                  -4.459
REMARK INTRA:                  -0.274
REMARK UNBOUND:                -0.274
REMARK SMILES COC(=O)c1ccccc1O
REMARK SMILES IDX 5 1 6 2 7 3 8 4 9 5 10 6 3 7 4 8 2 9 1 10 11 11
REMARK H PARENT 11 12
REMARK Flexibility Score: inf
ROOT
ATOM      1  C   UNL     1       9.533 -32.496  15.111  1.00  0.00     0.101 A 
ATOM      2  C   UNL     1       9.064 -33.587  14.352  1.00  0.00     0.019 A 
ATOM      3  C   UNL     1       9.781 -34.046  13.243  1.00  0.00     0.001 A 
ATOM      4  C   UNL     1      10.973 -33.425  12.875  1.00  0.00     0.004 A 
ATOM      5  C   UNL     1      11.454 -32.343  13.612  1.00  0.00     0.047 A 
ATOM      6  C   UNL     1      10.744 -31.871  14.728  1.00  0.00     0.130 A 
ENDROOT
BRANCH   1   7
ATOM      7  C   UNL     1       8.750 -32.029  16.285  1.00  0.00     0.341 C 
ATOM      8  O   UNL     1       7.491 -32.124  16.277  1.00  0.00    -0.246 OA
BRANCH   7   9
ATOM      9  O   UNL     1       9.396 -31.486  17.400  1.00  0.00    -0.465 OA
ATOM     10  C   UNL     1       8.895 -31.626  18.724  1.00  0.00     0.282 C 
ENDBRANCH   7   9
ENDBRANCH   1   7
BRANCH   6  11
ATOM     11  O   UNL     1      11.249 -30.787  15.447  1.00  0.00    -0.507 OA
ATOM     12  H   UNL     1      10.647 -30.047  15.788  1.00  0.00     0.293 HD
ENDBRANCH   6  11
TORSDOF 3
ENDMDL
MODEL 2
REMARK VINA RESULT:    -3.863      1.677      3.625
REMARK INTER + INTRA:          -4.701
REMARK INTER:                  -4.431
REMARK INTRA:                  -0.270
REMARK UNBOUND:                -0.274
REMARK SMILES COC(=O)c1ccccc1O
REMARK SMILES IDX 5 1 6 2 7 3 8 4 9 5 10 6 3 7 4 8 2 9 1 10 11 11
REMARK H PARENT 11 12
REMARK Flexibility Score: inf
ROOT
ATOM      1  C   UNL     1       9.432 -32.614  14.383  1.00  0.00     0.101 A 
ATOM      2  C   UNL     1       8.611 -33.457  13.607  1.00  0.00     0.019 A 
ATOM      3  C   UNL     1       7.296 -33.728  13.997  1.00  0.00     0.001 A 
ATOM      4  C   UNL     1       6.782 -33.164  15.164  1.00  0.00     0.004 A 
ATOM      5  C   UNL     1       7.579 -32.328  15.945  1.00  0.00     0.047 A 
ATOM      6  C   UNL     1       8.901 -32.046  15.566  1.00  0.00     0.130 A 
ENDROOT
BRANCH   1   7
ATOM      7  C   UNL     1      10.826 -32.343  13.944  1.00  0.00     0.341 C 
ATOM      8  O   UNL     1      11.412 -33.156  13.177  1.00  0.00    -0.246 OA
BRANCH   7   9
ATOM      9  O   UNL     1      11.496 -31.192  14.373  1.00  0.00    -0.465 OA
ATOM     10  C   UNL     1      12.912 -31.063  14.326  1.00  0.00     0.282 C 
ENDBRANCH   7   9
ENDBRANCH   1   7
BRANCH   6  11
ATOM     11  O   UNL     1       9.675 -31.206  16.367  1.00  0.00    -0.507 OA
ATOM     12  H   UNL     1      10.593 -31.480  16.697  1.00  0.00     0.293 HD
ENDBRANCH   6  11
TORSDOF 3
ENDMDL
MODEL 3
REMARK VINA RESULT:    -3.862      1.603      3.919
REMARK INTER + INTRA:          -4.700
REMARK INTER:                  -4.407
REMARK INTRA:                  -0.293
REMARK UNBOUND:                -0.274
REMARK SMILES COC(=O)c1ccccc1O
REMARK SMILES IDX 5 1 6 2 7 3 8 4 9 5 10 6 3 7 4 8 2 9 1 10 11 11
REMARK H PARENT 11 12
REMARK Flexibility Score: inf
ROOT
ATOM      1  C   UNL     1       9.571 -31.915  15.666  1.00  0.00     0.101 A 
ATOM      2  C   UNL     1       8.504 -32.522  16.360  1.00  0.00     0.019 A 
ATOM      3  C   UNL     1       8.306 -32.275  17.721  1.00  0.00     0.001 A 
ATOM      4  C   UNL     1       9.166 -31.422  18.410  1.00  0.00     0.004 A 
ATOM      5  C   UNL     1      10.228 -30.813  17.742  1.00  0.00     0.047 A 
ATOM      6  C   UNL     1      10.440 -31.051  16.375  1.00  0.00     0.130 A 
ENDROOT
BRANCH   1   7
ATOM      7  C   UNL     1       9.758 -32.195  14.218  1.00  0.00     0.341 C 
ATOM      8  O   UNL     1       8.753 -32.272  13.459  1.00  0.00    -0.246 OA
BRANCH   7   9
ATOM      9  O   UNL     1      11.040 -32.375  13.689  1.00  0.00    -0.465 OA
ATOM     10  C   UNL     1      11.436 -33.566  13.018  1.00  0.00     0.282 C 
ENDBRANCH   7   9
ENDBRANCH   1   7
BRANCH   6  11
ATOM     11  O   UNL     1      11.511 -30.427  15.733  1.00  0.00    -0.507 OA
ATOM     12  H   UNL     1      11.878 -29.538  16.050  1.00  0.00     0.293 HD
ENDBRANCH   6  11
TORSDOF 3
ENDMDL
MODEL 4
REMARK VINA RESULT:    -3.824      1.410      1.846
REMARK INTER + INTRA:          -4.656
REMARK INTER:                  -4.403
REMARK INTRA:                  -0.253
REMARK UNBOUND:                -0.274
REMARK SMILES COC(=O)c1ccccc1O
REMARK SMILES IDX 5 1 6 2 7 3 8 4 9 5 10 6 3 7 4 8 2 9 1 10 11 11
REMARK H PARENT 11 12
REMARK Flexibility Score: inf
ROOT
ATOM      1  C   UNL     1       9.136 -31.945  15.513  1.00  0.00     0.101 A 
ATOM      2  C   UNL     1       7.825 -32.362  15.205  1.00  0.00     0.019 A 
ATOM      3  C   UNL     1       7.473 -32.700  13.895  1.00  0.00     0.001 A 
ATOM      4  C   UNL     1       8.420 -32.627  12.875  1.00  0.00     0.004 A 
ATOM      5  C   UNL     1       9.722 -32.216  13.160  1.00  0.00     0.047 A 
ATOM      6  C   UNL     1      10.091 -31.874  14.470  1.00  0.00     0.130 A 
ENDROOT
BRANCH   1   7
ATOM      7  C   UNL     1       9.482 -31.593  16.915  1.00  0.00     0.341 C 
ATOM      8  O   UNL     1      10.382 -30.737  17.143  1.00  0.00    -0.246 OA
BRANCH   7   9
ATOM      9  O   UNL     1       8.819 -32.201  17.986  1.00  0.00    -0.465 OA
ATOM     10  C   UNL     1       8.734 -31.607  19.276  1.00  0.00     0.282 C 
ENDBRANCH   7   9
ENDBRANCH   1   7
BRANCH   6  11
ATOM     11  O   UNL     1      11.401 -31.467  14.725  1.00  0.00    -0.507 OA
ATOM     12  H   UNL     1      12.116 -32.122  15.017  1.00  0.00     0.293 HD
ENDBRANCH   6  11
TORSDOF 3
ENDMDL
MODEL 5
REMARK VINA RESULT:    -3.693      1.240      2.575
REMARK INTER + INTRA:          -4.506
REMARK INTER:                  -4.208
REMARK INTRA:                  -0.299
REMARK UNBOUND:                -0.274
REMARK SMILES COC(=O)c1ccccc1O
REMARK SMILES IDX 5 1 6 2 7 3 8 4 9 5 10 6 3 7 4 8 2 9 1 10 11 11
REMARK H PARENT 11 12
REMARK Flexibility Score: inf
ROOT
ATOM      1  C   UNL     1       9.028 -32.096  15.462  1.00  0.00     0.101 A 
ATOM      2  C   UNL     1      10.042 -32.434  14.543  1.00  0.00     0.019 A 
ATOM      3  C   UNL     1       9.720 -32.888  13.260  1.00  0.00     0.001 A 
ATOM      4  C   UNL     1       8.386 -33.010  12.875  1.00  0.00     0.004 A 
ATOM      5  C   UNL     1       7.369 -32.680  13.770  1.00  0.00     0.047 A 
ATOM      6  C   UNL     1       7.676 -32.224  15.061  1.00  0.00     0.130 A 
ENDROOT
BRANCH   1   7
ATOM      7  C   UNL     1       9.399 -31.616  16.819  1.00  0.00     0.341 C 
ATOM      8  O   UNL     1      10.334 -30.780  16.955  1.00  0.00    -0.246 OA
BRANCH   7   9
ATOM      9  O   UNL     1       8.720 -32.085  17.949  1.00  0.00    -0.465 OA
ATOM     10  C   UNL     1       8.879 -31.504  19.237  1.00  0.00     0.282 C 
ENDBRANCH   7   9
ENDBRANCH   1   7
BRANCH   6  11
ATOM     11  O   UNL     1       6.637 -31.901  15.935  1.00  0.00    -0.507 OA
ATOM     12  H   UNL     1       6.698 -31.114  16.569  1.00  0.00     0.293 HD
ENDBRANCH   6  11
TORSDOF 3
ENDMDL
MODEL 6
REMARK VINA RESULT:    -3.682      1.739      3.996
REMARK INTER + INTRA:          -4.494
REMARK INTER:                  -4.217
REMARK INTRA:                  -0.277
REMARK UNBOUND:                -0.274
REMARK SMILES COC(=O)c1ccccc1O
REMARK SMILES IDX 5 1 6 2 7 3 8 4 9 5 10 6 3 7 4 8 2 9 1 10 11 11
REMARK H PARENT 11 12
REMARK Flexibility Score: inf
ROOT
ATOM      1  C   UNL     1       9.532 -31.930  15.746  1.00  0.00     0.101 A 
ATOM      2  C   UNL     1       8.485 -32.510  16.491  1.00  0.00     0.019 A 
ATOM      3  C   UNL     1       8.324 -32.214  17.847  1.00  0.00     0.001 A 
ATOM      4  C   UNL     1       9.203 -31.338  18.481  1.00  0.00     0.004 A 
ATOM      5  C   UNL     1      10.246 -30.754  17.762  1.00  0.00     0.047 A 
ATOM      6  C   UNL     1      10.420 -31.042  16.399  1.00  0.00     0.130 A 
ENDROOT
BRANCH   1   7
ATOM      7  C   UNL     1       9.679 -32.263  14.305  1.00  0.00     0.341 C 
ATOM      8  O   UNL     1      10.827 -32.296  13.782  1.00  0.00    -0.246 OA
BRANCH   7   9
ATOM      9  O   UNL     1       8.554 -32.541  13.522  1.00  0.00    -0.465 OA
ATOM     10  C   UNL     1       8.356 -33.793  12.875  1.00  0.00     0.282 C 
ENDBRANCH   7   9
ENDBRANCH   1   7
BRANCH   6  11
ATOM     11  O   UNL     1      11.472 -30.443  15.705  1.00  0.00    -0.507 OA
ATOM     12  H   UNL     1      11.354 -30.078  14.768  1.00  0.00     0.293 HD
ENDBRANCH   6  11
TORSDOF 3
ENDMDL
MODEL 7
REMARK VINA RESULT:    -3.552     16.133     17.728
REMARK INTER + INTRA:          -4.344
REMARK INTER:                  -4.138
REMARK INTRA:                  -0.207
REMARK UNBOUND:                -0.274
REMARK SMILES COC(=O)c1ccccc1O
REMARK SMILES IDX 5 1 6 2 7 3 8 4 9 5 10 6 3 7 4 8 2 9 1 10 11 11
REMARK H PARENT 11 12
REMARK Flexibility Score: inf
ROOT
ATOM      1  C   UNL     1      15.213 -35.488  31.575  1.00  0.00     0.101 A 
ATOM      2  C   UNL     1      14.426 -36.445  32.247  1.00  0.00     0.019 A 
ATOM      3  C   UNL     1      13.327 -36.051  33.015  1.00  0.00     0.001 A 
ATOM      4  C   UNL     1      12.996 -34.702  33.125  1.00  0.00     0.004 A 
ATOM      5  C   UNL     1      13.763 -33.740  32.468  1.00  0.00     0.047 A 
ATOM      6  C   UNL     1      14.870 -34.120  31.692  1.00  0.00     0.130 A 
ENDROOT
BRANCH   1   7
ATOM      7  C   UNL     1      16.376 -35.935  30.764  1.00  0.00     0.341 C 
ATOM      8  O   UNL     1      16.838 -37.100  30.918  1.00  0.00    -0.246 OA
BRANCH   7   9
ATOM      9  O   UNL     1      16.966 -35.076  29.831  1.00  0.00    -0.465 OA
ATOM     10  C   UNL     1      17.601 -35.544  28.648  1.00  0.00     0.282 C 
ENDBRANCH   7   9
ENDBRANCH   1   7
BRANCH   6  11
ATOM     11  O   UNL     1      15.619 -33.136  31.046  1.00  0.00    -0.507 OA
ATOM     12  H   UNL     1      16.002 -33.280  30.119  1.00  0.00     0.293 HD
ENDBRANCH   6  11
TORSDOF 3
ENDMDL
MODEL 8
REMARK VINA RESULT:    -3.471      1.341      2.232
REMARK INTER + INTRA:          -4.252
REMARK INTER:                  -4.029
REMARK INTRA:                  -0.223
REMARK UNBOUND:                -0.274
REMARK SMILES COC(=O)c1ccccc1O
REMARK SMILES IDX 5 1 6 2 7 3 8 4 9 5 10 6 3 7 4 8 2 9 1 10 11 11
REMARK H PARENT 11 12
REMARK Flexibility Score: inf
ROOT
ATOM      1  C   UNL     1       9.165 -32.794  15.105  1.00  0.00     0.101 A 
ATOM      2  C   UNL     1      10.203 -31.867  14.880  1.00  0.00     0.019 A 
ATOM      3  C   UNL     1      11.113 -32.054  13.836  1.00  0.00     0.001 A 
ATOM      4  C   UNL     1      11.003 -33.165  13.002  1.00  0.00     0.004 A 
ATOM      5  C   UNL     1       9.983 -34.094  13.208  1.00  0.00     0.047 A 
ATOM      6  C   UNL     1       9.062 -33.920  14.253  1.00  0.00     0.130 A 
ENDROOT
BRANCH   1   7
ATOM      7  C   UNL     1       8.211 -32.570  16.223  1.00  0.00     0.341 C 
ATOM      8  O   UNL     1       7.037 -32.177  15.977  1.00  0.00    -0.246 OA
BRANCH   7   9
ATOM      9  O   UNL     1       8.604 -32.791  17.547  1.00  0.00    -0.465 OA
ATOM     10  C   UNL     1       8.712 -31.742  18.503  1.00  0.00     0.282 C 
ENDBRANCH   7   9
ENDBRANCH   1   7
BRANCH   6  11
ATOM     11  O   UNL     1       8.052 -34.866  14.435  1.00  0.00    -0.507 OA
ATOM     12  H   UNL     1       8.028 -35.729  13.906  1.00  0.00     0.293 HD
ENDBRANCH   6  11
TORSDOF 3
ENDMDL
MODEL 9
REMARK VINA RESULT:    -3.375      1.661      2.581
REMARK INTER + INTRA:          -4.141
REMARK INTER:                  -3.840
REMARK INTRA:                  -0.302
REMARK UNBOUND:                -0.274
REMARK SMILES COC(=O)c1ccccc1O
REMARK SMILES IDX 5 1 6 2 7 3 8 4 9 5 10 6 3 7 4 8 2 9 1 10 11 11
REMARK H PARENT 11 12
REMARK Flexibility Score: inf
ROOT
ATOM      1  C   UNL     1       8.803 -33.342  14.670  1.00  0.00     0.101 A 
ATOM      2  C   UNL     1       9.277 -34.161  13.626  1.00  0.00     0.019 A 
ATOM      3  C   UNL     1      10.472 -33.859  12.968  1.00  0.00     0.001 A 
ATOM      4  C   UNL     1      11.212 -32.737  13.340  1.00  0.00     0.004 A 
ATOM      5  C   UNL     1      10.760 -31.914  14.371  1.00  0.00     0.047 A 
ATOM      6  C   UNL     1       9.561 -32.205  15.041  1.00  0.00     0.130 A 
ENDROOT
BRANCH   1   7
ATOM      7  C   UNL     1       7.529 -33.688  15.353  1.00  0.00     0.341 C 
ATOM      8  O   UNL     1       6.612 -32.825  15.447  1.00  0.00    -0.246 OA
BRANCH   7   9
ATOM      9  O   UNL     1       7.335 -34.964  15.893  1.00  0.00    -0.465 OA
ATOM     10  C   UNL     1       6.420 -35.902  15.341  1.00  0.00     0.282 C 
ENDBRANCH   7   9
ENDBRANCH   1   7
BRANCH   6  11
ATOM     11  O   UNL     1       9.133 -31.363  16.068  1.00  0.00    -0.507 OA
ATOM     12  H   UNL     1       9.706 -30.598  16.404  1.00  0.00     0.293 HD
ENDBRANCH   6  11
TORSDOF 3
ENDMDL
