MODEL 1
REMARK VINA RESULT:    -2.526      0.000      0.000
REMARK INTER + INTRA:          -2.947
REMARK INTER:                  -2.895
REMARK INTRA:                  -0.052
REMARK UNBOUND:                -0.052
REMARK SMILES CC(C)[C@@H]([NH3+])C(=O)[O-]
REMARK SMILES IDX 4 1 5 2 6 6 7 7 8 8 2 9 1 10 3 11
REMARK H PARENT 5 3 5 4 5 5
REMARK Flexibility Score: inf
ROOT
ATOM      1  C   UNL     1       3.616   4.087  -4.516  1.00  0.00     0.230 C 
ENDROOT
BRANCH   1   2
ATOM      2  N   UNL     1       4.483   2.901  -4.564  1.00  0.00    -0.350 N 
ATOM      3  H   UNL     1       5.033   2.864  -5.452  1.00  0.00     0.345 HD
ATOM      4  H   UNL     1       5.152   2.925  -3.760  1.00  0.00     0.345 HD
ATOM      5  H   UNL     1       3.907   2.032  -4.480  1.00  0.00     0.345 HD
ENDBRANCH   1   2
BRANCH   1   6
ATOM      6  C   UNL     1       4.105   5.151  -5.470  1.00  0.00     0.099 C 
ATOM      7  O   UNL     1       5.323   5.221  -5.787  1.00  0.00    -0.544 OA
ATOM      8  O   UNL     1       3.202   6.046  -6.029  1.00  0.00    -0.544 OA
ENDBRANCH   1   6
BRANCH   1   9
ATOM      9  C   UNL     1       2.118   3.717  -4.740  1.00  0.00     0.047 C 
ATOM     10  C   UNL     1       1.976   2.333  -5.391  1.00  0.00     0.014 C 
ATOM     11  C   UNL     1       1.267   3.788  -3.462  1.00  0.00     0.014 C 
ENDBRANCH   1   9
TORSDOF 3
ENDMDL
MODEL 2
REMARK VINA RESULT:    -2.514      0.093      1.147
REMARK INTER + INTRA:          -2.933
REMARK INTER:                  -2.879
REMARK INTRA:                  -0.054
REMARK UNBOUND:                -0.052
REMARK SMILES CC(C)[C@@H]([NH3+])C(=O)[O-]
REMARK SMILES IDX 4 1 5 2 6 6 7 7 8 8 2 9 1 10 3 11
REMARK H PARENT 5 3 5 4 5 5
REMARK Flexibility Score: inf
ROOT
ATOM      1  C   UNL     1       3.606   4.176  -4.541  1.00  0.00     0.230 C 
ENDROOT
BRANCH   1   2
ATOM      2  N   UNL     1       4.507   3.015  -4.568  1.00  0.00    -0.350 N 
ATOM      3  H   UNL     1       4.203   2.310  -5.278  1.00  0.00     0.345 HD
ATOM      4  H   UNL     1       5.476   3.330  -4.808  1.00  0.00     0.345 HD
ATOM      5  H   UNL     1       4.538   2.564  -3.626  1.00  0.00     0.345 HD
ENDBRANCH   1   2
BRANCH   1   6
ATOM      6  C   UNL     1       4.046   5.222  -5.539  1.00  0.00     0.099 C 
ATOM      7  O   UNL     1       3.217   6.035  -6.027  1.00  0.00    -0.544 OA
ATOM      8  O   UNL     1       5.383   5.309  -5.904  1.00  0.00    -0.544 OA
ENDBRANCH   1   6
BRANCH   1   9
ATOM      9  C   UNL     1       2.116   3.757  -4.722  1.00  0.00     0.047 C 
ATOM     10  C   UNL     1       2.002   2.361  -5.353  1.00  0.00     0.014 C 
ATOM     11  C   UNL     1       1.296   3.816  -3.422  1.00  0.00     0.014 C 
ENDBRANCH   1   9
TORSDOF 3
ENDMDL
MODEL 3
REMARK VINA RESULT:    -2.365     11.384     12.233
REMARK INTER + INTRA:          -2.763
REMARK INTER:                  -2.711
REMARK INTRA:                  -0.052
REMARK UNBOUND:                -0.052
REMARK SMILES CC(C)[C@@H]([NH3+])C(=O)[O-]
REMARK SMILES IDX 4 1 5 2 6 6 7 7 8 8 2 9 1 10 3 11
REMARK H PARENT 5 3 5 4 5 5
REMARK Flexibility Score: inf
ROOT
ATOM      1  C   UNL     1       1.839   7.087   6.637  1.00  0.00     0.230 C 
ENDROOT
BRANCH   1   2
ATOM      2  N   UNL     1       2.290   8.270   5.890  1.00  0.00    -0.350 N 
ATOM      3  H   UNL     1       3.265   8.541   6.154  1.00  0.00     0.345 HD
ATOM      4  H   UNL     1       2.269   8.064   4.864  1.00  0.00     0.345 HD
ATOM      5  H   UNL     1       1.648   9.075   6.072  1.00  0.00     0.345 HD
ENDBRANCH   1   2
BRANCH   1   6
ATOM      6  C   UNL     1       1.022   6.173   5.754  1.00  0.00     0.099 C 
ATOM      7  O   UNL     1       0.385   6.630   4.768  1.00  0.00    -0.544 OA
ATOM      8  O   UNL     1       0.995   4.808   6.011  1.00  0.00    -0.544 OA
ENDBRANCH   1   6
BRANCH   1   9
ATOM      9  C   UNL     1       3.026   6.354   7.331  1.00  0.00     0.047 C 
ATOM     10  C   UNL     1       4.378   6.917   6.868  1.00  0.00     0.014 C 
ATOM     11  C   UNL     1       2.947   6.370   8.867  1.00  0.00     0.014 C 
ENDBRANCH   1   9
TORSDOF 3
ENDMDL
MODEL 4
REMARK VINA RESULT:    -2.331      5.356      6.298
REMARK INTER + INTRA:          -2.724
REMARK INTER:                  -2.707
REMARK INTRA:                  -0.017
REMARK UNBOUND:                -0.052
REMARK SMILES CC(C)[C@@H]([NH3+])C(=O)[O-]
REMARK SMILES IDX 4 1 5 2 6 6 7 7 8 8 2 9 1 10 3 11
REMARK H PARENT 5 3 5 4 5 5
REMARK Flexibility Score: inf
ROOT
ATOM      1  C   UNL     1      -1.723   4.095  -2.713  1.00  0.00     0.230 C 
ENDROOT
BRANCH   1   2
ATOM      2  N   UNL     1      -1.864   3.816  -4.149  1.00  0.00    -0.350 N 
ATOM      3  H   UNL     1      -1.418   4.563  -4.730  1.00  0.00     0.345 HD
ATOM      4  H   UNL     1      -1.405   2.903  -4.374  1.00  0.00     0.345 HD
ATOM      5  H   UNL     1      -2.876   3.741  -4.401  1.00  0.00     0.345 HD
ENDBRANCH   1   2
BRANCH   1   6
ATOM      6  C   UNL     1      -1.785   2.818  -1.908  1.00  0.00     0.099 C 
ATOM      7  O   UNL     1      -1.532   1.706  -2.444  1.00  0.00    -0.544 OA
ATOM      8  O   UNL     1      -2.094   2.868  -0.555  1.00  0.00    -0.544 OA
ENDBRANCH   1   6
BRANCH   1   9
ATOM      9  C   UNL     1      -0.448   4.938  -2.409  1.00  0.00     0.047 C 
ATOM     10  C   UNL     1      -0.697   5.937  -1.269  1.00  0.00     0.014 C 
ATOM     11  C   UNL     1       0.796   4.087  -2.101  1.00  0.00     0.014 C 
ENDBRANCH   1   9
TORSDOF 3
ENDMDL
MODEL 5
REMARK VINA RESULT:    -2.310      2.012      2.409
REMARK INTER + INTRA:          -2.700
REMARK INTER:                  -2.627
REMARK INTRA:                  -0.073
REMARK UNBOUND:                -0.052
REMARK SMILES CC(C)[C@@H]([NH3+])C(=O)[O-]
REMARK SMILES IDX 4 1 5 2 6 6 7 7 8 8 2 9 1 10 3 11
REMARK H PARENT 5 3 5 4 5 5
REMARK Flexibility Score: inf
ROOT
ATOM      1  C   UNL     1       4.568   3.978  -5.014  1.00  0.00     0.230 C 
ENDROOT
BRANCH   1   2
ATOM      2  N   UNL     1       6.022   4.135  -4.860  1.00  0.00    -0.350 N 
ATOM      3  H   UNL     1       6.334   3.888  -3.893  1.00  0.00     0.345 HD
ATOM      4  H   UNL     1       6.514   3.509  -5.538  1.00  0.00     0.345 HD
ATOM      5  H   UNL     1       6.299   5.122  -5.069  1.00  0.00     0.345 HD
ENDBRANCH   1   2
BRANCH   1   6
ATOM      6  C   UNL     1       3.951   5.226  -5.599  1.00  0.00     0.099 C 
ATOM      7  O   UNL     1       4.674   6.184  -5.984  1.00  0.00    -0.544 OA
ATOM      8  O   UNL     1       2.571   5.312  -5.744  1.00  0.00    -0.544 OA
ENDBRANCH   1   6
BRANCH   1   9
ATOM      9  C   UNL     1       4.207   2.692  -5.817  1.00  0.00     0.047 C 
ATOM     10  C   UNL     1       4.564   2.845  -7.304  1.00  0.00     0.014 C 
ATOM     11  C   UNL     1       4.845   1.412  -5.252  1.00  0.00     0.014 C 
ENDBRANCH   1   9
TORSDOF 3
ENDMDL
MODEL 6
REMARK VINA RESULT:    -2.296     12.225     12.893
REMARK INTER + INTRA:          -2.683
REMARK INTER:                  -2.615
REMARK INTRA:                  -0.069
REMARK UNBOUND:                -0.052
REMARK SMILES CC(C)[C@@H]([NH3+])C(=O)[O-]
REMARK SMILES IDX 4 1 5 2 6 6 7 7 8 8 2 9 1 10 3 11
REMARK H PARENT 5 3 5 4 5 5
REMARK Flexibility Score: inf
ROOT
ATOM      1  C   UNL     1       1.818   6.785   7.075  1.00  0.00     0.230 C 
ENDROOT
BRANCH   1   2
ATOM      2  N   UNL     1       1.661   7.001   5.629  1.00  0.00    -0.350 N 
ATOM      3  H   UNL     1       1.312   7.965   5.422  1.00  0.00     0.345 HD
ATOM      4  H   UNL     1       2.585   6.873   5.155  1.00  0.00     0.345 HD
ATOM      5  H   UNL     1       0.994   6.300   5.233  1.00  0.00     0.345 HD
ENDBRANCH   1   2
BRANCH   1   6
ATOM      6  C   UNL     1       1.633   5.326   7.424  1.00  0.00     0.099 C 
ATOM      7  O   UNL     1       1.207   4.508   6.566  1.00  0.00    -0.544 OA
ATOM      8  O   UNL     1       1.962   4.873   8.695  1.00  0.00    -0.544 OA
ENDBRANCH   1   6
BRANCH   1   9
ATOM      9  C   UNL     1       3.164   7.366   7.604  1.00  0.00     0.047 C 
ATOM     10  C   UNL     1       4.360   6.808   6.818  1.00  0.00     0.014 C 
ATOM     11  C   UNL     1       3.211   8.903   7.614  1.00  0.00     0.014 C 
ENDBRANCH   1   9
TORSDOF 3
ENDMDL
MODEL 7
REMARK VINA RESULT:    -2.258      5.532      6.367
REMARK INTER + INTRA:          -2.640
REMARK INTER:                  -2.592
REMARK INTRA:                  -0.048
REMARK UNBOUND:                -0.052
REMARK SMILES CC(C)[C@@H]([NH3+])C(=O)[O-]
REMARK SMILES IDX 4 1 5 2 6 6 7 7 8 8 2 9 1 10 3 11
REMARK H PARENT 5 3 5 4 5 5
REMARK Flexibility Score: inf
ROOT
ATOM      1  C   UNL     1      -1.573   4.331  -2.148  1.00  0.00     0.230 C 
ENDROOT
BRANCH   1   2
ATOM      2  N   UNL     1      -0.901   5.163  -3.156  1.00  0.00    -0.350 N 
ATOM      3  H   UNL     1      -0.625   6.092  -2.764  1.00  0.00     0.345 HD
ATOM      4  H   UNL     1      -0.038   4.675  -3.492  1.00  0.00     0.345 HD
ATOM      5  H   UNL     1      -1.531   5.309  -3.978  1.00  0.00     0.345 HD
ENDBRANCH   1   2
BRANCH   1   6
ATOM      6  C   UNL     1      -0.807   3.050  -1.910  1.00  0.00     0.099 C 
ATOM      7  O   UNL     1       0.176   3.025  -1.122  1.00  0.00    -0.544 OA
ATOM      8  O   UNL     1      -1.206   1.879  -2.541  1.00  0.00    -0.544 OA
ENDBRANCH   1   6
BRANCH   1   9
ATOM      9  C   UNL     1      -1.850   5.122  -0.835  1.00  0.00     0.047 C 
ATOM     10  C   UNL     1      -1.074   6.448  -0.809  1.00  0.00     0.014 C 
ATOM     11  C   UNL     1      -3.343   5.381  -0.574  1.00  0.00     0.014 C 
ENDBRANCH   1   9
TORSDOF 3
ENDMDL
MODEL 8
REMARK VINA RESULT:    -2.227     11.977     12.531
REMARK INTER + INTRA:          -2.604
REMARK INTER:                  -2.566
REMARK INTRA:                  -0.039
REMARK UNBOUND:                -0.052
REMARK SMILES CC(C)[C@@H]([NH3+])C(=O)[O-]
REMARK SMILES IDX 4 1 5 2 6 6 7 7 8 8 2 9 1 10 3 11
REMARK H PARENT 5 3 5 4 5 5
REMARK Flexibility Score: inf
ROOT
ATOM      1  C   UNL     1       1.913   5.581   6.704  1.00  0.00     0.230 C 
ENDROOT
BRANCH   1   2
ATOM      2  N   UNL     1       2.849   6.645   6.314  1.00  0.00    -0.350 N 
ATOM      3  H   UNL     1       3.586   6.288   5.665  1.00  0.00     0.345 HD
ATOM      4  H   UNL     1       2.325   7.411   5.831  1.00  0.00     0.345 HD
ATOM      5  H   UNL     1       3.304   7.050   7.164  1.00  0.00     0.345 HD
ENDBRANCH   1   2
BRANCH   1   6
ATOM      6  C   UNL     1       1.959   5.344   8.196  1.00  0.00     0.099 C 
ATOM      7  O   UNL     1       1.530   4.268   8.691  1.00  0.00    -0.544 OA
ATOM      8  O   UNL     1       2.508   6.309   9.032  1.00  0.00    -0.544 OA
ENDBRANCH   1   6
BRANCH   1   9
ATOM      9  C   UNL     1       0.471   5.859   6.182  1.00  0.00     0.047 C 
ATOM     10  C   UNL     1       0.470   6.949   5.099  1.00  0.00     0.014 C 
ATOM     11  C   UNL     1      -0.252   4.603   5.667  1.00  0.00     0.014 C 
ENDBRANCH   1   9
TORSDOF 3
ENDMDL
MODEL 9
REMARK VINA RESULT:    -2.224     12.867     13.784
REMARK INTER + INTRA:          -2.601
REMARK INTER:                  -2.527
REMARK INTRA:                  -0.074
REMARK UNBOUND:                -0.052
REMARK SMILES CC(C)[C@@H]([NH3+])C(=O)[O-]
REMARK SMILES IDX 4 1 5 2 6 6 7 7 8 8 2 9 1 10 3 11
REMARK H PARENT 5 3 5 4 5 5
REMARK Flexibility Score: inf
ROOT
ATOM      1  C   UNL     1       0.375   4.532   7.731  1.00  0.00     0.230 C 
ENDROOT
BRANCH   1   2
ATOM      2  N   UNL     1       0.005   3.932   6.441  1.00  0.00    -0.350 N 
ATOM      3  H   UNL     1      -0.773   3.242   6.549  1.00  0.00     0.345 HD
ATOM      4  H   UNL     1      -0.308   4.684   5.784  1.00  0.00     0.345 HD
ATOM      5  H   UNL     1       0.833   3.455   6.018  1.00  0.00     0.345 HD
ENDBRANCH   1   2
BRANCH   1   6
ATOM      6  C   UNL     1       0.185   3.544   8.859  1.00  0.00     0.099 C 
ATOM      7  O   UNL     1      -0.780   3.659   9.661  1.00  0.00    -0.544 OA
ATOM      8  O   UNL     1       1.065   2.478   8.998  1.00  0.00    -0.544 OA
ENDBRANCH   1   6
BRANCH   1   9
ATOM      9  C   UNL     1       1.810   5.139   7.697  1.00  0.00     0.047 C 
ATOM     10  C   UNL     1       1.992   6.074   6.491  1.00  0.00     0.014 C 
ATOM     11  C   UNL     1       2.203   5.869   8.992  1.00  0.00     0.014 C 
ENDBRANCH   1   9
TORSDOF 3
ENDMDL
