MODEL 1
REMARK VINA RESULT:    -3.663      0.000      0.000
REMARK INTER + INTRA:          -3.918
REMARK INTER:                  -4.306
REMARK INTRA:                   0.387
REMARK UNBOUND:                 0.387
REMARK SMILES O=c1c(O)c(-c2ccc(O)cc2)oc2cc(O)cc(O)c12
REMARK SMILES IDX 5 1 3 2 2 3 1 4 21 5 19 6 18 7 16 8 15 9 14 10 13 11 6 12
REMARK SMILES IDX 7 13 8 14 9 15 12 16 11 17 10 18 4 20 20 22 17 24
REMARK H PARENT 10 19 4 21 20 23 17 25
REMARK Flexibility Score: inf
ROOT
ATOM      1  C   UNL     1       3.318 -20.540 -10.491  1.00  0.00     0.180 A 
ATOM      2  C   UNL     1       1.941 -20.452 -10.219  1.00  0.00     0.208 A 
ATOM      3  C   UNL     1       1.514 -20.397  -8.882  1.00  0.00     0.238 A 
ATOM      4  O   UNL     1       0.285 -20.263  -8.645  1.00  0.00    -0.285 OA
ATOM      5  C   UNL     1       2.466 -20.449  -7.835  1.00  0.00     0.111 A 
ATOM      6  C   UNL     1       2.142 -20.440  -6.445  1.00  0.00     0.134 A 
ATOM      7  C   UNL     1       3.171 -20.363  -5.497  1.00  0.00     0.093 A 
ATOM      8  C   UNL     1       4.509 -20.358  -5.886  1.00  0.00     0.123 A 
ATOM      9  C   UNL     1       4.838 -20.426  -7.241  1.00  0.00     0.094 A 
ATOM     10  C   UNL     1       3.834 -20.468  -8.211  1.00  0.00     0.146 A 
ATOM     11  O   UNL     1       4.188 -20.520  -9.490  1.00  0.00    -0.452 OA
ENDROOT
BRANCH   1  12
ATOM     12  C   UNL     1       3.844 -20.627 -11.873  1.00  0.00     0.021 A 
ATOM     13  C   UNL     1       3.025 -21.027 -12.945  1.00  0.00     0.016 A 
ATOM     14  C   UNL     1       3.550 -21.125 -14.236  1.00  0.00     0.047 A 
ATOM     15  C   UNL     1       4.897 -20.839 -14.473  1.00  0.00     0.115 A 
ATOM     16  C   UNL     1       5.201 -20.361 -12.114  1.00  0.00     0.016 A 
ATOM     17  C   UNL     1       5.724 -20.459 -13.407  1.00  0.00     0.047 A 
BRANCH  15  18
ATOM     18  O   UNL     1       5.406 -20.939 -15.766  1.00  0.00    -0.508 OA
ATOM     19  H   UNL     1       5.639 -20.115 -16.308  1.00  0.00     0.293 HD
ENDBRANCH  15  18
ENDBRANCH   1  12
BRANCH   2  20
ATOM     20  O   UNL     1       1.020 -20.380 -11.267  1.00  0.00    -0.502 OA
ATOM     21  H   UNL     1       1.075 -20.980 -12.082  1.00  0.00     0.293 HD
ENDBRANCH   2  20
BRANCH   6  22
ATOM     22  O   UNL     1       0.840 -20.535  -5.946  1.00  0.00    -0.507 OA
ATOM     23  H   UNL     1       0.012 -20.632  -6.515  1.00  0.00     0.293 HD
ENDBRANCH   6  22
BRANCH   8  24
ATOM     24  O   UNL     1       5.507 -20.296  -4.916  1.00  0.00    -0.508 OA
ATOM     25  H   UNL     1       6.359 -20.840  -4.995  1.00  0.00     0.293 HD
ENDBRANCH   8  24
TORSDOF 5
ENDMDL
MODEL 2
REMARK VINA RESULT:    -3.342      2.362      7.065
REMARK INTER + INTRA:          -3.541
REMARK INTER:                  -3.762
REMARK INTRA:                   0.221
REMARK UNBOUND:                 0.387
REMARK SMILES O=c1c(O)c(-c2ccc(O)cc2)oc2cc(O)cc(O)c12
REMARK SMILES IDX 5 1 3 2 2 3 1 4 21 5 19 6 18 7 16 8 15 9 14 10 13 11 6 12
REMARK SMILES IDX 7 13 8 14 9 15 12 16 11 17 10 18 4 20 20 22 17 24
REMARK H PARENT 10 19 4 21 20 23 17 25
REMARK Flexibility Score: inf
ROOT
ATOM      1  C   UNL     1       1.446 -20.382  -7.879  1.00  0.00     0.180 A 
ATOM      2  C   UNL     1       2.720 -20.385  -7.283  1.00  0.00     0.208 A 
ATOM      3  C   UNL     1       3.856 -20.433  -8.107  1.00  0.00     0.238 A 
ATOM      4  O   UNL     1       4.994 -20.382  -7.570  1.00  0.00    -0.285 OA
ATOM      5  C   UNL     1       3.705 -20.496  -9.513  1.00  0.00     0.111 A 
ATOM      6  C   UNL     1       4.786 -20.588 -10.441  1.00  0.00     0.134 A 
ATOM      7  C   UNL     1       4.525 -20.511 -11.815  1.00  0.00     0.093 A 
ATOM      8  C   UNL     1       3.221 -20.410 -12.295  1.00  0.00     0.123 A 
ATOM      9  C   UNL     1       2.152 -20.378 -11.399  1.00  0.00     0.094 A 
ATOM     10  C   UNL     1       2.382 -20.417 -10.021  1.00  0.00     0.146 A 
ATOM     11  O   UNL     1       1.339 -20.374  -9.201  1.00  0.00    -0.452 OA
ENDROOT
BRANCH   1  12
ATOM     12  C   UNL     1       0.202 -20.357  -7.076  1.00  0.00     0.021 A 
ATOM     13  C   UNL     1       0.117 -21.013  -5.834  1.00  0.00     0.016 A 
ATOM     14  C   UNL     1      -1.076 -20.996  -5.106  1.00  0.00     0.047 A 
ATOM     15  C   UNL     1      -2.201 -20.338  -5.613  1.00  0.00     0.115 A 
ATOM     16  C   UNL     1      -0.938 -19.716  -7.588  1.00  0.00     0.016 A 
ATOM     17  C   UNL     1      -2.130 -19.700  -6.858  1.00  0.00     0.047 A 
BRANCH  15  18
ATOM     18  O   UNL     1      -3.383 -20.329  -4.875  1.00  0.00    -0.508 OA
ATOM     19  H   UNL     1      -3.935 -19.485  -4.771  1.00  0.00     0.293 HD
ENDBRANCH  15  18
ENDBRANCH   1  12
BRANCH   2  20
ATOM     20  O   UNL     1       2.847 -20.302  -5.894  1.00  0.00    -0.502 OA
ATOM     21  H   UNL     1       3.724 -20.473  -5.416  1.00  0.00     0.293 HD
ENDBRANCH   2  20
BRANCH   6  22
ATOM     22  O   UNL     1       6.119 -20.783 -10.068  1.00  0.00    -0.507 OA
ATOM     23  H   UNL     1       6.794 -21.310 -10.601  1.00  0.00     0.293 HD
ENDBRANCH   6  22
BRANCH   8  24
ATOM     24  O   UNL     1       2.996 -20.351 -13.669  1.00  0.00    -0.508 OA
ATOM     25  H   UNL     1       2.200 -19.858 -14.056  1.00  0.00     0.293 HD
ENDBRANCH   8  24
TORSDOF 5
ENDMDL
MODEL 3
REMARK VINA RESULT:    -3.225      1.308      3.130
REMARK INTER + INTRA:          -3.403
REMARK INTER:                  -3.696
REMARK INTRA:                   0.293
REMARK UNBOUND:                 0.387
REMARK SMILES O=c1c(O)c(-c2ccc(O)cc2)oc2cc(O)cc(O)c12
REMARK SMILES IDX 5 1 3 2 2 3 1 4 21 5 19 6 18 7 16 8 15 9 14 10 13 11 6 12
REMARK SMILES IDX 7 13 8 14 9 15 12 16 11 17 10 18 4 20 20 22 17 24
REMARK H PARENT 10 19 4 21 20 23 17 25
REMARK Flexibility Score: inf
ROOT
ATOM      1  C   UNL     1       3.516 -20.621 -10.053  1.00  0.00     0.180 A 
ATOM      2  C   UNL     1       4.488 -20.799  -9.053  1.00  0.00     0.208 A 
ATOM      3  C   UNL     1       4.107 -20.682  -7.707  1.00  0.00     0.238 A 
ATOM      4  O   UNL     1       4.970 -20.896  -6.814  1.00  0.00    -0.285 OA
ATOM      5  C   UNL     1       2.766 -20.373  -7.377  1.00  0.00     0.111 A 
ATOM      6  C   UNL     1       2.279 -20.192  -6.048  1.00  0.00     0.134 A 
ATOM      7  C   UNL     1       0.905 -20.017  -5.834  1.00  0.00     0.093 A 
ATOM      8  C   UNL     1       0.012 -19.953  -6.901  1.00  0.00     0.123 A 
ATOM      9  C   UNL     1       0.486 -20.070  -8.209  1.00  0.00     0.094 A 
ATOM     10  C   UNL     1       1.845 -20.281  -8.454  1.00  0.00     0.146 A 
ATOM     11  O   UNL     1       2.254 -20.397  -9.711  1.00  0.00    -0.452 OA
ENDROOT
BRANCH   1  12
ATOM     12  C   UNL     1       3.845 -20.704 -11.495  1.00  0.00     0.021 A 
ATOM     13  C   UNL     1       5.127 -20.375 -11.975  1.00  0.00     0.016 A 
ATOM     14  C   UNL     1       5.407 -20.437 -13.342  1.00  0.00     0.047 A 
ATOM     15  C   UNL     1       4.412 -20.815 -14.249  1.00  0.00     0.115 A 
ATOM     16  C   UNL     1       2.845 -21.063 -12.413  1.00  0.00     0.016 A 
ATOM     17  C   UNL     1       3.128 -21.125 -13.781  1.00  0.00     0.047 A 
BRANCH  15  18
ATOM     18  O   UNL     1       4.706 -20.875 -15.609  1.00  0.00    -0.508 OA
ATOM     19  H   UNL     1       5.565 -21.293 -15.947  1.00  0.00     0.293 HD
ENDBRANCH  15  18
ENDBRANCH   1  12
BRANCH   2  20
ATOM     20  O   UNL     1       5.802 -21.125  -9.399  1.00  0.00    -0.502 OA
ATOM     21  H   UNL     1       6.065 -22.046  -9.729  1.00  0.00     0.293 HD
ENDBRANCH   2  20
BRANCH   6  22
ATOM     22  O   UNL     1       3.098 -20.147  -4.916  1.00  0.00    -0.507 OA
ATOM     23  H   UNL     1       3.745 -20.871  -4.646  1.00  0.00     0.293 HD
ENDBRANCH   6  22
BRANCH   8  24
ATOM     24  O   UNL     1      -1.345 -19.764  -6.653  1.00  0.00    -0.508 OA
ATOM     25  H   UNL     1      -2.026 -19.756  -7.404  1.00  0.00     0.293 HD
ENDBRANCH   8  24
TORSDOF 5
ENDMDL
MODEL 4
REMARK VINA RESULT:    -2.543      1.210      1.773
REMARK INTER + INTRA:          -2.601
REMARK INTER:                  -3.174
REMARK INTRA:                   0.573
REMARK UNBOUND:                 0.387
REMARK SMILES O=c1c(O)c(-c2ccc(O)cc2)oc2cc(O)cc(O)c12
REMARK SMILES IDX 5 1 3 2 2 3 1 4 21 5 19 6 18 7 16 8 15 9 14 10 13 11 6 12
REMARK SMILES IDX 7 13 8 14 9 15 12 16 11 17 10 18 4 20 20 22 17 24
REMARK H PARENT 10 19 4 21 20 23 17 25
REMARK Flexibility Score: inf
ROOT
ATOM      1  C   UNL     1       2.780 -20.815 -11.175  1.00  0.00     0.180 A 
ATOM      2  C   UNL     1       1.387 -20.982 -11.272  1.00  0.00     0.208 A 
ATOM      3  C   UNL     1       0.617 -20.963 -10.098  1.00  0.00     0.238 A 
ATOM      4  O   UNL     1      -0.635 -21.059 -10.195  1.00  0.00    -0.285 OA
ATOM      5  C   UNL     1       1.248 -20.795  -8.842  1.00  0.00     0.111 A 
ATOM      6  C   UNL     1       0.570 -20.800  -7.586  1.00  0.00     0.134 A 
ATOM      7  C   UNL     1       1.279 -20.494  -6.417  1.00  0.00     0.093 A 
ATOM      8  C   UNL     1       2.650 -20.247  -6.451  1.00  0.00     0.123 A 
ATOM      9  C   UNL     1       3.335 -20.297  -7.666  1.00  0.00     0.094 A 
ATOM     10  C   UNL     1       2.649 -20.564  -8.853  1.00  0.00     0.146 A 
ATOM     11  O   UNL     1       3.335 -20.593  -9.990  1.00  0.00    -0.452 OA
ENDROOT
BRANCH   1  12
ATOM     12  C   UNL     1       3.661 -20.847 -12.364  1.00  0.00     0.021 A 
ATOM     13  C   UNL     1       5.054 -20.683 -12.249  1.00  0.00     0.016 A 
ATOM     14  C   UNL     1       5.864 -20.693 -13.388  1.00  0.00     0.047 A 
ATOM     15  C   UNL     1       5.295 -20.854 -14.655  1.00  0.00     0.115 A 
ATOM     16  C   UNL     1       3.095 -20.988 -13.642  1.00  0.00     0.016 A 
ATOM     17  C   UNL     1       3.907 -20.998 -14.780  1.00  0.00     0.047 A 
BRANCH  15  18
ATOM     18  O   UNL     1       6.115 -20.864 -15.782  1.00  0.00    -0.508 OA
ATOM     19  H   UNL     1       6.319 -21.722 -16.280  1.00  0.00     0.293 HD
ENDBRANCH  15  18
ENDBRANCH   1  12
BRANCH   2  20
ATOM     20  O   UNL     1       0.781 -21.125 -12.522  1.00  0.00    -0.502 OA
ATOM     21  H   UNL     1       1.283 -20.981 -13.390  1.00  0.00     0.293 HD
ENDBRANCH   2  20
BRANCH   6  22
ATOM     22  O   UNL     1      -0.780 -21.125  -7.430  1.00  0.00    -0.507 OA
ATOM     23  H   UNL     1      -1.135 -22.058  -7.290  1.00  0.00     0.293 HD
ENDBRANCH   6  22
BRANCH   8  24
ATOM     24  O   UNL     1       3.326 -19.960  -5.267  1.00  0.00    -0.508 OA
ATOM     25  H   UNL     1       3.028 -20.345  -4.378  1.00  0.00     0.293 HD
ENDBRANCH   8  24
TORSDOF 5
ENDMDL
MODEL 5
REMARK VINA RESULT:    -1.775      2.998      6.643
REMARK INTER + INTRA:          -1.699
REMARK INTER:                  -1.680
REMARK INTRA:                  -0.018
REMARK UNBOUND:                 0.387
REMARK SMILES O=c1c(O)c(-c2ccc(O)cc2)oc2cc(O)cc(O)c12
REMARK SMILES IDX 5 1 3 2 2 3 1 4 21 5 19 6 18 7 16 8 15 9 14 10 13 11 6 12
REMARK SMILES IDX 7 13 8 14 9 15 12 16 11 17 10 18 4 20 20 22 17 24
REMARK H PARENT 10 19 4 21 20 23 17 25
REMARK Flexibility Score: inf
ROOT
ATOM      1  C   UNL     1       0.492 -20.501  -7.138  1.00  0.00     0.180 A 
ATOM      2  C   UNL     1       0.734 -20.764  -8.497  1.00  0.00     0.208 A 
ATOM      3  C   UNL     1       2.061 -20.817  -8.954  1.00  0.00     0.238 A 
ATOM      4  O   UNL     1       2.274 -21.106 -10.161  1.00  0.00    -0.285 OA
ATOM      5  C   UNL     1       3.128 -20.590  -8.051  1.00  0.00     0.111 A 
ATOM      6  C   UNL     1       4.508 -20.581  -8.413  1.00  0.00     0.134 A 
ATOM      7  C   UNL     1       5.483 -20.476  -7.412  1.00  0.00     0.093 A 
ATOM      8  C   UNL     1       5.128 -20.315  -6.075  1.00  0.00     0.123 A 
ATOM      9  C   UNL     1       3.780 -20.263  -5.716  1.00  0.00     0.094 A 
ATOM     10  C   UNL     1       2.785 -20.402  -6.686  1.00  0.00     0.146 A 
ATOM     11  O   UNL     1       1.514 -20.358  -6.303  1.00  0.00    -0.452 OA
ENDROOT
BRANCH   1  12
ATOM     12  C   UNL     1      -0.879 -20.405  -6.586  1.00  0.00     0.021 A 
ATOM     13  C   UNL     1      -1.845 -19.562  -7.166  1.00  0.00     0.016 A 
ATOM     14  C   UNL     1      -3.125 -19.469  -6.613  1.00  0.00     0.047 A 
ATOM     15  C   UNL     1      -3.454 -20.204  -5.470  1.00  0.00     0.115 A 
ATOM     16  C   UNL     1      -1.210 -21.125  -5.426  1.00  0.00     0.016 A 
ATOM     17  C   UNL     1      -2.491 -21.031  -4.875  1.00  0.00     0.047 A 
BRANCH  15  18
ATOM     18  O   UNL     1      -4.735 -20.103  -4.931  1.00  0.00    -0.508 OA
ATOM     19  H   UNL     1      -5.561 -20.259  -5.497  1.00  0.00     0.293 HD
ENDBRANCH  15  18
ENDBRANCH   1  12
BRANCH   2  20
ATOM     20  O   UNL     1      -0.331 -21.007  -9.368  1.00  0.00    -0.502 OA
ATOM     21  H   UNL     1      -0.805 -20.264  -9.868  1.00  0.00     0.293 HD
ENDBRANCH   2  20
BRANCH   6  22
ATOM     22  O   UNL     1       4.970 -20.643  -9.730  1.00  0.00    -0.507 OA
ATOM     23  H   UNL     1       5.259 -19.846 -10.276  1.00  0.00     0.293 HD
ENDBRANCH   6  22
BRANCH   8  24
ATOM     24  O   UNL     1       6.124 -20.198  -5.107  1.00  0.00    -0.508 OA
ATOM     25  H   UNL     1       6.157 -19.409  -4.472  1.00  0.00     0.293 HD
ENDBRANCH   8  24
TORSDOF 5
ENDMDL
MODEL 6
REMARK VINA RESULT:    -1.731     22.345     23.882
REMARK INTER + INTRA:          -1.647
REMARK INTER:                  -2.151
REMARK INTRA:                   0.504
REMARK UNBOUND:                 0.387
REMARK SMILES O=c1c(O)c(-c2ccc(O)cc2)oc2cc(O)cc(O)c12
REMARK SMILES IDX 5 1 3 2 2 3 1 4 21 5 19 6 18 7 16 8 15 9 14 10 13 11 6 12
REMARK SMILES IDX 7 13 8 14 9 15 12 16 11 17 10 18 4 20 20 22 17 24
REMARK H PARENT 10 19 4 21 20 23 17 25
REMARK Flexibility Score: inf
ROOT
ATOM      1  C   UNL     1       0.496  -1.148 -22.675  1.00  0.00     0.180 A 
ATOM      2  C   UNL     1       0.766  -1.081 -21.298  1.00  0.00     0.208 A 
ATOM      3  C   UNL     1       2.097  -1.183 -20.860  1.00  0.00     0.238 A 
ATOM      4  O   UNL     1       2.339  -1.068 -19.630  1.00  0.00    -0.285 OA
ATOM      5  C   UNL     1       3.137  -1.368 -21.802  1.00  0.00     0.111 A 
ATOM      6  C   UNL     1       4.516  -1.523 -21.468  1.00  0.00     0.134 A 
ATOM      7  C   UNL     1       5.473  -1.569 -22.489  1.00  0.00     0.093 A 
ATOM      8  C   UNL     1       5.098  -1.529 -23.830  1.00  0.00     0.123 A 
ATOM      9  C   UNL     1       3.747  -1.437 -24.170  1.00  0.00     0.094 A 
ATOM     10  C   UNL     1       2.771  -1.353 -23.174  1.00  0.00     0.146 A 
ATOM     11  O   UNL     1       1.498  -1.256 -23.538  1.00  0.00    -0.452 OA
ENDROOT
BRANCH   1  12
ATOM     12  C   UNL     1      -0.883  -1.074 -23.212  1.00  0.00     0.021 A 
ATOM     13  C   UNL     1      -1.994  -0.925 -22.361  1.00  0.00     0.016 A 
ATOM     14  C   UNL     1      -3.287  -0.881 -22.889  1.00  0.00     0.047 A 
ATOM     15  C   UNL     1      -3.490  -0.998 -24.267  1.00  0.00     0.115 A 
ATOM     16  C   UNL     1      -1.096  -1.211 -24.594  1.00  0.00     0.016 A 
ATOM     17  C   UNL     1      -2.390  -1.166 -25.119  1.00  0.00     0.047 A 
BRANCH  15  18
ATOM     18  O   UNL     1      -4.785  -0.951 -24.779  1.00  0.00    -0.508 OA
ATOM     19  H   UNL     1      -5.176  -0.093 -25.150  1.00  0.00     0.293 HD
ENDBRANCH  15  18
ENDBRANCH   1  12
BRANCH   2  20
ATOM     20  O   UNL     1      -0.272  -0.877 -20.386  1.00  0.00    -0.502 OA
ATOM     21  H   UNL     1      -0.310  -0.069 -19.776  1.00  0.00     0.293 HD
ENDBRANCH   2  20
BRANCH   6  22
ATOM     22  O   UNL     1       4.990  -1.665 -20.161  1.00  0.00    -0.507 OA
ATOM     23  H   UNL     1       5.895  -2.035 -19.914  1.00  0.00     0.293 HD
ENDBRANCH   6  22
BRANCH   8  24
ATOM     24  O   UNL     1       6.075  -1.592 -24.821  1.00  0.00    -0.508 OA
ATOM     25  H   UNL     1       6.246  -0.814 -25.448  1.00  0.00     0.293 HD
ENDBRANCH   8  24
TORSDOF 5
ENDMDL
MODEL 7
REMARK VINA RESULT:    -1.262     21.887     23.191
REMARK INTER + INTRA:          -1.096
REMARK INTER:                  -1.526
REMARK INTRA:                   0.430
REMARK UNBOUND:                 0.387
REMARK SMILES O=c1c(O)c(-c2ccc(O)cc2)oc2cc(O)cc(O)c12
REMARK SMILES IDX 5 1 3 2 2 3 1 4 21 5 19 6 18 7 16 8 15 9 14 10 13 11 6 12
REMARK SMILES IDX 7 13 8 14 9 15 12 16 11 17 10 18 4 20 20 22 17 24
REMARK H PARENT 10 19 4 21 20 23 17 25
REMARK Flexibility Score: inf
ROOT
ATOM      1  C   UNL     1       0.906  -1.264 -20.963  1.00  0.00     0.180 A 
ATOM      2  C   UNL     1       1.702  -1.161 -19.809  1.00  0.00     0.208 A 
ATOM      3  C   UNL     1       3.093  -1.310 -19.927  1.00  0.00     0.238 A 
ATOM      4  O   UNL     1       3.806  -1.164 -18.899  1.00  0.00    -0.285 OA
ATOM      5  C   UNL     1       3.669  -1.578 -21.192  1.00  0.00     0.111 A 
ATOM      6  C   UNL     1       5.063  -1.787 -21.420  1.00  0.00     0.134 A 
ATOM      7  C   UNL     1       5.535  -1.913 -22.733  1.00  0.00     0.093 A 
ATOM      8  C   UNL     1       4.661  -1.903 -23.817  1.00  0.00     0.123 A 
ATOM      9  C   UNL     1       3.289  -1.759 -23.601  1.00  0.00     0.094 A 
ATOM     10  C   UNL     1       2.791  -1.594 -22.307  1.00  0.00     0.146 A 
ATOM     11  O   UNL     1       1.481  -1.449 -22.144  1.00  0.00    -0.452 OA
ENDROOT
BRANCH   1  12
ATOM     12  C   UNL     1      -0.569  -1.142 -20.915  1.00  0.00     0.021 A 
ATOM     13  C   UNL     1      -1.273  -1.224 -19.699  1.00  0.00     0.016 A 
ATOM     14  C   UNL     1      -2.668  -1.131 -19.682  1.00  0.00     0.047 A 
ATOM     15  C   UNL     1      -3.377  -0.969 -20.876  1.00  0.00     0.115 A 
ATOM     16  C   UNL     1      -1.291  -1.000 -22.112  1.00  0.00     0.016 A 
ATOM     17  C   UNL     1      -2.685  -0.907 -22.093  1.00  0.00     0.047 A 
BRANCH  15  18
ATOM     18  O   UNL     1      -4.767  -0.876 -20.843  1.00  0.00    -0.508 OA
ATOM     19  H   UNL     1      -5.239   0.020 -20.879  1.00  0.00     0.293 HD
ENDBRANCH  15  18
ENDBRANCH   1  12
BRANCH   2  20
ATOM     20  O   UNL     1       1.116  -0.875 -18.573  1.00  0.00    -0.502 OA
ATOM     21  H   UNL     1       1.180   0.037 -18.138  1.00  0.00     0.293 HD
ENDBRANCH   2  20
BRANCH   6  22
ATOM     22  O   UNL     1       6.011  -1.905 -20.401  1.00  0.00    -0.507 OA
ATOM     23  H   UNL     1       6.848  -2.466 -20.456  1.00  0.00     0.293 HD
ENDBRANCH   6  22
BRANCH   8  24
ATOM     24  O   UNL     1       5.164  -2.047 -25.109  1.00  0.00    -0.508 OA
ATOM     25  H   UNL     1       5.410  -1.243 -25.675  1.00  0.00     0.293 HD
ENDBRANCH   8  24
TORSDOF 5
ENDMDL
