MODEL 1
REMARK VINA RESULT:    -3.396      0.000      0.000
REMARK INTER + INTRA:          -8.698
REMARK INTER:                  -6.374
REMARK INTRA:                  -2.324
REMARK UNBOUND:                -2.324
REMARK SMILES CCCCCCCCC=CCCCCCCCC(=O)[O-]
REMARK SMILES IDX 10 1 9 2 11 3 12 4 13 5 14 6 15 7 16 8 17 9 18 10 19 11
REMARK SMILES IDX 20 12 8 13 7 14 6 15 5 16 4 17 3 18 2 19 1 20
REMARK H PARENT
REMARK Flexibility Score: inf
ROOT
ATOM      1  C   UNL     1      -7.528  22.753   9.625  1.00  0.00    -0.031 C 
ATOM      2  C   UNL     1      -6.468  22.294  10.307  1.00  0.00    -0.031 C 
ENDROOT
BRANCH   1   3
ATOM      3  C   UNL     1      -7.612  22.636   8.126  1.00  0.00     0.027 C 
BRANCH   3   4
ATOM      4  C   UNL     1      -6.406  21.895   7.528  1.00  0.00     0.004 C 
BRANCH   4   5
ATOM      5  C   UNL     1      -5.778  22.666   6.354  1.00  0.00     0.000 C 
BRANCH   5   6
ATOM      6  C   UNL     1      -4.272  22.918   6.543  1.00  0.00     0.000 C 
BRANCH   6   7
ATOM      7  C   UNL     1      -3.916  24.174   7.364  1.00  0.00     0.000 C 
BRANCH   7   8
ATOM      8  C   UNL     1      -3.407  23.900   8.793  1.00  0.00     0.006 C 
BRANCH   8   9
ATOM      9  C   UNL     1      -3.909  24.898   9.848  1.00  0.00     0.053 C 
BRANCH   9  10
ATOM     10  C   UNL     1      -3.391  24.574  11.215  1.00  0.00     0.041 C 
ATOM     11  O   UNL     1      -3.042  23.398  11.499  1.00  0.00    -0.550 OA
ATOM     12  O   UNL     1      -3.325  25.565  12.186  1.00  0.00    -0.550 OA
ENDBRANCH   9  10
ENDBRANCH   8   9
ENDBRANCH   7   8
ENDBRANCH   6   7
ENDBRANCH   5   6
ENDBRANCH   4   5
ENDBRANCH   3   4
ENDBRANCH   1   3
BRANCH   2  13
ATOM     13  C   UNL     1      -6.390  22.402  11.806  1.00  0.00     0.027 C 
BRANCH  13  14
ATOM     14  C   UNL     1      -6.904  21.122  12.481  1.00  0.00     0.004 C 
BRANCH  14  15
ATOM     15  C   UNL     1      -8.227  21.339  13.231  1.00  0.00     0.000 C 
BRANCH  15  16
ATOM     16  C   UNL     1      -9.096  20.073  13.282  1.00  0.00     0.000 C 
BRANCH  16  17
ATOM     17  C   UNL     1     -10.306  20.200  12.349  1.00  0.00    -0.000 C 
BRANCH  17  18
ATOM     18  C   UNL     1     -10.514  21.655  11.910  1.00  0.00    -0.000 C 
BRANCH  18  19
ATOM     19  C   UNL     1     -10.972  21.729  10.450  1.00  0.00    -0.003 C 
ATOM     20  C   UNL     1     -10.568  20.473   9.681  1.00  0.00     0.004 C 
ENDBRANCH  18  19
ENDBRANCH  17  18
ENDBRANCH  16  17
ENDBRANCH  15  16
ENDBRANCH  14  15
ENDBRANCH  13  14
ENDBRANCH   2  13
TORSDOF 15
ENDMDL
MODEL 2
REMARK VINA RESULT:    -3.220      3.046      6.926
REMARK INTER + INTRA:          -8.367
REMARK INTER:                  -6.020
REMARK INTRA:                  -2.347
REMARK UNBOUND:                -2.324
REMARK SMILES CCCCCCCCC=CCCCCCCCC(=O)[O-]
REMARK SMILES IDX 10 1 9 2 11 3 12 4 13 5 14 6 15 7 16 8 17 9 18 10 19 11
REMARK SMILES IDX 20 12 8 13 7 14 6 15 5 16 4 17 3 18 2 19 1 20
REMARK H PARENT
REMARK Flexibility Score: inf
ROOT
ATOM      1  C   UNL     1      -8.423  21.026  12.489  1.00  0.00    -0.031 C 
ATOM      2  C   UNL     1      -7.103  21.240  12.601  1.00  0.00    -0.031 C 
ENDROOT
BRANCH   1   3
ATOM      3  C   UNL     1      -9.170  20.171  13.477  1.00  0.00     0.027 C 
BRANCH   3   4
ATOM      4  C   UNL     1     -10.256  20.956  14.227  1.00  0.00     0.004 C 
BRANCH   4   5
ATOM      5  C   UNL     1     -10.609  22.275  13.520  1.00  0.00     0.000 C 
BRANCH   5   6
ATOM      6  C   UNL     1     -10.402  23.508  14.418  1.00  0.00     0.000 C 
BRANCH   6   7
ATOM      7  C   UNL     1      -9.188  24.386  14.053  1.00  0.00     0.000 C 
BRANCH   7   8
ATOM      8  C   UNL     1      -7.888  24.056  14.814  1.00  0.00     0.006 C 
BRANCH   8   9
ATOM      9  C   UNL     1      -8.100  23.298  16.133  1.00  0.00     0.053 C 
BRANCH   9  10
ATOM     10  C   UNL     1      -7.542  24.047  17.304  1.00  0.00     0.041 C 
ATOM     11  O   UNL     1      -6.582  24.847  17.146  1.00  0.00    -0.550 OA
ATOM     12  O   UNL     1      -8.059  23.835  18.575  1.00  0.00    -0.550 OA
ENDBRANCH   9  10
ENDBRANCH   8   9
ENDBRANCH   7   8
ENDBRANCH   6   7
ENDBRANCH   5   6
ENDBRANCH   4   5
ENDBRANCH   3   4
ENDBRANCH   1   3
BRANCH   2  13
ATOM     13  C   UNL     1      -6.360  22.103  11.619  1.00  0.00     0.027 C 
BRANCH  13  14
ATOM     14  C   UNL     1      -7.280  23.172  11.012  1.00  0.00     0.004 C 
BRANCH  14  15
ATOM     15  C   UNL     1      -7.390  23.060   9.484  1.00  0.00     0.000 C 
BRANCH  15  16
ATOM     16  C   UNL     1      -6.020  22.977   8.795  1.00  0.00     0.000 C 
BRANCH  16  17
ATOM     17  C   UNL     1      -5.198  24.246   9.052  1.00  0.00    -0.000 C 
BRANCH  17  18
ATOM     18  C   UNL     1      -3.695  23.959   8.955  1.00  0.00    -0.000 C 
BRANCH  18  19
ATOM     19  C   UNL     1      -2.995  24.241  10.288  1.00  0.00    -0.003 C 
ATOM     20  C   UNL     1      -3.942  24.915  11.277  1.00  0.00     0.004 C 
ENDBRANCH  18  19
ENDBRANCH  17  18
ENDBRANCH  16  17
ENDBRANCH  15  16
ENDBRANCH  14  15
ENDBRANCH  13  14
ENDBRANCH   2  13
TORSDOF 15
ENDMDL
MODEL 3
REMARK VINA RESULT:    -3.212      1.825      3.393
REMARK INTER + INTRA:          -8.352
REMARK INTER:                  -5.703
REMARK INTRA:                  -2.649
REMARK UNBOUND:                -2.324
REMARK SMILES CCCCCCCCC=CCCCCCCCC(=O)[O-]
REMARK SMILES IDX 10 1 9 2 11 3 12 4 13 5 14 6 15 7 16 8 17 9 18 10 19 11
REMARK SMILES IDX 20 12 8 13 7 14 6 15 5 16 4 17 3 18 2 19 1 20
REMARK H PARENT
REMARK Flexibility Score: inf
ROOT
ATOM      1  C   UNL     1     -10.300  22.103  11.185  1.00  0.00    -0.031 C 
ATOM      2  C   UNL     1      -9.641  20.964  11.450  1.00  0.00    -0.031 C 
ENDROOT
BRANCH   1   3
ATOM      3  C   UNL     1     -10.094  22.851   9.896  1.00  0.00     0.027 C 
BRANCH   3   4
ATOM      4  C   UNL     1      -9.300  22.036   8.865  1.00  0.00     0.004 C 
BRANCH   4   5
ATOM      5  C   UNL     1      -8.188  22.867   8.202  1.00  0.00     0.000 C 
BRANCH   5   6
ATOM      6  C   UNL     1      -6.777  22.365   8.555  1.00  0.00     0.000 C 
BRANCH   6   7
ATOM      7  C   UNL     1      -6.550  22.044  10.046  1.00  0.00     0.000 C 
BRANCH   7   8
ATOM      8  C   UNL     1      -5.640  23.035  10.799  1.00  0.00     0.006 C 
BRANCH   8   9
ATOM      9  C   UNL     1      -4.676  23.821   9.898  1.00  0.00     0.053 C 
BRANCH   9  10
ATOM     10  C   UNL     1      -3.303  23.908  10.490  1.00  0.00     0.041 C 
ATOM     11  O   UNL     1      -3.019  23.259  11.531  1.00  0.00    -0.550 OA
ATOM     12  O   UNL     1      -2.347  24.732   9.910  1.00  0.00    -0.550 OA
ENDBRANCH   9  10
ENDBRANCH   8   9
ENDBRANCH   7   8
ENDBRANCH   6   7
ENDBRANCH   5   6
ENDBRANCH   4   5
ENDBRANCH   3   4
ENDBRANCH   1   3
BRANCH   2  13
ATOM     13  C   UNL     1      -9.855  20.211  12.734  1.00  0.00     0.027 C 
BRANCH  13  14
ATOM     14  C   UNL     1      -8.751  20.528  13.754  1.00  0.00     0.004 C 
BRANCH  14  15
ATOM     15  C   UNL     1      -9.264  21.354  14.944  1.00  0.00     0.000 C 
BRANCH  15  16
ATOM     16  C   UNL     1      -9.024  22.861  14.768  1.00  0.00     0.000 C 
BRANCH  16  17
ATOM     17  C   UNL     1      -7.840  23.122  13.829  1.00  0.00    -0.000 C 
BRANCH  17  18
ATOM     18  C   UNL     1      -7.674  24.622  13.556  1.00  0.00    -0.000 C 
BRANCH  18  19
ATOM     19  C   UNL     1      -8.721  25.118  12.552  1.00  0.00    -0.003 C 
ATOM     20  C   UNL     1      -8.065  25.570  11.250  1.00  0.00     0.004 C 
ENDBRANCH  18  19
ENDBRANCH  17  18
ENDBRANCH  16  17
ENDBRANCH  15  16
ENDBRANCH  14  15
ENDBRANCH  13  14
ENDBRANCH   2  13
TORSDOF 15
ENDMDL
MODEL 4
REMARK VINA RESULT:    -3.197      2.092      3.508
REMARK INTER + INTRA:          -8.325
REMARK INTER:                  -5.988
REMARK INTRA:                  -2.337
REMARK UNBOUND:                -2.324
REMARK SMILES CCCCCCCCC=CCCCCCCCC(=O)[O-]
REMARK SMILES IDX 10 1 9 2 11 3 12 4 13 5 14 6 15 7 16 8 17 9 18 10 19 11
REMARK SMILES IDX 20 12 8 13 7 14 6 15 5 16 4 17 3 18 2 19 1 20
REMARK H PARENT
REMARK Flexibility Score: inf
ROOT
ATOM      1  C   UNL     1      -7.028  21.362  12.504  1.00  0.00    -0.031 C 
ATOM      2  C   UNL     1      -8.341  21.085  12.474  1.00  0.00    -0.031 C 
ENDROOT
BRANCH   1   3
ATOM      3  C   UNL     1      -6.347  22.076  11.367  1.00  0.00     0.027 C 
BRANCH   3   4
ATOM      4  C   UNL     1      -7.235  22.169  10.118  1.00  0.00     0.004 C 
BRANCH   4   5
ATOM      5  C   UNL     1      -6.446  22.627   8.879  1.00  0.00     0.000 C 
BRANCH   5   6
ATOM      6  C   UNL     1      -6.428  24.157   8.715  1.00  0.00     0.000 C 
BRANCH   6   7
ATOM      7  C   UNL     1      -5.135  24.852   9.187  1.00  0.00     0.000 C 
BRANCH   7   8
ATOM      8  C   UNL     1      -3.881  23.954   9.213  1.00  0.00     0.006 C 
BRANCH   8   9
ATOM      9  C   UNL     1      -3.246  23.792  10.603  1.00  0.00     0.053 C 
BRANCH   9  10
ATOM     10  C   UNL     1      -2.697  25.086  11.120  1.00  0.00     0.041 C 
ATOM     11  O   UNL     1      -1.776  25.678  10.497  1.00  0.00    -0.550 OA
ATOM     12  O   UNL     1      -3.178  25.620  12.308  1.00  0.00    -0.550 OA
ENDBRANCH   9  10
ENDBRANCH   8   9
ENDBRANCH   7   8
ENDBRANCH   6   7
ENDBRANCH   5   6
ENDBRANCH   4   5
ENDBRANCH   3   4
ENDBRANCH   1   3
BRANCH   2  13
ATOM     13  C   UNL     1      -9.023  20.381  13.615  1.00  0.00     0.027 C 
BRANCH  13  14
ATOM     14  C   UNL     1     -10.051  21.297  14.297  1.00  0.00     0.004 C 
BRANCH  14  15
ATOM     15  C   UNL     1      -9.455  22.077  15.479  1.00  0.00     0.000 C 
BRANCH  15  16
ATOM     16  C   UNL     1      -9.344  23.583  15.201  1.00  0.00     0.000 C 
BRANCH  16  17
ATOM     17  C   UNL     1      -7.881  24.040  15.222  1.00  0.00    -0.000 C 
BRANCH  17  18
ATOM     18  C   UNL     1      -7.702  25.357  14.457  1.00  0.00    -0.000 C 
BRANCH  18  19
ATOM     19  C   UNL     1      -7.215  25.100  13.027  1.00  0.00    -0.003 C 
ATOM     20  C   UNL     1      -8.375  25.132  12.035  1.00  0.00     0.004 C 
ENDBRANCH  18  19
ENDBRANCH  17  18
ENDBRANCH  16  17
ENDBRANCH  15  16
ENDBRANCH  14  15
ENDBRANCH  13  14
ENDBRANCH   2  13
TORSDOF 15
ENDMDL
MODEL 5
REMARK VINA RESULT:    -3.157      1.227      3.163
REMARK INTER + INTRA:          -8.249
REMARK INTER:                  -6.202
REMARK INTRA:                  -2.048
REMARK UNBOUND:                -2.324
REMARK SMILES CCCCCCCCC=CCCCCCCCC(=O)[O-]
REMARK SMILES IDX 10 1 9 2 11 3 12 4 13 5 14 6 15 7 16 8 17 9 18 10 19 11
REMARK SMILES IDX 20 12 8 13 7 14 6 15 5 16 4 17 3 18 2 19 1 20
REMARK H PARENT
REMARK Flexibility Score: inf
ROOT
ATOM      1  C   UNL     1      -4.999  22.130   6.245  1.00  0.00    -0.031 C 
ATOM      2  C   UNL     1      -6.025  22.869   6.694  1.00  0.00    -0.031 C 
ENDROOT
BRANCH   1   3
ATOM      3  C   UNL     1      -3.958  22.705   5.321  1.00  0.00     0.027 C 
BRANCH   3   4
ATOM      4  C   UNL     1      -3.792  24.221   5.498  1.00  0.00     0.004 C 
BRANCH   4   5
ATOM      5  C   UNL     1      -2.724  24.567   6.551  1.00  0.00     0.000 C 
BRANCH   5   6
ATOM      6  C   UNL     1      -3.165  25.697   7.498  1.00  0.00     0.000 C 
BRANCH   6   7
ATOM      7  C   UNL     1      -3.870  25.233   8.788  1.00  0.00     0.000 C 
BRANCH   7   8
ATOM      8  C   UNL     1      -3.403  23.868   9.334  1.00  0.00     0.006 C 
BRANCH   8   9
ATOM      9  C   UNL     1      -3.443  23.750  10.865  1.00  0.00     0.053 C 
BRANCH   9  10
ATOM     10  C   UNL     1      -2.502  24.711  11.524  1.00  0.00     0.041 C 
ATOM     11  O   UNL     1      -1.263  24.631  11.313  1.00  0.00    -0.550 OA
ATOM     12  O   UNL     1      -2.989  25.674  12.398  1.00  0.00    -0.550 OA
ENDBRANCH   9  10
ENDBRANCH   8   9
ENDBRANCH   7   8
ENDBRANCH   6   7
ENDBRANCH   5   6
ENDBRANCH   4   5
ENDBRANCH   3   4
ENDBRANCH   1   3
BRANCH   2  13
ATOM     13  C   UNL     1      -7.059  22.297   7.625  1.00  0.00     0.027 C 
BRANCH  13  14
ATOM     14  C   UNL     1      -7.007  22.983   8.999  1.00  0.00     0.004 C 
BRANCH  14  15
ATOM     15  C   UNL     1      -6.516  22.043  10.111  1.00  0.00     0.000 C 
BRANCH  15  16
ATOM     16  C   UNL     1      -7.047  22.437  11.497  1.00  0.00     0.000 C 
BRANCH  16  17
ATOM     17  C   UNL     1      -6.882  21.285  12.496  1.00  0.00    -0.000 C 
BRANCH  17  18
ATOM     18  C   UNL     1      -8.236  20.862  13.079  1.00  0.00    -0.000 C 
BRANCH  18  19
ATOM     19  C   UNL     1      -9.359  21.053  12.054  1.00  0.00    -0.003 C 
ATOM     20  C   UNL     1     -10.567  21.744  12.683  1.00  0.00     0.004 C 
ENDBRANCH  18  19
ENDBRANCH  17  18
ENDBRANCH  16  17
ENDBRANCH  15  16
ENDBRANCH  14  15
ENDBRANCH  13  14
ENDBRANCH   2  13
TORSDOF 15
ENDMDL
MODEL 6
REMARK VINA RESULT:    -3.150      1.982      3.004
REMARK INTER + INTRA:          -8.236
REMARK INTER:                  -6.143
REMARK INTRA:                  -2.093
REMARK UNBOUND:                -2.324
REMARK SMILES CCCCCCCCC=CCCCCCCCC(=O)[O-]
REMARK SMILES IDX 10 1 9 2 11 3 12 4 13 5 14 6 15 7 16 8 17 9 18 10 19 11
REMARK SMILES IDX 20 12 8 13 7 14 6 15 5 16 4 17 3 18 2 19 1 20
REMARK H PARENT
REMARK Flexibility Score: inf
ROOT
ATOM      1  C   UNL     1      -7.260  22.212  10.437  1.00  0.00    -0.031 C 
ATOM      2  C   UNL     1      -6.515  21.789  11.470  1.00  0.00    -0.031 C 
ENDROOT
BRANCH   1   3
ATOM      3  C   UNL     1      -6.667  22.411   9.067  1.00  0.00     0.027 C 
BRANCH   3   4
ATOM      4  C   UNL     1      -6.993  23.792   8.483  1.00  0.00     0.004 C 
BRANCH   4   5
ATOM      5  C   UNL     1      -5.861  24.324   7.586  1.00  0.00     0.000 C 
BRANCH   5   6
ATOM      6  C   UNL     1      -4.788  23.262   7.289  1.00  0.00     0.000 C 
BRANCH   6   7
ATOM      7  C   UNL     1      -3.362  23.625   7.749  1.00  0.00     0.000 C 
BRANCH   7   8
ATOM      8  C   UNL     1      -3.287  24.573   8.964  1.00  0.00     0.006 C 
BRANCH   8   9
ATOM      9  C   UNL     1      -3.457  23.876  10.323  1.00  0.00     0.053 C 
BRANCH   9  10
ATOM     10  C   UNL     1      -4.011  24.804  11.360  1.00  0.00     0.041 C 
ATOM     11  O   UNL     1      -5.252  25.006  11.433  1.00  0.00    -0.550 OA
ATOM     12  O   UNL     1      -3.153  25.471  12.225  1.00  0.00    -0.550 OA
ENDBRANCH   9  10
ENDBRANCH   8   9
ENDBRANCH   7   8
ENDBRANCH   6   7
ENDBRANCH   5   6
ENDBRANCH   4   5
ENDBRANCH   3   4
ENDBRANCH   1   3
BRANCH   2  13
ATOM     13  C   UNL     1      -7.111  21.581  12.836  1.00  0.00     0.027 C 
BRANCH  13  14
ATOM     14  C   UNL     1      -8.493  20.917  12.742  1.00  0.00     0.004 C 
BRANCH  14  15
ATOM     15  C   UNL     1      -9.536  21.593  13.645  1.00  0.00     0.000 C 
BRANCH  15  16
ATOM     16  C   UNL     1      -9.180  21.499  15.136  1.00  0.00     0.000 C 
BRANCH  16  17
ATOM     17  C   UNL     1      -9.246  22.878  15.804  1.00  0.00    -0.000 C 
BRANCH  17  18
ATOM     18  C   UNL     1      -7.840  23.426  16.078  1.00  0.00    -0.000 C 
BRANCH  18  19
ATOM     19  C   UNL     1      -7.716  24.880  15.610  1.00  0.00    -0.003 C 
ATOM     20  C   UNL     1      -7.687  24.968  14.086  1.00  0.00     0.004 C 
ENDBRANCH  18  19
ENDBRANCH  17  18
ENDBRANCH  16  17
ENDBRANCH  15  16
ENDBRANCH  14  15
ENDBRANCH  13  14
ENDBRANCH   2  13
TORSDOF 15
ENDMDL
MODEL 7
REMARK VINA RESULT:    -3.131      2.822      6.966
REMARK INTER + INTRA:          -8.201
REMARK INTER:                  -6.031
REMARK INTRA:                  -2.170
REMARK UNBOUND:                -2.324
REMARK SMILES CCCCCCCCC=CCCCCCCCC(=O)[O-]
REMARK SMILES IDX 10 1 9 2 11 3 12 4 13 5 14 6 15 7 16 8 17 9 18 10 19 11
REMARK SMILES IDX 20 12 8 13 7 14 6 15 5 16 4 17 3 18 2 19 1 20
REMARK H PARENT
REMARK Flexibility Score: inf
ROOT
ATOM      1  C   UNL     1      -7.366  22.189  11.333  1.00  0.00    -0.031 C 
ATOM      2  C   UNL     1      -6.651  22.086  10.202  1.00  0.00    -0.031 C 
ENDROOT
BRANCH   1   3
ATOM      3  C   UNL     1      -7.069  21.333  12.534  1.00  0.00     0.027 C 
BRANCH   3   4
ATOM      4  C   UNL     1      -8.326  20.653  13.095  1.00  0.00     0.004 C 
BRANCH   4   5
ATOM      5  C   UNL     1      -9.613  21.194  12.447  1.00  0.00     0.000 C 
BRANCH   5   6
ATOM      6  C   UNL     1     -10.556  21.864  13.463  1.00  0.00     0.000 C 
BRANCH   6   7
ATOM      7  C   UNL     1      -9.960  22.075  14.869  1.00  0.00     0.000 C 
BRANCH   7   8
ATOM      8  C   UNL     1      -9.381  23.479  15.132  1.00  0.00     0.006 C 
BRANCH   8   9
ATOM      9  C   UNL     1      -7.887  23.493  15.490  1.00  0.00     0.053 C 
BRANCH   9  10
ATOM     10  C   UNL     1      -7.623  24.243  16.760  1.00  0.00     0.041 C 
ATOM     11  O   UNL     1      -6.759  25.158  16.788  1.00  0.00    -0.550 OA
ATOM     12  O   UNL     1      -8.308  23.908  17.920  1.00  0.00    -0.550 OA
ENDBRANCH   9  10
ENDBRANCH   8   9
ENDBRANCH   7   8
ENDBRANCH   6   7
ENDBRANCH   5   6
ENDBRANCH   4   5
ENDBRANCH   3   4
ENDBRANCH   1   3
BRANCH   2  13
ATOM     13  C   UNL     1      -6.942  22.950   9.005  1.00  0.00     0.027 C 
BRANCH  13  14
ATOM     14  C   UNL     1      -5.870  22.774   7.919  1.00  0.00     0.004 C 
BRANCH  14  15
ATOM     15  C   UNL     1      -5.058  24.055   7.677  1.00  0.00     0.000 C 
BRANCH  15  16
ATOM     16  C   UNL     1      -3.560  23.872   7.963  1.00  0.00     0.000 C 
BRANCH  16  17
ATOM     17  C   UNL     1      -3.285  23.870   9.471  1.00  0.00    -0.000 C 
BRANCH  17  18
ATOM     18  C   UNL     1      -3.841  25.135  10.135  1.00  0.00    -0.000 C 
BRANCH  18  19
ATOM     19  C   UNL     1      -4.546  24.800  11.453  1.00  0.00    -0.003 C 
ATOM     20  C   UNL     1      -5.822  25.621  11.621  1.00  0.00     0.004 C 
ENDBRANCH  18  19
ENDBRANCH  17  18
ENDBRANCH  16  17
ENDBRANCH  15  16
ENDBRANCH  14  15
ENDBRANCH  13  14
ENDBRANCH   2  13
TORSDOF 15
ENDMDL
MODEL 8
REMARK VINA RESULT:    -3.117      2.061      3.981
REMARK INTER + INTRA:          -8.174
REMARK INTER:                  -6.003
REMARK INTRA:                  -2.171
REMARK UNBOUND:                -2.324
REMARK SMILES CCCCCCCCC=CCCCCCCCC(=O)[O-]
REMARK SMILES IDX 10 1 9 2 11 3 12 4 13 5 14 6 15 7 16 8 17 9 18 10 19 11
REMARK SMILES IDX 20 12 8 13 7 14 6 15 5 16 4 17 3 18 2 19 1 20
REMARK H PARENT
REMARK Flexibility Score: inf
ROOT
ATOM      1  C   UNL     1      -8.238  21.217  12.541  1.00  0.00    -0.031 C 
ATOM      2  C   UNL     1      -8.664  20.312  13.436  1.00  0.00    -0.031 C 
ENDROOT
BRANCH   1   3
ATOM      3  C   UNL     1      -6.776  21.530  12.372  1.00  0.00     0.027 C 
BRANCH   3   4
ATOM      4  C   UNL     1      -6.454  22.089  10.978  1.00  0.00     0.004 C 
BRANCH   4   5
ATOM      5  C   UNL     1      -7.682  22.740  10.318  1.00  0.00     0.000 C 
BRANCH   5   6
ATOM      6  C   UNL     1      -7.616  22.716   8.781  1.00  0.00     0.000 C 
BRANCH   6   7
ATOM      7  C   UNL     1      -6.217  22.451   8.189  1.00  0.00     0.000 C 
BRANCH   7   8
ATOM      8  C   UNL     1      -5.402  23.713   7.843  1.00  0.00     0.006 C 
BRANCH   8   9
ATOM      9  C   UNL     1      -3.879  23.522   7.909  1.00  0.00     0.053 C 
BRANCH   9  10
ATOM     10  C   UNL     1      -3.287  24.169   9.123  1.00  0.00     0.041 C 
ATOM     11  O   UNL     1      -3.361  23.601  10.245  1.00  0.00    -0.550 OA
ATOM     12  O   UNL     1      -2.682  25.415   9.022  1.00  0.00    -0.550 OA
ENDBRANCH   9  10
ENDBRANCH   8   9
ENDBRANCH   7   8
ENDBRANCH   6   7
ENDBRANCH   5   6
ENDBRANCH   4   5
ENDBRANCH   3   4
ENDBRANCH   1   3
BRANCH   2  13
ATOM     13  C   UNL     1     -10.125  19.992  13.597  1.00  0.00     0.027 C 
BRANCH  13  14
ATOM     14  C   UNL     1     -10.728  20.742  14.795  1.00  0.00     0.004 C 
BRANCH  14  15
ATOM     15  C   UNL     1     -11.878  21.677  14.389  1.00  0.00     0.000 C 
BRANCH  15  16
ATOM     16  C   UNL     1     -11.541  23.160  14.605  1.00  0.00     0.000 C 
BRANCH  16  17
ATOM     17  C   UNL     1     -10.820  23.742  13.384  1.00  0.00    -0.000 C 
BRANCH  17  18
ATOM     18  C   UNL     1      -9.497  24.405  13.789  1.00  0.00    -0.000 C 
BRANCH  18  19
ATOM     19  C   UNL     1      -9.224  24.217  15.285  1.00  0.00    -0.003 C 
ATOM     20  C   UNL     1      -7.946  23.416  15.516  1.00  0.00     0.004 C 
ENDBRANCH  18  19
ENDBRANCH  17  18
ENDBRANCH  16  17
ENDBRANCH  15  16
ENDBRANCH  14  15
ENDBRANCH  13  14
ENDBRANCH   2  13
TORSDOF 15
ENDMDL
MODEL 9
REMARK VINA RESULT:    -3.036      2.067      4.116
REMARK INTER + INTRA:          -8.022
REMARK INTER:                  -5.462
REMARK INTRA:                  -2.560
REMARK UNBOUND:                -2.324
REMARK SMILES CCCCCCCCC=CCCCCCCCC(=O)[O-]
REMARK SMILES IDX 10 1 9 2 11 3 12 4 13 5 14 6 15 7 16 8 17 9 18 10 19 11
REMARK SMILES IDX 20 12 8 13 7 14 6 15 5 16 4 17 3 18 2 19 1 20
REMARK H PARENT
REMARK Flexibility Score: inf
ROOT
ATOM      1  C   UNL     1      -9.239  23.037  14.415  1.00  0.00    -0.031 C 
ATOM      2  C   UNL     1      -9.895  21.948  14.846  1.00  0.00    -0.031 C 
ENDROOT
BRANCH   1   3
ATOM      3  C   UNL     1      -7.850  22.946  13.842  1.00  0.00     0.027 C 
BRANCH   3   4
ATOM      4  C   UNL     1      -7.635  21.661  13.028  1.00  0.00     0.004 C 
BRANCH   4   5
ATOM      5  C   UNL     1      -6.343  21.714  12.194  1.00  0.00     0.000 C 
BRANCH   5   6
ATOM      6  C   UNL     1      -6.597  22.093  10.725  1.00  0.00     0.000 C 
BRANCH   6   7
ATOM      7  C   UNL     1      -6.034  23.463  10.296  1.00  0.00     0.000 C 
BRANCH   7   8
ATOM      8  C   UNL     1      -4.956  24.050  11.229  1.00  0.00     0.006 C 
BRANCH   8   9
ATOM      9  C   UNL     1      -3.529  23.559  10.937  1.00  0.00     0.053 C 
BRANCH   9  10
ATOM     10  C   UNL     1      -2.871  24.363   9.859  1.00  0.00     0.041 C 
ATOM     11  O   UNL     1      -2.187  25.379  10.153  1.00  0.00    -0.550 OA
ATOM     12  O   UNL     1      -3.040  24.010   8.527  1.00  0.00    -0.550 OA
ENDBRANCH   9  10
ENDBRANCH   8   9
ENDBRANCH   7   8
ENDBRANCH   6   7
ENDBRANCH   5   6
ENDBRANCH   4   5
ENDBRANCH   3   4
ENDBRANCH   1   3
BRANCH   2  13
ATOM     13  C   UNL     1     -11.287  22.039  15.408  1.00  0.00     0.027 C 
BRANCH  13  14
ATOM     14  C   UNL     1     -12.302  21.338  14.493  1.00  0.00     0.004 C 
BRANCH  14  15
ATOM     15  C   UNL     1     -11.768  20.016  13.920  1.00  0.00     0.000 C 
BRANCH  15  16
ATOM     16  C   UNL     1     -11.857  19.954  12.388  1.00  0.00     0.000 C 
BRANCH  16  17
ATOM     17  C   UNL     1     -10.461  19.875  11.760  1.00  0.00    -0.000 C 
BRANCH  17  18
ATOM     18  C   UNL     1     -10.269  20.969  10.702  1.00  0.00    -0.000 C 
BRANCH  18  19
ATOM     19  C   UNL     1     -10.935  22.278  11.139  1.00  0.00    -0.003 C 
ATOM     20  C   UNL     1     -10.065  23.483  10.789  1.00  0.00     0.004 C 
ENDBRANCH  18  19
ENDBRANCH  17  18
ENDBRANCH  16  17
ENDBRANCH  15  16
ENDBRANCH  14  15
ENDBRANCH  13  14
ENDBRANCH   2  13
TORSDOF 15
ENDMDL
