MODEL 1
REMARK VINA RESULT:     8.541      0.000      0.000
REMARK INTER + INTRA:          11.039
REMARK INTER:                  10.538
REMARK INTRA:                   0.501
REMARK UNBOUND:                 0.501
REMARK SMILES C=C1[C@@H]2CC[C@H]3[C@H]2C(C)(C)CCC[C@@]13C
REMARK SMILES IDX 14 1 6 2 7 3 3 4 2 5 1 6 4 7 5 8 15 9 8 10 9 11 10 12 11 13
REMARK SMILES IDX 13 15 12 16
REMARK H PARENT
REMARK Flexibility Score: 80.00
ROOT
ATOM      1  C   UNL     1     -15.107  -3.323  16.410  1.00  0.00    -0.008 C 
ATOM      2  C   UNL     1     -15.849  -2.697  17.583  1.00  0.00     0.003 C 
ATOM      3  C   UNL     1     -15.334  -1.252  17.447  1.00  0.00     0.006 C 
ATOM      4  C   UNL     1     -13.893  -1.617  17.757  1.00  0.00     0.019 C 
ATOM      5  C   UNL     1     -13.727  -2.695  16.661  1.00  0.00    -0.068 C 
ATOM      6  C   UNL     1     -12.597  -2.967  16.002  1.00  0.00     0.009 C 
ATOM      7  C   UNL     1     -13.990  -2.337  19.096  1.00  0.00     0.008 C 
ATOM      8  C   UNL     1     -15.313  -3.097  18.978  1.00  0.00     0.005 C 
ATOM      9  C   UNL     1     -15.035  -4.863  16.489  1.00  0.00     0.016 C 
ENDROOT
BRANCH   3  10
ATOM     10  C   UNL     1     -16.517  -0.265  17.330  1.00  0.00    -0.032 C 
ATOM     11  C   UNL     1     -17.404  -0.309  18.595  1.00  0.00     0.011 C 
ATOM     12  C   UNL     1     -16.027   1.200  17.161  1.00  0.00     0.011 C 
BRANCH  10  13
ATOM     13  C   UNL     1     -17.340  -0.730  16.043  1.00  0.00     0.007 CG0
ATOM     14  G   UNL     1     -16.518  -1.452  14.889  1.00  0.00     0.000 G0
ENDBRANCH  10  13
ENDBRANCH   3  10
BRANCH   1  15
ATOM     15  C   UNL     1     -15.889  -2.890  15.086  1.00  0.00     0.011 C 
BRANCH  15  16
ATOM     16  C   UNL     1     -16.542  -1.447  14.879  1.00  0.00     0.001 CG0
ATOM     17  G   UNL     1     -17.341  -0.732  16.054  1.00  0.00     0.000 G0
ENDBRANCH  15  16
ENDBRANCH   1  15
TORSDOF 0
ENDMDL
MODEL 2
REMARK VINA RESULT:     9.224      2.063      4.393
REMARK INTER + INTRA:          11.882
REMARK INTER:                  11.361
REMARK INTRA:                   0.522
REMARK UNBOUND:                 0.501
REMARK SMILES C=C1[C@@H]2CC[C@H]3[C@H]2C(C)(C)CCC[C@@]13C
REMARK SMILES IDX 14 1 6 2 7 3 3 4 2 5 1 6 4 7 5 8 15 9 8 10 9 11 10 12 11 13
REMARK SMILES IDX 13 15 12 16
REMARK H PARENT
REMARK Flexibility Score: 80.00
ROOT
ATOM      1  C   UNL     1     -15.585  -2.234  18.203  1.00  0.00    -0.008 C 
ATOM      2  C   UNL     1     -15.392  -3.199  17.042  1.00  0.00     0.003 C 
ATOM      3  C   UNL     1     -14.551  -2.298  16.118  1.00  0.00     0.006 C 
ATOM      4  C   UNL     1     -15.666  -1.290  15.899  1.00  0.00     0.019 C 
ATOM      5  C   UNL     1     -15.939  -0.978  17.390  1.00  0.00    -0.068 C 
ATOM      6  C   UNL     1     -16.336   0.200  17.877  1.00  0.00     0.009 C 
ATOM      7  C   UNL     1     -16.820  -2.145  15.392  1.00  0.00     0.008 C 
ATOM      8  C   UNL     1     -16.656  -3.444  16.183  1.00  0.00     0.005 C 
ATOM      9  C   UNL     1     -16.747  -2.632  19.137  1.00  0.00     0.016 C 
ENDROOT
BRANCH   3  10
ATOM     10  C   UNL     1     -13.222  -2.993  15.748  1.00  0.00    -0.032 C 
ATOM     11  C   UNL     1     -13.476  -4.265  14.907  1.00  0.00     0.011 C 
ATOM     12  C   UNL     1     -12.301  -2.062  14.910  1.00  0.00     0.011 C 
BRANCH  10  13
ATOM     13  C   UNL     1     -12.527  -3.362  17.138  1.00  0.00     0.007 CG0
ATOM     14  G   UNL     1     -12.788  -2.371  18.354  1.00  0.00     0.000 G0
ENDBRANCH  10  13
ENDBRANCH   3  10
BRANCH   1  15
ATOM     15  C   UNL     1     -14.216  -2.222  19.025  1.00  0.00     0.011 C 
BRANCH  15  16
ATOM     16  C   UNL     1     -12.778  -2.383  18.348  1.00  0.00     0.001 CG0
ATOM     17  G   UNL     1     -12.549  -3.392  17.139  1.00  0.00     0.000 G0
ENDBRANCH  15  16
ENDBRANCH   1  15
TORSDOF 0
ENDMDL
MODEL 3
REMARK VINA RESULT:     9.311      2.214      3.803
REMARK INTER + INTRA:          11.989
REMARK INTER:                  11.488
REMARK INTRA:                   0.501
REMARK UNBOUND:                 0.501
REMARK SMILES C=C1[C@@H]2CC[C@H]3[C@H]2C(C)(C)CCC[C@@]13C
REMARK SMILES IDX 14 1 6 2 7 3 3 4 2 5 1 6 4 7 5 8 15 9 8 10 9 11 10 12 11 13
REMARK SMILES IDX 13 15 12 16
REMARK H PARENT
REMARK Flexibility Score: 80.00
ROOT
ATOM      1  C   UNL     1     -13.545  -3.058  16.196  1.00  0.00    -0.008 C 
ATOM      2  C   UNL     1     -14.389  -1.880  16.663  1.00  0.00     0.003 C 
ATOM      3  C   UNL     1     -15.313  -2.621  17.647  1.00  0.00     0.006 C 
ATOM      4  C   UNL     1     -15.975  -3.461  16.568  1.00  0.00     0.019 C 
ATOM      5  C   UNL     1     -14.681  -4.070  15.977  1.00  0.00    -0.068 C 
ATOM      6  C   UNL     1     -14.569  -5.290  15.446  1.00  0.00     0.009 C 
ATOM      7  C   UNL     1     -16.486  -2.424  15.577  1.00  0.00     0.008 C 
ATOM      8  C   UNL     1     -15.398  -1.349  15.617  1.00  0.00     0.005 C 
ATOM      9  C   UNL     1     -12.791  -2.781  14.878  1.00  0.00     0.016 C 
ENDROOT
BRANCH   3  10
ATOM     10  C   UNL     1     -15.243  -1.974  19.048  1.00  0.00    -0.032 C 
ATOM     11  C   UNL     1     -15.741  -0.511  19.009  1.00  0.00     0.011 C 
ATOM     12  C   UNL     1     -16.125  -2.734  20.077  1.00  0.00     0.011 C 
BRANCH  10  13
ATOM     13  C   UNL     1     -13.705  -2.038  19.476  1.00  0.00     0.007 CG0
ATOM     14  G   UNL     1     -12.854  -3.256  18.908  1.00  0.00     0.000 G0
ENDBRANCH  10  13
ENDBRANCH   3  10
BRANCH   1  15
ATOM     15  C   UNL     1     -12.496  -3.363  17.361  1.00  0.00     0.011 C 
BRANCH  15  16
ATOM     16  C   UNL     1     -12.843  -3.245  18.916  1.00  0.00     0.001 CG0
ATOM     17  G   UNL     1     -13.701  -2.029  19.474  1.00  0.00     0.000 G0
ENDBRANCH  15  16
ENDBRANCH   1  15
TORSDOF 0
ENDMDL
MODEL 4
REMARK VINA RESULT:    10.335      2.389      4.067
REMARK INTER + INTRA:          13.253
REMARK INTER:                  12.743
REMARK INTRA:                   0.510
REMARK UNBOUND:                 0.501
REMARK SMILES C=C1[C@@H]2CC[C@H]3[C@H]2C(C)(C)CCC[C@@]13C
REMARK SMILES IDX 14 1 6 2 7 3 3 4 2 5 1 6 4 7 5 8 15 9 8 10 9 11 10 12 11 13
REMARK SMILES IDX 13 15 12 16
REMARK H PARENT
REMARK Flexibility Score: 80.00
ROOT
ATOM      1  C   UNL     1     -13.915  -2.283  16.639  1.00  0.00    -0.008 C 
ATOM      2  C   UNL     1     -14.271  -1.196  17.643  1.00  0.00     0.003 C 
ATOM      3  C   UNL     1     -15.124  -2.035  18.613  1.00  0.00     0.006 C 
ATOM      4  C   UNL     1     -16.215  -2.310  17.592  1.00  0.00     0.019 C 
ATOM      5  C   UNL     1     -15.307  -2.919  16.498  1.00  0.00    -0.068 C 
ATOM      6  C   UNL     1     -15.659  -3.880  15.640  1.00  0.00     0.009 C 
ATOM      7  C   UNL     1     -16.623  -0.919  17.126  1.00  0.00     0.008 C 
ATOM      8  C   UNL     1     -15.297  -0.154  17.136  1.00  0.00     0.005 C 
ATOM      9  C   UNL     1     -13.423  -1.724  15.287  1.00  0.00     0.016 C 
ENDROOT
BRANCH   3  10
ATOM     10  C   UNL     1     -14.569  -1.932  20.051  1.00  0.00    -0.032 C 
ATOM     11  C   UNL     1     -14.656  -0.482  20.576  1.00  0.00     0.011 C 
ATOM     12  C   UNL     1     -15.365  -2.830  21.038  1.00  0.00     0.011 C 
BRANCH  10  13
ATOM     13  C   UNL     1     -13.049  -2.413  19.960  1.00  0.00     0.007 CG0
ATOM     14  G   UNL     1     -12.706  -3.501  18.852  1.00  0.00     0.000 G0
ENDBRANCH  10  13
ENDBRANCH   3  10
BRANCH   1  15
ATOM     15  C   UNL     1     -12.762  -3.165  17.305  1.00  0.00     0.011 C 
BRANCH  15  16
ATOM     16  C   UNL     1     -12.698  -3.501  18.865  1.00  0.00     0.001 CG0
ATOM     17  G   UNL     1     -13.054  -2.401  19.957  1.00  0.00     0.000 G0
ENDBRANCH  15  16
ENDBRANCH   1  15
TORSDOF 0
ENDMDL
MODEL 5
REMARK VINA RESULT:    11.069      1.771      3.203
REMARK INTER + INTRA:          14.158
REMARK INTER:                  13.654
REMARK INTRA:                   0.505
REMARK UNBOUND:                 0.501
REMARK SMILES C=C1[C@@H]2CC[C@H]3[C@H]2C(C)(C)CCC[C@@]13C
REMARK SMILES IDX 14 1 6 2 7 3 3 4 2 5 1 6 4 7 5 8 15 9 8 10 9 11 10 12 11 13
REMARK SMILES IDX 13 15 12 16
REMARK H PARENT
REMARK Flexibility Score: 80.00
ROOT
ATOM      1  C   UNL     1     -15.461  -1.687  16.412  1.00  0.00    -0.008 C 
ATOM      2  C   UNL     1     -15.572  -2.674  17.565  1.00  0.00     0.003 C 
ATOM      3  C   UNL     1     -14.233  -2.376  18.266  1.00  0.00     0.006 C 
ATOM      4  C   UNL     1     -13.388  -2.878  17.108  1.00  0.00     0.019 C 
ATOM      5  C   UNL     1     -14.005  -1.976  16.013  1.00  0.00    -0.068 C 
ATOM      6  C   UNL     1     -13.356  -1.480  14.957  1.00  0.00     0.009 C 
ATOM      7  C   UNL     1     -13.904  -4.292  16.880  1.00  0.00     0.008 C 
ATOM      8  C   UNL     1     -15.401  -4.160  17.168  1.00  0.00     0.005 C 
ATOM      9  C   UNL     1     -16.425  -2.001  15.248  1.00  0.00     0.016 C 
ENDROOT
BRANCH   3  10
ATOM     10  C   UNL     1     -14.469  -1.997  19.745  1.00  0.00    -0.032 C 
ATOM     11  C   UNL     1     -15.129  -3.161  20.518  1.00  0.00     0.011 C 
ATOM     12  C   UNL     1     -13.136  -1.659  20.470  1.00  0.00     0.011 C 
BRANCH  10  13
ATOM     13  C   UNL     1     -15.427  -0.720  19.715  1.00  0.00     0.007 CG0
ATOM     14  G   UNL     1     -15.312   0.233  18.446  1.00  0.00     0.000 G0
ENDBRANCH  10  13
ENDBRANCH   3  10
BRANCH   1  15
ATOM     15  C   UNL     1     -15.793  -0.242  17.008  1.00  0.00     0.011 C 
BRANCH  15  16
ATOM     16  C   UNL     1     -15.328   0.243  18.457  1.00  0.00     0.001 CG0
ATOM     17  G   UNL     1     -15.459  -0.711  19.723  1.00  0.00     0.000 G0
ENDBRANCH  15  16
ENDBRANCH   1  15
TORSDOF 0
ENDMDL
