MODEL 1
REMARK VINA RESULT:    -3.136      0.000      0.000
REMARK INTER + INTRA:          -5.022
REMARK INTER:                  -4.786
REMARK INTRA:                  -0.237
REMARK UNBOUND:                -0.237
REMARK SMILES CC1=CCC[C@@H](C)C(=O)C[C@H](C(C)C)C(=O)C1
REMARK SMILES IDX 8 1 9 2 6 3 7 4 5 5 4 6 3 7 2 8 1 9 10 11 11 12 15 13 16 14
REMARK SMILES IDX 17 15 12 17 13 18 14 19
REMARK H PARENT
REMARK Flexibility Score: 70.00
ROOT
ATOM      1  C   UNL     1     -28.662 -17.304  20.906  1.00  0.00     0.136 C 
ATOM      2  O   UNL     1     -28.341 -18.016  19.964  1.00  0.00    -0.299 OA
ENDROOT
BRANCH   1   3
ATOM      3  C   UNL     1     -27.583 -16.593  21.702  1.00  0.00     0.053 C 
ATOM      4  C   UNL     1     -26.873 -15.549  20.829  1.00  0.00     0.016 C 
BRANCH   3   5
ATOM      5  C   UNL     1     -26.572 -17.612  22.276  1.00  0.00     0.015 C 
BRANCH   5   6
ATOM      6  C   UNL     1     -26.874 -17.942  23.750  1.00  0.00     0.028 C 
BRANCH   6   7
ATOM      7  C   UNL     1     -27.518 -16.800  24.499  1.00  0.00    -0.028 C 
ATOM      8  C   UNL     1     -28.822 -16.735  24.865  1.00  0.00    -0.070 CG0
ATOM      9  C   UNL     1     -29.301 -15.461  25.518  1.00  0.00     0.039 C 
ATOM     10  G   UNL     1     -29.806 -17.886  24.700  1.00  0.00     0.000 G0
ENDBRANCH   6   7
ENDBRANCH   5   6
ENDBRANCH   3   5
ENDBRANCH   1   3
BRANCH   1  11
ATOM     11  C   UNL     1     -30.128 -17.147  21.243  1.00  0.00     0.087 C 
BRANCH  11  12
ATOM     12  C   UNL     1     -30.617 -18.235  22.234  1.00  0.00     0.066 C 
BRANCH  12  13
ATOM     13  C   UNL     1     -30.843 -17.653  23.621  1.00  0.00     0.140 C 
ATOM     14  O   UNL     1     -31.864 -17.028  23.875  1.00  0.00    -0.299 OA
BRANCH  13  15
ATOM     15  C   UNL     1     -29.815 -17.874  24.703  1.00  0.00     0.106 CG0
ATOM     16  G   UNL     1     -28.817 -16.733  24.854  1.00  0.00     0.000 G0
ENDBRANCH  13  15
ENDBRANCH  12  13
BRANCH  12  17
ATOM     17  C   UNL     1     -31.827 -19.048  21.675  1.00  0.00    -0.006 C 
ATOM     18  C   UNL     1     -31.580 -19.510  20.230  1.00  0.00     0.008 C 
ATOM     19  C   UNL     1     -32.261 -20.236  22.552  1.00  0.00     0.008 C 
ENDBRANCH  12  17
ENDBRANCH  11  12
ENDBRANCH   1  11
TORSDOF 1
ENDMDL
MODEL 2
REMARK VINA RESULT:    -3.048      1.878      4.327
REMARK INTER + INTRA:          -4.889
REMARK INTER:                  -4.745
REMARK INTRA:                  -0.144
REMARK UNBOUND:                -0.237
REMARK SMILES CC1=CCC[C@@H](C)C(=O)C[C@H](C(C)C)C(=O)C1
REMARK SMILES IDX 8 1 9 2 6 3 7 4 5 5 4 6 3 7 2 8 1 9 10 11 11 12 15 13 16 14
REMARK SMILES IDX 17 15 12 17 13 18 14 19
REMARK H PARENT
REMARK Flexibility Score: 70.00
ROOT
ATOM      1  C   UNL     1     -30.630 -18.377  20.159  1.00  0.00     0.136 C 
ATOM      2  O   UNL     1     -30.868 -18.015  19.015  1.00  0.00    -0.299 OA
ENDROOT
BRANCH   1   3
ATOM      3  C   UNL     1     -31.781 -18.739  21.079  1.00  0.00     0.053 C 
ATOM      4  C   UNL     1     -32.396 -20.083  20.666  1.00  0.00     0.016 C 
BRANCH   3   5
ATOM      5  C   UNL     1     -32.849 -17.620  21.079  1.00  0.00     0.015 C 
BRANCH   5   6
ATOM      6  C   UNL     1     -32.486 -16.489  22.059  1.00  0.00     0.028 C 
BRANCH   6   7
ATOM      7  C   UNL     1     -32.122 -16.987  23.438  1.00  0.00    -0.028 C 
ATOM      8  C   UNL     1     -30.890 -16.917  24.001  1.00  0.00    -0.070 CG0
ATOM      9  C   UNL     1     -30.702 -17.564  25.351  1.00  0.00     0.039 C 
ATOM     10  G   UNL     1     -29.713 -16.184  23.371  1.00  0.00     0.000 G0
ENDBRANCH   6   7
ENDBRANCH   5   6
ENDBRANCH   3   5
ENDBRANCH   1   3
BRANCH   1  11
ATOM     11  C   UNL     1     -29.192 -18.461  20.619  1.00  0.00     0.087 C 
BRANCH  11  12
ATOM     12  C   UNL     1     -28.671 -17.101  21.150  1.00  0.00     0.066 C 
BRANCH  12  13
ATOM     13  C   UNL     1     -28.700 -17.057  22.671  1.00  0.00     0.140 C 
ATOM     14  O   UNL     1     -27.909 -17.720  23.328  1.00  0.00    -0.299 OA
BRANCH  13  15
ATOM     15  C   UNL     1     -29.692 -16.165  23.376  1.00  0.00     0.106 CG0
ATOM     16  G   UNL     1     -30.875 -16.908  23.982  1.00  0.00     0.000 G0
ENDBRANCH  13  15
ENDBRANCH  12  13
BRANCH  12  17
ATOM     17  C   UNL     1     -27.296 -16.706  20.525  1.00  0.00    -0.006 C 
ATOM     18  C   UNL     1     -27.454 -16.207  19.080  1.00  0.00     0.008 C 
ATOM     19  C   UNL     1     -26.480 -15.698  21.354  1.00  0.00     0.008 C 
ENDBRANCH  12  17
ENDBRANCH  11  12
ENDBRANCH   1  11
TORSDOF 1
ENDMDL
MODEL 3
REMARK VINA RESULT:    -2.939      3.121      4.815
REMARK INTER + INTRA:          -4.721
REMARK INTER:                  -4.609
REMARK INTRA:                  -0.113
REMARK UNBOUND:                -0.237
REMARK SMILES CC1=CCC[C@@H](C)C(=O)C[C@H](C(C)C)C(=O)C1
REMARK SMILES IDX 8 1 9 2 6 3 7 4 5 5 4 6 3 7 2 8 1 9 10 11 11 12 15 13 16 14
REMARK SMILES IDX 17 15 12 17 13 18 14 19
REMARK H PARENT
REMARK Flexibility Score: 70.00
ROOT
ATOM      1  C   UNL     1     -30.892 -17.411  23.848  1.00  0.00     0.136 C 
ATOM      2  O   UNL     1     -30.366 -18.283  24.527  1.00  0.00    -0.299 OA
ENDROOT
BRANCH   1   3
ATOM      3  C   UNL     1     -31.510 -16.207  24.534  1.00  0.00     0.053 C 
ATOM      4  C   UNL     1     -30.674 -15.796  25.754  1.00  0.00     0.016 C 
BRANCH   3   5
ATOM      5  C   UNL     1     -32.972 -16.506  24.941  1.00  0.00     0.015 C 
BRANCH   5   6
ATOM      6  C   UNL     1     -33.945 -15.456  24.374  1.00  0.00     0.028 C 
BRANCH   6   7
ATOM      7  C   UNL     1     -33.316 -14.553  23.341  1.00  0.00    -0.028 C 
ATOM      8  C   UNL     1     -33.229 -14.816  22.013  1.00  0.00    -0.070 CG0
ATOM      9  C   UNL     1     -32.469 -13.834  21.155  1.00  0.00     0.039 C 
ATOM     10  G   UNL     1     -33.895 -16.010  21.342  1.00  0.00     0.000 G0
ENDBRANCH   6   7
ENDBRANCH   5   6
ENDBRANCH   3   5
ENDBRANCH   1   3
BRANCH   1  11
ATOM     11  C   UNL     1     -30.901 -17.558  22.343  1.00  0.00     0.087 C 
BRANCH  11  12
ATOM     12  C   UNL     1     -32.277 -18.038  21.814  1.00  0.00     0.066 C 
BRANCH  12  13
ATOM     13  C   UNL     1     -32.869 -17.036  20.833  1.00  0.00     0.140 C 
ATOM     14  O   UNL     1     -32.565 -17.070  19.649  1.00  0.00    -0.299 OA
BRANCH  13  15
ATOM     15  C   UNL     1     -33.864 -16.012  21.319  1.00  0.00     0.106 CG0
ATOM     16  G   UNL     1     -33.234 -14.820  22.028  1.00  0.00     0.000 G0
ENDBRANCH  13  15
ENDBRANCH  12  13
BRANCH  12  17
ATOM     17  C   UNL     1     -32.230 -19.505  21.281  1.00  0.00    -0.006 C 
ATOM     18  C   UNL     1     -30.957 -19.769  20.462  1.00  0.00     0.008 C 
ATOM     19  C   UNL     1     -32.407 -20.586  22.362  1.00  0.00     0.008 C 
ENDBRANCH  12  17
ENDBRANCH  11  12
ENDBRANCH   1  11
TORSDOF 1
ENDMDL
MODEL 4
REMARK VINA RESULT:    -2.919      2.905      5.738
REMARK INTER + INTRA:          -4.691
REMARK INTER:                  -4.327
REMARK INTRA:                  -0.364
REMARK UNBOUND:                -0.237
REMARK SMILES CC1=CCC[C@@H](C)C(=O)C[C@H](C(C)C)C(=O)C1
REMARK SMILES IDX 8 1 9 2 6 3 7 4 5 5 4 6 3 7 2 8 1 9 10 11 11 12 15 13 16 14
REMARK SMILES IDX 17 15 12 17 13 18 14 19
REMARK H PARENT
REMARK Flexibility Score: 70.00
ROOT
ATOM      1  C   UNL     1     -32.623 -14.782  26.101  1.00  0.00     0.136 C 
ATOM      2  O   UNL     1     -33.125 -14.323  27.118  1.00  0.00    -0.299 OA
ENDROOT
BRANCH   1   3
ATOM      3  C   UNL     1     -33.450 -14.861  24.832  1.00  0.00     0.053 C 
ATOM      4  C   UNL     1     -34.083 -16.252  24.690  1.00  0.00     0.016 C 
BRANCH   3   5
ATOM      5  C   UNL     1     -32.584 -14.520  23.597  1.00  0.00     0.015 C 
BRANCH   5   6
ATOM      6  C   UNL     1     -32.259 -15.775  22.767  1.00  0.00     0.028 C 
BRANCH   6   7
ATOM      7  C   UNL     1     -30.779 -15.985  22.554  1.00  0.00    -0.028 C 
ATOM      8  C   UNL     1     -29.991 -16.828  23.268  1.00  0.00    -0.070 CG0
ATOM      9  C   UNL     1     -28.512 -16.820  22.971  1.00  0.00     0.039 C 
ATOM     10  G   UNL     1     -30.524 -17.807  24.306  1.00  0.00     0.000 G0
ENDBRANCH   6   7
ENDBRANCH   5   6
ENDBRANCH   3   5
ENDBRANCH   1   3
BRANCH   1  11
ATOM     11  C   UNL     1     -31.185 -15.251  26.140  1.00  0.00     0.087 C 
BRANCH  11  12
ATOM     12  C   UNL     1     -31.064 -16.716  26.632  1.00  0.00     0.066 C 
BRANCH  12  13
ATOM     13  C   UNL     1     -30.131 -17.521  25.738  1.00  0.00     0.140 C 
ATOM     14  O   UNL     1     -29.072 -17.952  26.172  1.00  0.00    -0.299 OA
BRANCH  13  15
ATOM     15  C   UNL     1     -30.531 -17.818  24.314  1.00  0.00     0.106 CG0
ATOM     16  G   UNL     1     -30.007 -16.809  23.299  1.00  0.00     0.000 G0
ENDBRANCH  13  15
ENDBRANCH  12  13
BRANCH  12  17
ATOM     17  C   UNL     1     -30.728 -16.807  28.154  1.00  0.00    -0.006 C 
ATOM     18  C   UNL     1     -29.979 -15.558  28.645  1.00  0.00     0.008 C 
ATOM     19  C   UNL     1     -31.937 -17.098  29.062  1.00  0.00     0.008 C 
ENDBRANCH  12  17
ENDBRANCH  11  12
ENDBRANCH   1  11
TORSDOF 1
ENDMDL
MODEL 5
REMARK VINA RESULT:    -2.914      2.977      5.299
REMARK INTER + INTRA:          -4.684
REMARK INTER:                  -4.388
REMARK INTRA:                  -0.296
REMARK UNBOUND:                -0.237
REMARK SMILES CC1=CCC[C@@H](C)C(=O)C[C@H](C(C)C)C(=O)C1
REMARK SMILES IDX 8 1 9 2 6 3 7 4 5 5 4 6 3 7 2 8 1 9 10 11 11 12 15 13 16 14
REMARK SMILES IDX 17 15 12 17 13 18 14 19
REMARK H PARENT
REMARK Flexibility Score: 70.00
ROOT
ATOM      1  C   UNL     1     -32.003 -19.333  22.502  1.00  0.00     0.136 C 
ATOM      2  O   UNL     1     -31.500 -20.039  23.365  1.00  0.00    -0.299 OA
ENDROOT
BRANCH   1   3
ATOM      3  C   UNL     1     -32.131 -19.864  21.087  1.00  0.00     0.053 C 
ATOM      4  C   UNL     1     -32.762 -21.263  21.094  1.00  0.00     0.016 C 
BRANCH   3   5
ATOM      5  C   UNL     1     -30.752 -19.884  20.388  1.00  0.00     0.015 C 
BRANCH   5   6
ATOM      6  C   UNL     1     -30.457 -18.551  19.676  1.00  0.00     0.028 C 
BRANCH   6   7
ATOM      7  C   UNL     1     -31.695 -17.873  19.139  1.00  0.00    -0.028 C 
ATOM      8  C   UNL     1     -32.143 -16.646  19.506  1.00  0.00    -0.070 CG0
ATOM      9  C   UNL     1     -33.459 -16.184  18.932  1.00  0.00     0.039 C 
ATOM     10  G   UNL     1     -31.370 -15.701  20.417  1.00  0.00     0.000 G0
ENDBRANCH   6   7
ENDBRANCH   5   6
ENDBRANCH   3   5
ENDBRANCH   1   3
BRANCH   1  11
ATOM     11  C   UNL     1     -32.491 -17.951  22.877  1.00  0.00     0.087 C 
BRANCH  11  12
ATOM     12  C   UNL     1     -31.373 -16.885  22.751  1.00  0.00     0.066 C 
BRANCH  12  13
ATOM     13  C   UNL     1     -31.809 -15.732  21.858  1.00  0.00     0.140 C 
ATOM     14  O   UNL     1     -32.497 -14.826  22.305  1.00  0.00    -0.299 OA
BRANCH  13  15
ATOM     15  C   UNL     1     -31.364 -15.691  20.417  1.00  0.00     0.106 CG0
ATOM     16  G   UNL     1     -32.128 -16.640  19.503  1.00  0.00     0.000 G0
ENDBRANCH  13  15
ENDBRANCH  12  13
BRANCH  12  17
ATOM     17  C   UNL     1     -30.813 -16.443  24.140  1.00  0.00    -0.006 C 
ATOM     18  C   UNL     1     -31.891 -16.515  25.234  1.00  0.00     0.008 C 
ATOM     19  C   UNL     1     -29.543 -17.189  24.587  1.00  0.00     0.008 C 
ENDBRANCH  12  17
ENDBRANCH  11  12
ENDBRANCH   1  11
TORSDOF 1
ENDMDL
MODEL 6
REMARK VINA RESULT:    -2.795      3.338      5.378
REMARK INTER + INTRA:          -4.503
REMARK INTER:                  -4.219
REMARK INTRA:                  -0.284
REMARK UNBOUND:                -0.237
REMARK SMILES CC1=CCC[C@@H](C)C(=O)C[C@H](C(C)C)C(=O)C1
REMARK SMILES IDX 8 1 9 2 6 3 7 4 5 5 4 6 3 7 2 8 1 9 10 11 11 12 15 13 16 14
REMARK SMILES IDX 17 15 12 17 13 18 14 19
REMARK H PARENT
REMARK Flexibility Score: 70.00
ROOT
ATOM      1  C   UNL     1     -30.324 -17.617  26.875  1.00  0.00     0.136 C 
ATOM      2  O   UNL     1     -30.784 -18.724  27.125  1.00  0.00    -0.299 OA
ENDROOT
BRANCH   1   3
ATOM      3  C   UNL     1     -30.110 -16.629  28.006  1.00  0.00     0.053 C 
ATOM      4  C   UNL     1     -28.911 -17.051  28.867  1.00  0.00     0.016 C 
BRANCH   3   5
ATOM      5  C   UNL     1     -31.389 -16.501  28.865  1.00  0.00     0.015 C 
BRANCH   5   6
ATOM      6  C   UNL     1     -32.487 -15.708  28.133  1.00  0.00     0.028 C 
BRANCH   6   7
ATOM      7  C   UNL     1     -32.124 -14.262  27.897  1.00  0.00    -0.028 C 
ATOM      8  C   UNL     1     -31.979 -13.674  26.683  1.00  0.00    -0.070 CG0
ATOM      9  C   UNL     1     -31.510 -12.240  26.653  1.00  0.00     0.039 C 
ATOM     10  G   UNL     1     -32.310 -14.363  25.365  1.00  0.00     0.000 G0
ENDBRANCH   6   7
ENDBRANCH   5   6
ENDBRANCH   3   5
ENDBRANCH   1   3
BRANCH   1  11
ATOM     11  C   UNL     1     -29.977 -17.272  25.444  1.00  0.00     0.087 C 
BRANCH  11  12
ATOM     12  C   UNL     1     -31.175 -16.640  24.691  1.00  0.00     0.066 C 
BRANCH  12  13
ATOM     13  C   UNL     1     -31.129 -15.120  24.760  1.00  0.00     0.140 C 
ATOM     14  O   UNL     1     -30.168 -14.506  24.317  1.00  0.00    -0.299 OA
BRANCH  13  15
ATOM     15  C   UNL     1     -32.291 -14.362  25.352  1.00  0.00     0.106 CG0
ATOM     16  G   UNL     1     -31.974 -13.668  26.670  1.00  0.00     0.000 G0
ENDBRANCH  13  15
ENDBRANCH  12  13
BRANCH  12  17
ATOM     17  C   UNL     1     -31.337 -17.210  23.246  1.00  0.00    -0.006 C 
ATOM     18  C   UNL     1     -31.561 -18.730  23.259  1.00  0.00     0.008 C 
ATOM     19  C   UNL     1     -32.419 -16.515  22.399  1.00  0.00     0.008 C 
ENDBRANCH  12  17
ENDBRANCH  11  12
ENDBRANCH   1  11
TORSDOF 1
ENDMDL
MODEL 7
REMARK VINA RESULT:    -2.761      3.331      5.264
REMARK INTER + INTRA:          -4.451
REMARK INTER:                  -4.755
REMARK INTRA:                   0.305
REMARK UNBOUND:                -0.237
REMARK SMILES CC1=CCC[C@@H](C)C(=O)C[C@H](C(C)C)C(=O)C1
REMARK SMILES IDX 8 1 9 2 6 3 7 4 5 5 4 6 3 7 2 8 1 9 10 11 11 12 15 13 16 14
REMARK SMILES IDX 17 15 12 17 13 18 14 19
REMARK H PARENT
REMARK Flexibility Score: 70.00
ROOT
ATOM      1  C   UNL     1     -32.003 -18.762  22.622  1.00  0.00     0.136 C 
ATOM      2  O   UNL     1     -30.942 -18.661  23.224  1.00  0.00    -0.299 OA
ENDROOT
BRANCH   1   3
ATOM      3  C   UNL     1     -32.259 -19.987  21.765  1.00  0.00     0.053 C 
ATOM      4  C   UNL     1     -32.440 -21.230  22.648  1.00  0.00     0.016 C 
BRANCH   3   5
ATOM      5  C   UNL     1     -31.108 -20.191  20.753  1.00  0.00     0.015 C 
BRANCH   5   6
ATOM      6  C   UNL     1     -31.088 -19.082  19.685  1.00  0.00     0.028 C 
BRANCH   6   7
ATOM      7  C   UNL     1     -30.084 -17.991  19.974  1.00  0.00    -0.028 C 
ATOM      8  C   UNL     1     -30.315 -16.659  19.866  1.00  0.00    -0.070 CG0
ATOM      9  C   UNL     1     -29.151 -15.728  20.099  1.00  0.00     0.039 C 
ATOM     10  G   UNL     1     -31.685 -16.060  19.573  1.00  0.00     0.000 G0
ENDBRANCH   6   7
ENDBRANCH   5   6
ENDBRANCH   3   5
ENDBRANCH   1   3
BRANCH   1  11
ATOM     11  C   UNL     1     -33.033 -17.662  22.760  1.00  0.00     0.087 C 
BRANCH  11  12
ATOM     12  C   UNL     1     -32.609 -16.372  22.011  1.00  0.00     0.066 C 
BRANCH  12  13
ATOM     13  C   UNL     1     -32.789 -16.525  20.507  1.00  0.00     0.140 C 
ATOM     14  O   UNL     1     -33.819 -16.999  20.049  1.00  0.00    -0.299 OA
BRANCH  13  15
ATOM     15  C   UNL     1     -31.700 -16.061  19.572  1.00  0.00     0.106 CG0
ATOM     16  G   UNL     1     -30.328 -16.648  19.875  1.00  0.00     0.000 G0
ENDBRANCH  13  15
ENDBRANCH  12  13
BRANCH  12  17
ATOM     17  C   UNL     1     -33.275 -15.092  22.608  1.00  0.00    -0.006 C 
ATOM     18  C   UNL     1     -33.625 -15.276  24.093  1.00  0.00     0.008 C 
ATOM     19  C   UNL     1     -32.470 -13.795  22.402  1.00  0.00     0.008 C 
ENDBRANCH  12  17
ENDBRANCH  11  12
ENDBRANCH   1  11
TORSDOF 1
ENDMDL
MODEL 8
REMARK VINA RESULT:    -2.756      1.567      2.187
REMARK INTER + INTRA:          -4.442
REMARK INTER:                  -4.343
REMARK INTRA:                  -0.099
REMARK UNBOUND:                -0.237
REMARK SMILES CC1=CCC[C@@H](C)C(=O)C[C@H](C(C)C)C(=O)C1
REMARK SMILES IDX 8 1 9 2 6 3 7 4 5 5 4 6 3 7 2 8 1 9 10 11 11 12 15 13 16 14
REMARK SMILES IDX 17 15 12 17 13 18 14 19
REMARK H PARENT
REMARK Flexibility Score: 70.00
ROOT
ATOM      1  C   UNL     1     -27.871 -17.454  21.893  1.00  0.00     0.136 C 
ATOM      2  O   UNL     1     -26.936 -18.208  21.658  1.00  0.00    -0.299 OA
ENDROOT
BRANCH   1   3
ATOM      3  C   UNL     1     -27.818 -16.565  23.121  1.00  0.00     0.053 C 
ATOM      4  C   UNL     1     -26.684 -15.539  22.993  1.00  0.00     0.016 C 
BRANCH   3   5
ATOM      5  C   UNL     1     -27.650 -17.417  24.401  1.00  0.00     0.015 C 
BRANCH   5   6
ATOM      6  C   UNL     1     -28.989 -17.604  25.138  1.00  0.00     0.028 C 
BRANCH   6   7
ATOM      7  C   UNL     1     -29.872 -16.380  25.096  1.00  0.00    -0.028 C 
ATOM      8  C   UNL     1     -30.993 -16.242  24.345  1.00  0.00    -0.070 CG0
ATOM      9  C   UNL     1     -31.683 -14.900  24.361  1.00  0.00     0.039 C 
ATOM     10  G   UNL     1     -31.613 -17.373  23.535  1.00  0.00     0.000 G0
ENDBRANCH   6   7
ENDBRANCH   5   6
ENDBRANCH   3   5
ENDBRANCH   1   3
BRANCH   1  11
ATOM     11  C   UNL     1     -29.048 -17.425  20.943  1.00  0.00     0.087 C 
BRANCH  11  12
ATOM     12  C   UNL     1     -30.251 -18.240  21.484  1.00  0.00     0.066 C 
BRANCH  12  13
ATOM     13  C   UNL     1     -31.321 -17.325  22.061  1.00  0.00     0.140 C 
ATOM     14  O   UNL     1     -31.951 -16.569  21.335  1.00  0.00    -0.299 OA
BRANCH  13  15
ATOM     15  C   UNL     1     -31.629 -17.372  23.537  1.00  0.00     0.106 CG0
ATOM     16  G   UNL     1     -30.997 -16.243  24.340  1.00  0.00     0.000 G0
ENDBRANCH  13  15
ENDBRANCH  12  13
BRANCH  12  17
ATOM     17  C   UNL     1     -30.786 -19.273  20.441  1.00  0.00    -0.006 C 
ATOM     18  C   UNL     1     -32.112 -19.901  20.896  1.00  0.00     0.008 C 
ATOM     19  C   UNL     1     -30.914 -18.729  19.007  1.00  0.00     0.008 C 
ENDBRANCH  12  17
ENDBRANCH  11  12
ENDBRANCH   1  11
TORSDOF 1
ENDMDL
MODEL 9
REMARK VINA RESULT:    -2.692      3.303      5.097
REMARK INTER + INTRA:          -4.345
REMARK INTER:                  -4.116
REMARK INTRA:                  -0.229
REMARK UNBOUND:                -0.237
REMARK SMILES CC1=CCC[C@@H](C)C(=O)C[C@H](C(C)C)C(=O)C1
REMARK SMILES IDX 8 1 9 2 6 3 7 4 5 5 4 6 3 7 2 8 1 9 10 11 11 12 15 13 16 14
REMARK SMILES IDX 17 15 12 17 13 18 14 19
REMARK H PARENT
REMARK Flexibility Score: 70.00
ROOT
ATOM      1  C   UNL     1     -32.867 -16.758  23.328  1.00  0.00     0.136 C 
ATOM      2  O   UNL     1     -33.905 -17.131  23.858  1.00  0.00    -0.299 OA
ENDROOT
BRANCH   1   3
ATOM      3  C   UNL     1     -32.530 -15.279  23.311  1.00  0.00     0.053 C 
ATOM      4  C   UNL     1     -32.471 -14.726  24.741  1.00  0.00     0.016 C 
BRANCH   3   5
ATOM      5  C   UNL     1     -33.556 -14.498  22.459  1.00  0.00     0.015 C 
BRANCH   5   6
ATOM      6  C   UNL     1     -33.135 -14.435  20.979  1.00  0.00     0.028 C 
BRANCH   6   7
ATOM      7  C   UNL     1     -31.682 -14.075  20.785  1.00  0.00    -0.028 C 
ATOM      8  C   UNL     1     -30.744 -14.868  20.208  1.00  0.00    -0.070 CG0
ATOM      9  C   UNL     1     -29.319 -14.370  20.200  1.00  0.00     0.039 C 
ATOM     10  G   UNL     1     -31.059 -16.195  19.532  1.00  0.00     0.000 G0
ENDBRANCH   6   7
ENDBRANCH   5   6
ENDBRANCH   3   5
ENDBRANCH   1   3
BRANCH   1  11
ATOM     11  C   UNL     1     -31.947 -17.788  22.710  1.00  0.00     0.087 C 
BRANCH  11  12
ATOM     12  C   UNL     1     -32.147 -17.902  21.177  1.00  0.00     0.066 C 
BRANCH  12  13
ATOM     13  C   UNL     1     -30.922 -17.404  20.424  1.00  0.00     0.140 C 
ATOM     14  O   UNL     1     -29.851 -17.986  20.524  1.00  0.00    -0.299 OA
BRANCH  13  15
ATOM     15  C   UNL     1     -31.036 -16.200  19.523  1.00  0.00     0.106 CG0
ATOM     16  G   UNL     1     -30.744 -14.875  20.215  1.00  0.00     0.000 G0
ENDBRANCH  13  15
ENDBRANCH  12  13
BRANCH  12  17
ATOM     17  C   UNL     1     -32.630 -19.323  20.745  1.00  0.00    -0.006 C 
ATOM     18  C   UNL     1     -32.631 -19.480  19.216  1.00  0.00     0.008 C 
ATOM     19  C   UNL     1     -31.870 -20.488  21.404  1.00  0.00     0.008 C 
ENDBRANCH  12  17
ENDBRANCH  11  12
ENDBRANCH   1  11
TORSDOF 1
ENDMDL
