MODEL 1
REMARK VINA RESULT:    -8.169      0.000      0.000
REMARK INTER + INTRA:         -15.189
REMARK INTER:                 -13.421
REMARK INTRA:                  -1.768
REMARK UNBOUND:                -1.768
REMARK SMILES C[C@H]1O[C@H](OC[C@H]2O[C@H](Oc3c(-c4ccc(O)c(O)c4)oc4cc(O)cc(O)c4c3=O)[C@@H](O)[C@H](O)[C@H]2O)[C@@H](O)[C@@H](O)[C@H]1O
REMARK SMILES IDX 7 1 36 2 34 3 32 4 9 5 8 6 6 7 5 8 4 9 1 10 2 11 42 12 3 13
REMARK SMILES IDX 40 14 38 15 43 16 41 18 39 20 37 22 35 24 10 26 11 27 12 28
REMARK SMILES IDX 30 29 21 30 29 31 31 32 22 33 27 34 23 35 26 36 24 37 13 38
REMARK SMILES IDX 20 39 14 40 18 41 15 42 16 43 19 44 17 46 28 48 25 50 33 52
REMARK H PARENT 43 17 41 19 39 21 37 23 35 25 19 45 17 47 28 49 25 51 33 53
REMARK Flexibility Score: inf
ROOT
ATOM      1  C   UNL     1     143.302 125.793 145.480  1.00  0.00     0.180 C 
ATOM      2  C   UNL     1     143.713 124.345 145.882  1.00  0.00     0.177 C 
ATOM      3  C   UNL     1     145.101 123.960 145.323  1.00  0.00     0.180 C 
ATOM      4  C   UNL     1     145.345 124.575 143.924  1.00  0.00     0.214 C 
ATOM      5  C   UNL     1     144.038 125.108 143.285  1.00  0.00     0.339 C 
ATOM      6  O   UNL     1     143.352 126.064 144.079  1.00  0.00    -0.332 OA
ENDROOT
BRANCH   1   7
ATOM      7  C   UNL     1     144.091 126.886 146.230  1.00  0.00     0.198 C 
BRANCH   7   8
ATOM      8  O   UNL     1     143.890 126.773 147.632  1.00  0.00    -0.347 OA
BRANCH   8   9
ATOM      9  C   UNL     1     142.543 127.043 148.001  1.00  0.00     0.281 C 
ATOM     10  C   UNL     1     142.507 125.273 151.228  1.00  0.00     0.041 C 
ATOM     11  C   UNL     1     142.908 126.347 150.220  1.00  0.00     0.150 C 
ATOM     12  C   UNL     1     142.709 127.767 150.798  1.00  0.00     0.174 C 
ATOM     13  O   UNL     1     142.134 126.167 149.042  1.00  0.00    -0.344 OA
ATOM     14  C   UNL     1     143.098 128.803 149.735  1.00  0.00     0.179 C 
ATOM     15  C   UNL     1     142.368 128.526 148.409  1.00  0.00     0.202 C 
BRANCH  12  16
ATOM     16  O   UNL     1     141.367 127.964 151.182  1.00  0.00    -0.388 OA
ATOM     17  H   UNL     1     140.847 127.190 150.837  1.00  0.00     0.211 HD
ENDBRANCH  12  16
BRANCH  14  18
ATOM     18  O   UNL     1     142.800 130.096 150.197  1.00  0.00    -0.387 OA
ATOM     19  H   UNL     1     142.568 130.007 151.156  1.00  0.00     0.211 HD
ENDBRANCH  14  18
BRANCH  15  20
ATOM     20  O   UNL     1     141.003 128.830 148.541  1.00  0.00    -0.385 OA
ATOM     21  H   UNL     1     140.886 129.757 148.202  1.00  0.00     0.211 HD
ENDBRANCH  15  20
ENDBRANCH   8   9
ENDBRANCH   7   8
ENDBRANCH   1   7
BRANCH   2  22
ATOM     22  O   UNL     1     143.640 124.136 147.273  1.00  0.00    -0.387 OA
ATOM     23  H   UNL     1     144.102 123.289 147.483  1.00  0.00     0.211 HD
ENDBRANCH   2  22
BRANCH   3  24
ATOM     24  O   UNL     1     145.195 122.560 145.238  1.00  0.00    -0.387 OA
ATOM     25  H   UNL     1     145.990 122.354 144.681  1.00  0.00     0.211 HD
ENDBRANCH   3  24
BRANCH   5  26
ATOM     26  O   UNL     1     143.155 124.027 142.970  1.00  0.00    -0.454 OA
BRANCH  26  27
ATOM     27  C   UNL     1     142.217 124.098 141.931  1.00  0.00     0.214 A 
ATOM     28  C   UNL     1     142.615 124.171 140.583  1.00  0.00     0.180 A 
ATOM     29  C   UNL     1     140.855 124.091 142.241  1.00  0.00     0.239 A 
ATOM     30  O   UNL     1     141.697 124.149 139.625  1.00  0.00    -0.452 OA
ATOM     31  C   UNL     1     139.894 124.072 141.200  1.00  0.00     0.111 A 
ATOM     32  O   UNL     1     140.522 124.102 143.455  1.00  0.00    -0.285 OA
ATOM     33  C   UNL     1     140.392 124.102 139.868  1.00  0.00     0.146 A 
ATOM     34  C   UNL     1     138.477 124.027 141.393  1.00  0.00     0.134 A 
ATOM     35  C   UNL     1     139.516 124.103 138.779  1.00  0.00     0.094 A 
ATOM     36  C   UNL     1     137.628 124.065 140.279  1.00  0.00     0.093 A 
ATOM     37  C   UNL     1     138.139 124.098 138.979  1.00  0.00     0.123 A 
BRANCH  28  38
ATOM     38  C   UNL     1     144.036 124.293 140.194  1.00  0.00     0.025 A 
ATOM     39  C   UNL     1     144.547 125.508 139.702  1.00  0.00     0.062 A 
ATOM     40  C   UNL     1     144.898 123.194 140.334  1.00  0.00     0.016 A 
ATOM     41  C   UNL     1     145.905 125.629 139.374  1.00  0.00     0.158 A 
ATOM     42  C   UNL     1     146.256 123.316 140.025  1.00  0.00     0.051 A 
ATOM     43  C   UNL     1     146.764 124.531 139.548  1.00  0.00     0.157 A 
BRANCH  41  44
ATOM     44  O   UNL     1     146.404 126.835 138.876  1.00  0.00    -0.504 OA
ATOM     45  H   UNL     1     146.711 126.924 137.914  1.00  0.00     0.293 HD
ENDBRANCH  41  44
BRANCH  43  46
ATOM     46  O   UNL     1     148.125 124.624 139.251  1.00  0.00    -0.504 OA
ATOM     47  H   UNL     1     148.459 125.041 138.388  1.00  0.00     0.293 HD
ENDBRANCH  43  46
ENDBRANCH  28  38
BRANCH  34  48
ATOM     48  O   UNL     1     137.849 123.934 142.641  1.00  0.00    -0.507 OA
ATOM     49  H   UNL     1     137.011 124.421 142.918  1.00  0.00     0.293 HD
ENDBRANCH  34  48
BRANCH  37  50
ATOM     50  O   UNL     1     137.283 124.120 137.878  1.00  0.00    -0.508 OA
ATOM     51  H   UNL     1     137.472 123.569 137.048  1.00  0.00     0.293 HD
ENDBRANCH  37  50
ENDBRANCH  26  27
ENDBRANCH   5  26
BRANCH   4  52
ATOM     52  O   UNL     1     146.291 125.613 144.027  1.00  0.00    -0.384 OA
ATOM     53  H   UNL     1     146.730 125.704 143.142  1.00  0.00     0.211 HD
ENDBRANCH   4  52
TORSDOF 16
ENDMDL
MODEL 2
REMARK VINA RESULT:    -8.160      3.857      8.540
REMARK INTER + INTRA:         -15.176
REMARK INTER:                 -13.110
REMARK INTRA:                  -2.065
REMARK UNBOUND:                -1.768
REMARK SMILES C[C@H]1O[C@H](OC[C@H]2O[C@H](Oc3c(-c4ccc(O)c(O)c4)oc4cc(O)cc(O)c4c3=O)[C@@H](O)[C@H](O)[C@H]2O)[C@@H](O)[C@@H](O)[C@H]1O
REMARK SMILES IDX 7 1 36 2 34 3 32 4 9 5 8 6 6 7 5 8 4 9 1 10 2 11 42 12 3 13
REMARK SMILES IDX 40 14 38 15 43 16 41 18 39 20 37 22 35 24 10 26 11 27 12 28
REMARK SMILES IDX 30 29 21 30 29 31 31 32 22 33 27 34 23 35 26 36 24 37 13 38
REMARK SMILES IDX 20 39 14 40 18 41 15 42 16 43 19 44 17 46 28 48 25 50 33 52
REMARK H PARENT 43 17 41 19 39 21 37 23 35 25 19 45 17 47 28 49 25 51 33 53
REMARK Flexibility Score: inf
ROOT
ATOM      1  C   UNL     1     139.509 130.246 147.180  1.00  0.00     0.180 C 
ATOM      2  C   UNL     1     139.361 129.491 148.536  1.00  0.00     0.177 C 
ATOM      3  C   UNL     1     140.466 129.883 149.541  1.00  0.00     0.180 C 
ATOM      4  C   UNL     1     141.818 130.141 148.835  1.00  0.00     0.214 C 
ATOM      5  C   UNL     1     141.828 129.605 147.381  1.00  0.00     0.339 C 
ATOM      6  O   UNL     1     140.791 130.127 146.563  1.00  0.00    -0.332 OA
ENDROOT
BRANCH   1   7
ATOM      7  C   UNL     1     139.132 131.740 147.266  1.00  0.00     0.198 C 
BRANCH   7   8
ATOM      8  O   UNL     1     139.839 132.490 146.288  1.00  0.00    -0.347 OA
BRANCH   8   9
ATOM      9  C   UNL     1     140.754 133.406 146.878  1.00  0.00     0.281 C 
ATOM     10  C   UNL     1     143.439 133.171 144.371  1.00  0.00     0.041 C 
ATOM     11  C   UNL     1     142.058 133.517 144.922  1.00  0.00     0.150 C 
ATOM     12  C   UNL     1     141.696 134.995 144.651  1.00  0.00     0.174 C 
ATOM     13  O   UNL     1     142.048 133.240 146.315  1.00  0.00    -0.344 OA
ATOM     14  C   UNL     1     140.315 135.294 145.249  1.00  0.00     0.179 C 
ATOM     15  C   UNL     1     140.254 134.862 146.725  1.00  0.00     0.202 C 
BRANCH  12  16
ATOM     16  O   UNL     1     142.656 135.854 145.224  1.00  0.00    -0.388 OA
ATOM     17  H   UNL     1     142.504 136.759 144.845  1.00  0.00     0.211 HD
ENDBRANCH  12  16
BRANCH  14  18
ATOM     18  O   UNL     1     140.029 136.664 145.128  1.00  0.00    -0.387 OA
ATOM     19  H   UNL     1     140.829 137.085 144.722  1.00  0.00     0.211 HD
ENDBRANCH  14  18
BRANCH  15  20
ATOM     20  O   UNL     1     141.038 135.724 147.509  1.00  0.00    -0.385 OA
ATOM     21  H   UNL     1     141.345 135.195 148.292  1.00  0.00     0.211 HD
ENDBRANCH  15  20
ENDBRANCH   8   9
ENDBRANCH   7   8
ENDBRANCH   1   7
BRANCH   2  22
ATOM     22  O   UNL     1     138.077 129.641 149.094  1.00  0.00    -0.387 OA
ATOM     23  H   UNL     1     137.997 129.020 149.857  1.00  0.00     0.211 HD
ENDBRANCH   2  22
BRANCH   3  24
ATOM     24  O   UNL     1     140.624 128.852 150.483  1.00  0.00    -0.387 OA
ATOM     25  H   UNL     1     140.650 127.997 149.979  1.00  0.00     0.211 HD
ENDBRANCH   3  24
BRANCH   5  26
ATOM     26  O   UNL     1     141.771 128.176 147.371  1.00  0.00    -0.454 OA
BRANCH  26  27
ATOM     27  C   UNL     1     142.748 127.386 146.751  1.00  0.00     0.214 A 
ATOM     28  C   UNL     1     143.884 126.935 147.450  1.00  0.00     0.180 A 
ATOM     29  C   UNL     1     142.590 127.034 145.408  1.00  0.00     0.239 A 
ATOM     30  O   UNL     1     144.742 126.119 146.852  1.00  0.00    -0.452 OA
ATOM     31  C   UNL     1     143.521 126.163 144.791  1.00  0.00     0.111 A 
ATOM     32  O   UNL     1     141.607 127.511 144.782  1.00  0.00    -0.285 OA
ATOM     33  C   UNL     1     144.613 125.723 145.591  1.00  0.00     0.146 A 
ATOM     34  C   UNL     1     143.444 125.705 143.438  1.00  0.00     0.134 A 
ATOM     35  C   UNL     1     145.590 124.876 145.059  1.00  0.00     0.094 A 
ATOM     36  C   UNL     1     144.459 124.885 142.929  1.00  0.00     0.093 A 
ATOM     37  C   UNL     1     145.524 124.467 143.731  1.00  0.00     0.123 A 
BRANCH  28  38
ATOM     38  C   UNL     1     144.167 127.361 148.837  1.00  0.00     0.025 A 
ATOM     39  C   UNL     1     145.119 128.363 149.103  1.00  0.00     0.062 A 
ATOM     40  C   UNL     1     143.467 126.780 149.906  1.00  0.00     0.016 A 
ATOM     41  C   UNL     1     145.353 128.791 150.418  1.00  0.00     0.158 A 
ATOM     42  C   UNL     1     143.685 127.217 151.215  1.00  0.00     0.051 A 
ATOM     43  C   UNL     1     144.623 128.224 151.476  1.00  0.00     0.157 A 
BRANCH  41  44
ATOM     44  O   UNL     1     146.307 129.778 150.676  1.00  0.00    -0.504 OA
ATOM     45  H   UNL     1     147.276 129.665 150.397  1.00  0.00     0.293 HD
ENDBRANCH  41  44
BRANCH  43  46
ATOM     46  O   UNL     1     144.817 128.642 152.793  1.00  0.00    -0.504 OA
ATOM     47  H   UNL     1     144.046 128.946 153.380  1.00  0.00     0.293 HD
ENDBRANCH  43  46
ENDBRANCH  28  38
BRANCH  34  48
ATOM     48  O   UNL     1     142.399 126.008 142.557  1.00  0.00    -0.507 OA
ATOM     49  H   UNL     1     142.492 126.471 141.667  1.00  0.00     0.293 HD
ENDBRANCH  34  48
BRANCH  37  50
ATOM     50  O   UNL     1     146.521 123.638 143.216  1.00  0.00    -0.508 OA
ATOM     51  H   UNL     1     146.382 123.109 142.362  1.00  0.00     0.293 HD
ENDBRANCH  37  50
ENDBRANCH  26  27
ENDBRANCH   5  26
BRANCH   4  52
ATOM     52  O   UNL     1     142.095 131.522 148.842  1.00  0.00    -0.384 OA
ATOM     53  H   UNL     1     141.235 131.999 148.715  1.00  0.00     0.211 HD
ENDBRANCH   4  52
TORSDOF 16
ENDMDL
MODEL 3
REMARK VINA RESULT:    -8.127      6.415     10.510
REMARK INTER + INTRA:         -15.121
REMARK INTER:                 -12.097
REMARK INTRA:                  -3.024
REMARK UNBOUND:                -1.768
REMARK SMILES C[C@H]1O[C@H](OC[C@H]2O[C@H](Oc3c(-c4ccc(O)c(O)c4)oc4cc(O)cc(O)c4c3=O)[C@@H](O)[C@H](O)[C@H]2O)[C@@H](O)[C@@H](O)[C@H]1O
REMARK SMILES IDX 7 1 36 2 34 3 32 4 9 5 8 6 6 7 5 8 4 9 1 10 2 11 42 12 3 13
REMARK SMILES IDX 40 14 38 15 43 16 41 18 39 20 37 22 35 24 10 26 11 27 12 28
REMARK SMILES IDX 30 29 21 30 29 31 31 32 22 33 27 34 23 35 26 36 24 37 13 38
REMARK SMILES IDX 20 39 14 40 18 41 15 42 16 43 19 44 17 46 28 48 25 50 33 52
REMARK H PARENT 43 17 41 19 39 21 37 23 35 25 19 45 17 47 28 49 25 51 33 53
REMARK Flexibility Score: inf
ROOT
ATOM      1  C   UNL     1     138.006 131.924 144.966  1.00  0.00     0.180 C 
ATOM      2  C   UNL     1     137.132 131.140 145.991  1.00  0.00     0.177 C 
ATOM      3  C   UNL     1     137.097 131.831 147.372  1.00  0.00     0.180 C 
ATOM      4  C   UNL     1     138.453 132.494 147.715  1.00  0.00     0.214 C 
ATOM      5  C   UNL     1     139.591 132.007 146.785  1.00  0.00     0.339 C 
ATOM      6  O   UNL     1     139.336 132.204 145.402  1.00  0.00    -0.332 OA
ENDROOT
BRANCH   1   7
ATOM      7  C   UNL     1     137.352 133.234 144.478  1.00  0.00     0.198 C 
BRANCH   7   8
ATOM      8  O   UNL     1     138.311 134.058 143.830  1.00  0.00    -0.347 OA
BRANCH   8   9
ATOM      9  C   UNL     1     138.243 135.407 144.275  1.00  0.00     0.281 C 
ATOM     10  C   UNL     1     141.230 135.411 146.426  1.00  0.00     0.041 C 
ATOM     11  C   UNL     1     140.438 135.340 145.123  1.00  0.00     0.150 C 
ATOM     12  C   UNL     1     140.972 136.352 144.082  1.00  0.00     0.174 C 
ATOM     13  O   UNL     1     139.071 135.590 145.416  1.00  0.00    -0.344 OA
ATOM     14  C   UNL     1     140.122 136.258 142.807  1.00  0.00     0.179 C 
ATOM     15  C   UNL     1     138.625 136.384 143.138  1.00  0.00     0.202 C 
BRANCH  12  16
ATOM     16  O   UNL     1     140.917 137.664 144.593  1.00  0.00    -0.388 OA
ATOM     17  H   UNL     1     141.475 137.683 145.414  1.00  0.00     0.211 HD
ENDBRANCH  12  16
BRANCH  14  18
ATOM     18  O   UNL     1     140.510 137.259 141.902  1.00  0.00    -0.387 OA
ATOM     19  H   UNL     1     140.525 138.110 142.411  1.00  0.00     0.211 HD
ENDBRANCH  14  18
BRANCH  15  20
ATOM     20  O   UNL     1     138.328 137.703 143.518  1.00  0.00    -0.385 OA
ATOM     21  H   UNL     1     137.441 137.918 143.126  1.00  0.00     0.211 HD
ENDBRANCH  15  20
ENDBRANCH   8   9
ENDBRANCH   7   8
ENDBRANCH   1   7
BRANCH   2  22
ATOM     22  O   UNL     1     135.834 130.889 145.506  1.00  0.00    -0.387 OA
ATOM     23  H   UNL     1     135.214 131.526 145.935  1.00  0.00     0.211 HD
ENDBRANCH   2  22
BRANCH   3  24
ATOM     24  O   UNL     1     136.782 130.881 148.359  1.00  0.00    -0.387 OA
ATOM     25  H   UNL     1     137.615 130.381 148.561  1.00  0.00     0.211 HD
ENDBRANCH   3  24
BRANCH   5  26
ATOM     26  O   UNL     1     139.882 130.627 147.024  1.00  0.00    -0.454 OA
BRANCH  26  27
ATOM     27  C   UNL     1     140.954 130.209 147.824  1.00  0.00     0.214 A 
ATOM     28  C   UNL     1     142.286 130.306 147.380  1.00  0.00     0.180 A 
ATOM     29  C   UNL     1     140.694 129.686 149.094  1.00  0.00     0.239 A 
ATOM     30  O   UNL     1     143.277 129.980 148.200  1.00  0.00    -0.452 OA
ATOM     31  C   UNL     1     141.770 129.341 149.950  1.00  0.00     0.111 A 
ATOM     32  O   UNL     1     139.494 129.537 149.440  1.00  0.00    -0.285 OA
ATOM     33  C   UNL     1     143.083 129.517 149.430  1.00  0.00     0.146 A 
ATOM     34  C   UNL     1     141.629 128.834 151.280  1.00  0.00     0.134 A 
ATOM     35  C   UNL     1     144.203 129.188 150.198  1.00  0.00     0.094 A 
ATOM     36  C   UNL     1     142.773 128.481 152.007  1.00  0.00     0.093 A 
ATOM     37  C   UNL     1     144.053 128.659 151.477  1.00  0.00     0.123 A 
BRANCH  28  38
ATOM     38  C   UNL     1     142.622 130.746 146.009  1.00  0.00     0.025 A 
ATOM     39  C   UNL     1     142.970 132.083 145.746  1.00  0.00     0.062 A 
ATOM     40  C   UNL     1     142.617 129.818 144.955  1.00  0.00     0.016 A 
ATOM     41  C   UNL     1     143.327 132.484 144.450  1.00  0.00     0.158 A 
ATOM     42  C   UNL     1     142.990 130.211 143.667  1.00  0.00     0.051 A 
ATOM     43  C   UNL     1     143.349 131.539 143.410  1.00  0.00     0.157 A 
BRANCH  41  44
ATOM     44  O   UNL     1     143.661 133.815 144.193  1.00  0.00    -0.504 OA
ATOM     45  H   UNL     1     143.099 134.394 143.578  1.00  0.00     0.293 HD
ENDBRANCH  41  44
BRANCH  43  46
ATOM     46  O   UNL     1     143.719 131.901 142.114  1.00  0.00    -0.504 OA
ATOM     47  H   UNL     1     143.099 132.425 141.504  1.00  0.00     0.293 HD
ENDBRANCH  43  46
ENDBRANCH  28  38
BRANCH  34  48
ATOM     48  O   UNL     1     140.406 128.666 151.939  1.00  0.00    -0.507 OA
ATOM     49  H   UNL     1     139.559 129.181 151.754  1.00  0.00     0.293 HD
ENDBRANCH  34  48
BRANCH  37  50
ATOM     50  O   UNL     1     145.185 128.317 152.217  1.00  0.00    -0.508 OA
ATOM     51  H   UNL     1     145.409 127.350 152.428  1.00  0.00     0.293 HD
ENDBRANCH  37  50
ENDBRANCH  26  27
ENDBRANCH   5  26
BRANCH   4  52
ATOM     52  O   UNL     1     138.325 133.893 147.630  1.00  0.00    -0.384 OA
ATOM     53  H   UNL     1     139.098 134.233 147.109  1.00  0.00     0.211 HD
ENDBRANCH   4  52
TORSDOF 16
ENDMDL
MODEL 4
REMARK VINA RESULT:    -8.088      2.223      3.157
REMARK INTER + INTRA:         -15.057
REMARK INTER:                 -12.724
REMARK INTRA:                  -2.332
REMARK UNBOUND:                -1.768
REMARK SMILES C[C@H]1O[C@H](OC[C@H]2O[C@H](Oc3c(-c4ccc(O)c(O)c4)oc4cc(O)cc(O)c4c3=O)[C@@H](O)[C@H](O)[C@H]2O)[C@@H](O)[C@@H](O)[C@H]1O
REMARK SMILES IDX 7 1 36 2 34 3 32 4 9 5 8 6 6 7 5 8 4 9 1 10 2 11 42 12 3 13
REMARK SMILES IDX 40 14 38 15 43 16 41 18 39 20 37 22 35 24 10 26 11 27 12 28
REMARK SMILES IDX 30 29 21 30 29 31 31 32 22 33 27 34 23 35 26 36 24 37 13 38
REMARK SMILES IDX 20 39 14 40 18 41 15 42 16 43 19 44 17 46 28 48 25 50 33 52
REMARK H PARENT 43 17 41 19 39 21 37 23 35 25 19 45 17 47 28 49 25 51 33 53
REMARK Flexibility Score: inf
ROOT
ATOM      1  C   UNL     1     144.049 124.856 145.295  1.00  0.00     0.180 C 
ATOM      2  C   UNL     1     144.891 123.602 144.912  1.00  0.00     0.177 C 
ATOM      3  C   UNL     1     145.978 123.931 143.865  1.00  0.00     0.180 C 
ATOM      4  C   UNL     1     145.494 124.995 142.851  1.00  0.00     0.214 C 
ATOM      5  C   UNL     1     143.959 125.196 142.906  1.00  0.00     0.339 C 
ATOM      6  O   UNL     1     143.466 125.548 144.191  1.00  0.00    -0.332 OA
ENDROOT
BRANCH   1   7
ATOM      7  C   UNL     1     144.818 125.868 146.170  1.00  0.00     0.198 C 
BRANCH   7   8
ATOM      8  O   UNL     1     144.607 127.193 145.703  1.00  0.00    -0.347 OA
BRANCH   8   9
ATOM      9  C   UNL     1     145.687 128.056 146.040  1.00  0.00     0.281 C 
ATOM     10  C   UNL     1     145.960 129.851 142.838  1.00  0.00     0.041 C 
ATOM     11  C   UNL     1     145.320 129.415 144.155  1.00  0.00     0.150 C 
ATOM     12  C   UNL     1     144.882 130.634 145.000  1.00  0.00     0.174 C 
ATOM     13  O   UNL     1     146.255 128.616 144.864  1.00  0.00    -0.344 OA
ATOM     14  C   UNL     1     144.275 130.139 146.320  1.00  0.00     0.179 C 
ATOM     15  C   UNL     1     145.227 129.157 147.025  1.00  0.00     0.202 C 
BRANCH  12  16
ATOM     16  O   UNL     1     145.984 131.471 145.270  1.00  0.00    -0.388 OA
ATOM     17  H   UNL     1     146.403 131.142 146.109  1.00  0.00     0.211 HD
ENDBRANCH  12  16
BRANCH  14  18
ATOM     18  O   UNL     1     143.993 131.233 147.154  1.00  0.00    -0.387 OA
ATOM     19  H   UNL     1     143.539 130.867 147.956  1.00  0.00     0.211 HD
ENDBRANCH  14  18
BRANCH  15  20
ATOM     20  O   UNL     1     146.342 129.849 147.527  1.00  0.00    -0.385 OA
ATOM     21  H   UNL     1     147.120 129.571 146.976  1.00  0.00     0.211 HD
ENDBRANCH  15  20
ENDBRANCH   8   9
ENDBRANCH   7   8
ENDBRANCH   1   7
BRANCH   2  22
ATOM     22  O   UNL     1     145.436 122.959 146.040  1.00  0.00    -0.387 OA
ATOM     23  H   UNL     1     146.414 122.895 145.917  1.00  0.00     0.211 HD
ENDBRANCH   2  22
BRANCH   3  24
ATOM     24  O   UNL     1     146.330 122.758 143.176  1.00  0.00    -0.387 OA
ATOM     25  H   UNL     1     145.487 122.275 142.971  1.00  0.00     0.211 HD
ENDBRANCH   3  24
BRANCH   5  26
ATOM     26  O   UNL     1     143.280 124.027 142.438  1.00  0.00    -0.454 OA
BRANCH  26  27
ATOM     27  C   UNL     1     142.250 124.082 141.490  1.00  0.00     0.214 A 
ATOM     28  C   UNL     1     142.521 124.167 140.111  1.00  0.00     0.180 A 
ATOM     29  C   UNL     1     140.922 124.045 141.923  1.00  0.00     0.239 A 
ATOM     30  O   UNL     1     141.519 124.130 139.242  1.00  0.00    -0.452 OA
ATOM     31  C   UNL     1     139.870 124.010 140.975  1.00  0.00     0.111 A 
ATOM     32  O   UNL     1     140.702 124.046 143.162  1.00  0.00    -0.285 OA
ATOM     33  C   UNL     1     140.243 124.055 139.603  1.00  0.00     0.146 A 
ATOM     34  C   UNL     1     138.478 123.935 141.297  1.00  0.00     0.134 A 
ATOM     35  C   UNL     1     139.271 124.042 138.598  1.00  0.00     0.094 A 
ATOM     36  C   UNL     1     137.530 123.959 140.265  1.00  0.00     0.093 A 
ATOM     37  C   UNL     1     137.919 124.007 138.924  1.00  0.00     0.123 A 
BRANCH  28  38
ATOM     38  C   UNL     1     143.898 124.321 139.594  1.00  0.00     0.025 A 
ATOM     39  C   UNL     1     144.306 125.515 138.974  1.00  0.00     0.062 A 
ATOM     40  C   UNL     1     144.821 123.273 139.740  1.00  0.00     0.016 A 
ATOM     41  C   UNL     1     145.625 125.669 138.523  1.00  0.00     0.158 A 
ATOM     42  C   UNL     1     146.141 123.429 139.307  1.00  0.00     0.051 A 
ATOM     43  C   UNL     1     146.548 124.625 138.702  1.00  0.00     0.157 A 
BRANCH  41  44
ATOM     44  O   UNL     1     146.021 126.853 137.899  1.00  0.00    -0.504 OA
ATOM     45  H   UNL     1     145.346 127.480 137.473  1.00  0.00     0.293 HD
ENDBRANCH  41  44
BRANCH  43  46
ATOM     46  O   UNL     1     147.873 124.753 138.283  1.00  0.00    -0.504 OA
ATOM     47  H   UNL     1     148.123 125.255 137.437  1.00  0.00     0.293 HD
ENDBRANCH  43  46
ENDBRANCH  28  38
BRANCH  34  48
ATOM     48  O   UNL     1     137.969 123.825 142.596  1.00  0.00    -0.507 OA
ATOM     49  H   UNL     1     137.048 123.500 142.845  1.00  0.00     0.293 HD
ENDBRANCH  34  48
BRANCH  37  50
ATOM     50  O   UNL     1     136.965 124.016 137.906  1.00  0.00    -0.508 OA
ATOM     51  H   UNL     1     135.998 123.764 138.082  1.00  0.00     0.293 HD
ENDBRANCH  37  50
ENDBRANCH  26  27
ENDBRANCH   5  26
BRANCH   4  52
ATOM     52  O   UNL     1     146.151 126.214 143.100  1.00  0.00    -0.384 OA
ATOM     53  H   UNL     1     146.273 126.292 144.082  1.00  0.00     0.211 HD
ENDBRANCH   4  52
TORSDOF 16
ENDMDL
MODEL 5
REMARK VINA RESULT:    -7.896      7.031      9.642
REMARK INTER + INTRA:         -14.741
REMARK INTER:                 -12.599
REMARK INTRA:                  -2.143
REMARK UNBOUND:                -1.768
REMARK SMILES C[C@H]1O[C@H](OC[C@H]2O[C@H](Oc3c(-c4ccc(O)c(O)c4)oc4cc(O)cc(O)c4c3=O)[C@@H](O)[C@H](O)[C@H]2O)[C@@H](O)[C@@H](O)[C@H]1O
REMARK SMILES IDX 7 1 36 2 34 3 32 4 9 5 8 6 6 7 5 8 4 9 1 10 2 11 42 12 3 13
REMARK SMILES IDX 40 14 38 15 43 16 41 18 39 20 37 22 35 24 10 26 11 27 12 28
REMARK SMILES IDX 30 29 21 30 29 31 31 32 22 33 27 34 23 35 26 36 24 37 13 38
REMARK SMILES IDX 20 39 14 40 18 41 15 42 16 43 19 44 17 46 28 48 25 50 33 52
REMARK H PARENT 43 17 41 19 39 21 37 23 35 25 19 45 17 47 28 49 25 51 33 53
REMARK Flexibility Score: inf
ROOT
ATOM      1  C   UNL     1     142.542 131.754 147.038  1.00  0.00     0.180 C 
ATOM      2  C   UNL     1     141.306 132.146 147.902  1.00  0.00     0.177 C 
ATOM      3  C   UNL     1     139.977 131.717 147.243  1.00  0.00     0.180 C 
ATOM      4  C   UNL     1     140.034 131.846 145.702  1.00  0.00     0.214 C 
ATOM      5  C   UNL     1     141.243 132.695 145.233  1.00  0.00     0.339 C 
ATOM      6  O   UNL     1     142.500 132.215 145.687  1.00  0.00    -0.332 OA
ENDROOT
BRANCH   1   7
ATOM      7  C   UNL     1     142.838 130.240 147.041  1.00  0.00     0.198 C 
BRANCH   7   8
ATOM      8  O   UNL     1     143.500 129.864 148.241  1.00  0.00    -0.347 OA
BRANCH   8   9
ATOM      9  C   UNL     1     143.393 128.468 148.493  1.00  0.00     0.281 C 
ATOM     10  C   UNL     1     145.848 128.228 151.225  1.00  0.00     0.041 C 
ATOM     11  C   UNL     1     144.553 128.648 150.533  1.00  0.00     0.150 C 
ATOM     12  C   UNL     1     143.314 128.277 151.380  1.00  0.00     0.174 C 
ATOM     13  O   UNL     1     144.503 128.021 149.260  1.00  0.00    -0.344 OA
ATOM     14  C   UNL     1     142.045 128.694 150.625  1.00  0.00     0.179 C 
ATOM     15  C   UNL     1     142.053 128.134 149.192  1.00  0.00     0.202 C 
BRANCH  12  16
ATOM     16  O   UNL     1     143.282 126.890 151.631  1.00  0.00    -0.388 OA
ATOM     17  H   UNL     1     142.587 126.733 152.323  1.00  0.00     0.211 HD
ENDBRANCH  12  16
BRANCH  14  18
ATOM     18  O   UNL     1     140.909 128.246 151.318  1.00  0.00    -0.387 OA
ATOM     19  H   UNL     1     140.852 127.268 151.167  1.00  0.00     0.211 HD
ENDBRANCH  14  18
BRANCH  15  20
ATOM     20  O   UNL     1     141.860 126.742 149.220  1.00  0.00    -0.385 OA
ATOM     21  H   UNL     1     141.092 126.575 149.828  1.00  0.00     0.211 HD
ENDBRANCH  15  20
ENDBRANCH   8   9
ENDBRANCH   7   8
ENDBRANCH   1   7
BRANCH   2  22
ATOM     22  O   UNL     1     141.406 131.669 149.224  1.00  0.00    -0.387 OA
ATOM     23  H   UNL     1     140.762 132.168 149.783  1.00  0.00     0.211 HD
ENDBRANCH   2  22
BRANCH   3  24
ATOM     24  O   UNL     1     138.933 132.517 147.738  1.00  0.00    -0.387 OA
ATOM     25  H   UNL     1     139.159 133.459 147.522  1.00  0.00     0.211 HD
ENDBRANCH   3  24
BRANCH   5  26
ATOM     26  O   UNL     1     141.082 134.061 145.627  1.00  0.00    -0.454 OA
BRANCH  26  27
ATOM     27  C   UNL     1     140.467 135.016 144.807  1.00  0.00     0.214 A 
ATOM     28  C   UNL     1     141.108 135.527 143.662  1.00  0.00     0.180 A 
ATOM     29  C   UNL     1     139.185 135.468 145.131  1.00  0.00     0.239 A 
ATOM     30  O   UNL     1     140.458 136.365 142.866  1.00  0.00    -0.452 OA
ATOM     31  C   UNL     1     138.513 136.366 144.265  1.00  0.00     0.111 A 
ATOM     32  O   UNL     1     138.663 135.056 146.199  1.00  0.00    -0.285 OA
ATOM     33  C   UNL     1     139.224 136.793 143.108  1.00  0.00     0.146 A 
ATOM     34  C   UNL     1     137.190 136.869 144.471  1.00  0.00     0.134 A 
ATOM     35  C   UNL     1     138.645 137.691 142.207  1.00  0.00     0.094 A 
ATOM     36  C   UNL     1     136.656 137.795 143.566  1.00  0.00     0.093 A 
ATOM     37  C   UNL     1     137.372 138.202 142.438  1.00  0.00     0.123 A 
BRANCH  28  38
ATOM     38  C   UNL     1     142.503 135.174 143.326  1.00  0.00     0.025 A 
ATOM     39  C   UNL     1     142.793 134.355 142.219  1.00  0.00     0.062 A 
ATOM     40  C   UNL     1     143.560 135.675 144.103  1.00  0.00     0.016 A 
ATOM     41  C   UNL     1     144.121 134.058 141.882  1.00  0.00     0.158 A 
ATOM     42  C   UNL     1     144.885 135.395 143.758  1.00  0.00     0.051 A 
ATOM     43  C   UNL     1     145.171 134.591 142.648  1.00  0.00     0.157 A 
BRANCH  41  44
ATOM     44  O   UNL     1     144.401 133.236 140.788  1.00  0.00    -0.504 OA
ATOM     45  H   UNL     1     144.744 132.289 140.910  1.00  0.00     0.293 HD
ENDBRANCH  41  44
BRANCH  43  46
ATOM     46  O   UNL     1     146.504 134.331 142.327  1.00  0.00    -0.504 OA
ATOM     47  H   UNL     1     147.085 135.015 141.852  1.00  0.00     0.293 HD
ENDBRANCH  43  46
ENDBRANCH  28  38
BRANCH  34  48
ATOM     48  O   UNL     1     136.354 136.491 145.529  1.00  0.00    -0.507 OA
ATOM     49  H   UNL     1     135.380 136.245 145.453  1.00  0.00     0.293 HD
ENDBRANCH  34  48
BRANCH  37  50
ATOM     50  O   UNL     1     136.822 139.114 141.536  1.00  0.00    -0.508 OA
ATOM     51  H   UNL     1     135.838 139.092 141.293  1.00  0.00     0.293 HD
ENDBRANCH  37  50
ENDBRANCH  26  27
ENDBRANCH   5  26
BRANCH   4  52
ATOM     52  O   UNL     1     140.092 130.564 145.125  1.00  0.00    -0.384 OA
ATOM     53  H   UNL     1     139.884 130.661 144.160  1.00  0.00     0.211 HD
ENDBRANCH   4  52
TORSDOF 16
ENDMDL
MODEL 6
REMARK VINA RESULT:    -7.893      6.314     10.377
REMARK INTER + INTRA:         -14.737
REMARK INTER:                 -12.587
REMARK INTRA:                  -2.150
REMARK UNBOUND:                -1.768
REMARK SMILES C[C@H]1O[C@H](OC[C@H]2O[C@H](Oc3c(-c4ccc(O)c(O)c4)oc4cc(O)cc(O)c4c3=O)[C@@H](O)[C@H](O)[C@H]2O)[C@@H](O)[C@@H](O)[C@H]1O
REMARK SMILES IDX 7 1 36 2 34 3 32 4 9 5 8 6 6 7 5 8 4 9 1 10 2 11 42 12 3 13
REMARK SMILES IDX 40 14 38 15 43 16 41 18 39 20 37 22 35 24 10 26 11 27 12 28
REMARK SMILES IDX 30 29 21 30 29 31 31 32 22 33 27 34 23 35 26 36 24 37 13 38
REMARK SMILES IDX 20 39 14 40 18 41 15 42 16 43 19 44 17 46 28 48 25 50 33 52
REMARK H PARENT 43 17 41 19 39 21 37 23 35 25 19 45 17 47 28 49 25 51 33 53
REMARK Flexibility Score: inf
ROOT
ATOM      1  C   UNL     1     140.833 132.143 144.947  1.00  0.00     0.180 C 
ATOM      2  C   UNL     1     139.831 131.342 145.831  1.00  0.00     0.177 C 
ATOM      3  C   UNL     1     139.743 131.907 147.266  1.00  0.00     0.180 C 
ATOM      4  C   UNL     1     141.113 132.428 147.761  1.00  0.00     0.214 C 
ATOM      5  C   UNL     1     142.280 131.939 146.868  1.00  0.00     0.339 C 
ATOM      6  O   UNL     1     142.143 132.279 145.496  1.00  0.00    -0.332 OA
ENDROOT
BRANCH   1   7
ATOM      7  C   UNL     1     140.313 133.539 144.542  1.00  0.00     0.198 C 
BRANCH   7   8
ATOM      8  O   UNL     1     141.320 134.522 144.739  1.00  0.00    -0.347 OA
BRANCH   8   9
ATOM      9  C   UNL     1     141.045 135.718 144.019  1.00  0.00     0.281 C 
ATOM     10  C   UNL     1     144.457 137.098 143.951  1.00  0.00     0.041 C 
ATOM     11  C   UNL     1     143.330 136.121 143.623  1.00  0.00     0.150 C 
ATOM     12  C   UNL     1     143.204 135.896 142.099  1.00  0.00     0.174 C 
ATOM     13  O   UNL     1     142.121 136.636 144.161  1.00  0.00    -0.344 OA
ATOM     14  C   UNL     1     142.041 134.932 141.827  1.00  0.00     0.179 C 
ATOM     15  C   UNL     1     140.759 135.412 142.529  1.00  0.00     0.202 C 
BRANCH  12  16
ATOM     16  O   UNL     1     142.971 137.118 141.435  1.00  0.00    -0.388 OA
ATOM     17  H   UNL     1     142.099 137.036 140.967  1.00  0.00     0.211 HD
ENDBRANCH  12  16
BRANCH  14  18
ATOM     18  O   UNL     1     141.828 134.821 140.443  1.00  0.00    -0.387 OA
ATOM     19  H   UNL     1     142.712 134.943 140.010  1.00  0.00     0.211 HD
ENDBRANCH  14  18
BRANCH  15  20
ATOM     20  O   UNL     1     140.263 136.560 141.890  1.00  0.00    -0.385 OA
ATOM     21  H   UNL     1     140.714 136.610 141.006  1.00  0.00     0.211 HD
ENDBRANCH  15  20
ENDBRANCH   8   9
ENDBRANCH   7   8
ENDBRANCH   1   7
BRANCH   2  22
ATOM     22  O   UNL     1     138.558 131.237 145.237  1.00  0.00    -0.387 OA
ATOM     23  H   UNL     1     138.112 130.435 145.600  1.00  0.00     0.211 HD
ENDBRANCH   2  22
BRANCH   3  24
ATOM     24  O   UNL     1     139.287 130.900 148.134  1.00  0.00    -0.387 OA
ATOM     25  H   UNL     1     140.089 130.464 148.523  1.00  0.00     0.211 HD
ENDBRANCH   3  24
BRANCH   5  26
ATOM     26  O   UNL     1     142.452 130.524 146.995  1.00  0.00    -0.454 OA
BRANCH  26  27
ATOM     27  C   UNL     1     143.343 129.951 147.912  1.00  0.00     0.214 A 
ATOM     28  C   UNL     1     144.708 129.787 147.610  1.00  0.00     0.180 A 
ATOM     29  C   UNL     1     142.866 129.536 149.158  1.00  0.00     0.239 A 
ATOM     30  O   UNL     1     145.534 129.320 148.537  1.00  0.00    -0.452 OA
ATOM     31  C   UNL     1     143.768 129.037 150.130  1.00  0.00     0.111 A 
ATOM     32  O   UNL     1     141.629 129.622 149.378  1.00  0.00    -0.285 OA
ATOM     33  C   UNL     1     145.136 128.950 149.748  1.00  0.00     0.146 A 
ATOM     34  C   UNL     1     143.403 128.618 151.448  1.00  0.00     0.134 A 
ATOM     35  C   UNL     1     146.093 128.454 150.637  1.00  0.00     0.094 A 
ATOM     36  C   UNL     1     144.384 128.092 152.300  1.00  0.00     0.093 A 
ATOM     37  C   UNL     1     145.721 128.013 151.904  1.00  0.00     0.123 A 
BRANCH  28  38
ATOM     38  C   UNL     1     145.255 130.102 146.273  1.00  0.00     0.025 A 
ATOM     39  C   UNL     1     146.410 130.894 146.134  1.00  0.00     0.062 A 
ATOM     40  C   UNL     1     144.632 129.592 145.123  1.00  0.00     0.016 A 
ATOM     41  C   UNL     1     146.946 131.154 144.865  1.00  0.00     0.158 A 
ATOM     42  C   UNL     1     145.174 129.835 143.858  1.00  0.00     0.051 A 
ATOM     43  C   UNL     1     146.332 130.612 143.724  1.00  0.00     0.157 A 
BRANCH  41  44
ATOM     44  O   UNL     1     148.087 131.949 144.734  1.00  0.00    -0.504 OA
ATOM     45  H   UNL     1     148.950 131.579 144.349  1.00  0.00     0.293 HD
ENDBRANCH  41  44
BRANCH  43  46
ATOM     46  O   UNL     1     146.852 130.835 142.448  1.00  0.00    -0.504 OA
ATOM     47  H   UNL     1     147.834 131.047 142.298  1.00  0.00     0.293 HD
ENDBRANCH  43  46
ENDBRANCH  28  38
BRANCH  34  48
ATOM     48  O   UNL     1     142.110 128.702 151.978  1.00  0.00    -0.507 OA
ATOM     49  H   UNL     1     141.780 129.405 152.621  1.00  0.00     0.293 HD
ENDBRANCH  34  48
BRANCH  37  50
ATOM     50  O   UNL     1     146.690 127.502 152.767  1.00  0.00    -0.508 OA
ATOM     51  H   UNL     1     147.443 128.081 153.123  1.00  0.00     0.293 HD
ENDBRANCH  37  50
ENDBRANCH  26  27
ENDBRANCH   5  26
BRANCH   4  52
ATOM     52  O   UNL     1     141.092 133.835 147.801  1.00  0.00    -0.384 OA
ATOM     53  H   UNL     1     141.965 134.136 148.168  1.00  0.00     0.211 HD
ENDBRANCH   4  52
TORSDOF 16
ENDMDL
MODEL 7
REMARK VINA RESULT:    -7.821      7.445     10.045
REMARK INTER + INTRA:         -14.619
REMARK INTER:                 -12.768
REMARK INTRA:                  -1.851
REMARK UNBOUND:                -1.768
REMARK SMILES C[C@H]1O[C@H](OC[C@H]2O[C@H](Oc3c(-c4ccc(O)c(O)c4)oc4cc(O)cc(O)c4c3=O)[C@@H](O)[C@H](O)[C@H]2O)[C@@H](O)[C@@H](O)[C@H]1O
REMARK SMILES IDX 7 1 36 2 34 3 32 4 9 5 8 6 6 7 5 8 4 9 1 10 2 11 42 12 3 13
REMARK SMILES IDX 40 14 38 15 43 16 41 18 39 20 37 22 35 24 10 26 11 27 12 28
REMARK SMILES IDX 30 29 21 30 29 31 31 32 22 33 27 34 23 35 26 36 24 37 13 38
REMARK SMILES IDX 20 39 14 40 18 41 15 42 16 43 19 44 17 46 28 48 25 50 33 52
REMARK H PARENT 43 17 41 19 39 21 37 23 35 25 19 45 17 47 28 49 25 51 33 53
REMARK Flexibility Score: inf
ROOT
ATOM      1  C   UNL     1     140.580 131.653 147.402  1.00  0.00     0.180 C 
ATOM      2  C   UNL     1     141.424 132.018 146.144  1.00  0.00     0.177 C 
ATOM      3  C   UNL     1     141.802 133.515 146.114  1.00  0.00     0.180 C 
ATOM      4  C   UNL     1     140.673 134.403 146.688  1.00  0.00     0.214 C 
ATOM      5  C   UNL     1     139.333 133.635 146.812  1.00  0.00     0.339 C 
ATOM      6  O   UNL     1     139.413 132.452 147.594  1.00  0.00    -0.332 OA
ENDROOT
BRANCH   1   7
ATOM      7  C   UNL     1     141.400 131.642 148.709  1.00  0.00     0.198 C 
BRANCH   7   8
ATOM      8  O   UNL     1     141.993 130.368 148.916  1.00  0.00    -0.347 OA
BRANCH   8   9
ATOM      9  C   UNL     1     141.072 129.435 149.469  1.00  0.00     0.281 C 
ATOM     10  C   UNL     1     142.808 126.335 148.506  1.00  0.00     0.041 C 
ATOM     11  C   UNL     1     142.594 127.653 149.247  1.00  0.00     0.150 C 
ATOM     12  C   UNL     1     142.753 127.474 150.775  1.00  0.00     0.174 C 
ATOM     13  O   UNL     1     141.299 128.141 148.927  1.00  0.00    -0.344 OA
ATOM     14  C   UNL     1     142.499 128.819 151.468  1.00  0.00     0.179 C 
ATOM     15  C   UNL     1     141.159 129.423 151.013  1.00  0.00     0.202 C 
BRANCH  12  16
ATOM     16  O   UNL     1     141.845 126.512 151.259  1.00  0.00    -0.388 OA
ATOM     17  H   UNL     1     141.920 125.714 150.671  1.00  0.00     0.211 HD
ENDBRANCH  12  16
BRANCH  14  18
ATOM     18  O   UNL     1     142.510 128.646 152.862  1.00  0.00    -0.387 OA
ATOM     19  H   UNL     1     142.746 129.526 153.254  1.00  0.00     0.211 HD
ENDBRANCH  14  18
BRANCH  15  20
ATOM     20  O   UNL     1     140.093 128.681 151.549  1.00  0.00    -0.385 OA
ATOM     21  H   UNL     1     140.349 127.723 151.476  1.00  0.00     0.211 HD
ENDBRANCH  15  20
ENDBRANCH   8   9
ENDBRANCH   7   8
ENDBRANCH   1   7
BRANCH   2  22
ATOM     22  O   UNL     1     142.558 131.194 146.004  1.00  0.00    -0.387 OA
ATOM     23  H   UNL     1     142.988 131.107 146.889  1.00  0.00     0.211 HD
ENDBRANCH   2  22
BRANCH   3  24
ATOM     24  O   UNL     1     142.067 133.899 144.788  1.00  0.00    -0.387 OA
ATOM     25  H   UNL     1     143.053 133.915 144.679  1.00  0.00     0.211 HD
ENDBRANCH   3  24
BRANCH   5  26
ATOM     26  O   UNL     1     138.813 133.317 145.518  1.00  0.00    -0.454 OA
BRANCH  26  27
ATOM     27  C   UNL     1     137.605 133.841 145.040  1.00  0.00     0.214 A 
ATOM     28  C   UNL     1     137.576 134.815 144.024  1.00  0.00     0.180 A 
ATOM     29  C   UNL     1     136.401 133.384 145.582  1.00  0.00     0.239 A 
ATOM     30  O   UNL     1     136.410 135.223 143.540  1.00  0.00    -0.452 OA
ATOM     31  C   UNL     1     135.169 133.838 145.050  1.00  0.00     0.111 A 
ATOM     32  O   UNL     1     136.453 132.570 146.541  1.00  0.00    -0.285 OA
ATOM     33  C   UNL     1     135.240 134.789 143.993  1.00  0.00     0.146 A 
ATOM     34  C   UNL     1     133.877 133.414 145.496  1.00  0.00     0.134 A 
ATOM     35  C   UNL     1     134.074 135.304 143.419  1.00  0.00     0.094 A 
ATOM     36  C   UNL     1     132.731 133.978 144.921  1.00  0.00     0.093 A 
ATOM     37  C   UNL     1     132.823 134.913 143.887  1.00  0.00     0.123 A 
BRANCH  28  38
ATOM     38  C   UNL     1     138.813 135.421 143.486  1.00  0.00     0.025 A 
ATOM     39  C   UNL     1     139.370 136.568 144.079  1.00  0.00     0.062 A 
ATOM     40  C   UNL     1     139.457 134.837 142.384  1.00  0.00     0.016 A 
ATOM     41  C   UNL     1     140.566 137.113 143.590  1.00  0.00     0.158 A 
ATOM     42  C   UNL     1     140.658 135.367 141.905  1.00  0.00     0.051 A 
ATOM     43  C   UNL     1     141.218 136.501 142.506  1.00  0.00     0.157 A 
BRANCH  41  44
ATOM     44  O   UNL     1     141.109 138.258 144.176  1.00  0.00    -0.504 OA
ATOM     45  H   UNL     1     141.289 139.097 143.634  1.00  0.00     0.293 HD
ENDBRANCH  41  44
BRANCH  43  46
ATOM     46  O   UNL     1     142.420 137.006 142.008  1.00  0.00    -0.504 OA
ATOM     47  H   UNL     1     142.769 136.754 141.088  1.00  0.00     0.293 HD
ENDBRANCH  43  46
ENDBRANCH  28  38
BRANCH  34  48
ATOM     48  O   UNL     1     133.657 132.445 146.481  1.00  0.00    -0.507 OA
ATOM     49  H   UNL     1     133.079 131.625 146.385  1.00  0.00     0.293 HD
ENDBRANCH  34  48
BRANCH  37  50
ATOM     50  O   UNL     1     131.673 135.456 143.313  1.00  0.00    -0.508 OA
ATOM     51  H   UNL     1     131.091 136.118 143.816  1.00  0.00     0.293 HD
ENDBRANCH  37  50
ENDBRANCH  26  27
ENDBRANCH   5  26
BRANCH   4  52
ATOM     52  O   UNL     1     141.062 134.901 147.946  1.00  0.00    -0.384 OA
ATOM     53  H   UNL     1     140.662 134.312 148.637  1.00  0.00     0.211 HD
ENDBRANCH   4  52
TORSDOF 16
ENDMDL
MODEL 8
REMARK VINA RESULT:    -7.789      4.224      8.647
REMARK INTER + INTRA:         -14.565
REMARK INTER:                 -13.137
REMARK INTRA:                  -1.428
REMARK UNBOUND:                -1.768
REMARK SMILES C[C@H]1O[C@H](OC[C@H]2O[C@H](Oc3c(-c4ccc(O)c(O)c4)oc4cc(O)cc(O)c4c3=O)[C@@H](O)[C@H](O)[C@H]2O)[C@@H](O)[C@@H](O)[C@H]1O
REMARK SMILES IDX 7 1 36 2 34 3 32 4 9 5 8 6 6 7 5 8 4 9 1 10 2 11 42 12 3 13
REMARK SMILES IDX 40 14 38 15 43 16 41 18 39 20 37 22 35 24 10 26 11 27 12 28
REMARK SMILES IDX 30 29 21 30 29 31 31 32 22 33 27 34 23 35 26 36 24 37 13 38
REMARK SMILES IDX 20 39 14 40 18 41 15 42 16 43 19 44 17 46 28 48 25 50 33 52
REMARK H PARENT 43 17 41 19 39 21 37 23 35 25 19 45 17 47 28 49 25 51 33 53
REMARK Flexibility Score: inf
ROOT
ATOM      1  C   UNL     1     139.872 130.578 145.971  1.00  0.00     0.180 C 
ATOM      2  C   UNL     1     139.397 129.958 147.319  1.00  0.00     0.177 C 
ATOM      3  C   UNL     1     140.427 130.168 148.450  1.00  0.00     0.180 C 
ATOM      4  C   UNL     1     141.880 130.089 147.923  1.00  0.00     0.214 C 
ATOM      5  C   UNL     1     141.952 129.474 146.503  1.00  0.00     0.339 C 
ATOM      6  O   UNL     1     141.163 130.151 145.536  1.00  0.00    -0.332 OA
ENDROOT
BRANCH   1   7
ATOM      7  C   UNL     1     139.823 132.121 145.954  1.00  0.00     0.198 C 
BRANCH   7   8
ATOM      8  O   UNL     1     139.985 132.610 144.630  1.00  0.00    -0.347 OA
BRANCH   8   9
ATOM      9  C   UNL     1     141.134 133.439 144.504  1.00  0.00     0.281 C 
ATOM     10  C   UNL     1     139.564 136.271 142.753  1.00  0.00     0.041 C 
ATOM     11  C   UNL     1     139.840 135.313 143.910  1.00  0.00     0.150 C 
ATOM     12  C   UNL     1     140.181 136.080 145.209  1.00  0.00     0.174 C 
ATOM     13  O   UNL     1     140.906 134.453 143.535  1.00  0.00    -0.344 OA
ATOM     14  C   UNL     1     140.476 135.070 146.326  1.00  0.00     0.179 C 
ATOM     15  C   UNL     1     141.530 134.045 145.872  1.00  0.00     0.202 C 
BRANCH  12  16
ATOM     16  O   UNL     1     141.301 136.912 145.014  1.00  0.00    -0.388 OA
ATOM     17  H   UNL     1     142.037 136.338 144.672  1.00  0.00     0.211 HD
ENDBRANCH  12  16
BRANCH  14  18
ATOM     18  O   UNL     1     140.916 135.747 147.476  1.00  0.00    -0.387 OA
ATOM     19  H   UNL     1     141.451 136.519 147.162  1.00  0.00     0.211 HD
ENDBRANCH  14  18
BRANCH  15  20
ATOM     20  O   UNL     1     142.789 134.662 145.778  1.00  0.00    -0.385 OA
ATOM     21  H   UNL     1     143.196 134.348 144.927  1.00  0.00     0.211 HD
ENDBRANCH  15  20
ENDBRANCH   8   9
ENDBRANCH   7   8
ENDBRANCH   1   7
BRANCH   2  22
ATOM     22  O   UNL     1     138.117 130.412 147.694  1.00  0.00    -0.387 OA
ATOM     23  H   UNL     1     137.462 130.066 147.040  1.00  0.00     0.211 HD
ENDBRANCH   2  22
BRANCH   3  24
ATOM     24  O   UNL     1     140.237 129.188 149.439  1.00  0.00    -0.387 OA
ATOM     25  H   UNL     1     140.967 128.523 149.335  1.00  0.00     0.211 HD
ENDBRANCH   3  24
BRANCH   5  26
ATOM     26  O   UNL     1     141.586 128.091 146.534  1.00  0.00    -0.454 OA
BRANCH  26  27
ATOM     27  C   UNL     1     142.471 127.068 146.172  1.00  0.00     0.214 A 
ATOM     28  C   UNL     1     143.325 126.465 147.114  1.00  0.00     0.180 A 
ATOM     29  C   UNL     1     142.503 126.632 144.844  1.00  0.00     0.239 A 
ATOM     30  O   UNL     1     144.087 125.441 146.749  1.00  0.00    -0.452 OA
ATOM     31  C   UNL     1     143.328 125.539 144.479  1.00  0.00     0.111 A 
ATOM     32  O   UNL     1     141.787 127.236 144.004  1.00  0.00    -0.285 OA
ATOM     33  C   UNL     1     144.123 124.964 145.510  1.00  0.00     0.146 A 
ATOM     34  C   UNL     1     143.417 124.982 143.165  1.00  0.00     0.134 A 
ATOM     35  C   UNL     1     144.978 123.893 145.238  1.00  0.00     0.094 A 
ATOM     36  C   UNL     1     144.311 123.932 142.920  1.00  0.00     0.093 A 
ATOM     37  C   UNL     1     145.085 123.384 143.947  1.00  0.00     0.123 A 
BRANCH  28  38
ATOM     38  C   UNL     1     143.420 126.952 148.507  1.00  0.00     0.025 A 
ATOM     39  C   UNL     1     142.500 126.527 149.483  1.00  0.00     0.062 A 
ATOM     40  C   UNL     1     144.449 127.834 148.872  1.00  0.00     0.016 A 
ATOM     41  C   UNL     1     142.621 126.961 150.811  1.00  0.00     0.158 A 
ATOM     42  C   UNL     1     144.582 128.255 150.198  1.00  0.00     0.051 A 
ATOM     43  C   UNL     1     143.674 127.819 151.171  1.00  0.00     0.157 A 
BRANCH  41  44
ATOM     44  O   UNL     1     141.699 126.544 151.773  1.00  0.00    -0.504 OA
ATOM     45  H   UNL     1     140.784 126.976 151.854  1.00  0.00     0.293 HD
ENDBRANCH  41  44
BRANCH  43  46
ATOM     46  O   UNL     1     143.834 128.253 152.488  1.00  0.00    -0.504 OA
ATOM     47  H   UNL     1     143.044 128.374 153.114  1.00  0.00     0.293 HD
ENDBRANCH  43  46
ENDBRANCH  28  38
BRANCH  34  48
ATOM     48  O   UNL     1     142.652 125.405 142.071  1.00  0.00    -0.507 OA
ATOM     49  H   UNL     1     143.012 125.697 141.175  1.00  0.00     0.293 HD
ENDBRANCH  34  48
BRANCH  37  50
ATOM     50  O   UNL     1     145.961 122.329 143.693  1.00  0.00    -0.508 OA
ATOM     51  H   UNL     1     145.691 121.544 143.110  1.00  0.00     0.293 HD
ENDBRANCH  37  50
ENDBRANCH  26  27
ENDBRANCH   5  26
BRANCH   4  52
ATOM     52  O   UNL     1     142.449 131.377 147.921  1.00  0.00    -0.384 OA
ATOM     53  H   UNL     1     143.357 131.302 148.314  1.00  0.00     0.211 HD
ENDBRANCH   4  52
TORSDOF 16
ENDMDL
MODEL 9
REMARK VINA RESULT:    -7.752      6.957     10.471
REMARK INTER + INTRA:         -14.504
REMARK INTER:                 -12.610
REMARK INTRA:                  -1.894
REMARK UNBOUND:                -1.768
REMARK SMILES C[C@H]1O[C@H](OC[C@H]2O[C@H](Oc3c(-c4ccc(O)c(O)c4)oc4cc(O)cc(O)c4c3=O)[C@@H](O)[C@H](O)[C@H]2O)[C@@H](O)[C@@H](O)[C@H]1O
REMARK SMILES IDX 7 1 36 2 34 3 32 4 9 5 8 6 6 7 5 8 4 9 1 10 2 11 42 12 3 13
REMARK SMILES IDX 40 14 38 15 43 16 41 18 39 20 37 22 35 24 10 26 11 27 12 28
REMARK SMILES IDX 30 29 21 30 29 31 31 32 22 33 27 34 23 35 26 36 24 37 13 38
REMARK SMILES IDX 20 39 14 40 18 41 15 42 16 43 19 44 17 46 28 48 25 50 33 52
REMARK H PARENT 43 17 41 19 39 21 37 23 35 25 19 45 17 47 28 49 25 51 33 53
REMARK Flexibility Score: inf
ROOT
ATOM      1  C   UNL     1     142.234 131.725 147.360  1.00  0.00     0.180 C 
ATOM      2  C   UNL     1     141.007 131.514 148.297  1.00  0.00     0.177 C 
ATOM      3  C   UNL     1     139.922 130.632 147.642  1.00  0.00     0.180 C 
ATOM      4  C   UNL     1     139.818 130.887 146.119  1.00  0.00     0.214 C 
ATOM      5  C   UNL     1     140.548 132.185 145.695  1.00  0.00     0.339 C 
ATOM      6  O   UNL     1     141.919 132.227 146.061  1.00  0.00    -0.332 OA
ENDROOT
BRANCH   1   7
ATOM      7  C   UNL     1     143.115 130.466 147.210  1.00  0.00     0.198 C 
BRANCH   7   8
ATOM      8  O   UNL     1     143.784 130.177 148.429  1.00  0.00    -0.347 OA
BRANCH   8   9
ATOM      9  C   UNL     1     143.998 128.781 148.602  1.00  0.00     0.281 C 
ATOM     10  C   UNL     1     147.248 128.948 150.322  1.00  0.00     0.041 C 
ATOM     11  C   UNL     1     145.745 129.140 150.139  1.00  0.00     0.150 C 
ATOM     12  C   UNL     1     144.951 128.545 151.325  1.00  0.00     0.174 C 
ATOM     13  O   UNL     1     145.361 128.529 148.915  1.00  0.00    -0.344 OA
ATOM     14  C   UNL     1     143.449 128.740 151.073  1.00  0.00     0.179 C 
ATOM     15  C   UNL     1     143.054 128.207 149.685  1.00  0.00     0.202 C 
BRANCH  12  16
ATOM     16  O   UNL     1     145.232 127.172 151.471  1.00  0.00    -0.388 OA
ATOM     17  H   UNL     1     144.861 126.710 150.674  1.00  0.00     0.211 HD
ENDBRANCH  12  16
BRANCH  14  18
ATOM     18  O   UNL     1     142.710 128.090 152.076  1.00  0.00    -0.387 OA
ATOM     19  H   UNL     1     141.953 128.689 152.302  1.00  0.00     0.211 HD
ENDBRANCH  14  18
BRANCH  15  20
ATOM     20  O   UNL     1     143.111 126.804 149.677  1.00  0.00    -0.385 OA
ATOM     21  H   UNL     1     143.422 126.527 150.579  1.00  0.00     0.211 HD
ENDBRANCH  15  20
ENDBRANCH   8   9
ENDBRANCH   7   8
ENDBRANCH   1   7
BRANCH   2  22
ATOM     22  O   UNL     1     141.380 131.023 149.563  1.00  0.00    -0.387 OA
ATOM     23  H   UNL     1     140.961 130.137 149.687  1.00  0.00     0.211 HD
ENDBRANCH   2  22
BRANCH   3  24
ATOM     24  O   UNL     1     138.681 130.899 148.244  1.00  0.00    -0.387 OA
ATOM     25  H   UNL     1     138.036 130.230 147.894  1.00  0.00     0.211 HD
ENDBRANCH   3  24
BRANCH   5  26
ATOM     26  O   UNL     1     139.878 133.335 146.222  1.00  0.00    -0.454 OA
BRANCH  26  27
ATOM     27  C   UNL     1     139.320 134.325 145.402  1.00  0.00     0.214 A 
ATOM     28  C   UNL     1     137.995 134.233 144.935  1.00  0.00     0.180 A 
ATOM     29  C   UNL     1     140.095 135.431 145.044  1.00  0.00     0.239 A 
ATOM     30  O   UNL     1     137.476 135.232 144.233  1.00  0.00    -0.452 OA
ATOM     31  C   UNL     1     139.518 136.483 144.290  1.00  0.00     0.111 A 
ATOM     32  O   UNL     1     141.299 135.455 145.409  1.00  0.00    -0.285 OA
ATOM     33  C   UNL     1     138.159 136.322 143.901  1.00  0.00     0.146 A 
ATOM     34  C   UNL     1     140.199 137.678 143.896  1.00  0.00     0.134 A 
ATOM     35  C   UNL     1     137.514 137.302 143.142  1.00  0.00     0.094 A 
ATOM     36  C   UNL     1     139.532 138.622 143.106  1.00  0.00     0.093 A 
ATOM     37  C   UNL     1     138.197 138.443 142.733  1.00  0.00     0.123 A 
BRANCH  28  38
ATOM     38  C   UNL     1     137.159 133.039 145.186  1.00  0.00     0.025 A 
ATOM     39  C   UNL     1     136.506 132.863 146.419  1.00  0.00     0.062 A 
ATOM     40  C   UNL     1     136.995 132.076 144.178  1.00  0.00     0.016 A 
ATOM     41  C   UNL     1     135.682 131.749 146.635  1.00  0.00     0.158 A 
ATOM     42  C   UNL     1     136.160 130.973 144.384  1.00  0.00     0.051 A 
ATOM     43  C   UNL     1     135.500 130.808 145.608  1.00  0.00     0.157 A 
BRANCH  41  44
ATOM     44  O   UNL     1     135.044 131.574 147.865  1.00  0.00    -0.504 OA
ATOM     45  H   UNL     1     134.081 131.860 148.008  1.00  0.00     0.293 HD
ENDBRANCH  41  44
BRANCH  43  46
ATOM     46  O   UNL     1     134.670 129.698 145.783  1.00  0.00    -0.504 OA
ATOM     47  H   UNL     1     134.990 128.858 146.255  1.00  0.00     0.293 HD
ENDBRANCH  43  46
ENDBRANCH  28  38
BRANCH  34  48
ATOM     48  O   UNL     1     141.514 137.997 144.256  1.00  0.00    -0.507 OA
ATOM     49  H   UNL     1     142.349 137.578 143.878  1.00  0.00     0.293 HD
ENDBRANCH  34  48
BRANCH  37  50
ATOM     50  O   UNL     1     137.540 139.398 141.957  1.00  0.00    -0.508 OA
ATOM     51  H   UNL     1     136.542 139.346 141.784  1.00  0.00     0.293 HD
ENDBRANCH  37  50
ENDBRANCH  26  27
ENDBRANCH   5  26
BRANCH   4  52
ATOM     52  O   UNL     1     140.348 129.785 145.422  1.00  0.00    -0.384 OA
ATOM     53  H   UNL     1     140.026 128.962 145.874  1.00  0.00     0.211 HD
ENDBRANCH   4  52
TORSDOF 16
ENDMDL
