MODEL 1
REMARK VINA RESULT:    -3.261      0.000      0.000
REMARK INTER + INTRA:          -4.312
REMARK INTER:                  -4.023
REMARK INTRA:                  -0.289
REMARK UNBOUND:                -0.289
REMARK SMILES C=CCc1ccc(OC)c(OC)c1
REMARK SMILES IDX 7 1 10 2 13 3 4 4 5 5 6 6 8 7 9 8 11 9 12 10 3 11 2 12 1 13
REMARK H PARENT
REMARK Flexibility Score: inf
ROOT
ATOM      1  C   UNL     1     239.787 226.835 234.744  1.00  0.00     0.160 A 
ATOM      2  C   UNL     1     238.723 226.196 234.087  1.00  0.00     0.160 A 
ATOM      3  C   UNL     1     237.506 226.881 233.902  1.00  0.00     0.054 A 
ATOM      4  C   UNL     1     237.347 228.194 234.373  1.00  0.00    -0.040 A 
ATOM      5  C   UNL     1     238.417 228.827 235.017  1.00  0.00     0.008 A 
ATOM      6  C   UNL     1     239.625 228.155 235.206  1.00  0.00     0.051 A 
ENDROOT
BRANCH   1   7
ATOM      7  O   UNL     1     240.987 226.127 234.915  1.00  0.00    -0.493 OA
ATOM      8  C   UNL     1     241.396 225.514 236.133  1.00  0.00     0.278 C 
ENDBRANCH   1   7
BRANCH   2   9
ATOM      9  O   UNL     1     238.915 224.881 233.631  1.00  0.00    -0.493 OA
ATOM     10  C   UNL     1     239.185 224.527 232.279  1.00  0.00     0.278 C 
ENDBRANCH   2   9
BRANCH   4  11
ATOM     11  C   UNL     1     236.056 228.935 234.145  1.00  0.00     0.062 C 
BRANCH  11  12
ATOM     12  C   UNL     1     236.180 229.874 232.979  1.00  0.00    -0.030 C 
ATOM     13  C   UNL     1     235.336 229.826 231.943  1.00  0.00     0.004 C 
ENDBRANCH  11  12
ENDBRANCH   4  11
TORSDOF 4
ENDMDL
MODEL 2
REMARK VINA RESULT:    -3.242     10.292     11.900
REMARK INTER + INTRA:          -4.289
REMARK INTER:                  -4.005
REMARK INTRA:                  -0.284
REMARK UNBOUND:                -0.289
REMARK SMILES C=CCc1ccc(OC)c(OC)c1
REMARK SMILES IDX 7 1 10 2 13 3 4 4 5 5 6 6 8 7 9 8 11 9 12 10 3 11 2 12 1 13
REMARK H PARENT
REMARK Flexibility Score: inf
ROOT
ATOM      1  C   UNL     1     226.875 228.796 234.873  1.00  0.00     0.160 A 
ATOM      2  C   UNL     1     226.233 229.784 234.111  1.00  0.00     0.160 A 
ATOM      3  C   UNL     1     226.932 230.954 233.754  1.00  0.00     0.054 A 
ATOM      4  C   UNL     1     228.263 231.141 234.158  1.00  0.00    -0.040 A 
ATOM      5  C   UNL     1     228.900 230.144 234.909  1.00  0.00     0.008 A 
ATOM      6  C   UNL     1     228.214 228.984 235.268  1.00  0.00     0.051 A 
ENDROOT
BRANCH   1   7
ATOM      7  O   UNL     1     226.153 227.641 235.214  1.00  0.00    -0.493 OA
ATOM      8  C   UNL     1     225.717 227.322 236.531  1.00  0.00     0.278 C 
ENDBRANCH   1   7
BRANCH   2   9
ATOM      9  O   UNL     1     224.900 229.567 233.725  1.00  0.00    -0.493 OA
ATOM     10  C   UNL     1     224.486 229.222 232.408  1.00  0.00     0.278 C 
ENDBRANCH   2   9
BRANCH   4  11
ATOM     11  C   UNL     1     229.018 232.378 233.749  1.00  0.00     0.062 C 
BRANCH  11  12
ATOM     12  C   UNL     1     230.288 232.013 233.032  1.00  0.00    -0.030 C 
ATOM     13  C   UNL     1     230.751 232.738 232.008  1.00  0.00     0.004 C 
ENDBRANCH  11  12
ENDBRANCH   4  11
TORSDOF 4
ENDMDL
MODEL 3
REMARK VINA RESULT:    -3.217     15.775     18.232
REMARK INTER + INTRA:          -4.258
REMARK INTER:                  -4.022
REMARK INTRA:                  -0.236
REMARK UNBOUND:                -0.289
REMARK SMILES C=CCc1ccc(OC)c(OC)c1
REMARK SMILES IDX 7 1 10 2 13 3 4 4 5 5 6 6 8 7 9 8 11 9 12 10 3 11 2 12 1 13
REMARK H PARENT
REMARK Flexibility Score: inf
ROOT
ATOM      1  C   UNL     1     229.713 242.306 233.915  1.00  0.00     0.160 A 
ATOM      2  C   UNL     1     228.520 241.872 234.514  1.00  0.00     0.160 A 
ATOM      3  C   UNL     1     227.282 242.274 233.974  1.00  0.00     0.054 A 
ATOM      4  C   UNL     1     227.233 243.107 232.844  1.00  0.00    -0.040 A 
ATOM      5  C   UNL     1     228.429 243.525 232.246  1.00  0.00     0.008 A 
ATOM      6  C   UNL     1     229.658 243.133 232.777  1.00  0.00     0.051 A 
ENDROOT
BRANCH   1   7
ATOM      7  O   UNL     1     230.931 241.891 234.476  1.00  0.00    -0.493 OA
ATOM      8  C   UNL     1     231.949 241.192 233.767  1.00  0.00     0.278 C 
ENDBRANCH   1   7
BRANCH   2   9
ATOM      9  O   UNL     1     228.604 241.042 235.644  1.00  0.00    -0.493 OA
ATOM     10  C   UNL     1     228.751 239.627 235.597  1.00  0.00     0.278 C 
ENDBRANCH   2   9
BRANCH   4  11
ATOM     11  C   UNL     1     225.909 243.508 232.250  1.00  0.00     0.062 C 
BRANCH  11  12
ATOM     12  C   UNL     1     224.777 242.820 232.959  1.00  0.00    -0.030 C 
ATOM     13  C   UNL     1     223.876 242.085 232.299  1.00  0.00     0.004 C 
ENDBRANCH  11  12
ENDBRANCH   4  11
TORSDOF 4
ENDMDL
MODEL 4
REMARK VINA RESULT:    -3.210     10.404     11.818
REMARK INTER + INTRA:          -4.250
REMARK INTER:                  -3.968
REMARK INTRA:                  -0.282
REMARK UNBOUND:                -0.289
REMARK SMILES C=CCc1ccc(OC)c(OC)c1
REMARK SMILES IDX 7 1 10 2 13 3 4 4 5 5 6 6 8 7 9 8 11 9 12 10 3 11 2 12 1 13
REMARK H PARENT
REMARK Flexibility Score: inf
ROOT
ATOM      1  C   UNL     1     241.440 239.529 234.984  1.00  0.00     0.160 A 
ATOM      2  C   UNL     1     242.152 238.603 234.205  1.00  0.00     0.160 A 
ATOM      3  C   UNL     1     241.509 237.435 233.749  1.00  0.00     0.054 A 
ATOM      4  C   UNL     1     240.165 237.189 234.070  1.00  0.00    -0.040 A 
ATOM      5  C   UNL     1     239.459 238.124 234.838  1.00  0.00     0.008 A 
ATOM      6  C   UNL     1     240.089 239.282 235.295  1.00  0.00     0.051 A 
ENDROOT
BRANCH   1   7
ATOM      7  O   UNL     1     242.107 240.683 235.425  1.00  0.00    -0.493 OA
ATOM      8  C   UNL     1     242.371 240.990 236.790  1.00  0.00     0.278 C 
ENDBRANCH   1   7
BRANCH   2   9
ATOM      9  O   UNL     1     243.496 238.879 233.904  1.00  0.00    -0.493 OA
ATOM     10  C   UNL     1     243.969 239.293 232.627  1.00  0.00     0.278 C 
ENDBRANCH   2   9
BRANCH   4  11
ATOM     11  C   UNL     1     239.472 235.955 233.554  1.00  0.00     0.062 C 
BRANCH  11  12
ATOM     12  C   UNL     1     238.159 236.312 232.915  1.00  0.00    -0.030 C 
ATOM     13  C   UNL     1     237.673 235.626 231.875  1.00  0.00     0.004 C 
ENDBRANCH  11  12
ENDBRANCH   4  11
TORSDOF 4
ENDMDL
MODEL 5
REMARK VINA RESULT:    -3.205     13.834     16.587
REMARK INTER + INTRA:          -4.243
REMARK INTER:                  -3.962
REMARK INTRA:                  -0.281
REMARK UNBOUND:                -0.289
REMARK SMILES C=CCc1ccc(OC)c(OC)c1
REMARK SMILES IDX 7 1 10 2 13 3 4 4 5 5 6 6 8 7 9 8 11 9 12 10 3 11 2 12 1 13
REMARK H PARENT
REMARK Flexibility Score: inf
ROOT
ATOM      1  C   UNL     1     228.997 241.338 235.033  1.00  0.00     0.160 A 
ATOM      2  C   UNL     1     229.927 242.042 234.252  1.00  0.00     0.160 A 
ATOM      3  C   UNL     1     231.073 241.381 233.768  1.00  0.00     0.054 A 
ATOM      4  C   UNL     1     231.294 240.027 234.064  1.00  0.00    -0.040 A 
ATOM      5  C   UNL     1     230.355 239.329 234.834  1.00  0.00     0.008 A 
ATOM      6  C   UNL     1     229.218 239.977 235.319  1.00  0.00     0.051 A 
ENDROOT
BRANCH   1   7
ATOM      7  O   UNL     1     227.865 242.023 235.502  1.00  0.00    -0.493 OA
ATOM      8  C   UNL     1     227.668 242.426 236.853  1.00  0.00     0.278 C 
ENDBRANCH   1   7
BRANCH   2   9
ATOM      9  O   UNL     1     229.677 243.396 233.977  1.00  0.00    -0.493 OA
ATOM     10  C   UNL     1     229.316 243.907 232.698  1.00  0.00     0.278 C 
ENDBRANCH   2   9
BRANCH   4  11
ATOM     11  C   UNL     1     232.504 239.314 233.519  1.00  0.00     0.062 C 
BRANCH  11  12
ATOM     12  C   UNL     1     232.111 238.013 232.878  1.00  0.00    -0.030 C 
ATOM     13  C   UNL     1     232.840 237.460 231.904  1.00  0.00     0.004 C 
ENDBRANCH  11  12
ENDBRANCH   4  11
TORSDOF 4
ENDMDL
MODEL 6
REMARK VINA RESULT:    -3.178      8.383      9.757
REMARK INTER + INTRA:          -4.210
REMARK INTER:                  -3.898
REMARK INTRA:                  -0.312
REMARK UNBOUND:                -0.289
REMARK SMILES C=CCc1ccc(OC)c(OC)c1
REMARK SMILES IDX 7 1 10 2 13 3 4 4 5 5 6 6 8 7 9 8 11 9 12 10 3 11 2 12 1 13
REMARK H PARENT
REMARK Flexibility Score: inf
ROOT
ATOM      1  C   UNL     1     241.407 236.282 235.472  1.00  0.00     0.160 A 
ATOM      2  C   UNL     1     241.173 237.016 234.299  1.00  0.00     0.160 A 
ATOM      3  C   UNL     1     239.892 236.999 233.711  1.00  0.00     0.054 A 
ATOM      4  C   UNL     1     238.852 236.253 234.286  1.00  0.00    -0.040 A 
ATOM      5  C   UNL     1     239.092 235.533 235.464  1.00  0.00     0.008 A 
ATOM      6  C   UNL     1     240.358 235.542 236.051  1.00  0.00     0.051 A 
ENDROOT
BRANCH   1   7
ATOM      7  O   UNL     1     242.693 236.316 236.035  1.00  0.00    -0.493 OA
ATOM      8  C   UNL     1     243.008 235.883 237.354  1.00  0.00     0.278 C 
ENDBRANCH   1   7
BRANCH   2   9
ATOM      9  O   UNL     1     242.236 237.750 233.748  1.00  0.00    -0.493 OA
ATOM     10  C   UNL     1     242.381 239.162 233.852  1.00  0.00     0.278 C 
ENDBRANCH   2   9
BRANCH   4  11
ATOM     11  C   UNL     1     237.477 236.263 233.673  1.00  0.00     0.062 C 
BRANCH  11  12
ATOM     12  C   UNL     1     237.534 235.843 232.231  1.00  0.00    -0.030 C 
ATOM     13  C   UNL     1     237.715 234.567 231.876  1.00  0.00     0.004 C 
ENDBRANCH  11  12
ENDBRANCH   4  11
TORSDOF 4
ENDMDL
MODEL 7
REMARK VINA RESULT:    -3.177      9.767     11.461
REMARK INTER + INTRA:          -4.209
REMARK INTER:                  -3.924
REMARK INTRA:                  -0.285
REMARK UNBOUND:                -0.289
REMARK SMILES C=CCc1ccc(OC)c(OC)c1
REMARK SMILES IDX 7 1 10 2 13 3 4 4 5 5 6 6 8 7 9 8 11 9 12 10 3 11 2 12 1 13
REMARK H PARENT
REMARK Flexibility Score: inf
ROOT
ATOM      1  C   UNL     1     226.853 230.534 234.585  1.00  0.00     0.160 A 
ATOM      2  C   UNL     1     228.039 229.901 234.989  1.00  0.00     0.160 A 
ATOM      3  C   UNL     1     229.282 230.417 234.572  1.00  0.00     0.054 A 
ATOM      4  C   UNL     1     229.344 231.555 233.753  1.00  0.00    -0.040 A 
ATOM      5  C   UNL     1     228.156 232.188 233.364  1.00  0.00     0.008 A 
ATOM      6  C   UNL     1     226.920 231.682 233.771  1.00  0.00     0.051 A 
ENDROOT
BRANCH   1   7
ATOM      7  O   UNL     1     225.630 229.997 235.015  1.00  0.00    -0.493 OA
ATOM      8  C   UNL     1     224.705 229.318 234.171  1.00  0.00     0.278 C 
ENDBRANCH   1   7
BRANCH   2   9
ATOM      9  O   UNL     1     227.942 228.763 235.806  1.00  0.00    -0.493 OA
ATOM     10  C   UNL     1     228.913 228.379 236.774  1.00  0.00     0.278 C 
ENDBRANCH   2   9
BRANCH   4  11
ATOM     11  C   UNL     1     230.674 232.123 233.334  1.00  0.00     0.062 C 
BRANCH  11  12
ATOM     12  C   UNL     1     230.550 232.868 232.035  1.00  0.00    -0.030 C 
ATOM     13  C   UNL     1     231.057 234.094 231.875  1.00  0.00     0.004 C 
ENDBRANCH  11  12
ENDBRANCH   4  11
TORSDOF 4
ENDMDL
MODEL 8
REMARK VINA RESULT:    -3.167     12.927     15.417
REMARK INTER + INTRA:          -4.196
REMARK INTER:                  -3.939
REMARK INTRA:                  -0.257
REMARK UNBOUND:                -0.289
REMARK SMILES C=CCc1ccc(OC)c(OC)c1
REMARK SMILES IDX 7 1 10 2 13 3 4 4 5 5 6 6 8 7 9 8 11 9 12 10 3 11 2 12 1 13
REMARK H PARENT
REMARK Flexibility Score: inf
ROOT
ATOM      1  C   UNL     1     232.033 241.611 235.670  1.00  0.00     0.160 A 
ATOM      2  C   UNL     1     231.143 241.549 234.586  1.00  0.00     0.160 A 
ATOM      3  C   UNL     1     231.114 240.399 233.772  1.00  0.00     0.054 A 
ATOM      4  C   UNL     1     231.970 239.318 234.034  1.00  0.00    -0.040 A 
ATOM      5  C   UNL     1     232.847 239.384 235.124  1.00  0.00     0.008 A 
ATOM      6  C   UNL     1     232.884 240.520 235.934  1.00  0.00     0.051 A 
ENDROOT
BRANCH   1   7
ATOM      7  O   UNL     1     232.041 242.770 236.462  1.00  0.00    -0.493 OA
ATOM      8  C   UNL     1     232.738 242.899 237.697  1.00  0.00     0.278 C 
ENDBRANCH   1   7
BRANCH   2   9
ATOM      9  O   UNL     1     230.302 242.649 234.351  1.00  0.00    -0.493 OA
ATOM     10  C   UNL     1     229.277 242.685 233.364  1.00  0.00     0.278 C 
ENDBRANCH   2   9
BRANCH   4  11
ATOM     11  C   UNL     1     231.914 238.077 233.182  1.00  0.00     0.062 C 
BRANCH  11  12
ATOM     12  C   UNL     1     232.897 238.167 232.049  1.00  0.00    -0.030 C 
ATOM     13  C   UNL     1     233.961 237.361 231.974  1.00  0.00     0.004 C 
ENDBRANCH  11  12
ENDBRANCH   4  11
TORSDOF 4
ENDMDL
MODEL 9
REMARK VINA RESULT:    -3.121     10.186     11.992
REMARK INTER + INTRA:          -4.139
REMARK INTER:                  -3.869
REMARK INTRA:                  -0.270
REMARK UNBOUND:                -0.289
REMARK SMILES C=CCc1ccc(OC)c(OC)c1
REMARK SMILES IDX 7 1 10 2 13 3 4 4 5 5 6 6 8 7 9 8 11 9 12 10 3 11 2 12 1 13
REMARK H PARENT
REMARK Flexibility Score: inf
ROOT
ATOM      1  C   UNL     1     227.036 232.080 235.603  1.00  0.00     0.160 A 
ATOM      2  C   UNL     1     227.201 231.375 234.400  1.00  0.00     0.160 A 
ATOM      3  C   UNL     1     228.433 231.437 233.718  1.00  0.00     0.054 A 
ATOM      4  C   UNL     1     229.493 232.201 234.230  1.00  0.00    -0.040 A 
ATOM      5  C   UNL     1     229.324 232.892 235.437  1.00  0.00     0.008 A 
ATOM      6  C   UNL     1     228.106 232.837 236.117  1.00  0.00     0.051 A 
ENDROOT
BRANCH   1   7
ATOM      7  O   UNL     1     225.798 232.000 236.259  1.00  0.00    -0.493 OA
ATOM      8  C   UNL     1     225.399 232.842 237.336  1.00  0.00     0.278 C 
ENDBRANCH   1   7
BRANCH   2   9
ATOM      9  O   UNL     1     226.119 230.623 233.915  1.00  0.00    -0.493 OA
ATOM     10  C   UNL     1     226.127 229.208 233.752  1.00  0.00     0.278 C 
ENDBRANCH   2   9
BRANCH   4  11
ATOM     11  C   UNL     1     230.819 232.241 233.516  1.00  0.00     0.062 C 
BRANCH  11  12
ATOM     12  C   UNL     1     230.673 232.868 232.158  1.00  0.00    -0.030 C 
ATOM     13  C   UNL     1     231.196 234.065 231.875  1.00  0.00     0.004 C 
ENDBRANCH  11  12
ENDBRANCH   4  11
TORSDOF 4
ENDMDL
