MODEL 1
REMARK VINA RESULT:    -5.334      0.000      0.000
REMARK INTER + INTRA:          -7.775
REMARK INTER:                  -7.205
REMARK INTRA:                  -0.570
REMARK UNBOUND:                -0.570
REMARK SMILES CC(=O)CCC=C(C)CCC=C(C)C
REMARK SMILES IDX 7 1 6 2 8 3 9 4 10 5 11 6 13 7 12 8 14 9 5 10 4 11 2 12 3 13
REMARK SMILES IDX 1 14
REMARK H PARENT
REMARK Flexibility Score: inf
ROOT
ATOM      1  C   UNL     1      11.357 -18.124 -20.915  1.00  0.00    -0.077 C 
ATOM      2  C   UNL     1      11.057 -17.743 -22.178  1.00  0.00    -0.028 C 
ATOM      3  C   UNL     1      10.294 -18.265 -19.850  1.00  0.00     0.039 C 
ENDROOT
BRANCH   1   4
ATOM      4  C   UNL     1      12.794 -18.444 -20.566  1.00  0.00     0.034 C 
BRANCH   4   5
ATOM      5  C   UNL     1      13.271 -17.586 -19.389  1.00  0.00     0.032 C 
BRANCH   5   6
ATOM      6  C   UNL     1      14.771 -17.424 -19.419  1.00  0.00    -0.028 C 
ATOM      7  C   UNL     1      15.111 -18.678 -17.278  1.00  0.00     0.039 C 
ATOM      8  C   UNL     1      15.608 -17.888 -18.465  1.00  0.00    -0.080 C 
ATOM      9  C   UNL     1      17.084 -17.616 -18.612  1.00  0.00     0.039 C 
ENDBRANCH   5   6
ENDBRANCH   4   5
ENDBRANCH   1   4
BRANCH   2  10
ATOM     10  C   UNL     1       9.675 -17.364 -22.653  1.00  0.00     0.035 C 
BRANCH  10  11
ATOM     11  C   UNL     1       9.132 -18.350 -23.696  1.00  0.00     0.079 C 
BRANCH  11  12
ATOM     12  C   UNL     1       7.831 -18.973 -23.253  1.00  0.00     0.130 C 
ATOM     13  O   UNL     1       7.273 -19.782 -23.978  1.00  0.00    -0.300 OA
ATOM     14  C   UNL     1       7.199 -18.610 -21.942  1.00  0.00     0.087 C 
ENDBRANCH  11  12
ENDBRANCH  10  11
ENDBRANCH   2  10
TORSDOF 6
ENDMDL
MODEL 2
REMARK VINA RESULT:    -5.315      6.246      7.833
REMARK INTER + INTRA:          -7.748
REMARK INTER:                  -7.378
REMARK INTRA:                  -0.370
REMARK UNBOUND:                -0.570
REMARK SMILES CC(=O)CCC=C(C)CCC=C(C)C
REMARK SMILES IDX 7 1 6 2 8 3 9 4 10 5 11 6 13 7 12 8 14 9 5 10 4 11 2 12 3 13
REMARK SMILES IDX 1 14
REMARK H PARENT
REMARK Flexibility Score: inf
ROOT
ATOM      1  C   UNL     1      14.966 -21.679 -22.256  1.00  0.00    -0.077 C 
ATOM      2  C   UNL     1      15.745 -22.769 -22.065  1.00  0.00    -0.028 C 
ATOM      3  C   UNL     1      14.794 -21.049 -23.618  1.00  0.00     0.039 C 
ENDROOT
BRANCH   1   4
ATOM      4  C   UNL     1      14.227 -21.090 -21.075  1.00  0.00     0.034 C 
BRANCH   4   5
ATOM      5  C   UNL     1      15.126 -20.122 -20.298  1.00  0.00     0.032 C 
BRANCH   5   6
ATOM      6  C   UNL     1      14.677 -20.012 -18.862  1.00  0.00    -0.028 C 
ATOM      7  C   UNL     1      15.875 -17.845 -18.484  1.00  0.00     0.039 C 
ATOM      8  C   UNL     1      15.026 -19.008 -18.027  1.00  0.00    -0.080 C 
ATOM      9  C   UNL     1      14.532 -19.053 -16.604  1.00  0.00     0.039 C 
ENDBRANCH   5   6
ENDBRANCH   4   5
ENDBRANCH   1   4
BRANCH   2  10
ATOM     10  C   UNL     1      16.562 -23.438 -23.146  1.00  0.00     0.035 C 
BRANCH  10  11
ATOM     11  C   UNL     1      17.111 -24.798 -22.695  1.00  0.00     0.079 C 
BRANCH  11  12
ATOM     12  C   UNL     1      18.421 -25.124 -23.369  1.00  0.00     0.130 C 
ATOM     13  O   UNL     1      19.120 -26.022 -22.926  1.00  0.00    -0.300 OA
ATOM     14  C   UNL     1      18.892 -24.358 -24.569  1.00  0.00     0.087 C 
ENDBRANCH  11  12
ENDBRANCH  10  11
ENDBRANCH   2  10
TORSDOF 6
ENDMDL
MODEL 3
REMARK VINA RESULT:    -5.159      2.755      6.454
REMARK INTER + INTRA:          -7.538
REMARK INTER:                  -6.641
REMARK INTRA:                  -0.897
REMARK UNBOUND:                -0.570
REMARK SMILES CC(=O)CCC=C(C)CCC=C(C)C
REMARK SMILES IDX 7 1 6 2 8 3 9 4 10 5 11 6 13 7 12 8 14 9 5 10 4 11 2 12 3 13
REMARK SMILES IDX 1 14
REMARK H PARENT
REMARK Flexibility Score: inf
ROOT
ATOM      1  C   UNL     1      11.090 -18.121 -20.111  1.00  0.00    -0.077 C 
ATOM      2  C   UNL     1      12.331 -18.025 -20.640  1.00  0.00    -0.028 C 
ATOM      3  C   UNL     1      10.759 -17.568 -18.745  1.00  0.00     0.039 C 
ENDROOT
BRANCH   1   4
ATOM      4  C   UNL     1       9.995 -18.778 -20.922  1.00  0.00     0.034 C 
BRANCH   4   5
ATOM      5  C   UNL     1       9.343 -17.769 -21.874  1.00  0.00     0.032 C 
BRANCH   5   6
ATOM      6  C   UNL     1       9.647 -18.117 -23.311  1.00  0.00    -0.028 C 
ATOM      7  C   UNL     1      11.019 -16.055 -23.687  1.00  0.00     0.039 C 
ATOM      8  C   UNL     1      10.378 -17.344 -24.145  1.00  0.00    -0.080 C 
ATOM      9  C   UNL     1      10.565 -17.803 -25.568  1.00  0.00     0.039 C 
ENDBRANCH   5   6
ENDBRANCH   4   5
ENDBRANCH   1   4
BRANCH   2  10
ATOM     10  C   UNL     1      13.521 -17.425 -19.929  1.00  0.00     0.035 C 
BRANCH  10  11
ATOM     11  C   UNL     1      14.724 -18.379 -19.911  1.00  0.00     0.079 C 
BRANCH  11  12
ATOM     12  C   UNL     1      14.638 -19.366 -18.774  1.00  0.00     0.130 C 
ATOM     13  O   UNL     1      14.537 -20.559 -19.018  1.00  0.00    -0.300 OA
ATOM     14  C   UNL     1      14.662 -18.913 -17.344  1.00  0.00     0.087 C 
ENDBRANCH  11  12
ENDBRANCH  10  11
ENDBRANCH   2  10
TORSDOF 6
ENDMDL
MODEL 4
REMARK VINA RESULT:    -5.158      4.755      6.150
REMARK INTER + INTRA:          -7.536
REMARK INTER:                  -6.702
REMARK INTRA:                  -0.834
REMARK UNBOUND:                -0.570
REMARK SMILES CC(=O)CCC=C(C)CCC=C(C)C
REMARK SMILES IDX 7 1 6 2 8 3 9 4 10 5 11 6 13 7 12 8 14 9 5 10 4 11 2 12 3 13
REMARK SMILES IDX 1 14
REMARK H PARENT
REMARK Flexibility Score: inf
ROOT
ATOM      1  C   UNL     1      13.942 -20.115 -21.376  1.00  0.00    -0.077 C 
ATOM      2  C   UNL     1      14.947 -20.702 -22.064  1.00  0.00    -0.028 C 
ATOM      3  C   UNL     1      13.156 -20.857 -20.320  1.00  0.00     0.039 C 
ENDROOT
BRANCH   1   4
ATOM      4  C   UNL     1      13.611 -18.665 -21.653  1.00  0.00     0.034 C 
BRANCH   4   5
ATOM      5  C   UNL     1      13.717 -17.828 -20.373  1.00  0.00     0.032 C 
BRANCH   5   6
ATOM      6  C   UNL     1      15.160 -17.536 -20.044  1.00  0.00    -0.028 C 
ATOM      7  C   UNL     1      15.048 -18.671 -17.813  1.00  0.00     0.039 C 
ATOM      8  C   UNL     1      15.765 -17.886 -18.887  1.00  0.00    -0.080 C 
ATOM      9  C   UNL     1      17.205 -17.491 -18.682  1.00  0.00     0.039 C 
ENDBRANCH   5   6
ENDBRANCH   4   5
ENDBRANCH   1   4
BRANCH   2  10
ATOM     10  C   UNL     1      15.360 -22.147 -21.912  1.00  0.00     0.035 C 
BRANCH  10  11
ATOM     11  C   UNL     1      15.567 -22.835 -23.268  1.00  0.00     0.079 C 
BRANCH  11  12
ATOM     12  C   UNL     1      16.778 -23.734 -23.261  1.00  0.00     0.130 C 
ATOM     13  O   UNL     1      17.619 -23.619 -24.139  1.00  0.00    -0.300 OA
ATOM     14  C   UNL     1      16.967 -24.780 -22.203  1.00  0.00     0.087 C 
ENDBRANCH  11  12
ENDBRANCH  10  11
ENDBRANCH   2  10
TORSDOF 6
ENDMDL
MODEL 5
REMARK VINA RESULT:    -5.148      5.928      7.365
REMARK INTER + INTRA:          -7.524
REMARK INTER:                  -6.950
REMARK INTRA:                  -0.574
REMARK UNBOUND:                -0.570
REMARK SMILES CC(=O)CCC=C(C)CCC=C(C)C
REMARK SMILES IDX 7 1 6 2 8 3 9 4 10 5 11 6 13 7 12 8 14 9 5 10 4 11 2 12 3 13
REMARK SMILES IDX 1 14
REMARK H PARENT
REMARK Flexibility Score: inf
ROOT
ATOM      1  C   UNL     1      14.637 -21.065 -22.044  1.00  0.00    -0.077 C 
ATOM      2  C   UNL     1      15.009 -21.195 -20.750  1.00  0.00    -0.028 C 
ATOM      3  C   UNL     1      13.698 -19.973 -22.499  1.00  0.00     0.039 C 
ENDROOT
BRANCH   1   4
ATOM      4  C   UNL     1      15.198 -22.025 -23.070  1.00  0.00     0.034 C 
BRANCH   4   5
ATOM      5  C   UNL     1      16.026 -23.123 -22.392  1.00  0.00     0.032 C 
BRANCH   5   6
ATOM      6  C   UNL     1      17.030 -23.706 -23.354  1.00  0.00    -0.028 C 
ATOM      7  C   UNL     1      17.939 -25.328 -21.676  1.00  0.00     0.039 C 
ATOM      8  C   UNL     1      17.914 -24.679 -23.040  1.00  0.00    -0.080 C 
ATOM      9  C   UNL     1      18.886 -25.135 -24.098  1.00  0.00     0.039 C 
ENDBRANCH   5   6
ENDBRANCH   4   5
ENDBRANCH   1   4
BRANCH   2  10
ATOM     10  C   UNL     1      14.502 -20.329 -19.621  1.00  0.00     0.035 C 
BRANCH  10  11
ATOM     11  C   UNL     1      15.455 -19.165 -19.313  1.00  0.00     0.079 C 
BRANCH  11  12
ATOM     12  C   UNL     1      14.715 -17.959 -18.790  1.00  0.00     0.130 C 
ATOM     13  O   UNL     1      15.202 -17.300 -17.885  1.00  0.00    -0.300 OA
ATOM     14  C   UNL     1      13.382 -17.558 -19.350  1.00  0.00     0.087 C 
ENDBRANCH  11  12
ENDBRANCH  10  11
ENDBRANCH   2  10
TORSDOF 6
ENDMDL
MODEL 6
REMARK VINA RESULT:    -5.147      1.785      2.483
REMARK INTER + INTRA:          -7.522
REMARK INTER:                  -6.540
REMARK INTRA:                  -0.982
REMARK UNBOUND:                -0.570
REMARK SMILES CC(=O)CCC=C(C)CCC=C(C)C
REMARK SMILES IDX 7 1 6 2 8 3 9 4 10 5 11 6 13 7 12 8 14 9 5 10 4 11 2 12 3 13
REMARK SMILES IDX 1 14
REMARK H PARENT
REMARK Flexibility Score: inf
ROOT
ATOM      1  C   UNL     1      12.995 -19.348 -21.399  1.00  0.00    -0.077 C 
ATOM      2  C   UNL     1      12.048 -19.304 -20.434  1.00  0.00    -0.028 C 
ATOM      3  C   UNL     1      13.139 -18.249 -22.426  1.00  0.00     0.039 C 
ENDROOT
BRANCH   1   4
ATOM      4  C   UNL     1      13.954 -20.517 -21.435  1.00  0.00     0.034 C 
BRANCH   4   5
ATOM      5  C   UNL     1      14.714 -20.639 -20.110  1.00  0.00     0.032 C 
BRANCH   5   6
ATOM      6  C   UNL     1      15.627 -19.456 -19.907  1.00  0.00    -0.028 C 
ATOM      7  C   UNL     1      14.644 -18.874 -17.678  1.00  0.00     0.039 C 
ATOM      8  C   UNL     1      15.591 -18.639 -18.831  1.00  0.00    -0.080 C 
ATOM      9  C   UNL     1      16.542 -17.470 -18.785  1.00  0.00     0.039 C 
ENDBRANCH   5   6
ENDBRANCH   4   5
ENDBRANCH   1   4
BRANCH   2  10
ATOM     10  C   UNL     1      11.009 -18.216 -20.301  1.00  0.00     0.035 C 
BRANCH  10  11
ATOM     11  C   UNL     1       9.585 -18.748 -20.515  1.00  0.00     0.079 C 
BRANCH  11  12
ATOM     12  C   UNL     1       8.986 -18.239 -21.803  1.00  0.00     0.130 C 
ATOM     13  O   UNL     1       9.622 -17.461 -22.498  1.00  0.00    -0.300 OA
ATOM     14  C   UNL     1       7.616 -18.659 -22.245  1.00  0.00     0.087 C 
ENDBRANCH  11  12
ENDBRANCH  10  11
ENDBRANCH   2  10
TORSDOF 6
ENDMDL
MODEL 7
REMARK VINA RESULT:    -5.133      4.999      6.517
REMARK INTER + INTRA:          -7.503
REMARK INTER:                  -6.792
REMARK INTRA:                  -0.711
REMARK UNBOUND:                -0.570
REMARK SMILES CC(=O)CCC=C(C)CCC=C(C)C
REMARK SMILES IDX 7 1 6 2 8 3 9 4 10 5 11 6 13 7 12 8 14 9 5 10 4 11 2 12 3 13
REMARK SMILES IDX 1 14
REMARK H PARENT
REMARK Flexibility Score: inf
ROOT
ATOM      1  C   UNL     1      15.030 -20.491 -20.804  1.00  0.00    -0.077 C 
ATOM      2  C   UNL     1      15.505 -19.649 -19.858  1.00  0.00    -0.028 C 
ATOM      3  C   UNL     1      13.587 -20.938 -20.823  1.00  0.00     0.039 C 
ENDROOT
BRANCH   1   4
ATOM      4  C   UNL     1      15.964 -20.978 -21.890  1.00  0.00     0.034 C 
BRANCH   4   5
ATOM      5  C   UNL     1      15.361 -22.179 -22.628  1.00  0.00     0.032 C 
BRANCH   5   6
ATOM      6  C   UNL     1      16.057 -23.456 -22.228  1.00  0.00    -0.028 C 
ATOM      7  C   UNL     1      17.509 -23.494 -24.268  1.00  0.00     0.039 C 
ATOM      8  C   UNL     1      17.006 -24.073 -22.967  1.00  0.00    -0.080 C 
ATOM      9  C   UNL     1      17.585 -25.367 -22.456  1.00  0.00     0.039 C 
ENDBRANCH   5   6
ENDBRANCH   4   5
ENDBRANCH   1   4
BRANCH   2  10
ATOM     10  C   UNL     1      14.694 -19.113 -18.702  1.00  0.00     0.035 C 
BRANCH  10  11
ATOM     11  C   UNL     1      14.291 -17.647 -18.910  1.00  0.00     0.079 C 
BRANCH  11  12
ATOM     12  C   UNL     1      13.035 -17.524 -19.737  1.00  0.00     0.130 C 
ATOM     13  O   UNL     1      13.116 -17.195 -20.910  1.00  0.00    -0.300 OA
ATOM     14  C   UNL     1      11.682 -17.784 -19.144  1.00  0.00     0.087 C 
ENDBRANCH  11  12
ENDBRANCH  10  11
ENDBRANCH   2  10
TORSDOF 6
ENDMDL
MODEL 8
REMARK VINA RESULT:    -5.126      1.482      2.885
REMARK INTER + INTRA:          -7.494
REMARK INTER:                  -6.557
REMARK INTRA:                  -0.938
REMARK UNBOUND:                -0.570
REMARK SMILES CC(=O)CCC=C(C)CCC=C(C)C
REMARK SMILES IDX 7 1 6 2 8 3 9 4 10 5 11 6 13 7 12 8 14 9 5 10 4 11 2 12 3 13
REMARK SMILES IDX 1 14
REMARK H PARENT
REMARK Flexibility Score: inf
ROOT
ATOM      1  C   UNL     1      13.499 -18.854 -19.496  1.00  0.00    -0.077 C 
ATOM      2  C   UNL     1      12.708 -17.878 -19.996  1.00  0.00    -0.028 C 
ATOM      3  C   UNL     1      13.708 -20.163 -20.221  1.00  0.00     0.039 C 
ENDROOT
BRANCH   1   4
ATOM      4  C   UNL     1      14.215 -18.619 -18.184  1.00  0.00     0.034 C 
BRANCH   4   5
ATOM      5  C   UNL     1      15.211 -17.461 -18.308  1.00  0.00     0.032 C 
BRANCH   5   6
ATOM      6  C   UNL     1      16.561 -17.963 -18.757  1.00  0.00    -0.028 C 
ATOM      7  C   UNL     1      16.258 -17.154 -21.109  1.00  0.00     0.039 C 
ATOM      8  C   UNL     1      17.035 -17.855 -20.019  1.00  0.00    -0.080 C 
ATOM      9  C   UNL     1      18.389 -18.440 -20.329  1.00  0.00     0.039 C 
ENDBRANCH   5   6
ENDBRANCH   4   5
ENDBRANCH   1   4
BRANCH   2  10
ATOM     10  C   UNL     1      11.911 -17.991 -21.275  1.00  0.00     0.035 C 
BRANCH  10  11
ATOM     11  C   UNL     1      10.416 -18.208 -21.006  1.00  0.00     0.079 C 
BRANCH  11  12
ATOM     12  C   UNL     1       9.567 -17.757 -22.168  1.00  0.00     0.130 C 
ATOM     13  O   UNL     1       8.432 -18.192 -22.290  1.00  0.00    -0.300 OA
ATOM     14  C   UNL     1      10.092 -16.792 -23.189  1.00  0.00     0.087 C 
ENDBRANCH  11  12
ENDBRANCH  10  11
ENDBRANCH   2  10
TORSDOF 6
ENDMDL
MODEL 9
REMARK VINA RESULT:    -5.057      5.350      7.181
REMARK INTER + INTRA:          -7.401
REMARK INTER:                  -6.544
REMARK INTRA:                  -0.857
REMARK UNBOUND:                -0.570
REMARK SMILES CC(=O)CCC=C(C)CCC=C(C)C
REMARK SMILES IDX 7 1 6 2 8 3 9 4 10 5 11 6 13 7 12 8 14 9 5 10 4 11 2 12 3 13
REMARK SMILES IDX 1 14
REMARK H PARENT
REMARK Flexibility Score: inf
ROOT
ATOM      1  C   UNL     1      15.191 -20.188 -21.092  1.00  0.00    -0.077 C 
ATOM      2  C   UNL     1      14.181 -19.332 -20.816  1.00  0.00    -0.028 C 
ATOM      3  C   UNL     1      16.636 -19.746 -21.087  1.00  0.00     0.039 C 
ENDROOT
BRANCH   1   4
ATOM      4  C   UNL     1      14.867 -21.636 -21.388  1.00  0.00     0.034 C 
BRANCH   4   5
ATOM      5  C   UNL     1      15.470 -22.065 -22.730  1.00  0.00     0.032 C 
BRANCH   5   6
ATOM      6  C   UNL     1      15.962 -23.489 -22.664  1.00  0.00    -0.028 C 
ATOM      7  C   UNL     1      18.366 -22.843 -22.939  1.00  0.00     0.039 C 
ATOM      8  C   UNL     1      17.257 -23.857 -22.782  1.00  0.00    -0.080 C 
ATOM      9  C   UNL     1      17.594 -25.325 -22.735  1.00  0.00     0.039 C 
ENDBRANCH   5   6
ENDBRANCH   4   5
ENDBRANCH   1   4
BRANCH   2  10
ATOM     10  C   UNL     1      14.359 -17.858 -20.536  1.00  0.00     0.035 C 
BRANCH  10  11
ATOM     11  C   UNL     1      14.000 -17.498 -19.088  1.00  0.00     0.079 C 
BRANCH  11  12
ATOM     12  C   UNL     1      15.060 -17.957 -18.118  1.00  0.00     0.130 C 
ATOM     13  O   UNL     1      16.190 -17.499 -18.199  1.00  0.00    -0.300 OA
ATOM     14  C   UNL     1      14.761 -18.976 -17.059  1.00  0.00     0.087 C 
ENDBRANCH  11  12
ENDBRANCH  10  11
ENDBRANCH   2  10
TORSDOF 6
ENDMDL
