MODEL 1
REMARK VINA RESULT:    -3.265      0.000      0.000
REMARK INTER + INTRA:          -3.360
REMARK INTER:                  -3.360
REMARK INTRA:                   0.000
REMARK UNBOUND:                 0.000
REMARK SMILES Nc1ncnc2nc[nH]c12
REMARK SMILES IDX 8 1 7 2 6 3 5 4 4 5 3 6 2 7 10 8 9 9 1 11
REMARK H PARENT 9 10 1 12 1 13
REMARK Flexibility Score: inf
ROOT
ATOM      1  C   UNL     1     -14.748 -18.696 -39.568  1.00  0.00     0.199 A 
ATOM      2  N   UNL     1     -15.143 -19.876 -40.120  1.00  0.00    -0.217 NA
ATOM      3  C   UNL     1     -15.493 -20.593 -39.039  1.00  0.00     0.182 A 
ATOM      4  N   UNL     1     -15.966 -21.862 -39.031  1.00  0.00    -0.215 NA
ATOM      5  C   UNL     1     -16.270 -22.429 -37.824  1.00  0.00     0.226 A 
ATOM      6  N   UNL     1     -16.099 -21.723 -36.659  1.00  0.00    -0.217 NA
ATOM      7  C   UNL     1     -15.623 -20.442 -36.667  1.00  0.00     0.152 A 
ATOM      8  C   UNL     1     -15.318 -19.879 -37.903  1.00  0.00     0.127 A 
ATOM      9  N   UNL     1     -14.843 -18.668 -38.214  1.00  0.00    -0.340 N 
ATOM     10  H   UNL     1     -14.600 -17.878 -37.577  1.00  0.00     0.168 HD
ENDROOT
BRANCH   7  11
ATOM     11  N   UNL     1     -15.453 -19.727 -35.443  1.00  0.00    -0.382 N 
ATOM     12  H   UNL     1     -15.024 -20.201 -34.616  1.00  0.00     0.158 HD
ATOM     13  H   UNL     1     -15.748 -18.730 -35.350  1.00  0.00     0.158 HD
ENDBRANCH   7  11
TORSDOF 1
ENDMDL
MODEL 2
REMARK VINA RESULT:    -3.263      0.941      2.962
REMARK INTER + INTRA:          -3.358
REMARK INTER:                  -3.358
REMARK INTRA:                   0.000
REMARK UNBOUND:                 0.000
REMARK SMILES Nc1ncnc2nc[nH]c12
REMARK SMILES IDX 8 1 7 2 6 3 5 4 4 5 3 6 2 7 10 8 9 9 1 11
REMARK H PARENT 9 10 1 12 1 13
REMARK Flexibility Score: inf
ROOT
ATOM      1  C   UNL     1     -15.711 -20.549 -35.835  1.00  0.00     0.199 A 
ATOM      2  N   UNL     1     -16.092 -21.677 -36.495  1.00  0.00    -0.217 NA
ATOM      3  C   UNL     1     -15.810 -21.367 -37.772  1.00  0.00     0.182 A 
ATOM      4  N   UNL     1     -16.001 -22.158 -38.855  1.00  0.00    -0.215 NA
ATOM      5  C   UNL     1     -15.651 -21.666 -40.082  1.00  0.00     0.226 A 
ATOM      6  N   UNL     1     -15.121 -20.406 -40.203  1.00  0.00    -0.217 NA
ATOM      7  C   UNL     1     -14.928 -19.607 -39.110  1.00  0.00     0.152 A 
ATOM      8  C   UNL     1     -15.290 -20.122 -37.868  1.00  0.00     0.127 A 
ATOM      9  N   UNL     1     -15.217 -19.581 -36.647  1.00  0.00    -0.340 N 
ATOM     10  H   UNL     1     -14.866 -18.638 -36.370  1.00  0.00     0.168 HD
ENDROOT
BRANCH   7  11
ATOM     11  N   UNL     1     -14.376 -18.300 -39.259  1.00  0.00    -0.382 N 
ATOM     12  H   UNL     1     -13.364 -18.134 -39.059  1.00  0.00     0.158 HD
ATOM     13  H   UNL     1     -14.962 -17.493 -39.567  1.00  0.00     0.158 HD
ENDBRANCH   7  11
TORSDOF 1
ENDMDL
MODEL 3
REMARK VINA RESULT:    -3.146      0.792      3.626
REMARK INTER + INTRA:          -3.238
REMARK INTER:                  -3.238
REMARK INTRA:                   0.000
REMARK UNBOUND:                 0.000
REMARK SMILES Nc1ncnc2nc[nH]c12
REMARK SMILES IDX 8 1 7 2 6 3 5 4 4 5 3 6 2 7 10 8 9 9 1 11
REMARK H PARENT 9 10 1 12 1 13
REMARK Flexibility Score: inf
ROOT
ATOM      1  C   UNL     1     -15.785 -20.988 -35.818  1.00  0.00     0.199 A 
ATOM      2  N   UNL     1     -15.326 -19.746 -36.136  1.00  0.00    -0.217 NA
ATOM      3  C   UNL     1     -15.241 -19.809 -37.475  1.00  0.00     0.182 A 
ATOM      4  N   UNL     1     -14.830 -18.820 -38.305  1.00  0.00    -0.215 NA
ATOM      5  C   UNL     1     -14.810 -19.073 -39.649  1.00  0.00     0.226 A 
ATOM      6  N   UNL     1     -15.200 -20.296 -40.134  1.00  0.00    -0.217 NA
ATOM      7  C   UNL     1     -15.616 -21.293 -39.298  1.00  0.00     0.152 A 
ATOM      8  C   UNL     1     -15.629 -21.021 -37.933  1.00  0.00     0.127 A 
ATOM      9  N   UNL     1     -15.980 -21.790 -36.895  1.00  0.00    -0.340 N 
ATOM     10  H   UNL     1     -16.325 -22.775 -36.899  1.00  0.00     0.168 HD
ENDROOT
BRANCH   7  11
ATOM     11  N   UNL     1     -16.017 -22.558 -39.825  1.00  0.00    -0.382 N 
ATOM     12  H   UNL     1     -15.309 -23.313 -39.966  1.00  0.00     0.158 HD
ATOM     13  H   UNL     1     -17.011 -22.753 -40.076  1.00  0.00     0.158 HD
ENDBRANCH   7  11
TORSDOF 1
ENDMDL
MODEL 4
REMARK VINA RESULT:    -3.145      0.720      2.850
REMARK INTER + INTRA:          -3.237
REMARK INTER:                  -3.237
REMARK INTRA:                   0.000
REMARK UNBOUND:                 0.000
REMARK SMILES Nc1ncnc2nc[nH]c12
REMARK SMILES IDX 8 1 7 2 6 3 5 4 4 5 3 6 2 7 10 8 9 9 1 11
REMARK H PARENT 9 10 1 12 1 13
REMARK Flexibility Score: inf
ROOT
ATOM      1  C   UNL     1     -16.231 -23.013 -38.553  1.00  0.00     0.199 A 
ATOM      2  N   UNL     1     -15.981 -22.406 -39.746  1.00  0.00    -0.217 NA
ATOM      3  C   UNL     1     -15.580 -21.182 -39.363  1.00  0.00     0.182 A 
ATOM      4  N   UNL     1     -15.204 -20.165 -40.175  1.00  0.00    -0.215 NA
ATOM      5  C   UNL     1     -14.826 -18.985 -39.597  1.00  0.00     0.226 A 
ATOM      6  N   UNL     1     -14.829 -18.844 -38.232  1.00  0.00    -0.217 NA
ATOM      7  C   UNL     1     -15.207 -19.870 -37.412  1.00  0.00     0.152 A 
ATOM      8  C   UNL     1     -15.590 -21.065 -38.015  1.00  0.00     0.127 A 
ATOM      9  N   UNL     1     -16.002 -22.219 -37.477  1.00  0.00    -0.340 N 
ATOM     10  H   UNL     1     -16.122 -22.464 -36.470  1.00  0.00     0.168 HD
ENDROOT
BRANCH   7  11
ATOM     11  N   UNL     1     -15.203 -19.702 -35.995  1.00  0.00    -0.382 N 
ATOM     12  H   UNL     1     -15.989 -19.197 -35.526  1.00  0.00     0.158 HD
ATOM     13  H   UNL     1     -14.427 -20.074 -35.405  1.00  0.00     0.158 HD
ENDBRANCH   7  11
TORSDOF 1
ENDMDL
MODEL 5
REMARK VINA RESULT:    -3.111      2.173      3.241
REMARK INTER + INTRA:          -3.202
REMARK INTER:                  -3.202
REMARK INTRA:                   0.000
REMARK UNBOUND:                 0.000
REMARK SMILES Nc1ncnc2nc[nH]c12
REMARK SMILES IDX 8 1 7 2 6 3 5 4 4 5 3 6 2 7 10 8 9 9 1 11
REMARK H PARENT 9 10 1 12 1 13
REMARK Flexibility Score: inf
ROOT
ATOM      1  C   UNL     1     -14.315 -23.371 -40.944  1.00  0.00     0.199 A 
ATOM      2  N   UNL     1     -15.604 -23.104 -41.292  1.00  0.00    -0.217 NA
ATOM      3  C   UNL     1     -15.872 -22.006 -40.565  1.00  0.00     0.182 A 
ATOM      4  N   UNL     1     -17.039 -21.319 -40.542  1.00  0.00    -0.215 NA
ATOM      5  C   UNL     1     -17.124 -20.219 -39.734  1.00  0.00     0.226 A 
ATOM      6  N   UNL     1     -16.051 -19.828 -38.973  1.00  0.00    -0.217 NA
ATOM      7  C   UNL     1     -14.873 -20.520 -38.997  1.00  0.00     0.152 A 
ATOM      8  C   UNL     1     -14.802 -21.638 -39.824  1.00  0.00     0.127 A 
ATOM      9  N   UNL     1     -13.798 -22.493 -40.048  1.00  0.00    -0.340 N 
ATOM     10  H   UNL     1     -12.838 -22.496 -39.637  1.00  0.00     0.168 HD
ENDROOT
BRANCH   7  11
ATOM     11  N   UNL     1     -13.769 -20.096 -38.197  1.00  0.00    -0.382 N 
ATOM     12  H   UNL     1     -13.083 -19.406 -38.577  1.00  0.00     0.158 HD
ATOM     13  H   UNL     1     -13.626 -20.461 -37.229  1.00  0.00     0.158 HD
ENDBRANCH   7  11
TORSDOF 1
ENDMDL
MODEL 6
REMARK VINA RESULT:    -3.089      1.151      2.695
REMARK INTER + INTRA:          -3.180
REMARK INTER:                  -3.180
REMARK INTRA:                   0.000
REMARK UNBOUND:                 0.000
REMARK SMILES Nc1ncnc2nc[nH]c12
REMARK SMILES IDX 8 1 7 2 6 3 5 4 4 5 3 6 2 7 10 8 9 9 1 11
REMARK H PARENT 9 10 1 12 1 13
REMARK Flexibility Score: inf
ROOT
ATOM      1  C   UNL     1     -15.961 -22.043 -40.681  1.00  0.00     0.199 A 
ATOM      2  N   UNL     1     -16.402 -22.570 -39.505  1.00  0.00    -0.217 NA
ATOM      3  C   UNL     1     -15.962 -21.672 -38.608  1.00  0.00     0.182 A 
ATOM      4  N   UNL     1     -16.135 -21.721 -37.266  1.00  0.00    -0.215 NA
ATOM      5  C   UNL     1     -15.611 -20.708 -36.511  1.00  0.00     0.226 A 
ATOM      6  N   UNL     1     -14.932 -19.675 -37.106  1.00  0.00    -0.217 NA
ATOM      7  C   UNL     1     -14.757 -19.624 -38.460  1.00  0.00     0.152 A 
ATOM      8  C   UNL     1     -15.295 -20.663 -39.215  1.00  0.00     0.127 A 
ATOM      9  N   UNL     1     -15.281 -20.877 -40.535  1.00  0.00    -0.340 N 
ATOM     10  H   UNL     1     -14.853 -20.294 -41.288  1.00  0.00     0.168 HD
ENDROOT
BRANCH   7  11
ATOM     11  N   UNL     1     -14.046 -18.540 -39.057  1.00  0.00    -0.382 N 
ATOM     12  H   UNL     1     -14.564 -17.806 -39.590  1.00  0.00     0.158 HD
ATOM     13  H   UNL     1     -13.008 -18.459 -38.976  1.00  0.00     0.158 HD
ENDBRANCH   7  11
TORSDOF 1
ENDMDL
MODEL 7
REMARK VINA RESULT:    -3.034      0.756      2.440
REMARK INTER + INTRA:          -3.123
REMARK INTER:                  -3.123
REMARK INTRA:                   0.000
REMARK UNBOUND:                 0.000
REMARK SMILES Nc1ncnc2nc[nH]c12
REMARK SMILES IDX 8 1 7 2 6 3 5 4 4 5 3 6 2 7 10 8 9 9 1 11
REMARK H PARENT 9 10 1 12 1 13
REMARK Flexibility Score: inf
ROOT
ATOM      1  C   UNL     1     -14.938 -19.225 -39.757  1.00  0.00     0.199 A 
ATOM      2  N   UNL     1     -14.820 -18.678 -38.516  1.00  0.00    -0.217 NA
ATOM      3  C   UNL     1     -15.230 -19.682 -37.723  1.00  0.00     0.182 A 
ATOM      4  N   UNL     1     -15.308 -19.663 -36.371  1.00  0.00    -0.215 NA
ATOM      5  C   UNL     1     -15.753 -20.789 -35.735  1.00  0.00     0.226 A 
ATOM      6  N   UNL     1     -16.107 -21.902 -36.454  1.00  0.00    -0.217 NA
ATOM      7  C   UNL     1     -16.028 -21.923 -37.819  1.00  0.00     0.152 A 
ATOM      8  C   UNL     1     -15.574 -20.769 -38.452  1.00  0.00     0.127 A 
ATOM      9  N   UNL     1     -15.397 -20.501 -39.750  1.00  0.00    -0.340 N 
ATOM     10  H   UNL     1     -15.567 -21.119 -40.574  1.00  0.00     0.168 HD
ENDROOT
BRANCH   7  11
ATOM     11  N   UNL     1     -16.402 -23.092 -38.547  1.00  0.00    -0.382 N 
ATOM     12  H   UNL     1     -17.368 -23.178 -38.937  1.00  0.00     0.158 HD
ATOM     13  H   UNL     1     -15.730 -23.875 -38.703  1.00  0.00     0.158 HD
ENDBRANCH   7  11
TORSDOF 1
ENDMDL
MODEL 8
REMARK VINA RESULT:    -3.017      1.194      2.884
REMARK INTER + INTRA:          -3.105
REMARK INTER:                  -3.105
REMARK INTRA:                   0.000
REMARK UNBOUND:                 0.000
REMARK SMILES Nc1ncnc2nc[nH]c12
REMARK SMILES IDX 8 1 7 2 6 3 5 4 4 5 3 6 2 7 10 8 9 9 1 11
REMARK H PARENT 9 10 1 12 1 13
REMARK Flexibility Score: inf
ROOT
ATOM      1  C   UNL     1     -14.842 -18.655 -38.959  1.00  0.00     0.199 A 
ATOM      2  N   UNL     1     -15.183 -19.271 -37.794  1.00  0.00    -0.217 NA
ATOM      3  C   UNL     1     -15.406 -20.534 -38.195  1.00  0.00     0.182 A 
ATOM      4  N   UNL     1     -15.779 -21.575 -37.414  1.00  0.00    -0.215 NA
ATOM      5  C   UNL     1     -15.960 -22.794 -38.006  1.00  0.00     0.226 A 
ATOM      6  N   UNL     1     -15.765 -22.949 -39.356  1.00  0.00    -0.217 NA
ATOM      7  C   UNL     1     -15.388 -21.899 -40.145  1.00  0.00     0.152 A 
ATOM      8  C   UNL     1     -15.209 -20.664 -39.527  1.00  0.00     0.127 A 
ATOM      9  N   UNL     1     -14.849 -19.480 -40.036  1.00  0.00    -0.340 N 
ATOM     10  H   UNL     1     -14.624 -19.235 -41.025  1.00  0.00     0.168 HD
ENDROOT
BRANCH   7  11
ATOM     11  N   UNL     1     -15.192 -22.082 -41.547  1.00  0.00    -0.382 N 
ATOM     12  H   UNL     1     -15.220 -21.260 -42.191  1.00  0.00     0.158 HD
ATOM     13  H   UNL     1     -15.019 -23.028 -41.954  1.00  0.00     0.158 HD
ENDBRANCH   7  11
TORSDOF 1
ENDMDL
MODEL 9
REMARK VINA RESULT:    -2.973      7.549      8.259
REMARK INTER + INTRA:          -3.059
REMARK INTER:                  -3.059
REMARK INTRA:                   0.000
REMARK UNBOUND:                 0.000
REMARK SMILES Nc1ncnc2nc[nH]c12
REMARK SMILES IDX 8 1 7 2 6 3 5 4 4 5 3 6 2 7 10 8 9 9 1 11
REMARK H PARENT 9 10 1 12 1 13
REMARK Flexibility Score: inf
ROOT
ATOM      1  C   UNL     1     -10.507 -23.463 -32.102  1.00  0.00     0.199 A 
ATOM      2  N   UNL     1     -11.802 -23.878 -32.167  1.00  0.00    -0.217 NA
ATOM      3  C   UNL     1     -11.763 -24.774 -33.168  1.00  0.00     0.182 A 
ATOM      4  N   UNL     1     -12.805 -25.495 -33.646  1.00  0.00    -0.215 NA
ATOM      5  C   UNL     1     -12.570 -26.363 -34.677  1.00  0.00     0.226 A 
ATOM      6  N   UNL     1     -11.309 -26.494 -35.203  1.00  0.00    -0.217 NA
ATOM      7  C   UNL     1     -10.257 -25.767 -34.721  1.00  0.00     0.152 A 
ATOM      8  C   UNL     1     -10.513 -24.888 -33.673  1.00  0.00     0.127 A 
ATOM      9  N   UNL     1      -9.695 -24.062 -33.010  1.00  0.00    -0.340 N 
ATOM     10  H   UNL     1      -8.673 -23.905 -33.148  1.00  0.00     0.168 HD
ENDROOT
BRANCH   7  11
ATOM     11  N   UNL     1      -8.955 -25.919 -35.285  1.00  0.00    -0.382 N 
ATOM     12  H   UNL     1      -8.374 -26.752 -35.042  1.00  0.00     0.158 HD
ATOM     13  H   UNL     1      -8.561 -25.211 -35.943  1.00  0.00     0.158 HD
ENDBRANCH   7  11
TORSDOF 1
ENDMDL
