MODEL 1
REMARK VINA RESULT:    -3.879      0.000      0.000
REMARK INTER + INTRA:          -9.201
REMARK INTER:                  -6.826
REMARK INTRA:                  -2.375
REMARK UNBOUND:                -2.375
REMARK SMILES CCCCCCCCCCCCCCC(=O)[O-]
REMARK SMILES IDX 9 1 10 2 11 3 12 4 13 5 14 6 15 7 16 8 17 9 8 10 7 11 6 12
REMARK SMILES IDX 5 13 4 14 3 15 2 16 1 17
REMARK H PARENT
REMARK Flexibility Score: inf
ROOT
ATOM      1  C   UNL     1       6.162 -17.364  23.988  1.00  0.00     0.000 C 
ENDROOT
BRANCH   1   2
ATOM      2  C   UNL     1       7.063 -18.359  24.739  1.00  0.00     0.000 C 
BRANCH   2   3
ATOM      3  C   UNL     1       7.337 -19.635  23.927  1.00  0.00     0.000 C 
BRANCH   3   4
ATOM      4  C   UNL     1       6.203 -19.968  22.942  1.00  0.00     0.000 C 
BRANCH   4   5
ATOM      5  C   UNL     1       6.724 -20.346  21.547  1.00  0.00     0.006 C 
BRANCH   5   6
ATOM      6  C   UNL     1       8.194 -20.785  21.566  1.00  0.00     0.053 C 
BRANCH   6   7
ATOM      7  C   UNL     1       8.417 -21.904  20.598  1.00  0.00     0.041 C 
ATOM      8  O   UNL     1       8.452 -21.674  19.361  1.00  0.00    -0.550 OA
ATOM      9  O   UNL     1       8.634 -23.194  21.065  1.00  0.00    -0.550 OA
ENDBRANCH   6   7
ENDBRANCH   5   6
ENDBRANCH   4   5
ENDBRANCH   3   4
ENDBRANCH   2   3
ENDBRANCH   1   2
BRANCH   1  10
ATOM     10  C   UNL     1       6.954 -16.199  23.372  1.00  0.00     0.000 C 
BRANCH  10  11
ATOM     11  C   UNL     1       7.071 -16.308  21.842  1.00  0.00    -0.000 C 
BRANCH  11  12
ATOM     12  C   UNL     1       8.374 -16.990  21.394  1.00  0.00    -0.000 C 
BRANCH  12  13
ATOM     13  C   UNL     1       9.537 -16.742  22.370  1.00  0.00    -0.000 C 
BRANCH  13  14
ATOM     14  C   UNL     1      10.438 -17.977  22.543  1.00  0.00    -0.000 C 
BRANCH  14  15
ATOM     15  C   UNL     1      10.836 -18.218  24.009  1.00  0.00    -0.000 C 
BRANCH  15  16
ATOM     16  C   UNL     1      11.195 -16.915  24.742  1.00  0.00    -0.003 C 
ATOM     17  C   UNL     1      10.318 -16.662  25.969  1.00  0.00     0.004 C 
ENDBRANCH  15  16
ENDBRANCH  14  15
ENDBRANCH  13  14
ENDBRANCH  12  13
ENDBRANCH  11  12
ENDBRANCH  10  11
ENDBRANCH   1  10
TORSDOF 13
ENDMDL
MODEL 2
REMARK VINA RESULT:    -3.850      1.406      2.645
REMARK INTER + INTRA:          -9.151
REMARK INTER:                  -7.185
REMARK INTRA:                  -1.967
REMARK UNBOUND:                -2.375
REMARK SMILES CCCCCCCCCCCCCCC(=O)[O-]
REMARK SMILES IDX 9 1 10 2 11 3 12 4 13 5 14 6 15 7 16 8 17 9 8 10 7 11 6 12
REMARK SMILES IDX 5 13 4 14 3 15 2 16 1 17
REMARK H PARENT
REMARK Flexibility Score: inf
ROOT
ATOM      1  C   UNL     1       8.092 -16.033  22.218  1.00  0.00     0.000 C 
ENDROOT
BRANCH   1   2
ATOM      2  C   UNL     1       7.274 -17.326  22.056  1.00  0.00     0.000 C 
BRANCH   2   3
ATOM      3  C   UNL     1       8.150 -18.588  22.109  1.00  0.00     0.000 C 
BRANCH   3   4
ATOM      4  C   UNL     1       7.365 -19.839  22.540  1.00  0.00     0.000 C 
BRANCH   4   5
ATOM      5  C   UNL     1       6.856 -20.658  21.345  1.00  0.00     0.006 C 
BRANCH   5   6
ATOM      6  C   UNL     1       7.597 -21.992  21.185  1.00  0.00     0.053 C 
BRANCH   6   7
ATOM      7  C   UNL     1       8.898 -21.786  20.478  1.00  0.00     0.041 C 
ATOM      8  O   UNL     1       9.950 -22.320  20.918  1.00  0.00    -0.550 OA
ATOM      9  O   UNL     1       8.943 -21.043  19.305  1.00  0.00    -0.550 OA
ENDBRANCH   6   7
ENDBRANCH   5   6
ENDBRANCH   4   5
ENDBRANCH   3   4
ENDBRANCH   2   3
ENDBRANCH   1   2
BRANCH   1  10
ATOM     10  C   UNL     1       7.493 -15.083  23.269  1.00  0.00     0.000 C 
BRANCH  10  11
ATOM     11  C   UNL     1       8.497 -14.723  24.379  1.00  0.00    -0.000 C 
BRANCH  11  12
ATOM     12  C   UNL     1       9.946 -15.074  24.004  1.00  0.00    -0.000 C 
BRANCH  12  13
ATOM     13  C   UNL     1      10.525 -16.202  24.876  1.00  0.00    -0.000 C 
BRANCH  13  14
ATOM     14  C   UNL     1       9.475 -16.825  25.811  1.00  0.00    -0.000 C 
BRANCH  14  15
ATOM     15  C   UNL     1       9.340 -18.345  25.619  1.00  0.00    -0.000 C 
BRANCH  15  16
ATOM     16  C   UNL     1       7.926 -18.855  25.944  1.00  0.00    -0.003 C 
ATOM     17  C   UNL     1       6.845 -17.801  25.704  1.00  0.00     0.004 C 
ENDBRANCH  15  16
ENDBRANCH  14  15
ENDBRANCH  13  14
ENDBRANCH  12  13
ENDBRANCH  11  12
ENDBRANCH  10  11
ENDBRANCH   1  10
TORSDOF 13
ENDMDL
MODEL 3
REMARK VINA RESULT:    -3.812      1.244      2.844
REMARK INTER + INTRA:          -9.085
REMARK INTER:                  -6.722
REMARK INTRA:                  -2.363
REMARK UNBOUND:                -2.375
REMARK SMILES CCCCCCCCCCCCCCC(=O)[O-]
REMARK SMILES IDX 9 1 10 2 11 3 12 4 13 5 14 6 15 7 16 8 17 9 8 10 7 11 6 12
REMARK SMILES IDX 5 13 4 14 3 15 2 16 1 17
REMARK H PARENT
REMARK Flexibility Score: inf
ROOT
ATOM      1  C   UNL     1       6.738 -16.078  23.295  1.00  0.00     0.000 C 
ENDROOT
BRANCH   1   2
ATOM      2  C   UNL     1       7.174 -16.361  21.847  1.00  0.00     0.000 C 
BRANCH   2   3
ATOM      3  C   UNL     1       7.475 -17.849  21.603  1.00  0.00     0.000 C 
BRANCH   3   4
ATOM      4  C   UNL     1       8.974 -18.179  21.720  1.00  0.00     0.000 C 
BRANCH   4   5
ATOM      5  C   UNL     1       9.229 -19.660  22.038  1.00  0.00     0.006 C 
BRANCH   5   6
ATOM      6  C   UNL     1       7.947 -20.502  21.993  1.00  0.00     0.053 C 
BRANCH   6   7
ATOM      7  C   UNL     1       8.013 -21.494  20.875  1.00  0.00     0.041 C 
ATOM      8  O   UNL     1       7.675 -22.691  21.070  1.00  0.00    -0.550 OA
ATOM      9  O   UNL     1       8.403 -21.087  19.606  1.00  0.00    -0.550 OA
ENDBRANCH   6   7
ENDBRANCH   5   6
ENDBRANCH   4   5
ENDBRANCH   3   4
ENDBRANCH   2   3
ENDBRANCH   1   2
BRANCH   1  10
ATOM     10  C   UNL     1       6.217 -17.335  24.012  1.00  0.00     0.000 C 
BRANCH  10  11
ATOM     11  C   UNL     1       6.875 -17.547  25.386  1.00  0.00    -0.000 C 
BRANCH  11  12
ATOM     12  C   UNL     1       7.974 -18.622  25.357  1.00  0.00    -0.000 C 
BRANCH  12  13
ATOM     13  C   UNL     1       9.389 -18.023  25.435  1.00  0.00    -0.000 C 
BRANCH  13  14
ATOM     14  C   UNL     1       9.386 -16.556  25.899  1.00  0.00    -0.000 C 
BRANCH  14  15
ATOM     15  C   UNL     1       9.914 -15.595  24.820  1.00  0.00    -0.000 C 
BRANCH  15  16
ATOM     16  C   UNL     1      11.089 -16.190  24.027  1.00  0.00    -0.003 C 
ATOM     17  C   UNL     1      11.510 -15.315  22.845  1.00  0.00     0.004 C 
ENDBRANCH  15  16
ENDBRANCH  14  15
ENDBRANCH  13  14
ENDBRANCH  12  13
ENDBRANCH  11  12
ENDBRANCH  10  11
ENDBRANCH   1  10
TORSDOF 13
ENDMDL
MODEL 4
REMARK VINA RESULT:    -3.763      3.306      5.197
REMARK INTER + INTRA:          -8.997
REMARK INTER:                  -6.769
REMARK INTRA:                  -2.228
REMARK UNBOUND:                -2.375
REMARK SMILES CCCCCCCCCCCCCCC(=O)[O-]
REMARK SMILES IDX 9 1 10 2 11 3 12 4 13 5 14 6 15 7 16 8 17 9 8 10 7 11 6 12
REMARK SMILES IDX 5 13 4 14 3 15 2 16 1 17
REMARK H PARENT
REMARK Flexibility Score: inf
ROOT
ATOM      1  C   UNL     1       6.377 -18.405  23.473  1.00  0.00     0.000 C 
ENDROOT
BRANCH   1   2
ATOM      2  C   UNL     1       7.284 -19.276  24.359  1.00  0.00     0.000 C 
BRANCH   2   3
ATOM      3  C   UNL     1       8.726 -18.748  24.425  1.00  0.00     0.000 C 
BRANCH   3   4
ATOM      4  C   UNL     1       9.197 -18.485  25.866  1.00  0.00     0.000 C 
BRANCH   4   5
ATOM      5  C   UNL     1       9.853 -17.105  26.029  1.00  0.00     0.006 C 
BRANCH   5   6
ATOM      6  C   UNL     1      10.380 -16.542  24.703  1.00  0.00     0.053 C 
BRANCH   6   7
ATOM      7  C   UNL     1       9.805 -15.184  24.448  1.00  0.00     0.041 C 
ATOM      8  O   UNL     1       8.853 -14.758  25.151  1.00  0.00    -0.550 OA
ATOM      9  O   UNL     1      10.353 -14.370  23.464  1.00  0.00    -0.550 OA
ENDBRANCH   6   7
ENDBRANCH   5   6
ENDBRANCH   4   5
ENDBRANCH   3   4
ENDBRANCH   2   3
ENDBRANCH   1   2
BRANCH   1  10
ATOM     10  C   UNL     1       6.518 -16.905  23.780  1.00  0.00     0.000 C 
BRANCH  10  11
ATOM     11  C   UNL     1       6.727 -16.060  22.511  1.00  0.00    -0.000 C 
BRANCH  11  12
ATOM     12  C   UNL     1       7.800 -16.646  21.579  1.00  0.00    -0.000 C 
BRANCH  12  13
ATOM     13  C   UNL     1       7.224 -17.109  20.230  1.00  0.00    -0.000 C 
BRANCH  13  14
ATOM     14  C   UNL     1       7.512 -18.592  19.941  1.00  0.00    -0.000 C 
BRANCH  14  15
ATOM     15  C   UNL     1       8.736 -19.117  20.712  1.00  0.00    -0.000 C 
BRANCH  15  16
ATOM     16  C   UNL     1       8.719 -20.646  20.871  1.00  0.00    -0.003 C 
ATOM     17  C   UNL     1       7.329 -21.192  21.201  1.00  0.00     0.004 C 
ENDBRANCH  15  16
ENDBRANCH  14  15
ENDBRANCH  13  14
ENDBRANCH  12  13
ENDBRANCH  11  12
ENDBRANCH  10  11
ENDBRANCH   1  10
TORSDOF 13
ENDMDL
MODEL 5
REMARK VINA RESULT:    -3.743      3.439      5.605
REMARK INTER + INTRA:          -8.962
REMARK INTER:                  -6.890
REMARK INTRA:                  -2.072
REMARK UNBOUND:                -2.375
REMARK SMILES CCCCCCCCCCCCCCC(=O)[O-]
REMARK SMILES IDX 9 1 10 2 11 3 12 4 13 5 14 6 15 7 16 8 17 9 8 10 7 11 6 12
REMARK SMILES IDX 5 13 4 14 3 15 2 16 1 17
REMARK H PARENT
REMARK Flexibility Score: inf
ROOT
ATOM      1  C   UNL     1       7.097 -20.716  21.923  1.00  0.00     0.000 C 
ENDROOT
BRANCH   1   2
ATOM      2  C   UNL     1       6.174 -19.910  22.852  1.00  0.00     0.000 C 
BRANCH   2   3
ATOM      3  C   UNL     1       6.949 -18.918  23.735  1.00  0.00     0.000 C 
BRANCH   3   4
ATOM      4  C   UNL     1       6.217 -17.575  23.905  1.00  0.00     0.000 C 
BRANCH   4   5
ATOM      5  C   UNL     1       7.097 -16.372  23.535  1.00  0.00     0.006 C 
BRANCH   5   6
ATOM      6  C   UNL     1       8.591 -16.643  23.762  1.00  0.00     0.053 C 
BRANCH   6   7
ATOM      7  C   UNL     1       9.264 -15.426  24.315  1.00  0.00     0.041 C 
ATOM      8  O   UNL     1       8.679 -14.714  25.172  1.00  0.00    -0.550 OA
ATOM      9  O   UNL     1      10.556 -15.106  23.919  1.00  0.00    -0.550 OA
ENDBRANCH   6   7
ENDBRANCH   5   6
ENDBRANCH   4   5
ENDBRANCH   3   4
ENDBRANCH   2   3
ENDBRANCH   1   2
BRANCH   1  10
ATOM     10  C   UNL     1       8.578 -20.336  22.084  1.00  0.00     0.000 C 
BRANCH  10  11
ATOM     11  C   UNL     1       9.422 -20.714  20.855  1.00  0.00    -0.000 C 
BRANCH  11  12
ATOM     12  C   UNL     1       8.592 -21.391  19.752  1.00  0.00    -0.000 C 
BRANCH  12  13
ATOM     13  C   UNL     1       8.839 -20.775  18.363  1.00  0.00    -0.000 C 
BRANCH  13  14
ATOM     14  C   UNL     1       8.897 -19.238  18.401  1.00  0.00    -0.000 C 
BRANCH  14  15
ATOM     15  C   UNL     1       7.500 -18.594  18.408  1.00  0.00    -0.000 C 
BRANCH  15  16
ATOM     16  C   UNL     1       7.236 -17.776  19.683  1.00  0.00    -0.003 C 
ATOM     17  C   UNL     1       8.453 -16.966  20.131  1.00  0.00     0.004 C 
ENDBRANCH  15  16
ENDBRANCH  14  15
ENDBRANCH  13  14
ENDBRANCH  12  13
ENDBRANCH  11  12
ENDBRANCH  10  11
ENDBRANCH   1  10
TORSDOF 13
ENDMDL
MODEL 6
REMARK VINA RESULT:    -3.702      1.379      2.197
REMARK INTER + INTRA:          -8.891
REMARK INTER:                  -7.121
REMARK INTRA:                  -1.770
REMARK UNBOUND:                -2.375
REMARK SMILES CCCCCCCCCCCCCCC(=O)[O-]
REMARK SMILES IDX 9 1 10 2 11 3 12 4 13 5 14 6 15 7 16 8 17 9 8 10 7 11 6 12
REMARK SMILES IDX 5 13 4 14 3 15 2 16 1 17
REMARK H PARENT
REMARK Flexibility Score: inf
ROOT
ATOM      1  C   UNL     1       7.440 -19.111  25.067  1.00  0.00     0.000 C 
ENDROOT
BRANCH   1   2
ATOM      2  C   UNL     1       6.782 -19.941  23.950  1.00  0.00     0.000 C 
BRANCH   2   3
ATOM      3  C   UNL     1       7.738 -20.212  22.777  1.00  0.00     0.000 C 
BRANCH   3   4
ATOM      4  C   UNL     1       7.004 -20.685  21.510  1.00  0.00     0.000 C 
BRANCH   4   5
ATOM      5  C   UNL     1       7.593 -21.983  20.937  1.00  0.00     0.006 C 
BRANCH   5   6
ATOM      6  C   UNL     1       9.066 -21.836  20.536  1.00  0.00     0.053 C 
BRANCH   6   7
ATOM      7  C   UNL     1       9.207 -20.861  19.410  1.00  0.00     0.041 C 
ATOM      8  O   UNL     1       8.640 -21.080  18.308  1.00  0.00    -0.550 OA
ATOM      9  O   UNL     1       9.924 -19.685  19.594  1.00  0.00    -0.550 OA
ENDBRANCH   6   7
ENDBRANCH   5   6
ENDBRANCH   4   5
ENDBRANCH   3   4
ENDBRANCH   2   3
ENDBRANCH   1   2
BRANCH   1  10
ATOM     10  C   UNL     1       6.752 -17.752  25.275  1.00  0.00     0.000 C 
BRANCH  10  11
ATOM     11  C   UNL     1       5.977 -17.285  24.031  1.00  0.00    -0.000 C 
BRANCH  11  12
ATOM     12  C   UNL     1       6.666 -16.117  23.307  1.00  0.00    -0.000 C 
BRANCH  12  13
ATOM     13  C   UNL     1       7.554 -16.585  22.141  1.00  0.00    -0.000 C 
BRANCH  13  14
ATOM     14  C   UNL     1       9.056 -16.471  22.458  1.00  0.00    -0.000 C 
BRANCH  14  15
ATOM     15  C   UNL     1       9.350 -15.440  23.561  1.00  0.00    -0.000 C 
BRANCH  15  16
ATOM     16  C   UNL     1      10.557 -15.834  24.427  1.00  0.00    -0.003 C 
ATOM     17  C   UNL     1      10.152 -16.364  25.803  1.00  0.00     0.004 C 
ENDBRANCH  15  16
ENDBRANCH  14  15
ENDBRANCH  13  14
ENDBRANCH  12  13
ENDBRANCH  11  12
ENDBRANCH  10  11
ENDBRANCH   1  10
TORSDOF 13
ENDMDL
MODEL 7
REMARK VINA RESULT:    -3.701      3.114      5.512
REMARK INTER + INTRA:          -8.888
REMARK INTER:                  -7.272
REMARK INTRA:                  -1.616
REMARK UNBOUND:                -2.375
REMARK SMILES CCCCCCCCCCCCCCC(=O)[O-]
REMARK SMILES IDX 9 1 10 2 11 3 12 4 13 5 14 6 15 7 16 8 17 9 8 10 7 11 6 12
REMARK SMILES IDX 5 13 4 14 3 15 2 16 1 17
REMARK H PARENT
REMARK Flexibility Score: inf
ROOT
ATOM      1  C   UNL     1       8.665 -14.675  24.335  1.00  0.00     0.000 C 
ENDROOT
BRANCH   1   2
ATOM      2  C   UNL     1      10.062 -14.941  23.749  1.00  0.00     0.000 C 
BRANCH   2   3
ATOM      3  C   UNL     1      10.851 -15.985  24.557  1.00  0.00     0.000 C 
BRANCH   3   4
ATOM      4  C   UNL     1      10.146 -16.379  25.867  1.00  0.00     0.000 C 
BRANCH   4   5
ATOM      5  C   UNL     1      10.242 -17.884  26.158  1.00  0.00     0.006 C 
BRANCH   5   6
ATOM      6  C   UNL     1      11.291 -18.589  25.287  1.00  0.00     0.053 C 
BRANCH   6   7
ATOM      7  C   UNL     1      12.381 -19.158  26.138  1.00  0.00     0.041 C 
ATOM      8  O   UNL     1      13.585 -19.028  25.796  1.00  0.00    -0.550 OA
ATOM      9  O   UNL     1      12.070 -19.789  27.336  1.00  0.00    -0.550 OA
ENDBRANCH   6   7
ENDBRANCH   5   6
ENDBRANCH   4   5
ENDBRANCH   3   4
ENDBRANCH   2   3
ENDBRANCH   1   2
BRANCH   1  10
ATOM     10  C   UNL     1       7.566 -14.665  23.260  1.00  0.00     0.000 C 
BRANCH  10  11
ATOM     11  C   UNL     1       7.228 -16.076  22.747  1.00  0.00    -0.000 C 
BRANCH  11  12
ATOM     12  C   UNL     1       7.052 -17.093  23.886  1.00  0.00    -0.000 C 
BRANCH  12  13
ATOM     13  C   UNL     1       7.713 -18.448  23.577  1.00  0.00    -0.000 C 
BRANCH  13  14
ATOM     14  C   UNL     1       6.781 -19.639  23.860  1.00  0.00    -0.000 C 
BRANCH  14  15
ATOM     15  C   UNL     1       6.146 -20.209  22.580  1.00  0.00    -0.000 C 
BRANCH  15  16
ATOM     16  C   UNL     1       7.107 -20.175  21.381  1.00  0.00    -0.003 C 
ATOM     17  C   UNL     1       7.687 -21.550  21.046  1.00  0.00     0.004 C 
ENDBRANCH  15  16
ENDBRANCH  14  15
ENDBRANCH  13  14
ENDBRANCH  12  13
ENDBRANCH  11  12
ENDBRANCH  10  11
ENDBRANCH   1  10
TORSDOF 13
ENDMDL
MODEL 8
REMARK VINA RESULT:    -3.674      2.888      4.701
REMARK INTER + INTRA:          -8.841
REMARK INTER:                  -6.378
REMARK INTRA:                  -2.463
REMARK UNBOUND:                -2.375
REMARK SMILES CCCCCCCCCCCCCCC(=O)[O-]
REMARK SMILES IDX 9 1 10 2 11 3 12 4 13 5 14 6 15 7 16 8 17 9 8 10 7 11 6 12
REMARK SMILES IDX 5 13 4 14 3 15 2 16 1 17
REMARK H PARENT
REMARK Flexibility Score: inf
ROOT
ATOM      1  C   UNL     1       8.025 -14.593  23.617  1.00  0.00     0.000 C 
ENDROOT
BRANCH   1   2
ATOM      2  C   UNL     1       8.797 -15.065  24.861  1.00  0.00     0.000 C 
BRANCH   2   3
ATOM      3  C   UNL     1      10.185 -15.629  24.514  1.00  0.00     0.000 C 
BRANCH   3   4
ATOM      4  C   UNL     1      10.849 -14.891  23.338  1.00  0.00     0.000 C 
BRANCH   4   5
ATOM      5  C   UNL     1      11.787 -15.798  22.527  1.00  0.00     0.006 C 
BRANCH   5   6
ATOM      6  C   UNL     1      12.969 -16.318  23.357  1.00  0.00     0.053 C 
BRANCH   6   7
ATOM      7  C   UNL     1      12.961 -17.813  23.398  1.00  0.00     0.041 C 
ATOM      8  O   UNL     1      12.722 -18.416  24.477  1.00  0.00    -0.550 OA
ATOM      9  O   UNL     1      13.168 -18.542  22.234  1.00  0.00    -0.550 OA
ENDBRANCH   6   7
ENDBRANCH   5   6
ENDBRANCH   4   5
ENDBRANCH   3   4
ENDBRANCH   2   3
ENDBRANCH   1   2
BRANCH   1  10
ATOM     10  C   UNL     1       6.974 -15.616  23.152  1.00  0.00     0.000 C 
BRANCH  10  11
ATOM     11  C   UNL     1       7.247 -16.138  21.731  1.00  0.00    -0.000 C 
BRANCH  11  12
ATOM     12  C   UNL     1       7.506 -17.653  21.697  1.00  0.00    -0.000 C 
BRANCH  12  13
ATOM     13  C   UNL     1       9.001 -18.000  21.810  1.00  0.00    -0.000 C 
BRANCH  13  14
ATOM     14  C   UNL     1       9.312 -18.885  23.029  1.00  0.00    -0.000 C 
BRANCH  14  15
ATOM     15  C   UNL     1       8.059 -19.206  23.861  1.00  0.00    -0.000 C 
BRANCH  15  16
ATOM     16  C   UNL     1       8.177 -18.718  25.315  1.00  0.00    -0.003 C 
ATOM     17  C   UNL     1       6.885 -18.091  25.838  1.00  0.00     0.004 C 
ENDBRANCH  15  16
ENDBRANCH  14  15
ENDBRANCH  13  14
ENDBRANCH  12  13
ENDBRANCH  11  12
ENDBRANCH  10  11
ENDBRANCH   1  10
TORSDOF 13
ENDMDL
MODEL 9
REMARK VINA RESULT:    -3.614      1.429      2.649
REMARK INTER + INTRA:          -8.736
REMARK INTER:                  -6.328
REMARK INTRA:                  -2.408
REMARK UNBOUND:                -2.375
REMARK SMILES CCCCCCCCCCCCCCC(=O)[O-]
REMARK SMILES IDX 9 1 10 2 11 3 12 4 13 5 14 6 15 7 16 8 17 9 8 10 7 11 6 12
REMARK SMILES IDX 5 13 4 14 3 15 2 16 1 17
REMARK H PARENT
REMARK Flexibility Score: inf
ROOT
ATOM      1  C   UNL     1       6.857 -17.901  25.495  1.00  0.00     0.000 C 
ENDROOT
BRANCH   1   2
ATOM      2  C   UNL     1       6.331 -17.556  24.091  1.00  0.00     0.000 C 
BRANCH   2   3
ATOM      3  C   UNL     1       6.710 -18.614  23.043  1.00  0.00     0.000 C 
BRANCH   3   4
ATOM      4  C   UNL     1       7.564 -18.039  21.899  1.00  0.00     0.000 C 
BRANCH   4   5
ATOM      5  C   UNL     1       8.558 -19.064  21.331  1.00  0.00     0.006 C 
BRANCH   5   6
ATOM      6  C   UNL     1       8.336 -20.474  21.895  1.00  0.00     0.053 C 
BRANCH   6   7
ATOM      7  C   UNL     1       8.188 -21.464  20.783  1.00  0.00     0.041 C 
ATOM      8  O   UNL     1       7.644 -22.579  20.996  1.00  0.00    -0.550 OA
ATOM      9  O   UNL     1       8.606 -21.136  19.499  1.00  0.00    -0.550 OA
ENDBRANCH   6   7
ENDBRANCH   5   6
ENDBRANCH   4   5
ENDBRANCH   3   4
ENDBRANCH   2   3
ENDBRANCH   1   2
BRANCH   1  10
ATOM     10  C   UNL     1       8.042 -18.880  25.457  1.00  0.00     0.000 C 
BRANCH  10  11
ATOM     11  C   UNL     1       9.398 -18.172  25.624  1.00  0.00    -0.000 C 
BRANCH  11  12
ATOM     12  C   UNL     1      10.424 -18.600  24.562  1.00  0.00    -0.000 C 
BRANCH  12  13
ATOM     13  C   UNL     1      11.442 -17.490  24.242  1.00  0.00    -0.000 C 
BRANCH  13  14
ATOM     14  C   UNL     1      11.057 -16.678  22.994  1.00  0.00    -0.000 C 
BRANCH  14  15
ATOM     15  C   UNL     1      10.644 -15.236  23.332  1.00  0.00    -0.000 C 
BRANCH  15  16
ATOM     16  C   UNL     1       9.118 -15.071  23.437  1.00  0.00    -0.003 C 
ATOM     17  C   UNL     1       8.657 -14.702  24.847  1.00  0.00     0.004 C 
ENDBRANCH  15  16
ENDBRANCH  14  15
ENDBRANCH  13  14
ENDBRANCH  12  13
ENDBRANCH  11  12
ENDBRANCH  10  11
ENDBRANCH   1  10
TORSDOF 13
ENDMDL
