MODEL 1
REMARK VINA RESULT:    -2.546      0.000      0.000
REMARK INTER + INTRA:          -5.401
REMARK INTER:                  -4.034
REMARK INTRA:                  -1.367
REMARK UNBOUND:                -1.367
REMARK SMILES CCCCCCCCCCCC(=O)[O-]
REMARK SMILES IDX 7 1 8 2 9 3 10 4 11 5 12 6 13 7 14 8 6 9 5 10 4 11 3 12 2 13
REMARK SMILES IDX 1 14
REMARK H PARENT
REMARK Flexibility Score: inf
ROOT
ATOM      1  C   UNL     1      18.247   7.999  16.761  1.00  0.00     0.000 C 
ENDROOT
BRANCH   1   2
ATOM      2  C   UNL     1      18.276   9.439  16.223  1.00  0.00     0.000 C 
BRANCH   2   3
ATOM      3  C   UNL     1      18.409  10.485  17.343  1.00  0.00     0.000 C 
BRANCH   3   4
ATOM      4  C   UNL     1      19.027  11.803  16.849  1.00  0.00     0.006 C 
BRANCH   4   5
ATOM      5  C   UNL     1      19.664  12.619  17.982  1.00  0.00     0.053 C 
BRANCH   5   6
ATOM      6  C   UNL     1      21.088  12.941  17.654  1.00  0.00     0.041 C 
ATOM      7  O   UNL     1      21.462  13.006  16.455  1.00  0.00    -0.550 OA
ATOM      8  O   UNL     1      22.013  13.123  18.675  1.00  0.00    -0.550 OA
ENDBRANCH   5   6
ENDBRANCH   4   5
ENDBRANCH   3   4
ENDBRANCH   2   3
ENDBRANCH   1   2
BRANCH   1   9
ATOM      9  C   UNL     1      19.027   7.016  15.869  1.00  0.00     0.000 C 
BRANCH   9  10
ATOM     10  C   UNL     1      20.436   7.523  15.520  1.00  0.00    -0.000 C 
BRANCH  10  11
ATOM     11  C   UNL     1      21.526   6.891  16.403  1.00  0.00    -0.000 C 
BRANCH  11  12
ATOM     12  C   UNL     1      22.536   7.921  16.939  1.00  0.00    -0.000 C 
BRANCH  12  13
ATOM     13  C   UNL     1      21.937   9.294  17.294  1.00  0.00    -0.003 C 
ATOM     14  C   UNL     1      21.592   9.433  18.776  1.00  0.00     0.004 C 
ENDBRANCH  12  13
ENDBRANCH  11  12
ENDBRANCH  10  11
ENDBRANCH   9  10
ENDBRANCH   1   9
TORSDOF 10
ENDMDL
MODEL 2
REMARK VINA RESULT:    -2.481      3.498      5.356
REMARK INTER + INTRA:          -5.299
REMARK INTER:                  -3.856
REMARK INTRA:                  -1.443
REMARK UNBOUND:                -1.367
REMARK SMILES CCCCCCCCCCCC(=O)[O-]
REMARK SMILES IDX 7 1 8 2 9 3 10 4 11 5 12 6 13 7 14 8 6 9 5 10 4 11 3 12 2 13
REMARK SMILES IDX 1 14
REMARK H PARENT
REMARK Flexibility Score: inf
ROOT
ATOM      1  C   UNL     1      23.616   5.418  14.618  1.00  0.00     0.000 C 
ENDROOT
BRANCH   1   2
ATOM      2  C   UNL     1      23.095   4.875  15.959  1.00  0.00     0.000 C 
BRANCH   2   3
ATOM      3  C   UNL     1      21.674   5.369  16.283  1.00  0.00     0.000 C 
BRANCH   3   4
ATOM      4  C   UNL     1      21.356   6.722  15.626  1.00  0.00     0.006 C 
BRANCH   4   5
ATOM      5  C   UNL     1      20.468   7.613  16.506  1.00  0.00     0.053 C 
BRANCH   5   6
ATOM      6  C   UNL     1      19.108   7.754  15.899  1.00  0.00     0.041 C 
ATOM      7  O   UNL     1      18.575   6.781  15.306  1.00  0.00    -0.550 OA
ATOM      8  O   UNL     1      18.449   8.976  15.946  1.00  0.00    -0.550 OA
ENDBRANCH   5   6
ENDBRANCH   4   5
ENDBRANCH   3   4
ENDBRANCH   2   3
ENDBRANCH   1   2
BRANCH   1   9
ATOM      9  C   UNL     1      24.894   6.261  14.775  1.00  0.00     0.000 C 
BRANCH   9  10
ATOM     10  C   UNL     1      25.252   6.525  16.247  1.00  0.00    -0.000 C 
BRANCH  10  11
ATOM     11  C   UNL     1      24.866   7.942  16.703  1.00  0.00    -0.000 C 
BRANCH  11  12
ATOM     12  C   UNL     1      24.739   8.067  18.232  1.00  0.00    -0.000 C 
BRANCH  12  13
ATOM     13  C   UNL     1      23.345   7.740  18.797  1.00  0.00    -0.003 C 
ATOM     14  C   UNL     1      23.289   6.389  19.509  1.00  0.00     0.004 C 
ENDBRANCH  12  13
ENDBRANCH  11  12
ENDBRANCH  10  11
ENDBRANCH   9  10
ENDBRANCH   1   9
TORSDOF 10
ENDMDL
MODEL 3
REMARK VINA RESULT:    -2.481      1.140      1.695
REMARK INTER + INTRA:          -5.298
REMARK INTER:                  -3.948
REMARK INTRA:                  -1.350
REMARK UNBOUND:                -1.367
REMARK SMILES CCCCCCCCCCCC(=O)[O-]
REMARK SMILES IDX 7 1 8 2 9 3 10 4 11 5 12 6 13 7 14 8 6 9 5 10 4 11 3 12 2 13
REMARK SMILES IDX 1 14
REMARK H PARENT
REMARK Flexibility Score: inf
ROOT
ATOM      1  C   UNL     1      18.261   9.226  16.210  1.00  0.00     0.000 C 
ENDROOT
BRANCH   1   2
ATOM      2  C   UNL     1      18.561  10.312  17.258  1.00  0.00     0.000 C 
BRANCH   2   3
ATOM      3  C   UNL     1      19.587   9.851  18.308  1.00  0.00     0.000 C 
BRANCH   3   4
ATOM      4  C   UNL     1      20.827  10.759  18.358  1.00  0.00     0.006 C 
BRANCH   4   5
ATOM      5  C   UNL     1      21.269  11.235  16.968  1.00  0.00     0.053 C 
BRANCH   5   6
ATOM      6  C   UNL     1      21.294  12.730  16.913  1.00  0.00     0.041 C 
ATOM      7  O   UNL     1      21.679  13.319  15.871  1.00  0.00    -0.550 OA
ATOM      8  O   UNL     1      20.937  13.472  18.032  1.00  0.00    -0.550 OA
ENDBRANCH   5   6
ENDBRANCH   4   5
ENDBRANCH   3   4
ENDBRANCH   2   3
ENDBRANCH   1   2
BRANCH   1   9
ATOM      9  C   UNL     1      18.787   7.840  16.626  1.00  0.00     0.000 C 
BRANCH   9  10
ATOM     10  C   UNL     1      19.617   7.166  15.520  1.00  0.00    -0.000 C 
BRANCH  10  11
ATOM     11  C   UNL     1      21.101   7.028  15.898  1.00  0.00    -0.000 C 
BRANCH  11  12
ATOM     12  C   UNL     1      21.316   6.785  17.403  1.00  0.00    -0.000 C 
BRANCH  12  13
ATOM     13  C   UNL     1      22.749   7.041  17.905  1.00  0.00    -0.003 C 
ATOM     14  C   UNL     1      23.417   8.237  17.227  1.00  0.00     0.004 C 
ENDBRANCH  12  13
ENDBRANCH  11  12
ENDBRANCH  10  11
ENDBRANCH   9  10
ENDBRANCH   1   9
TORSDOF 10
ENDMDL
MODEL 4
REMARK VINA RESULT:    -2.471      3.993      6.153
REMARK INTER + INTRA:          -5.282
REMARK INTER:                  -3.930
REMARK INTRA:                  -1.352
REMARK UNBOUND:                -1.367
REMARK SMILES CCCCCCCCCCCC(=O)[O-]
REMARK SMILES IDX 7 1 8 2 9 3 10 4 11 5 12 6 13 7 14 8 6 9 5 10 4 11 3 12 2 13
REMARK SMILES IDX 1 14
REMARK H PARENT
REMARK Flexibility Score: inf
ROOT
ATOM      1  C   UNL     1      24.075   6.010  15.217  1.00  0.00     0.000 C 
ENDROOT
BRANCH   1   2
ATOM      2  C   UNL     1      25.247   6.681  15.952  1.00  0.00     0.000 C 
BRANCH   2   3
ATOM      3  C   UNL     1      24.835   7.988  16.651  1.00  0.00     0.000 C 
BRANCH   3   4
ATOM      4  C   UNL     1      24.880   7.878  18.184  1.00  0.00     0.006 C 
BRANCH   4   5
ATOM      5  C   UNL     1      25.557   6.587  18.664  1.00  0.00     0.053 C 
BRANCH   5   6
ATOM      6  C   UNL     1      26.846   6.902  19.356  1.00  0.00     0.041 C 
ATOM      7  O   UNL     1      27.166   8.096  19.586  1.00  0.00    -0.550 OA
ATOM      8  O   UNL     1      27.717   5.877  19.703  1.00  0.00    -0.550 OA
ENDBRANCH   5   6
ENDBRANCH   4   5
ENDBRANCH   3   4
ENDBRANCH   2   3
ENDBRANCH   1   2
BRANCH   1   9
ATOM      9  C   UNL     1      23.410   4.899  16.051  1.00  0.00     0.000 C 
BRANCH   9  10
ATOM     10  C   UNL     1      21.897   5.114  16.223  1.00  0.00    -0.000 C 
BRANCH  10  11
ATOM     11  C   UNL     1      21.451   6.528  15.814  1.00  0.00    -0.000 C 
BRANCH  11  12
ATOM     12  C   UNL     1      21.177   7.442  17.022  1.00  0.00    -0.000 C 
BRANCH  12  13
ATOM     13  C   UNL     1      21.043   8.939  16.688  1.00  0.00    -0.003 C 
ATOM     14  C   UNL     1      21.648   9.848  17.757  1.00  0.00     0.004 C 
ENDBRANCH  12  13
ENDBRANCH  11  12
ENDBRANCH  10  11
ENDBRANCH   9  10
ENDBRANCH   1   9
TORSDOF 10
ENDMDL
MODEL 5
REMARK VINA RESULT:    -2.462      3.133      5.312
REMARK INTER + INTRA:          -5.267
REMARK INTER:                  -4.444
REMARK INTRA:                  -0.823
REMARK UNBOUND:                -1.367
REMARK SMILES CCCCCCCCCCCC(=O)[O-]
REMARK SMILES IDX 7 1 8 2 9 3 10 4 11 5 12 6 13 7 14 8 6 9 5 10 4 11 3 12 2 13
REMARK SMILES IDX 1 14
REMARK H PARENT
REMARK Flexibility Score: inf
ROOT
ATOM      1  C   UNL     1      20.150   7.748  15.477  1.00  0.00     0.000 C 
ENDROOT
BRANCH   1   2
ATOM      2  C   UNL     1      21.370   7.174  16.216  1.00  0.00     0.000 C 
BRANCH   2   3
ATOM      3  C   UNL     1      22.029   8.200  17.153  1.00  0.00     0.000 C 
BRANCH   3   4
ATOM      4  C   UNL     1      23.438   7.775  17.598  1.00  0.00     0.006 C 
BRANCH   4   5
ATOM      5  C   UNL     1      23.865   6.428  16.998  1.00  0.00     0.053 C 
BRANCH   5   6
ATOM      6  C   UNL     1      25.134   6.584  16.220  1.00  0.00     0.041 C 
ATOM      7  O   UNL     1      26.201   6.902  16.806  1.00  0.00    -0.550 OA
ATOM      8  O   UNL     1      25.127   6.427  14.840  1.00  0.00    -0.550 OA
ENDBRANCH   5   6
ENDBRANCH   4   5
ENDBRANCH   3   4
ENDBRANCH   2   3
ENDBRANCH   1   2
BRANCH   1   9
ATOM      9  C   UNL     1      18.941   7.964  16.406  1.00  0.00     0.000 C 
BRANCH   9  10
ATOM     10  C   UNL     1      18.373   9.390  16.317  1.00  0.00    -0.000 C 
BRANCH  10  11
ATOM     11  C   UNL     1      18.835  10.283  17.481  1.00  0.00    -0.000 C 
BRANCH  11  12
ATOM     12  C   UNL     1      19.419  11.627  17.010  1.00  0.00    -0.000 C 
BRANCH  12  13
ATOM     13  C   UNL     1      20.957  11.703  17.006  1.00  0.00    -0.003 C 
ATOM     14  C   UNL     1      21.489  13.105  17.298  1.00  0.00     0.004 C 
ENDBRANCH  12  13
ENDBRANCH  11  12
ENDBRANCH  10  11
ENDBRANCH   9  10
ENDBRANCH   1   9
TORSDOF 10
ENDMDL
MODEL 6
REMARK VINA RESULT:    -2.424      2.648      4.614
REMARK INTER + INTRA:          -5.208
REMARK INTER:                  -4.116
REMARK INTRA:                  -1.093
REMARK UNBOUND:                -1.367
REMARK SMILES CCCCCCCCCCCC(=O)[O-]
REMARK SMILES IDX 7 1 8 2 9 3 10 4 11 5 12 6 13 7 14 8 6 9 5 10 4 11 3 12 2 13
REMARK SMILES IDX 1 14
REMARK H PARENT
REMARK Flexibility Score: inf
ROOT
ATOM      1  C   UNL     1      18.208   8.101  16.933  1.00  0.00     0.000 C 
ENDROOT
BRANCH   1   2
ATOM      2  C   UNL     1      18.804   7.116  15.914  1.00  0.00     0.000 C 
BRANCH   2   3
ATOM      3  C   UNL     1      20.216   7.524  15.457  1.00  0.00     0.000 C 
BRANCH   3   4
ATOM      4  C   UNL     1      21.307   6.597  16.015  1.00  0.00     0.006 C 
BRANCH   4   5
ATOM      5  C   UNL     1      22.226   7.304  17.021  1.00  0.00     0.053 C 
BRANCH   5   6
ATOM      6  C   UNL     1      23.652   7.214  16.575  1.00  0.00     0.041 C 
ATOM      7  O   UNL     1      24.438   8.177  16.770  1.00  0.00    -0.550 OA
ATOM      8  O   UNL     1      24.099   6.085  15.900  1.00  0.00    -0.550 OA
ENDBRANCH   5   6
ENDBRANCH   4   5
ENDBRANCH   3   4
ENDBRANCH   2   3
ENDBRANCH   1   2
BRANCH   1   9
ATOM      9  C   UNL     1      18.411   9.572  16.527  1.00  0.00     0.000 C 
BRANCH   9  10
ATOM     10  C   UNL     1      18.812  10.464  17.713  1.00  0.00    -0.000 C 
BRANCH  10  11
ATOM     11  C   UNL     1      20.303  10.333  18.071  1.00  0.00    -0.000 C 
BRANCH  11  12
ATOM     12  C   UNL     1      21.234  10.830  16.951  1.00  0.00    -0.000 C 
BRANCH  12  13
ATOM     13  C   UNL     1      21.307  12.360  16.798  1.00  0.00    -0.003 C 
ATOM     14  C   UNL     1      21.506  13.087  18.127  1.00  0.00     0.004 C 
ENDBRANCH  12  13
ENDBRANCH  11  12
ENDBRANCH  10  11
ENDBRANCH   9  10
ENDBRANCH   1   9
TORSDOF 10
ENDMDL
MODEL 7
REMARK VINA RESULT:    -2.424      2.067      3.338
REMARK INTER + INTRA:          -5.208
REMARK INTER:                  -3.775
REMARK INTRA:                  -1.433
REMARK UNBOUND:                -1.367
REMARK SMILES CCCCCCCCCCCC(=O)[O-]
REMARK SMILES IDX 7 1 8 2 9 3 10 4 11 5 12 6 13 7 14 8 6 9 5 10 4 11 3 12 2 13
REMARK SMILES IDX 1 14
REMARK H PARENT
REMARK Flexibility Score: inf
ROOT
ATOM      1  C   UNL     1      21.562   6.484  15.548  1.00  0.00     0.000 C 
ENDROOT
BRANCH   1   2
ATOM      2  C   UNL     1      21.347   6.449  17.070  1.00  0.00     0.000 C 
BRANCH   2   3
ATOM      3  C   UNL     1      20.805   7.779  17.620  1.00  0.00     0.000 C 
BRANCH   3   4
ATOM      4  C   UNL     1      20.949   8.935  16.617  1.00  0.00     0.006 C 
BRANCH   4   5
ATOM      5  C   UNL     1      21.711  10.133  17.200  1.00  0.00     0.053 C 
BRANCH   5   6
ATOM      6  C   UNL     1      20.898  11.382  17.066  1.00  0.00     0.041 C 
ATOM      7  O   UNL     1      21.403  12.415  16.557  1.00  0.00    -0.550 OA
ATOM      8  O   UNL     1      19.595  11.418  17.548  1.00  0.00    -0.550 OA
ENDBRANCH   5   6
ENDBRANCH   4   5
ENDBRANCH   3   4
ENDBRANCH   2   3
ENDBRANCH   1   2
BRANCH   1   9
ATOM      9  C   UNL     1      22.777   5.651  15.101  1.00  0.00     0.000 C 
BRANCH   9  10
ATOM     10  C   UNL     1      23.925   5.681  16.124  1.00  0.00    -0.000 C 
BRANCH  10  11
ATOM     11  C   UNL     1      24.976   6.756  15.798  1.00  0.00    -0.000 C 
BRANCH  11  12
ATOM     12  C   UNL     1      24.797   8.041  16.626  1.00  0.00    -0.000 C 
BRANCH  12  13
ATOM     13  C   UNL     1      25.337   7.967  18.066  1.00  0.00    -0.003 C 
ATOM     14  C   UNL     1      24.241   8.090  19.124  1.00  0.00     0.004 C 
ENDBRANCH  12  13
ENDBRANCH  11  12
ENDBRANCH  10  11
ENDBRANCH   9  10
ENDBRANCH   1   9
TORSDOF 10
ENDMDL
MODEL 8
REMARK VINA RESULT:    -2.386      3.130      5.222
REMARK INTER + INTRA:          -5.148
REMARK INTER:                  -3.644
REMARK INTRA:                  -1.503
REMARK UNBOUND:                -1.367
REMARK SMILES CCCCCCCCCCCC(=O)[O-]
REMARK SMILES IDX 7 1 8 2 9 3 10 4 11 5 12 6 13 7 14 8 6 9 5 10 4 11 3 12 2 13
REMARK SMILES IDX 1 14
REMARK H PARENT
REMARK Flexibility Score: inf
ROOT
ATOM      1  C   UNL     1      20.050   6.129  16.248  1.00  0.00     0.000 C 
ENDROOT
BRANCH   1   2
ATOM      2  C   UNL     1      21.419   5.430  16.302  1.00  0.00     0.000 C 
BRANCH   2   3
ATOM      3  C   UNL     1      22.410   5.995  15.270  1.00  0.00     0.000 C 
BRANCH   3   4
ATOM      4  C   UNL     1      23.871   5.660  15.611  1.00  0.00     0.006 C 
BRANCH   4   5
ATOM      5  C   UNL     1      24.217   5.943  17.079  1.00  0.00     0.053 C 
BRANCH   5   6
ATOM      6  C   UNL     1      25.321   6.949  17.169  1.00  0.00     0.041 C 
ATOM      7  O   UNL     1      26.396   6.658  17.754  1.00  0.00    -0.550 OA
ATOM      8  O   UNL     1      25.143   8.224  16.647  1.00  0.00    -0.550 OA
ENDBRANCH   5   6
ENDBRANCH   4   5
ENDBRANCH   3   4
ENDBRANCH   2   3
ENDBRANCH   1   2
BRANCH   1   9
ATOM      9  C   UNL     1      20.118   7.516  15.586  1.00  0.00     0.000 C 
BRANCH   9  10
ATOM     10  C   UNL     1      19.288   8.572  16.336  1.00  0.00    -0.000 C 
BRANCH  10  11
ATOM     11  C   UNL     1      20.166   9.637  17.016  1.00  0.00    -0.000 C 
BRANCH  11  12
ATOM     12  C   UNL     1      21.657   9.256  17.044  1.00  0.00    -0.000 C 
BRANCH  12  13
ATOM     13  C   UNL     1      22.251   9.062  18.451  1.00  0.00    -0.003 C 
ATOM     14  C   UNL     1      21.725   7.813  19.158  1.00  0.00     0.004 C 
ENDBRANCH  12  13
ENDBRANCH  11  12
ENDBRANCH  10  11
ENDBRANCH   9  10
ENDBRANCH   1   9
TORSDOF 10
ENDMDL
MODEL 9
REMARK VINA RESULT:    -2.376      3.726      5.884
REMARK INTER + INTRA:          -5.132
REMARK INTER:                  -3.571
REMARK INTRA:                  -1.560
REMARK UNBOUND:                -1.367
REMARK SMILES CCCCCCCCCCCC(=O)[O-]
REMARK SMILES IDX 7 1 8 2 9 3 10 4 11 5 12 6 13 7 14 8 6 9 5 10 4 11 3 12 2 13
REMARK SMILES IDX 1 14
REMARK H PARENT
REMARK Flexibility Score: inf
ROOT
ATOM      1  C   UNL     1      21.981   8.737  17.474  1.00  0.00     0.000 C 
ENDROOT
BRANCH   1   2
ATOM      2  C   UNL     1      23.423   8.247  17.686  1.00  0.00     0.000 C 
BRANCH   2   3
ATOM      3  C   UNL     1      23.546   7.270  18.869  1.00  0.00     0.000 C 
BRANCH   3   4
ATOM      4  C   UNL     1      24.671   6.241  18.670  1.00  0.00     0.006 C 
BRANCH   4   5
ATOM      5  C   UNL     1      25.921   6.850  18.022  1.00  0.00     0.053 C 
BRANCH   5   6
ATOM      6  C   UNL     1      26.702   7.632  19.030  1.00  0.00     0.041 C 
ATOM      7  O   UNL     1      27.172   7.063  20.048  1.00  0.00    -0.550 OA
ATOM      8  O   UNL     1      26.868   9.002  18.869  1.00  0.00    -0.550 OA
ENDBRANCH   5   6
ENDBRANCH   4   5
ENDBRANCH   3   4
ENDBRANCH   2   3
ENDBRANCH   1   2
BRANCH   1   9
ATOM      9  C   UNL     1      20.955   7.590  17.498  1.00  0.00     0.000 C 
BRANCH   9  10
ATOM     10  C   UNL     1      20.994   6.734  16.221  1.00  0.00    -0.000 C 
BRANCH  10  11
ATOM     11  C   UNL     1      21.400   5.277  16.500  1.00  0.00    -0.000 C 
BRANCH  11  12
ATOM     12  C   UNL     1      22.711   4.877  15.800  1.00  0.00    -0.000 C 
BRANCH  12  13
ATOM     13  C   UNL     1      23.230   5.889  14.763  1.00  0.00    -0.003 C 
ATOM     14  C   UNL     1      24.754   6.006  14.748  1.00  0.00     0.004 C 
ENDBRANCH  12  13
ENDBRANCH  11  12
ENDBRANCH  10  11
ENDBRANCH   9  10
ENDBRANCH   1   9
TORSDOF 10
ENDMDL
