MODEL 1
REMARK VINA RESULT:    -5.255      0.000      0.000
REMARK INTER + INTRA:          -6.655
REMARK INTER:                  -7.405
REMARK INTRA:                   0.751
REMARK UNBOUND:                 0.751
REMARK SMILES CC1=CCC(=C(C)C)C(=O)CC(C)=CCC1
REMARK SMILES IDX 12 1 14 2 13 3 15 4 16 5 2 6 1 7 3 8 11 10 9 11 10 12 5 13
REMARK SMILES IDX 6 14 7 15 8 16 4 17
REMARK H PARENT
REMARK Flexibility Score: 60.00
ROOT
ATOM      1  C   UNL     1      28.978 -12.406  27.213  1.00  0.00    -0.070 C 
ATOM      2  C   UNL     1      30.209 -12.320  27.770  1.00  0.00    -0.027 C 
ATOM      3  C   UNL     1      28.701 -11.548  26.002  1.00  0.00     0.039 C 
ENDROOT
BRANCH   2   4
ATOM      4  C   UNL     1      30.735 -13.157  28.912  1.00  0.00     0.032 C 
BRANCH   4   5
ATOM      5  C   UNL     1      31.098 -12.312  30.147  1.00  0.00     0.034 C 
BRANCH   5   6
ATOM      6  C   UNL     1      29.982 -11.364  30.540  1.00  0.00    -0.077 C 
ATOM      7  C   UNL     1      30.245  -9.881  30.470  1.00  0.00     0.039 C 
ATOM      8  C   UNL     1      28.769 -11.772  30.975  1.00  0.00    -0.023 CG0
ATOM      9  G   UNL     1      28.329 -13.206  31.146  1.00  0.00     0.000 G0
ENDBRANCH   5   6
ENDBRANCH   4   5
ENDBRANCH   2   4
BRANCH   1  10
ATOM     10  C   UNL     1      27.897 -13.358  27.696  1.00  0.00     0.111 C 
BRANCH  10  11
ATOM     11  C   UNL     1      27.157 -12.800  28.887  1.00  0.00     0.163 C 
ATOM     12  O   UNL     1      26.564 -11.695  28.753  1.00  0.00    -0.294 OA
BRANCH  11  13
ATOM     13  C   UNL     1      27.156 -13.492  30.214  1.00  0.00    -0.002 C 
ATOM     14  C   UNL     1      26.190 -14.399  30.551  1.00  0.00    -0.069 C 
ATOM     15  C   UNL     1      26.173 -15.065  31.909  1.00  0.00     0.039 C 
ATOM     16  C   UNL     1      25.110 -14.807  29.573  1.00  0.00     0.039 C 
BRANCH  13  17
ATOM     17  C   UNL     1      28.319 -13.201  31.145  1.00  0.00     0.066 CG0
ATOM     18  G   UNL     1      28.763 -11.768  30.976  1.00  0.00     0.000 G0
ENDBRANCH  13  17
ENDBRANCH  11  13
ENDBRANCH  10  11
ENDBRANCH   1  10
TORSDOF 0
ENDMDL
MODEL 2
REMARK VINA RESULT:    -5.238      1.670      3.553
REMARK INTER + INTRA:          -6.631
REMARK INTER:                  -7.411
REMARK INTRA:                   0.780
REMARK UNBOUND:                 0.751
REMARK SMILES CC1=CCC(=C(C)C)C(=O)CC(C)=CCC1
REMARK SMILES IDX 12 1 14 2 13 3 15 4 16 5 2 6 1 7 3 8 11 10 9 11 10 12 5 13
REMARK SMILES IDX 6 14 7 15 8 16 4 17
REMARK H PARENT
REMARK Flexibility Score: 60.00
ROOT
ATOM      1  C   UNL     1      28.244 -12.956  31.172  1.00  0.00    -0.070 C 
ATOM      2  C   UNL     1      29.483 -13.464  31.367  1.00  0.00    -0.027 C 
ATOM      3  C   UNL     1      27.073 -13.893  31.346  1.00  0.00     0.039 C 
ENDROOT
BRANCH   2   4
ATOM      4  C   UNL     1      30.780 -12.690  31.351  1.00  0.00     0.032 C 
BRANCH   4   5
ATOM      5  C   UNL     1      31.005 -11.941  30.024  1.00  0.00     0.034 C 
BRANCH   5   6
ATOM      6  C   UNL     1      30.988 -12.875  28.830  1.00  0.00    -0.077 C 
ATOM      7  C   UNL     1      31.999 -13.992  28.780  1.00  0.00     0.039 C 
ATOM      8  C   UNL     1      30.132 -12.748  27.790  1.00  0.00    -0.023 CG0
ATOM      9  G   UNL     1      29.078 -11.678  27.641  1.00  0.00     0.000 G0
ENDBRANCH   5   6
ENDBRANCH   4   5
ENDBRANCH   2   4
BRANCH   1  10
ATOM     10  C   UNL     1      27.969 -11.495  30.858  1.00  0.00     0.111 C 
BRANCH  10  11
ATOM     11  C   UNL     1      27.337 -11.329  29.497  1.00  0.00     0.163 C 
ATOM     12  O   UNL     1      26.375 -10.522  29.384  1.00  0.00    -0.294 OA
BRANCH  11  13
ATOM     13  C   UNL     1      27.788 -12.125  28.313  1.00  0.00    -0.002 C 
ATOM     14  C   UNL     1      27.047 -13.164  27.821  1.00  0.00    -0.069 C 
ATOM     15  C   UNL     1      27.528 -13.989  26.648  1.00  0.00     0.039 C 
ATOM     16  C   UNL     1      25.696 -13.518  28.401  1.00  0.00     0.039 C 
BRANCH  13  17
ATOM     17  C   UNL     1      29.071 -11.683  27.632  1.00  0.00     0.066 CG0
ATOM     18  G   UNL     1      30.126 -12.752  27.785  1.00  0.00     0.000 G0
ENDBRANCH  13  17
ENDBRANCH  11  13
ENDBRANCH  10  11
ENDBRANCH   1  10
TORSDOF 0
ENDMDL
MODEL 3
REMARK VINA RESULT:    -5.088      1.156      1.703
REMARK INTER + INTRA:          -6.419
REMARK INTER:                  -7.406
REMARK INTRA:                   0.987
REMARK UNBOUND:                 0.751
REMARK SMILES CC1=CCC(=C(C)C)C(=O)CC(C)=CCC1
REMARK SMILES IDX 12 1 14 2 13 3 15 4 16 5 2 6 1 7 3 8 11 10 9 11 10 12 5 13
REMARK SMILES IDX 6 14 7 15 8 16 4 17
REMARK H PARENT
REMARK Flexibility Score: 60.00
ROOT
ATOM      1  C   UNL     1      28.365 -11.171  27.411  1.00  0.00    -0.070 C 
ATOM      2  C   UNL     1      29.362 -10.569  28.101  1.00  0.00    -0.027 C 
ATOM      3  C   UNL     1      28.625 -11.505  25.962  1.00  0.00     0.039 C 
ENDROOT
BRANCH   2   4
ATOM      4  C   UNL     1      29.360 -10.243  29.576  1.00  0.00     0.032 C 
BRANCH   4   5
ATOM      5  C   UNL     1      30.496 -10.948  30.339  1.00  0.00     0.034 C 
BRANCH   5   6
ATOM      6  C   UNL     1      30.526 -12.441  30.070  1.00  0.00    -0.077 C 
ATOM      7  C   UNL     1      31.794 -13.041  29.517  1.00  0.00     0.039 C 
ATOM      8  C   UNL     1      29.472 -13.262  30.273  1.00  0.00    -0.023 CG0
ATOM      9  G   UNL     1      28.114 -12.845  30.785  1.00  0.00     0.000 G0
ENDBRANCH   5   6
ENDBRANCH   4   5
ENDBRANCH   2   4
BRANCH   1  10
ATOM     10  C   UNL     1      27.039 -11.583  28.030  1.00  0.00     0.111 C 
BRANCH  10  11
ATOM     11  C   UNL     1      27.046 -13.036  28.439  1.00  0.00     0.163 C 
ATOM     12  O   UNL     1      27.016 -13.909  27.530  1.00  0.00    -0.294 OA
BRANCH  11  13
ATOM     13  C   UNL     1      27.034 -13.453  29.876  1.00  0.00    -0.002 C 
ATOM     14  C   UNL     1      26.142 -14.375  30.350  1.00  0.00    -0.069 C 
ATOM     15  C   UNL     1      26.111 -14.762  31.812  1.00  0.00     0.039 C 
ATOM     16  C   UNL     1      25.167 -15.079  29.432  1.00  0.00     0.039 C 
BRANCH  13  17
ATOM     17  C   UNL     1      28.106 -12.862  30.775  1.00  0.00     0.066 CG0
ATOM     18  G   UNL     1      29.472 -13.261  30.272  1.00  0.00     0.000 G0
ENDBRANCH  13  17
ENDBRANCH  11  13
ENDBRANCH  10  11
ENDBRANCH   1  10
TORSDOF 0
ENDMDL
MODEL 4
REMARK VINA RESULT:    -4.873      1.627      3.522
REMARK INTER + INTRA:          -6.117
REMARK INTER:                  -6.801
REMARK INTRA:                   0.684
REMARK UNBOUND:                 0.751
REMARK SMILES CC1=CCC(=C(C)C)C(=O)CC(C)=CCC1
REMARK SMILES IDX 12 1 14 2 13 3 15 4 16 5 2 6 1 7 3 8 11 10 9 11 10 12 5 13
REMARK SMILES IDX 6 14 7 15 8 16 4 17
REMARK H PARENT
REMARK Flexibility Score: 60.00
ROOT
ATOM      1  C   UNL     1      30.813 -12.886  30.731  1.00  0.00    -0.070 C 
ATOM      2  C   UNL     1      31.176 -12.918  29.427  1.00  0.00    -0.027 C 
ATOM      3  C   UNL     1      31.702 -12.120  31.681  1.00  0.00     0.039 C 
ENDROOT
BRANCH   2   4
ATOM      4  C   UNL     1      30.387 -13.530  28.294  1.00  0.00     0.032 C 
BRANCH   4   5
ATOM      5  C   UNL     1      29.414 -12.530  27.642  1.00  0.00     0.034 C 
BRANCH   5   6
ATOM      6  C   UNL     1      28.144 -13.201  27.156  1.00  0.00    -0.077 C 
ATOM      7  C   UNL     1      28.196 -13.984  25.870  1.00  0.00     0.039 C 
ATOM      8  C   UNL     1      26.957 -13.116  27.799  1.00  0.00    -0.023 CG0
ATOM      9  G   UNL     1      26.698 -12.353  29.075  1.00  0.00     0.000 G0
ENDBRANCH   5   6
ENDBRANCH   4   5
ENDBRANCH   2   4
BRANCH   1  10
ATOM     10  C   UNL     1      29.540 -13.516  31.269  1.00  0.00     0.111 C 
BRANCH  10  11
ATOM     11  C   UNL     1      28.337 -12.640  31.018  1.00  0.00     0.163 C 
ATOM     12  O   UNL     1      28.350 -11.467  31.480  1.00  0.00    -0.294 OA
BRANCH  11  13
ATOM     13  C   UNL     1      27.131 -13.143  30.288  1.00  0.00    -0.002 C 
ATOM     14  C   UNL     1      26.423 -14.226  30.730  1.00  0.00    -0.069 C 
ATOM     15  C   UNL     1      25.228 -14.752  29.965  1.00  0.00     0.039 C 
ATOM     16  C   UNL     1      26.778 -14.932  32.020  1.00  0.00     0.039 C 
BRANCH  13  17
ATOM     17  C   UNL     1      26.680 -12.351  29.074  1.00  0.00     0.066 CG0
ATOM     18  G   UNL     1      26.972 -13.132  27.816  1.00  0.00     0.000 G0
ENDBRANCH  13  17
ENDBRANCH  11  13
ENDBRANCH  10  11
ENDBRANCH   1  10
TORSDOF 0
ENDMDL
MODEL 5
REMARK VINA RESULT:    -4.746      1.566      3.570
REMARK INTER + INTRA:          -5.937
REMARK INTER:                  -7.261
REMARK INTRA:                   1.324
REMARK UNBOUND:                 0.751
REMARK SMILES CC1=CCC(=C(C)C)C(=O)CC(C)=CCC1
REMARK SMILES IDX 12 1 14 2 13 3 15 4 16 5 2 6 1 7 3 8 11 10 9 11 10 12 5 13
REMARK SMILES IDX 6 14 7 15 8 16 4 17
REMARK H PARENT
REMARK Flexibility Score: 60.00
ROOT
ATOM      1  C   UNL     1      26.731 -13.217  28.670  1.00  0.00    -0.070 C 
ATOM      2  C   UNL     1      26.723 -13.877  29.852  1.00  0.00    -0.027 C 
ATOM      3  C   UNL     1      26.361 -14.001  27.434  1.00  0.00     0.039 C 
ENDROOT
BRANCH   2   4
ATOM      4  C   UNL     1      26.955 -13.271  31.215  1.00  0.00     0.032 C 
BRANCH   4   5
ATOM      5  C   UNL     1      28.338 -12.606  31.340  1.00  0.00     0.034 C 
BRANCH   5   6
ATOM      6  C   UNL     1      28.241 -11.095  31.428  1.00  0.00    -0.077 C 
ATOM      7  C   UNL     1      27.187 -10.497  32.325  1.00  0.00     0.039 C 
ATOM      8  C   UNL     1      29.030 -10.250  30.727  1.00  0.00    -0.023 CG0
ATOM      9  G   UNL     1      30.113 -10.655  29.757  1.00  0.00     0.000 G0
ENDBRANCH   5   6
ENDBRANCH   4   5
ENDBRANCH   2   4
BRANCH   1  10
ATOM     10  C   UNL     1      27.025 -11.733  28.532  1.00  0.00     0.111 C 
BRANCH  10  11
ATOM     11  C   UNL     1      28.417 -11.489  28.002  1.00  0.00     0.163 C 
ATOM     12  O   UNL     1      28.537 -11.086  26.814  1.00  0.00    -0.294 OA
BRANCH  11  13
ATOM     13  C   UNL     1      29.636 -11.760  28.827  1.00  0.00    -0.002 C 
ATOM     14  C   UNL     1      30.331 -12.932  28.719  1.00  0.00    -0.069 C 
ATOM     15  C   UNL     1      31.540 -13.214  29.585  1.00  0.00     0.039 C 
ATOM     16  C   UNL     1      29.949 -13.989  27.707  1.00  0.00     0.039 C 
BRANCH  13  17
ATOM     17  C   UNL     1      30.114 -10.644  29.739  1.00  0.00     0.066 CG0
ATOM     18  G   UNL     1      29.021 -10.275  30.712  1.00  0.00     0.000 G0
ENDBRANCH  13  17
ENDBRANCH  11  13
ENDBRANCH  10  11
ENDBRANCH   1  10
TORSDOF 0
ENDMDL
MODEL 6
REMARK VINA RESULT:    -4.734      1.668      4.091
REMARK INTER + INTRA:          -5.921
REMARK INTER:                  -6.785
REMARK INTRA:                   0.864
REMARK UNBOUND:                 0.751
REMARK SMILES CC1=CCC(=C(C)C)C(=O)CC(C)=CCC1
REMARK SMILES IDX 12 1 14 2 13 3 15 4 16 5 2 6 1 7 3 8 11 10 9 11 10 12 5 13
REMARK SMILES IDX 6 14 7 15 8 16 4 17
REMARK H PARENT
REMARK Flexibility Score: 60.00
ROOT
ATOM      1  C   UNL     1      25.944 -14.207  28.327  1.00  0.00    -0.070 C 
ATOM      2  C   UNL     1      26.279 -14.649  27.093  1.00  0.00    -0.027 C 
ATOM      3  C   UNL     1      25.173 -15.150  29.219  1.00  0.00     0.039 C 
ENDROOT
BRANCH   2   4
ATOM      4  C   UNL     1      27.133 -13.920  26.083  1.00  0.00     0.032 C 
BRANCH   4   5
ATOM      5  C   UNL     1      28.556 -13.642  26.602  1.00  0.00     0.034 C 
BRANCH   5   6
ATOM      6  C   UNL     1      28.878 -12.160  26.621  1.00  0.00    -0.077 C 
ATOM      7  C   UNL     1      28.634 -11.359  25.368  1.00  0.00     0.039 C 
ATOM      8  C   UNL     1      29.397 -11.519  27.692  1.00  0.00    -0.023 CG0
ATOM      9  G   UNL     1      29.742 -12.153  29.018  1.00  0.00     0.000 G0
ENDBRANCH   5   6
ENDBRANCH   4   5
ENDBRANCH   2   4
BRANCH   1  10
ATOM     10  C   UNL     1      26.355 -12.852  28.880  1.00  0.00     0.111 C 
BRANCH  10  11
ATOM     11  C   UNL     1      27.466 -12.981  29.893  1.00  0.00     0.163 C 
ATOM     12  O   UNL     1      27.423 -13.947  30.703  1.00  0.00    -0.294 OA
BRANCH  11  13
ATOM     13  C   UNL     1      28.571 -11.975  29.988  1.00  0.00    -0.002 C 
ATOM     14  C   UNL     1      28.563 -10.987  30.934  1.00  0.00    -0.069 C 
ATOM     15  C   UNL     1      29.664  -9.950  30.998  1.00  0.00     0.039 C 
ATOM     16  C   UNL     1      27.476 -10.901  31.982  1.00  0.00     0.039 C 
BRANCH  13  17
ATOM     17  C   UNL     1      29.741 -12.142  29.036  1.00  0.00     0.066 CG0
ATOM     18  G   UNL     1      29.405 -11.526  27.699  1.00  0.00     0.000 G0
ENDBRANCH  13  17
ENDBRANCH  11  13
ENDBRANCH  10  11
ENDBRANCH   1  10
TORSDOF 0
ENDMDL
MODEL 7
REMARK VINA RESULT:    -4.157      2.270      4.473
REMARK INTER + INTRA:          -5.107
REMARK INTER:                  -5.816
REMARK INTRA:                   0.709
REMARK UNBOUND:                 0.751
REMARK SMILES CC1=CCC(=C(C)C)C(=O)CC(C)=CCC1
REMARK SMILES IDX 12 1 14 2 13 3 15 4 16 5 2 6 1 7 3 8 11 10 9 11 10 12 5 13
REMARK SMILES IDX 6 14 7 15 8 16 4 17
REMARK H PARENT
REMARK Flexibility Score: 60.00
ROOT
ATOM      1  C   UNL     1      28.631 -10.517  30.312  1.00  0.00    -0.070 C 
ATOM      2  C   UNL     1      28.197  -9.901  29.187  1.00  0.00    -0.027 C 
ATOM      3  C   UNL     1      29.806  -9.902  31.033  1.00  0.00     0.039 C 
ENDROOT
BRANCH   2   4
ATOM      4  C   UNL     1      26.982 -10.279  28.373  1.00  0.00     0.032 C 
BRANCH   4   5
ATOM      5  C   UNL     1      27.047 -11.726  27.850  1.00  0.00     0.034 C 
BRANCH   5   6
ATOM      6  C   UNL     1      28.301 -11.985  27.037  1.00  0.00    -0.077 C 
ATOM      7  C   UNL     1      28.529 -11.166  25.793  1.00  0.00     0.039 C 
ATOM      8  C   UNL     1      29.217 -12.929  27.352  1.00  0.00    -0.023 CG0
ATOM      9  G   UNL     1      29.148 -13.867  28.533  1.00  0.00     0.000 G0
ENDBRANCH   5   6
ENDBRANCH   4   5
ENDBRANCH   2   4
BRANCH   1  10
ATOM     10  C   UNL     1      27.964 -11.742  30.916  1.00  0.00     0.111 C 
BRANCH  10  11
ATOM     11  C   UNL     1      28.891 -12.932  30.923  1.00  0.00     0.163 C 
ATOM     12  O   UNL     1      28.934 -13.646  31.962  1.00  0.00    -0.294 OA
BRANCH  11  13
ATOM     13  C   UNL     1      29.783 -13.248  29.763  1.00  0.00    -0.002 C 
ATOM     14  C   UNL     1      31.135 -13.049  29.821  1.00  0.00    -0.069 C 
ATOM     15  C   UNL     1      32.025 -13.333  28.631  1.00  0.00     0.039 C 
ATOM     16  C   UNL     1      31.812 -12.569  31.086  1.00  0.00     0.039 C 
BRANCH  13  17
ATOM     17  C   UNL     1      29.132 -13.870  28.541  1.00  0.00     0.066 CG0
ATOM     18  G   UNL     1      29.228 -12.921  27.371  1.00  0.00     0.000 G0
ENDBRANCH  13  17
ENDBRANCH  11  13
ENDBRANCH  10  11
ENDBRANCH   1  10
TORSDOF 0
ENDMDL
MODEL 8
REMARK VINA RESULT:    -3.997      1.532      3.569
REMARK INTER + INTRA:          -4.882
REMARK INTER:                  -5.670
REMARK INTRA:                   0.788
REMARK UNBOUND:                 0.751
REMARK SMILES CC1=CCC(=C(C)C)C(=O)CC(C)=CCC1
REMARK SMILES IDX 12 1 14 2 13 3 15 4 16 5 2 6 1 7 3 8 11 10 9 11 10 12 5 13
REMARK SMILES IDX 6 14 7 15 8 16 4 17
REMARK H PARENT
REMARK Flexibility Score: 60.00
ROOT
ATOM      1  C   UNL     1      30.951 -12.094  30.385  1.00  0.00    -0.070 C 
ATOM      2  C   UNL     1      31.150 -13.064  29.462  1.00  0.00    -0.027 C 
ATOM      3  C   UNL     1      31.503 -12.329  31.771  1.00  0.00     0.039 C 
ENDROOT
BRANCH   2   4
ATOM      4  C   UNL     1      30.780 -12.995  27.999  1.00  0.00     0.032 C 
BRANCH   4   5
ATOM      5  C   UNL     1      29.689 -14.012  27.616  1.00  0.00     0.034 C 
BRANCH   5   6
ATOM      6  C   UNL     1      28.328 -13.361  27.466  1.00  0.00    -0.077 C 
ATOM      7  C   UNL     1      27.864 -12.984  26.082  1.00  0.00     0.039 C 
ATOM      8  C   UNL     1      27.514 -13.076  28.507  1.00  0.00    -0.023 CG0
ATOM      9  G   UNL     1      27.814 -13.343  29.962  1.00  0.00     0.000 G0
ENDBRANCH   5   6
ENDBRANCH   4   5
ENDBRANCH   2   4
BRANCH   1  10
ATOM     10  C   UNL     1      30.269 -10.770  30.086  1.00  0.00     0.111 C 
BRANCH  10  11
ATOM     11  C   UNL     1      28.775 -10.934  29.948  1.00  0.00     0.163 C 
ATOM     12  O   UNL     1      28.153 -10.114  29.220  1.00  0.00    -0.294 OA
BRANCH  11  13
ATOM     13  C   UNL     1      28.024 -11.998  30.685  1.00  0.00    -0.002 C 
ATOM     14  C   UNL     1      27.484 -11.773  31.921  1.00  0.00    -0.069 C 
ATOM     15  C   UNL     1      26.760 -12.866  32.676  1.00  0.00     0.039 C 
ATOM     16  C   UNL     1      27.551 -10.412  32.578  1.00  0.00     0.039 C 
BRANCH  13  17
ATOM     17  C   UNL     1      27.824 -13.322  29.970  1.00  0.00     0.066 CG0
ATOM     18  G   UNL     1      27.514 -13.075  28.513  1.00  0.00     0.000 G0
ENDBRANCH  13  17
ENDBRANCH  11  13
ENDBRANCH  10  11
ENDBRANCH   1  10
TORSDOF 0
ENDMDL
MODEL 9
REMARK VINA RESULT:    -3.957      1.643      3.739
REMARK INTER + INTRA:          -4.826
REMARK INTER:                  -5.589
REMARK INTRA:                   0.763
REMARK UNBOUND:                 0.751
REMARK SMILES CC1=CCC(=C(C)C)C(=O)CC(C)=CCC1
REMARK SMILES IDX 12 1 14 2 13 3 15 4 16 5 2 6 1 7 3 8 11 10 9 11 10 12 5 13
REMARK SMILES IDX 6 14 7 15 8 16 4 17
REMARK H PARENT
REMARK Flexibility Score: 60.00
ROOT
ATOM      1  C   UNL     1      29.903 -12.767  27.934  1.00  0.00    -0.070 C 
ATOM      2  C   UNL     1      28.995 -13.477  27.223  1.00  0.00    -0.027 C 
ATOM      3  C   UNL     1      31.188 -13.463  28.311  1.00  0.00     0.039 C 
ENDROOT
BRANCH   2   4
ATOM      4  C   UNL     1      27.699 -12.953  26.652  1.00  0.00     0.032 C 
BRANCH   4   5
ATOM      5  C   UNL     1      26.748 -12.417  27.738  1.00  0.00     0.034 C 
BRANCH   5   6
ATOM      6  C   UNL     1      26.479 -13.445  28.821  1.00  0.00    -0.077 C 
ATOM      7  C   UNL     1      25.814 -14.740  28.429  1.00  0.00     0.039 C 
ATOM      8  C   UNL     1      26.779 -13.256  30.126  1.00  0.00    -0.023 CG0
ATOM      9  G   UNL     1      27.412 -12.019  30.716  1.00  0.00     0.000 G0
ENDBRANCH   5   6
ENDBRANCH   4   5
ENDBRANCH   2   4
BRANCH   1  10
ATOM     10  C   UNL     1      29.726 -11.306  28.309  1.00  0.00     0.111 C 
BRANCH  10  11
ATOM     11  C   UNL     1      29.638 -11.123  29.805  1.00  0.00     0.163 C 
ATOM     12  O   UNL     1      30.231 -10.136  30.319  1.00  0.00    -0.294 OA
BRANCH  11  13
ATOM     13  C   UNL     1      28.918 -12.101  30.680  1.00  0.00    -0.002 C 
ATOM     14  C   UNL     1      29.592 -12.998  31.463  1.00  0.00    -0.069 C 
ATOM     15  C   UNL     1      28.856 -14.009  32.315  1.00  0.00     0.039 C 
ATOM     16  C   UNL     1      31.102 -13.001  31.543  1.00  0.00     0.039 C 
BRANCH  13  17
ATOM     17  C   UNL     1      27.403 -12.006  30.720  1.00  0.00     0.066 CG0
ATOM     18  G   UNL     1      26.796 -13.254  30.126  1.00  0.00     0.000 G0
ENDBRANCH  13  17
ENDBRANCH  11  13
ENDBRANCH  10  11
ENDBRANCH   1  10
TORSDOF 0
ENDMDL
