MODEL 1
REMARK VINA RESULT:    -3.519      0.000      0.000
REMARK INTER + INTRA:         -12.032
REMARK INTER:                  -8.045
REMARK INTRA:                  -3.987
REMARK UNBOUND:                -3.987
REMARK SMILES CCCCCCCCCCCCCCCCCCCCCCCC(=O)[O-]
REMARK SMILES IDX 13 1 14 2 15 3 16 4 17 5 18 6 19 7 20 8 21 9 22 10 23 11
REMARK SMILES IDX 24 12 25 13 26 14 12 15 11 16 10 17 9 18 8 19 7 20 6 21 5 22
REMARK SMILES IDX 4 23 3 24 2 25 1 26
REMARK H PARENT
REMARK Flexibility Score: inf
ROOT
ATOM      1  C   UNL     1      21.662   2.311  23.703  1.00  0.00     0.000 C 
ENDROOT
BRANCH   1   2
ATOM      2  C   UNL     1      22.233   3.497  24.497  1.00  0.00     0.000 C 
BRANCH   2   3
ATOM      3  C   UNL     1      23.416   3.077  25.395  1.00  0.00     0.000 C 
BRANCH   3   4
ATOM      4  C   UNL     1      23.746   4.096  26.499  1.00  0.00     0.000 C 
BRANCH   4   5
ATOM      5  C   UNL     1      22.597   5.082  26.763  1.00  0.00     0.000 C 
BRANCH   5   6
ATOM      6  C   UNL     1      23.030   6.275  27.630  1.00  0.00     0.000 C 
BRANCH   6   7
ATOM      7  C   UNL     1      21.929   7.338  27.763  1.00  0.00     0.000 C 
BRANCH   7   8
ATOM      8  C   UNL     1      21.345   7.695  26.387  1.00  0.00     0.000 C 
BRANCH   8   9
ATOM      9  C   UNL     1      20.273   8.799  26.454  1.00  0.00     0.000 C 
BRANCH   9  10
ATOM     10  C   UNL     1      20.237   9.747  25.241  1.00  0.00     0.006 C 
BRANCH  10  11
ATOM     11  C   UNL     1      20.740   9.088  23.950  1.00  0.00     0.053 C 
BRANCH  11  12
ATOM     12  C   UNL     1      19.904   9.513  22.783  1.00  0.00     0.041 C 
ATOM     13  O   UNL     1      20.325   9.350  21.607  1.00  0.00    -0.550 OA
ATOM     14  O   UNL     1      18.653  10.079  22.994  1.00  0.00    -0.550 OA
ENDBRANCH  11  12
ENDBRANCH  10  11
ENDBRANCH   9  10
ENDBRANCH   8   9
ENDBRANCH   7   8
ENDBRANCH   6   7
ENDBRANCH   5   6
ENDBRANCH   4   5
ENDBRANCH   3   4
ENDBRANCH   2   3
ENDBRANCH   1   2
BRANCH   1  15
ATOM     15  C   UNL     1      21.219   1.144  24.601  1.00  0.00     0.000 C 
BRANCH  15  16
ATOM     16  C   UNL     1      19.979   1.463  25.463  1.00  0.00     0.000 C 
BRANCH  16  17
ATOM     17  C   UNL     1      20.327   1.601  26.952  1.00  0.00     0.000 C 
BRANCH  17  18
ATOM     18  C   UNL     1      19.868   2.955  27.504  1.00  0.00    -0.000 C 
BRANCH  18  19
ATOM     19  C   UNL     1      18.739   3.546  26.644  1.00  0.00    -0.000 C 
BRANCH  19  20
ATOM     20  C   UNL     1      19.118   4.897  26.015  1.00  0.00    -0.000 C 
BRANCH  20  21
ATOM     21  C   UNL     1      18.989   4.890  24.481  1.00  0.00    -0.000 C 
BRANCH  21  22
ATOM     22  C   UNL     1      18.547   6.251  23.922  1.00  0.00    -0.000 C 
BRANCH  22  23
ATOM     23  C   UNL     1      17.623   7.021  24.884  1.00  0.00    -0.000 C 
BRANCH  23  24
ATOM     24  C   UNL     1      16.385   7.605  24.180  1.00  0.00    -0.000 C 
BRANCH  24  25
ATOM     25  C   UNL     1      15.914   8.965  24.727  1.00  0.00    -0.003 C 
ATOM     26  C   UNL     1      16.601   9.351  26.036  1.00  0.00     0.004 C 
ENDBRANCH  24  25
ENDBRANCH  23  24
ENDBRANCH  22  23
ENDBRANCH  21  22
ENDBRANCH  20  21
ENDBRANCH  19  20
ENDBRANCH  18  19
ENDBRANCH  17  18
ENDBRANCH  16  17
ENDBRANCH  15  16
ENDBRANCH   1  15
TORSDOF 22
ENDMDL
MODEL 2
REMARK VINA RESULT:    -3.225      2.290      4.049
REMARK INTER + INTRA:         -11.360
REMARK INTER:                  -7.809
REMARK INTRA:                  -3.551
REMARK UNBOUND:                -3.987
REMARK SMILES CCCCCCCCCCCCCCCCCCCCCCCC(=O)[O-]
REMARK SMILES IDX 13 1 14 2 15 3 16 4 17 5 18 6 19 7 20 8 21 9 22 10 23 11
REMARK SMILES IDX 24 12 25 13 26 14 12 15 11 16 10 17 9 18 8 19 7 20 6 21 5 22
REMARK SMILES IDX 4 23 3 24 2 25 1 26
REMARK H PARENT
REMARK Flexibility Score: inf
ROOT
ATOM      1  C   UNL     1      21.561   3.770  23.795  1.00  0.00     0.000 C 
ENDROOT
BRANCH   1   2
ATOM      2  C   UNL     1      21.618   2.237  23.690  1.00  0.00     0.000 C 
BRANCH   2   3
ATOM      3  C   UNL     1      20.811   1.550  24.812  1.00  0.00     0.000 C 
BRANCH   3   4
ATOM      4  C   UNL     1      21.660   1.161  26.035  1.00  0.00     0.000 C 
BRANCH   4   5
ATOM      5  C   UNL     1      21.498   2.140  27.208  1.00  0.00     0.000 C 
BRANCH   5   6
ATOM      6  C   UNL     1      22.764   2.974  27.460  1.00  0.00     0.000 C 
BRANCH   6   7
ATOM      7  C   UNL     1      22.455   4.461  27.692  1.00  0.00     0.000 C 
BRANCH   7   8
ATOM      8  C   UNL     1      23.510   5.351  27.015  1.00  0.00     0.000 C 
BRANCH   8   9
ATOM      9  C   UNL     1      23.403   6.832  27.424  1.00  0.00     0.000 C 
BRANCH   9  10
ATOM     10  C   UNL     1      24.749   7.552  27.623  1.00  0.00     0.006 C 
BRANCH  10  11
ATOM     11  C   UNL     1      24.626   9.081  27.566  1.00  0.00     0.053 C 
BRANCH  11  12
ATOM     12  C   UNL     1      24.671   9.558  26.147  1.00  0.00     0.041 C 
ATOM     13  O   UNL     1      25.772   9.641  25.540  1.00  0.00    -0.550 OA
ATOM     14  O   UNL     1      23.495   9.903  25.492  1.00  0.00    -0.550 OA
ENDBRANCH  11  12
ENDBRANCH  10  11
ENDBRANCH   9  10
ENDBRANCH   8   9
ENDBRANCH   7   8
ENDBRANCH   6   7
ENDBRANCH   5   6
ENDBRANCH   4   5
ENDBRANCH   3   4
ENDBRANCH   2   3
ENDBRANCH   1   2
BRANCH   1  15
ATOM     15  C   UNL     1      20.258   4.281  24.433  1.00  0.00     0.000 C 
BRANCH  15  16
ATOM     16  C   UNL     1      20.025   5.794  24.235  1.00  0.00     0.000 C 
BRANCH  16  17
ATOM     17  C   UNL     1      20.179   6.581  25.545  1.00  0.00     0.000 C 
BRANCH  17  18
ATOM     18  C   UNL     1      19.295   5.992  26.650  1.00  0.00    -0.000 C 
BRANCH  18  19
ATOM     19  C   UNL     1      18.098   6.909  26.945  1.00  0.00    -0.000 C 
BRANCH  19  20
ATOM     20  C   UNL     1      18.428   8.397  26.745  1.00  0.00    -0.000 C 
BRANCH  20  21
ATOM     21  C   UNL     1      17.465   9.087  25.763  1.00  0.00    -0.000 C 
BRANCH  21  22
ATOM     22  C   UNL     1      16.840   8.102  24.761  1.00  0.00    -0.000 C 
BRANCH  22  23
ATOM     23  C   UNL     1      17.320   8.335  23.317  1.00  0.00    -0.000 C 
BRANCH  23  24
ATOM     24  C   UNL     1      18.119   9.641  23.158  1.00  0.00    -0.000 C 
BRANCH  24  25
ATOM     25  C   UNL     1      19.459   9.490  22.415  1.00  0.00    -0.003 C 
ATOM     26  C   UNL     1      20.649   9.325  23.360  1.00  0.00     0.004 C 
ENDBRANCH  24  25
ENDBRANCH  23  24
ENDBRANCH  22  23
ENDBRANCH  21  22
ENDBRANCH  20  21
ENDBRANCH  19  20
ENDBRANCH  18  19
ENDBRANCH  17  18
ENDBRANCH  16  17
ENDBRANCH  15  16
ENDBRANCH   1  15
TORSDOF 22
ENDMDL
MODEL 3
REMARK VINA RESULT:    -3.220      2.559      5.849
REMARK INTER + INTRA:         -11.350
REMARK INTER:                  -7.169
REMARK INTRA:                  -4.181
REMARK UNBOUND:                -3.987
REMARK SMILES CCCCCCCCCCCCCCCCCCCCCCCC(=O)[O-]
REMARK SMILES IDX 13 1 14 2 15 3 16 4 17 5 18 6 19 7 20 8 21 9 22 10 23 11
REMARK SMILES IDX 24 12 25 13 26 14 12 15 11 16 10 17 9 18 8 19 7 20 6 21 5 22
REMARK SMILES IDX 4 23 3 24 2 25 1 26
REMARK H PARENT
REMARK Flexibility Score: inf
ROOT
ATOM      1  C   UNL     1      20.440   5.986  25.753  1.00  0.00     0.000 C 
ENDROOT
BRANCH   1   2
ATOM      2  C   UNL     1      19.055   5.346  25.939  1.00  0.00     0.000 C 
BRANCH   2   3
ATOM      3  C   UNL     1      18.954   4.559  27.264  1.00  0.00     0.000 C 
BRANCH   3   4
ATOM      4  C   UNL     1      18.707   3.053  27.071  1.00  0.00     0.000 C 
BRANCH   4   5
ATOM      5  C   UNL     1      18.951   2.590  25.626  1.00  0.00     0.000 C 
BRANCH   5   6
ATOM      6  C   UNL     1      19.671   1.234  25.555  1.00  0.00     0.000 C 
BRANCH   6   7
ATOM      7  C   UNL     1      20.795   1.217  24.507  1.00  0.00     0.000 C 
BRANCH   7   8
ATOM      8  C   UNL     1      21.166   2.646  24.081  1.00  0.00     0.000 C 
BRANCH   8   9
ATOM      9  C   UNL     1      22.502   3.126  24.678  1.00  0.00     0.000 C 
BRANCH   9  10
ATOM     10  C   UNL     1      22.776   2.658  26.120  1.00  0.00     0.006 C 
BRANCH  10  11
ATOM     11  C   UNL     1      22.896   3.820  27.115  1.00  0.00     0.053 C 
BRANCH  11  12
ATOM     12  C   UNL     1      24.172   4.572  26.892  1.00  0.00     0.041 C 
ATOM     13  O   UNL     1      24.228   5.810  27.123  1.00  0.00    -0.550 OA
ATOM     14  O   UNL     1      25.303   3.904  26.440  1.00  0.00    -0.550 OA
ENDBRANCH  11  12
ENDBRANCH  10  11
ENDBRANCH   9  10
ENDBRANCH   8   9
ENDBRANCH   7   8
ENDBRANCH   6   7
ENDBRANCH   5   6
ENDBRANCH   4   5
ENDBRANCH   3   4
ENDBRANCH   2   3
ENDBRANCH   1   2
BRANCH   1  15
ATOM     15  C   UNL     1      20.838   6.910  26.916  1.00  0.00     0.000 C 
BRANCH  15  16
ATOM     16  C   UNL     1      21.683   8.125  26.479  1.00  0.00     0.000 C 
BRANCH  16  17
ATOM     17  C   UNL     1      20.842   9.188  25.757  1.00  0.00     0.000 C 
BRANCH  17  18
ATOM     18  C   UNL     1      21.340   9.405  24.324  1.00  0.00    -0.000 C 
BRANCH  18  19
ATOM     19  C   UNL     1      20.171   9.382  23.325  1.00  0.00    -0.000 C 
BRANCH  19  20
ATOM     20  C   UNL     1      19.531   7.990  23.194  1.00  0.00    -0.000 C 
BRANCH  20  21
ATOM     21  C   UNL     1      18.031   7.997  23.538  1.00  0.00    -0.000 C 
BRANCH  21  22
ATOM     22  C   UNL     1      17.549   9.367  24.040  1.00  0.00    -0.000 C 
BRANCH  22  23
ATOM     23  C   UNL     1      16.419   9.258  25.081  1.00  0.00    -0.000 C 
BRANCH  23  24
ATOM     24  C   UNL     1      16.257   7.831  25.636  1.00  0.00    -0.000 C 
BRANCH  24  25
ATOM     25  C   UNL     1      16.484   7.699  27.153  1.00  0.00    -0.003 C 
ATOM     26  C   UNL     1      17.652   8.547  27.656  1.00  0.00     0.004 C 
ENDBRANCH  24  25
ENDBRANCH  23  24
ENDBRANCH  22  23
ENDBRANCH  21  22
ENDBRANCH  20  21
ENDBRANCH  19  20
ENDBRANCH  18  19
ENDBRANCH  17  18
ENDBRANCH  16  17
ENDBRANCH  15  16
ENDBRANCH   1  15
TORSDOF 22
ENDMDL
MODEL 4
REMARK VINA RESULT:    -3.142      1.659      4.421
REMARK INTER + INTRA:         -11.171
REMARK INTER:                  -7.882
REMARK INTRA:                  -3.288
REMARK UNBOUND:                -3.987
REMARK SMILES CCCCCCCCCCCCCCCCCCCCCCCC(=O)[O-]
REMARK SMILES IDX 13 1 14 2 15 3 16 4 17 5 18 6 19 7 20 8 21 9 22 10 23 11
REMARK SMILES IDX 24 12 25 13 26 14 12 15 11 16 10 17 9 18 8 19 7 20 6 21 5 22
REMARK SMILES IDX 4 23 3 24 2 25 1 26
REMARK H PARENT
REMARK Flexibility Score: inf
ROOT
ATOM      1  C   UNL     1      21.310   3.526  23.629  1.00  0.00     0.000 C 
ENDROOT
BRANCH   1   2
ATOM      2  C   UNL     1      20.555   4.590  24.442  1.00  0.00     0.000 C 
BRANCH   2   3
ATOM      3  C   UNL     1      19.103   4.165  24.746  1.00  0.00     0.000 C 
BRANCH   3   4
ATOM      4  C   UNL     1      18.898   3.651  26.182  1.00  0.00     0.000 C 
BRANCH   4   5
ATOM      5  C   UNL     1      19.011   4.766  27.234  1.00  0.00     0.000 C 
BRANCH   5   6
ATOM      6  C   UNL     1      18.335   6.072  26.786  1.00  0.00     0.000 C 
BRANCH   6   7
ATOM      7  C   UNL     1      19.288   7.276  26.836  1.00  0.00     0.000 C 
BRANCH   7   8
ATOM      8  C   UNL     1      18.879   8.339  25.805  1.00  0.00     0.000 C 
BRANCH   8   9
ATOM      9  C   UNL     1      17.764   7.862  24.856  1.00  0.00     0.000 C 
BRANCH   9  10
ATOM     10  C   UNL     1      17.341   8.882  23.782  1.00  0.00     0.006 C 
BRANCH  10  11
ATOM     11  C   UNL     1      18.385   9.984  23.558  1.00  0.00     0.053 C 
BRANCH  11  12
ATOM     12  C   UNL     1      19.027   9.835  22.214  1.00  0.00     0.041 C 
ATOM     13  O   UNL     1      20.219   9.438  22.119  1.00  0.00    -0.550 OA
ATOM     14  O   UNL     1      18.304  10.125  21.062  1.00  0.00    -0.550 OA
ENDBRANCH  11  12
ENDBRANCH  10  11
ENDBRANCH   9  10
ENDBRANCH   8   9
ENDBRANCH   7   8
ENDBRANCH   6   7
ENDBRANCH   5   6
ENDBRANCH   4   5
ENDBRANCH   3   4
ENDBRANCH   2   3
ENDBRANCH   1   2
BRANCH   1  15
ATOM     15  C   UNL     1      21.364   2.159  24.332  1.00  0.00     0.000 C 
BRANCH  15  16
ATOM     16  C   UNL     1      22.209   2.161  25.623  1.00  0.00     0.000 C 
BRANCH  16  17
ATOM     17  C   UNL     1      23.469   3.030  25.492  1.00  0.00     0.000 C 
BRANCH  17  18
ATOM     18  C   UNL     1      23.821   3.696  26.827  1.00  0.00    -0.000 C 
BRANCH  18  19
ATOM     19  C   UNL     1      22.557   4.204  27.539  1.00  0.00    -0.000 C 
BRANCH  19  20
ATOM     20  C   UNL     1      22.566   5.727  27.747  1.00  0.00    -0.000 C 
BRANCH  20  21
ATOM     21  C   UNL     1      23.870   6.382  27.257  1.00  0.00    -0.000 C 
BRANCH  21  22
ATOM     22  C   UNL     1      24.133   7.740  27.925  1.00  0.00    -0.000 C 
BRANCH  22  23
ATOM     23  C   UNL     1      25.072   8.640  27.099  1.00  0.00    -0.000 C 
BRANCH  23  24
ATOM     24  C   UNL     1      24.382   9.923  26.602  1.00  0.00    -0.000 C 
BRANCH  24  25
ATOM     25  C   UNL     1      22.843   9.878  26.623  1.00  0.00    -0.003 C 
ATOM     26  C   UNL     1      22.233   9.713  25.232  1.00  0.00     0.004 C 
ENDBRANCH  24  25
ENDBRANCH  23  24
ENDBRANCH  22  23
ENDBRANCH  21  22
ENDBRANCH  20  21
ENDBRANCH  19  20
ENDBRANCH  18  19
ENDBRANCH  17  18
ENDBRANCH  16  17
ENDBRANCH  15  16
ENDBRANCH   1  15
TORSDOF 22
ENDMDL
MODEL 5
REMARK VINA RESULT:    -3.098      1.812      3.945
REMARK INTER + INTRA:         -11.070
REMARK INTER:                  -7.162
REMARK INTRA:                  -3.908
REMARK UNBOUND:                -3.987
REMARK SMILES CCCCCCCCCCCCCCCCCCCCCCCC(=O)[O-]
REMARK SMILES IDX 13 1 14 2 15 3 16 4 17 5 18 6 19 7 20 8 21 9 22 10 23 11
REMARK SMILES IDX 24 12 25 13 26 14 12 15 11 16 10 17 9 18 8 19 7 20 6 21 5 22
REMARK SMILES IDX 4 23 3 24 2 25 1 26
REMARK H PARENT
REMARK Flexibility Score: inf
ROOT
ATOM      1  C   UNL     1      23.006   5.720  27.409  1.00  0.00     0.000 C 
ENDROOT
BRANCH   1   2
ATOM      2  C   UNL     1      24.243   6.632  27.382  1.00  0.00     0.000 C 
BRANCH   2   3
ATOM      3  C   UNL     1      23.931   8.047  27.917  1.00  0.00     0.000 C 
BRANCH   3   4
ATOM      4  C   UNL     1      23.746   9.099  26.810  1.00  0.00     0.000 C 
BRANCH   4   5
ATOM      5  C   UNL     1      22.539  10.018  27.059  1.00  0.00     0.000 C 
BRANCH   5   6
ATOM      6  C   UNL     1      21.200   9.331  26.747  1.00  0.00     0.000 C 
BRANCH   6   7
ATOM      7  C   UNL     1      21.277   8.420  25.513  1.00  0.00     0.000 C 
BRANCH   7   8
ATOM      8  C   UNL     1      21.038   9.224  24.225  1.00  0.00     0.000 C 
BRANCH   8   9
ATOM      9  C   UNL     1      19.751   8.812  23.486  1.00  0.00     0.000 C 
BRANCH   9  10
ATOM     10  C   UNL     1      18.459   8.924  24.317  1.00  0.00     0.006 C 
BRANCH  10  11
ATOM     11  C   UNL     1      17.188   8.862  23.460  1.00  0.00     0.053 C 
BRANCH  11  12
ATOM     12  C   UNL     1      16.368   7.663  23.822  1.00  0.00     0.041 C 
ATOM     13  O   UNL     1      16.375   6.641  23.086  1.00  0.00    -0.550 OA
ATOM     14  O   UNL     1      15.601   7.670  24.982  1.00  0.00    -0.550 OA
ENDBRANCH  11  12
ENDBRANCH  10  11
ENDBRANCH   9  10
ENDBRANCH   8   9
ENDBRANCH   7   8
ENDBRANCH   6   7
ENDBRANCH   5   6
ENDBRANCH   4   5
ENDBRANCH   3   4
ENDBRANCH   2   3
ENDBRANCH   1   2
BRANCH   1  15
ATOM     15  C   UNL     1      23.362   4.227  27.497  1.00  0.00     0.000 C 
BRANCH  15  16
ATOM     16  C   UNL     1      22.173   3.331  27.906  1.00  0.00     0.000 C 
BRANCH  16  17
ATOM     17  C   UNL     1      22.165   1.995  27.149  1.00  0.00     0.000 C 
BRANCH  17  18
ATOM     18  C   UNL     1      20.733   1.488  26.942  1.00  0.00    -0.000 C 
BRANCH  18  19
ATOM     19  C   UNL     1      20.239   1.798  25.519  1.00  0.00    -0.000 C 
BRANCH  19  20
ATOM     20  C   UNL     1      21.352   1.675  24.466  1.00  0.00    -0.000 C 
BRANCH  20  21
ATOM     21  C   UNL     1      21.474   2.934  23.589  1.00  0.00    -0.000 C 
BRANCH  21  22
ATOM     22  C   UNL     1      21.340   4.232  24.401  1.00  0.00    -0.000 C 
BRANCH  22  23
ATOM     23  C   UNL     1      20.223   5.153  23.876  1.00  0.00    -0.000 C 
BRANCH  23  24
ATOM     24  C   UNL     1      19.058   5.304  24.870  1.00  0.00    -0.000 C 
BRANCH  24  25
ATOM     25  C   UNL     1      19.480   5.391  26.349  1.00  0.00    -0.003 C 
ATOM     26  C   UNL     1      18.386   5.966  27.247  1.00  0.00     0.004 C 
ENDBRANCH  24  25
ENDBRANCH  23  24
ENDBRANCH  22  23
ENDBRANCH  21  22
ENDBRANCH  20  21
ENDBRANCH  19  20
ENDBRANCH  18  19
ENDBRANCH  17  18
ENDBRANCH  16  17
ENDBRANCH  15  16
ENDBRANCH   1  15
TORSDOF 22
ENDMDL
MODEL 6
REMARK VINA RESULT:    -3.046      1.750      5.100
REMARK INTER + INTRA:         -10.950
REMARK INTER:                  -7.155
REMARK INTRA:                  -3.796
REMARK UNBOUND:                -3.987
REMARK SMILES CCCCCCCCCCCCCCCCCCCCCCCC(=O)[O-]
REMARK SMILES IDX 13 1 14 2 15 3 16 4 17 5 18 6 19 7 20 8 21 9 22 10 23 11
REMARK SMILES IDX 24 12 25 13 26 14 12 15 11 16 10 17 9 18 8 19 7 20 6 21 5 22
REMARK SMILES IDX 4 23 3 24 2 25 1 26
REMARK H PARENT
REMARK Flexibility Score: inf
ROOT
ATOM      1  C   UNL     1      20.018   5.475  26.508  1.00  0.00     0.000 C 
ENDROOT
BRANCH   1   2
ATOM      2  C   UNL     1      19.008   6.632  26.572  1.00  0.00     0.000 C 
BRANCH   2   3
ATOM      3  C   UNL     1      19.194   7.493  27.840  1.00  0.00     0.000 C 
BRANCH   3   4
ATOM      4  C   UNL     1      19.790   8.884  27.561  1.00  0.00     0.000 C 
BRANCH   4   5
ATOM      5  C   UNL     1      21.320   8.859  27.426  1.00  0.00     0.000 C 
BRANCH   5   6
ATOM      6  C   UNL     1      21.785   8.981  25.966  1.00  0.00     0.000 C 
BRANCH   6   7
ATOM      7  C   UNL     1      20.700   9.562  25.047  1.00  0.00     0.000 C 
BRANCH   7   8
ATOM      8  C   UNL     1      20.549   8.712  23.775  1.00  0.00     0.000 C 
BRANCH   8   9
ATOM      9  C   UNL     1      19.609   9.348  22.733  1.00  0.00     0.000 C 
BRANCH   9  10
ATOM     10  C   UNL     1      18.178   9.624  23.230  1.00  0.00     0.006 C 
BRANCH  10  11
ATOM     11  C   UNL     1      17.400   8.344  23.563  1.00  0.00     0.053 C 
BRANCH  11  12
ATOM     12  C   UNL     1      16.407   8.601  24.653  1.00  0.00     0.041 C 
ATOM     13  O   UNL     1      15.259   8.082  24.603  1.00  0.00    -0.550 OA
ATOM     14  O   UNL     1      16.751   9.406  25.732  1.00  0.00    -0.550 OA
ENDBRANCH  11  12
ENDBRANCH  10  11
ENDBRANCH   9  10
ENDBRANCH   8   9
ENDBRANCH   7   8
ENDBRANCH   6   7
ENDBRANCH   5   6
ENDBRANCH   4   5
ENDBRANCH   3   4
ENDBRANCH   2   3
ENDBRANCH   1   2
BRANCH   1  15
ATOM     15  C   UNL     1      20.258   4.810  27.873  1.00  0.00     0.000 C 
BRANCH  15  16
ATOM     16  C   UNL     1      21.732   4.429  28.125  1.00  0.00     0.000 C 
BRANCH  16  17
ATOM     17  C   UNL     1      22.703   5.514  27.636  1.00  0.00     0.000 C 
BRANCH  17  18
ATOM     18  C   UNL     1      23.880   4.897  26.871  1.00  0.00    -0.000 C 
BRANCH  18  19
ATOM     19  C   UNL     1      23.624   3.411  26.573  1.00  0.00    -0.000 C 
BRANCH  19  20
ATOM     20  C   UNL     1      23.528   3.117  25.067  1.00  0.00    -0.000 C 
BRANCH  20  21
ATOM     21  C   UNL     1      22.181   3.558  24.465  1.00  0.00    -0.000 C 
BRANCH  21  22
ATOM     22  C   UNL     1      21.474   2.421  23.711  1.00  0.00    -0.000 C 
BRANCH  22  23
ATOM     23  C   UNL     1      21.226   1.183  24.592  1.00  0.00    -0.000 C 
BRANCH  23  24
ATOM     24  C   UNL     1      20.579   1.534  25.944  1.00  0.00    -0.000 C 
BRANCH  24  25
ATOM     25  C   UNL     1      19.049   1.707  25.901  1.00  0.00    -0.003 C 
ATOM     26  C   UNL     1      18.422   1.810  27.290  1.00  0.00     0.004 C 
ENDBRANCH  24  25
ENDBRANCH  23  24
ENDBRANCH  22  23
ENDBRANCH  21  22
ENDBRANCH  20  21
ENDBRANCH  19  20
ENDBRANCH  18  19
ENDBRANCH  17  18
ENDBRANCH  16  17
ENDBRANCH  15  16
ENDBRANCH   1  15
TORSDOF 22
ENDMDL
MODEL 7
REMARK VINA RESULT:    -3.040      1.633      5.498
REMARK INTER + INTRA:         -10.937
REMARK INTER:                  -6.550
REMARK INTRA:                  -4.387
REMARK UNBOUND:                -3.987
REMARK SMILES CCCCCCCCCCCCCCCCCCCCCCCC(=O)[O-]
REMARK SMILES IDX 13 1 14 2 15 3 16 4 17 5 18 6 19 7 20 8 21 9 22 10 23 11
REMARK SMILES IDX 24 12 25 13 26 14 12 15 11 16 10 17 9 18 8 19 7 20 6 21 5 22
REMARK SMILES IDX 4 23 3 24 2 25 1 26
REMARK H PARENT
REMARK Flexibility Score: inf
ROOT
ATOM      1  C   UNL     1      20.107   5.149  24.342  1.00  0.00     0.000 C 
ENDROOT
BRANCH   1   2
ATOM      2  C   UNL     1      18.646   5.480  23.996  1.00  0.00     0.000 C 
BRANCH   2   3
ATOM      3  C   UNL     1      18.465   6.964  23.610  1.00  0.00     0.000 C 
BRANCH   3   4
ATOM      4  C   UNL     1      17.024   7.476  23.784  1.00  0.00     0.000 C 
BRANCH   4   5
ATOM      5  C   UNL     1      16.962   8.969  24.141  1.00  0.00     0.000 C 
BRANCH   5   6
ATOM      6  C   UNL     1      16.261   9.226  25.484  1.00  0.00     0.000 C 
BRANCH   6   7
ATOM      7  C   UNL     1      16.135   7.955  26.337  1.00  0.00     0.000 C 
BRANCH   7   8
ATOM      8  C   UNL     1      17.407   7.726  27.168  1.00  0.00     0.000 C 
BRANCH   8   9
ATOM      9  C   UNL     1      18.154   9.031  27.500  1.00  0.00     0.000 C 
BRANCH   9  10
ATOM     10  C   UNL     1      19.653   9.031  27.145  1.00  0.00     0.006 C 
BRANCH  10  11
ATOM     11  C   UNL     1      19.984   9.920  25.939  1.00  0.00     0.053 C 
BRANCH  11  12
ATOM     12  C   UNL     1      21.229   9.441  25.259  1.00  0.00     0.041 C 
ATOM     13  O   UNL     1      21.204   9.117  24.041  1.00  0.00    -0.550 OA
ATOM     14  O   UNL     1      22.421   9.363  25.968  1.00  0.00    -0.550 OA
ENDBRANCH  11  12
ENDBRANCH  10  11
ENDBRANCH   9  10
ENDBRANCH   8   9
ENDBRANCH   7   8
ENDBRANCH   6   7
ENDBRANCH   5   6
ENDBRANCH   4   5
ENDBRANCH   3   4
ENDBRANCH   2   3
ENDBRANCH   1   2
BRANCH   1  15
ATOM     15  C   UNL     1      20.595   5.846  25.623  1.00  0.00     0.000 C 
BRANCH  15  16
ATOM     16  C   UNL     1      19.981   5.266  26.914  1.00  0.00     0.000 C 
BRANCH  16  17
ATOM     17  C   UNL     1      20.911   5.433  28.125  1.00  0.00     0.000 C 
BRANCH  17  18
ATOM     18  C   UNL     1      22.158   6.243  27.755  1.00  0.00    -0.000 C 
BRANCH  18  19
ATOM     19  C   UNL     1      23.440   5.450  28.055  1.00  0.00    -0.000 C 
BRANCH  19  20
ATOM     20  C   UNL     1      24.055   4.820  26.795  1.00  0.00    -0.000 C 
BRANCH  20  21
ATOM     21  C   UNL     1      24.079   3.282  26.856  1.00  0.00    -0.000 C 
BRANCH  21  22
ATOM     22  C   UNL     1      22.686   2.664  26.654  1.00  0.00    -0.000 C 
BRANCH  22  23
ATOM     23  C   UNL     1      22.346   2.430  25.171  1.00  0.00    -0.000 C 
BRANCH  23  24
ATOM     24  C   UNL     1      21.063   1.600  24.978  1.00  0.00    -0.000 C 
BRANCH  24  25
ATOM     25  C   UNL     1      20.142   1.542  26.210  1.00  0.00    -0.003 C 
ATOM     26  C   UNL     1      18.717   2.006  25.911  1.00  0.00     0.004 C 
ENDBRANCH  24  25
ENDBRANCH  23  24
ENDBRANCH  22  23
ENDBRANCH  21  22
ENDBRANCH  20  21
ENDBRANCH  19  20
ENDBRANCH  18  19
ENDBRANCH  17  18
ENDBRANCH  16  17
ENDBRANCH  15  16
ENDBRANCH   1  15
TORSDOF 22
ENDMDL
MODEL 8
REMARK VINA RESULT:    -3.017      1.882      4.213
REMARK INTER + INTRA:         -10.884
REMARK INTER:                  -6.648
REMARK INTRA:                  -4.236
REMARK UNBOUND:                -3.987
REMARK SMILES CCCCCCCCCCCCCCCCCCCCCCCC(=O)[O-]
REMARK SMILES IDX 13 1 14 2 15 3 16 4 17 5 18 6 19 7 20 8 21 9 22 10 23 11
REMARK SMILES IDX 24 12 25 13 26 14 12 15 11 16 10 17 9 18 8 19 7 20 6 21 5 22
REMARK SMILES IDX 4 23 3 24 2 25 1 26
REMARK H PARENT
REMARK Flexibility Score: inf
ROOT
ATOM      1  C   UNL     1      21.503   3.196  23.635  1.00  0.00     0.000 C 
ENDROOT
BRANCH   1   2
ATOM      2  C   UNL     1      20.340   4.058  24.152  1.00  0.00     0.000 C 
BRANCH   2   3
ATOM      3  C   UNL     1      20.792   5.495  24.493  1.00  0.00     0.000 C 
BRANCH   3   4
ATOM      4  C   UNL     1      20.369   5.958  25.898  1.00  0.00     0.000 C 
BRANCH   4   5
ATOM      5  C   UNL     1      19.203   5.137  26.470  1.00  0.00     0.000 C 
BRANCH   5   6
ATOM      6  C   UNL     1      18.233   5.990  27.303  1.00  0.00     0.000 C 
BRANCH   6   7
ATOM      7  C   UNL     1      18.940   7.138  28.040  1.00  0.00     0.000 C 
BRANCH   7   8
ATOM      8  C   UNL     1      18.434   8.501  27.541  1.00  0.00     0.000 C 
BRANCH   8   9
ATOM      9  C   UNL     1      17.479   8.387  26.338  1.00  0.00     0.000 C 
BRANCH   9  10
ATOM     10  C   UNL     1      18.071   8.844  24.991  1.00  0.00     0.006 C 
BRANCH  10  11
ATOM     11  C   UNL     1      17.070   8.746  23.832  1.00  0.00     0.053 C 
BRANCH  11  12
ATOM     12  C   UNL     1      16.646   7.326  23.623  1.00  0.00     0.041 C 
ATOM     13  O   UNL     1      15.424   7.035  23.525  1.00  0.00    -0.550 OA
ATOM     14  O   UNL     1      17.602   6.322  23.524  1.00  0.00    -0.550 OA
ENDBRANCH  11  12
ENDBRANCH  10  11
ENDBRANCH   9  10
ENDBRANCH   8   9
ENDBRANCH   7   8
ENDBRANCH   6   7
ENDBRANCH   5   6
ENDBRANCH   4   5
ENDBRANCH   3   4
ENDBRANCH   2   3
ENDBRANCH   1   2
BRANCH   1  15
ATOM     15  C   UNL     1      21.606   1.836  24.345  1.00  0.00     0.000 C 
BRANCH  15  16
ATOM     16  C   UNL     1      20.389   1.510  25.236  1.00  0.00     0.000 C 
BRANCH  16  17
ATOM     17  C   UNL     1      20.737   1.544  26.731  1.00  0.00     0.000 C 
BRANCH  17  18
ATOM     18  C   UNL     1      22.182   2.006  26.950  1.00  0.00    -0.000 C 
BRANCH  18  19
ATOM     19  C   UNL     1      22.224   3.334  27.723  1.00  0.00    -0.000 C 
BRANCH  19  20
ATOM     20  C   UNL     1      23.366   4.253  27.259  1.00  0.00    -0.000 C 
BRANCH  20  21
ATOM     21  C   UNL     1      23.396   5.588  28.026  1.00  0.00    -0.000 C 
BRANCH  21  22
ATOM     22  C   UNL     1      24.181   6.678  27.278  1.00  0.00    -0.000 C 
BRANCH  22  23
ATOM     23  C   UNL     1      23.849   8.098  27.773  1.00  0.00    -0.000 C 
BRANCH  23  24
ATOM     24  C   UNL     1      22.352   8.435  27.653  1.00  0.00    -0.000 C 
BRANCH  24  25
ATOM     25  C   UNL     1      22.039   9.692  26.819  1.00  0.00    -0.003 C 
ATOM     26  C   UNL     1      21.651   9.368  25.377  1.00  0.00     0.004 C 
ENDBRANCH  24  25
ENDBRANCH  23  24
ENDBRANCH  22  23
ENDBRANCH  21  22
ENDBRANCH  20  21
ENDBRANCH  19  20
ENDBRANCH  18  19
ENDBRANCH  17  18
ENDBRANCH  16  17
ENDBRANCH  15  16
ENDBRANCH   1  15
TORSDOF 22
ENDMDL
MODEL 9
REMARK VINA RESULT:    -0.793      1.501      2.723
REMARK INTER + INTRA:          -5.800
REMARK INTER:                  -1.721
REMARK INTRA:                  -4.078
REMARK UNBOUND:                -3.987
REMARK SMILES CCCCCCCCCCCCCCCCCCCCCCCC(=O)[O-]
REMARK SMILES IDX 13 1 14 2 15 3 16 4 17 5 18 6 19 7 20 8 21 9 22 10 23 11
REMARK SMILES IDX 24 12 25 13 26 14 12 15 11 16 10 17 9 18 8 19 7 20 6 21 5 22
REMARK SMILES IDX 4 23 3 24 2 25 1 26
REMARK H PARENT
REMARK Flexibility Score: inf
ROOT
ATOM      1  C   UNL     1      21.788   2.018  27.978  1.00  0.00     0.000 C 
ENDROOT
BRANCH   1   2
ATOM      2  C   UNL     1      23.153   2.707  27.819  1.00  0.00     0.000 C 
BRANCH   2   3
ATOM      3  C   UNL     1      23.078   4.219  28.125  1.00  0.00     0.000 C 
BRANCH   3   4
ATOM      4  C   UNL     1      23.895   5.087  27.153  1.00  0.00     0.000 C 
BRANCH   4   5
ATOM      5  C   UNL     1      23.670   6.592  27.365  1.00  0.00     0.000 C 
BRANCH   5   6
ATOM      6  C   UNL     1      22.269   6.908  27.912  1.00  0.00     0.000 C 
BRANCH   6   7
ATOM      7  C   UNL     1      21.828   8.348  27.611  1.00  0.00     0.000 C 
BRANCH   7   8
ATOM      8  C   UNL     1      22.866   9.065  26.733  1.00  0.00     0.000 C 
BRANCH   8   9
ATOM      9  C   UNL     1      22.230   9.990  25.679  1.00  0.00     0.000 C 
BRANCH   9  10
ATOM     10  C   UNL     1      20.834   9.559  25.191  1.00  0.00     0.006 C 
BRANCH  10  11
ATOM     11  C   UNL     1      20.850   8.959  23.779  1.00  0.00     0.053 C 
BRANCH  11  12
ATOM     12  C   UNL     1      19.543   9.201  23.090  1.00  0.00     0.041 C 
ATOM     13  O   UNL     1      19.514   9.750  21.957  1.00  0.00    -0.550 OA
ATOM     14  O   UNL     1      18.355   8.810  23.697  1.00  0.00    -0.550 OA
ENDBRANCH  11  12
ENDBRANCH  10  11
ENDBRANCH   9  10
ENDBRANCH   8   9
ENDBRANCH   7   8
ENDBRANCH   6   7
ENDBRANCH   5   6
ENDBRANCH   4   5
ENDBRANCH   3   4
ENDBRANCH   2   3
ENDBRANCH   1   2
BRANCH   1  15
ATOM     15  C   UNL     1      20.604   2.992  27.849  1.00  0.00     0.000 C 
BRANCH  15  16
ATOM     16  C   UNL     1      19.257   2.293  27.570  1.00  0.00     0.000 C 
BRANCH  16  17
ATOM     17  C   UNL     1      19.394   1.155  26.548  1.00  0.00     0.000 C 
BRANCH  17  18
ATOM     18  C   UNL     1      19.673   1.704  25.144  1.00  0.00    -0.000 C 
BRANCH  18  19
ATOM     19  C   UNL     1      20.962   1.101  24.564  1.00  0.00    -0.000 C 
BRANCH  19  20
ATOM     20  C   UNL     1      21.999   2.172  24.185  1.00  0.00    -0.000 C 
BRANCH  20  21
ATOM     21  C   UNL     1      21.349   3.442  23.608  1.00  0.00    -0.000 C 
BRANCH  21  22
ATOM     22  C   UNL     1      21.305   4.594  24.625  1.00  0.00    -0.000 C 
BRANCH  22  23
ATOM     23  C   UNL     1      20.163   5.590  24.350  1.00  0.00    -0.000 C 
BRANCH  23  24
ATOM     24  C   UNL     1      18.942   5.360  25.259  1.00  0.00    -0.000 C 
BRANCH  24  25
ATOM     25  C   UNL     1      18.998   6.093  26.612  1.00  0.00    -0.003 C 
ATOM     26  C   UNL     1      18.044   7.285  26.684  1.00  0.00     0.004 C 
ENDBRANCH  24  25
ENDBRANCH  23  24
ENDBRANCH  22  23
ENDBRANCH  21  22
ENDBRANCH  20  21
ENDBRANCH  19  20
ENDBRANCH  18  19
ENDBRANCH  17  18
ENDBRANCH  16  17
ENDBRANCH  15  16
ENDBRANCH   1  15
TORSDOF 22
ENDMDL
