MODEL 1
REMARK VINA RESULT:    -5.105      0.000      0.000
REMARK INTER + INTRA:          -6.566
REMARK INTER:                  -6.150
REMARK INTRA:                  -0.417
REMARK UNBOUND:                -0.417
REMARK SMILES O=c1c(O)c(-c2ccc(O)cc2O)oc2cc(O)cc(O)c12
REMARK SMILES IDX 5 1 3 2 2 3 1 4 22 5 20 6 19 7 17 8 16 9 15 10 14 11 6 12
REMARK SMILES IDX 8 13 7 14 9 15 11 16 12 17 10 18 13 20 4 22 21 24 18 26
REMARK H PARENT 10 19 13 21 4 23 21 25 18 27
REMARK Flexibility Score: inf
ROOT
ATOM      1  C   UNL     1      53.971  10.041   9.246  1.00  0.00     0.184 A 
ATOM      2  C   UNL     1      55.340  10.242   9.017  1.00  0.00     0.208 A 
ATOM      3  C   UNL     1      55.785  10.458   7.703  1.00  0.00     0.238 A 
ATOM      4  O   UNL     1      57.022  10.563   7.496  1.00  0.00    -0.285 OA
ATOM      5  C   UNL     1      54.847  10.524   6.644  1.00  0.00     0.111 A 
ATOM      6  C   UNL     1      55.181  10.782   5.280  1.00  0.00     0.134 A 
ATOM      7  C   UNL     1      54.180  10.720   4.301  1.00  0.00     0.093 A 
ATOM      8  C   UNL     1      52.851  10.474   4.644  1.00  0.00     0.123 A 
ATOM      9  C   UNL     1      52.505  10.276   5.980  1.00  0.00     0.094 A 
ATOM     10  C   UNL     1      53.486  10.292   6.975  1.00  0.00     0.146 A 
ATOM     11  O   UNL     1      53.117  10.077   8.232  1.00  0.00    -0.451 OA
ENDROOT
BRANCH   1  12
ATOM     12  C   UNL     1      53.438   9.801  10.604  1.00  0.00     0.063 A 
ATOM     13  C   UNL     1      52.473  10.703  12.646  1.00  0.00     0.047 A 
ATOM     14  C   UNL     1      52.989  10.894  11.361  1.00  0.00     0.020 A 
ATOM     15  C   UNL     1      52.388   9.416  13.184  1.00  0.00     0.119 A 
ATOM     16  C   UNL     1      52.811   8.316  12.428  1.00  0.00     0.093 A 
ATOM     17  C   UNL     1      53.324   8.500  11.135  1.00  0.00     0.130 A 
BRANCH  15  18
ATOM     18  O   UNL     1      51.875   9.241  14.468  1.00  0.00    -0.508 OA
ATOM     19  H   UNL     1      52.196   9.804  15.247  1.00  0.00     0.293 HD
ENDBRANCH  15  18
BRANCH  17  20
ATOM     20  O   UNL     1      53.698   7.392  10.373  1.00  0.00    -0.507 OA
ATOM     21  H   UNL     1      53.454   6.448  10.651  1.00  0.00     0.293 HD
ENDBRANCH  17  20
ENDBRANCH   1  12
BRANCH   2  22
ATOM     22  O   UNL     1      56.237  10.242  10.089  1.00  0.00    -0.502 OA
ATOM     23  H   UNL     1      56.226   9.527  10.807  1.00  0.00     0.293 HD
ENDBRANCH   2  22
BRANCH   6  24
ATOM     24  O   UNL     1      56.461  11.125   4.837  1.00  0.00    -0.507 OA
ATOM     25  H   UNL     1      56.667  11.857   4.173  1.00  0.00     0.293 HD
ENDBRANCH   6  24
BRANCH   8  26
ATOM     26  O   UNL     1      51.880  10.437   3.645  1.00  0.00    -0.508 OA
ATOM     27  H   UNL     1      50.964  10.848   3.781  1.00  0.00     0.293 HD
ENDBRANCH   8  26
TORSDOF 6
ENDMDL
MODEL 2
REMARK VINA RESULT:    -5.056      1.648      6.428
REMARK INTER + INTRA:          -6.508
REMARK INTER:                  -6.391
REMARK INTRA:                  -0.116
REMARK UNBOUND:                -0.417
REMARK SMILES O=c1c(O)c(-c2ccc(O)cc2O)oc2cc(O)cc(O)c12
REMARK SMILES IDX 5 1 3 2 2 3 1 4 22 5 20 6 19 7 17 8 16 9 15 10 14 11 6 12
REMARK SMILES IDX 8 13 7 14 9 15 11 16 12 17 10 18 13 20 4 22 21 24 18 26
REMARK H PARENT 10 19 13 21 4 23 21 25 18 27
REMARK Flexibility Score: inf
ROOT
ATOM      1  C   UNL     1      54.534   9.994   7.234  1.00  0.00     0.184 A 
ATOM      2  C   UNL     1      55.845  10.338   7.595  1.00  0.00     0.208 A 
ATOM      3  C   UNL     1      56.301  10.020   8.884  1.00  0.00     0.238 A 
ATOM      4  O   UNL     1      57.451  10.398   9.227  1.00  0.00    -0.285 OA
ATOM      5  C   UNL     1      55.456   9.313   9.776  1.00  0.00     0.111 A 
ATOM      6  C   UNL     1      55.829   8.899  11.090  1.00  0.00     0.134 A 
ATOM      7  C   UNL     1      54.875   8.297  11.921  1.00  0.00     0.093 A 
ATOM      8  C   UNL     1      53.584   8.037  11.464  1.00  0.00     0.123 A 
ATOM      9  C   UNL     1      53.225   8.386  10.163  1.00  0.00     0.094 A 
ATOM     10  C   UNL     1      54.142   9.023   9.322  1.00  0.00     0.146 A 
ATOM     11  O   UNL     1      53.753   9.359   8.098  1.00  0.00    -0.451 OA
ENDROOT
BRANCH   1  12
ATOM     12  C   UNL     1      53.990  10.306   5.896  1.00  0.00     0.063 A 
ATOM     13  C   UNL     1      54.281  10.299   3.482  1.00  0.00     0.047 A 
ATOM     14  C   UNL     1      54.767  10.022   4.762  1.00  0.00     0.020 A 
ATOM     15  C   UNL     1      53.007  10.850   3.318  1.00  0.00     0.119 A 
ATOM     16  C   UNL     1      52.214  11.116   4.441  1.00  0.00     0.093 A 
ATOM     17  C   UNL     1      52.693  10.835   5.729  1.00  0.00     0.130 A 
BRANCH  15  18
ATOM     18  O   UNL     1      52.538  11.125   2.035  1.00  0.00    -0.508 OA
ATOM     19  H   UNL     1      53.065  10.863   1.211  1.00  0.00     0.293 HD
ENDBRANCH  15  18
BRANCH  17  20
ATOM     20  O   UNL     1      51.875  11.058   6.838  1.00  0.00    -0.507 OA
ATOM     21  H   UNL     1      50.985  10.585   6.946  1.00  0.00     0.293 HD
ENDBRANCH  17  20
ENDBRANCH   1  12
BRANCH   2  22
ATOM     22  O   UNL     1      56.681  10.974   6.673  1.00  0.00    -0.502 OA
ATOM     23  H   UNL     1      57.668  10.760   6.597  1.00  0.00     0.293 HD
ENDBRANCH   2  22
BRANCH   6  24
ATOM     24  O   UNL     1      57.117   9.031  11.618  1.00  0.00    -0.507 OA
ATOM     25  H   UNL     1      57.956   8.662  11.195  1.00  0.00     0.293 HD
ENDBRANCH   6  24
BRANCH   8  26
ATOM     26  O   UNL     1      52.666   7.421  12.312  1.00  0.00    -0.508 OA
ATOM     27  H   UNL     1      52.777   6.457  12.602  1.00  0.00     0.293 HD
ENDBRANCH   8  26
TORSDOF 6
ENDMDL
MODEL 3
REMARK VINA RESULT:    -4.776      1.650      2.389
REMARK INTER + INTRA:          -6.170
REMARK INTER:                  -5.814
REMARK INTRA:                  -0.356
REMARK UNBOUND:                -0.417
REMARK SMILES O=c1c(O)c(-c2ccc(O)cc2O)oc2cc(O)cc(O)c12
REMARK SMILES IDX 5 1 3 2 2 3 1 4 22 5 20 6 19 7 17 8 16 9 15 10 14 11 6 12
REMARK SMILES IDX 8 13 7 14 9 15 11 16 12 17 10 18 13 20 4 22 21 24 18 26
REMARK H PARENT 10 19 13 21 4 23 21 25 18 27
REMARK Flexibility Score: inf
ROOT
ATOM      1  C   UNL     1      54.316   8.636  10.274  1.00  0.00     0.184 A 
ATOM      2  C   UNL     1      55.701   8.852  10.228  1.00  0.00     0.208 A 
ATOM      3  C   UNL     1      56.251   9.505   9.114  1.00  0.00     0.238 A 
ATOM      4  O   UNL     1      57.502   9.628   9.044  1.00  0.00    -0.285 OA
ATOM      5  C   UNL     1      55.401   9.983   8.086  1.00  0.00     0.111 A 
ATOM      6  C   UNL     1      55.844  10.697   6.933  1.00  0.00     0.134 A 
ATOM      7  C   UNL     1      54.923  11.028   5.930  1.00  0.00     0.093 A 
ATOM      8  C   UNL     1      53.569  10.729   6.068  1.00  0.00     0.123 A 
ATOM      9  C   UNL     1      53.116  10.080   7.217  1.00  0.00     0.094 A 
ATOM     10  C   UNL     1      54.015   9.701   8.217  1.00  0.00     0.146 A 
ATOM     11  O   UNL     1      53.545   9.066   9.284  1.00  0.00    -0.451 OA
ENDROOT
BRANCH   1  12
ATOM     12  C   UNL     1      53.675   7.949  11.414  1.00  0.00     0.063 A 
ATOM     13  C   UNL     1      52.777   5.898  12.365  1.00  0.00     0.047 A 
ATOM     14  C   UNL     1      53.378   6.581  11.305  1.00  0.00     0.020 A 
ATOM     15  C   UNL     1      52.478   6.570  13.554  1.00  0.00     0.119 A 
ATOM     16  C   UNL     1      52.791   7.929  13.682  1.00  0.00     0.093 A 
ATOM     17  C   UNL     1      53.400   8.620  12.624  1.00  0.00     0.130 A 
BRANCH  15  18
ATOM     18  O   UNL     1      51.875   5.878  14.601  1.00  0.00    -0.508 OA
ATOM     19  H   UNL     1      50.948   5.480  14.509  1.00  0.00     0.293 HD
ENDBRANCH  15  18
BRANCH  17  20
ATOM     20  O   UNL     1      53.752   9.961  12.781  1.00  0.00    -0.507 OA
ATOM     21  H   UNL     1      53.884  10.572  11.983  1.00  0.00     0.293 HD
ENDBRANCH  17  20
ENDBRANCH   1  12
BRANCH   2  22
ATOM     22  O   UNL     1      56.511   8.433  11.288  1.00  0.00    -0.502 OA
ATOM     23  H   UNL     1      57.520   8.388  11.217  1.00  0.00     0.293 HD
ENDBRANCH   2  22
BRANCH   6  24
ATOM     24  O   UNL     1      57.160  11.125   6.733  1.00  0.00    -0.507 OA
ATOM     25  H   UNL     1      57.887  11.105   7.432  1.00  0.00     0.293 HD
ENDBRANCH   6  24
BRANCH   8  26
ATOM     26  O   UNL     1      52.679  11.089   5.058  1.00  0.00    -0.508 OA
ATOM     27  H   UNL     1      53.005  11.430   4.162  1.00  0.00     0.293 HD
ENDBRANCH   8  26
TORSDOF 6
ENDMDL
MODEL 4
REMARK VINA RESULT:    -4.611      3.189      7.020
REMARK INTER + INTRA:          -5.971
REMARK INTER:                  -5.567
REMARK INTRA:                  -0.404
REMARK UNBOUND:                -0.417
REMARK SMILES O=c1c(O)c(-c2ccc(O)cc2O)oc2cc(O)cc(O)c12
REMARK SMILES IDX 5 1 3 2 2 3 1 4 22 5 20 6 19 7 17 8 16 9 15 10 14 11 6 12
REMARK SMILES IDX 8 13 7 14 9 15 11 16 12 17 10 18 13 20 4 22 21 24 18 26
REMARK H PARENT 10 19 13 21 4 23 21 25 18 27
REMARK Flexibility Score: inf
ROOT
ATOM      1  C   UNL     1      55.919   8.534  10.352  1.00  0.00     0.184 A 
ATOM      2  C   UNL     1      55.513   7.268   9.905  1.00  0.00     0.208 A 
ATOM      3  C   UNL     1      54.406   6.654  10.513  1.00  0.00     0.238 A 
ATOM      4  O   UNL     1      54.094   5.488  10.158  1.00  0.00    -0.285 OA
ATOM      5  C   UNL     1      53.688   7.340  11.524  1.00  0.00     0.111 A 
ATOM      6  C   UNL     1      52.526   6.832  12.179  1.00  0.00     0.134 A 
ATOM      7  C   UNL     1      51.960   7.555  13.238  1.00  0.00     0.093 A 
ATOM      8  C   UNL     1      52.474   8.792  13.622  1.00  0.00     0.123 A 
ATOM      9  C   UNL     1      53.576   9.323  12.953  1.00  0.00     0.094 A 
ATOM     10  C   UNL     1      54.188   8.609  11.918  1.00  0.00     0.146 A 
ATOM     11  O   UNL     1      55.248   9.141  11.322  1.00  0.00    -0.451 OA
ENDROOT
BRANCH   1  12
ATOM     12  C   UNL     1      57.080   9.231   9.760  1.00  0.00     0.063 A 
ATOM     13  C   UNL     1      59.494   9.471   9.590  1.00  0.00     0.047 A 
ATOM     14  C   UNL     1      58.374   8.837  10.134  1.00  0.00     0.020 A 
ATOM     15  C   UNL     1      59.334  10.496   8.654  1.00  0.00     0.119 A 
ATOM     16  C   UNL     1      58.048  10.882   8.256  1.00  0.00     0.093 A 
ATOM     17  C   UNL     1      56.920  10.246   8.794  1.00  0.00     0.130 A 
BRANCH  15  18
ATOM     18  O   UNL     1      60.460  11.122   8.122  1.00  0.00    -0.508 OA
ATOM     19  H   UNL     1      60.517  12.130   8.041  1.00  0.00     0.293 HD
ENDBRANCH  15  18
BRANCH  17  20
ATOM     20  O   UNL     1      55.644  10.605   8.354  1.00  0.00    -0.507 OA
ATOM     21  H   UNL     1      55.262  10.248   7.486  1.00  0.00     0.293 HD
ENDBRANCH  17  20
ENDBRANCH   1  12
BRANCH   2  22
ATOM     22  O   UNL     1      56.196   6.643   8.857  1.00  0.00    -0.502 OA
ATOM     23  H   UNL     1      55.858   6.656   7.903  1.00  0.00     0.293 HD
ENDBRANCH   2  22
BRANCH   6  24
ATOM     24  O   UNL     1      51.875   5.649  11.818  1.00  0.00    -0.507 OA
ATOM     25  H   UNL     1      51.159   5.575  11.111  1.00  0.00     0.293 HD
ENDBRANCH   6  24
BRANCH   8  26
ATOM     26  O   UNL     1      51.875   9.490  14.669  1.00  0.00    -0.508 OA
ATOM     27  H   UNL     1      50.871   9.490  14.799  1.00  0.00     0.293 HD
ENDBRANCH   8  26
TORSDOF 6
ENDMDL
MODEL 5
REMARK VINA RESULT:    -4.585      2.688      7.365
REMARK INTER + INTRA:          -5.940
REMARK INTER:                  -6.312
REMARK INTRA:                   0.372
REMARK UNBOUND:                -0.417
REMARK SMILES O=c1c(O)c(-c2ccc(O)cc2O)oc2cc(O)cc(O)c12
REMARK SMILES IDX 5 1 3 2 2 3 1 4 22 5 20 6 19 7 17 8 16 9 15 10 14 11 6 12
REMARK SMILES IDX 8 13 7 14 9 15 11 16 12 17 10 18 13 20 4 22 21 24 18 26
REMARK H PARENT 10 19 13 21 4 23 21 25 18 27
REMARK Flexibility Score: inf
ROOT
ATOM      1  C   UNL     1      54.218  10.680   5.298  1.00  0.00     0.184 A 
ATOM      2  C   UNL     1      53.210  10.531   6.263  1.00  0.00     0.208 A 
ATOM      3  C   UNL     1      53.565  10.528   7.622  1.00  0.00     0.238 A 
ATOM      4  O   UNL     1      52.667  10.319   8.479  1.00  0.00    -0.285 OA
ATOM      5  C   UNL     1      54.916  10.730   7.997  1.00  0.00     0.111 A 
ATOM      6  C   UNL     1      55.383  10.791   9.345  1.00  0.00     0.134 A 
ATOM      7  C   UNL     1      56.758  10.890   9.596  1.00  0.00     0.093 A 
ATOM      8  C   UNL     1      57.674  10.995   8.550  1.00  0.00     0.123 A 
ATOM      9  C   UNL     1      57.225  10.993   7.230  1.00  0.00     0.094 A 
ATOM     10  C   UNL     1      55.864  10.856   6.947  1.00  0.00     0.146 A 
ATOM     11  O   UNL     1      55.479  10.837   5.676  1.00  0.00    -0.451 OA
ENDROOT
BRANCH   1  12
ATOM     12  C   UNL     1      53.913  10.683   3.852  1.00  0.00     0.063 A 
ATOM     13  C   UNL     1      52.297  11.044   2.071  1.00  0.00     0.047 A 
ATOM     14  C   UNL     1      52.618  11.025   3.430  1.00  0.00     0.020 A 
ATOM     15  C   UNL     1      53.270  10.737   1.115  1.00  0.00     0.119 A 
ATOM     16  C   UNL     1      54.570  10.417   1.524  1.00  0.00     0.093 A 
ATOM     17  C   UNL     1      54.902  10.402   2.887  1.00  0.00     0.130 A 
BRANCH  15  18
ATOM     18  O   UNL     1      52.934  10.756  -0.237  1.00  0.00    -0.508 OA
ATOM     19  H   UNL     1      52.333  10.050  -0.643  1.00  0.00     0.293 HD
ENDBRANCH  15  18
BRANCH  17  20
ATOM     20  O   UNL     1      56.213  10.130   3.280  1.00  0.00    -0.507 OA
ATOM     21  H   UNL     1      56.552   9.179   3.377  1.00  0.00     0.293 HD
ENDBRANCH  17  20
ENDBRANCH   1  12
BRANCH   2  22
ATOM     22  O   UNL     1      51.876  10.403   5.868  1.00  0.00    -0.502 OA
ATOM     23  H   UNL     1      51.593   9.825   5.086  1.00  0.00     0.293 HD
ENDBRANCH   2  22
BRANCH   6  24
ATOM     24  O   UNL     1      54.548  10.783  10.466  1.00  0.00    -0.507 OA
ATOM     25  H   UNL     1      53.567  11.021  10.458  1.00  0.00     0.293 HD
ENDBRANCH   6  24
BRANCH   8  26
ATOM     26  O   UNL     1      59.033  11.110   8.837  1.00  0.00    -0.508 OA
ATOM     27  H   UNL     1      59.360  11.559   9.684  1.00  0.00     0.293 HD
ENDBRANCH   8  26
TORSDOF 6
ENDMDL
MODEL 6
REMARK VINA RESULT:    -4.459      3.362      6.817
REMARK INTER + INTRA:          -5.788
REMARK INTER:                  -5.686
REMARK INTRA:                  -0.102
REMARK UNBOUND:                -0.417
REMARK SMILES O=c1c(O)c(-c2ccc(O)cc2O)oc2cc(O)cc(O)c12
REMARK SMILES IDX 5 1 3 2 2 3 1 4 22 5 20 6 19 7 17 8 16 9 15 10 14 11 6 12
REMARK SMILES IDX 8 13 7 14 9 15 11 16 12 17 10 18 13 20 4 22 21 24 18 26
REMARK H PARENT 10 19 13 21 4 23 21 25 18 27
REMARK Flexibility Score: inf
ROOT
ATOM      1  C   UNL     1      56.558   8.934   9.791  1.00  0.00     0.184 A 
ATOM      2  C   UNL     1      55.456   9.731  10.133  1.00  0.00     0.208 A 
ATOM      3  C   UNL     1      54.257   9.108  10.515  1.00  0.00     0.238 A 
ATOM      4  O   UNL     1      53.251   9.827  10.747  1.00  0.00    -0.285 OA
ATOM      5  C   UNL     1      54.196   7.695  10.605  1.00  0.00     0.111 A 
ATOM      6  C   UNL     1      53.047   6.958  11.024  1.00  0.00     0.134 A 
ATOM      7  C   UNL     1      53.069   5.558  10.973  1.00  0.00     0.093 A 
ATOM      8  C   UNL     1      54.216   4.870  10.580  1.00  0.00     0.123 A 
ATOM      9  C   UNL     1      55.362   5.579  10.221  1.00  0.00     0.094 A 
ATOM     10  C   UNL     1      55.359   6.976  10.224  1.00  0.00     0.146 A 
ATOM     11  O   UNL     1      56.464   7.613   9.854  1.00  0.00    -0.451 OA
ENDROOT
BRANCH   1  12
ATOM     12  C   UNL     1      57.845   9.527   9.373  1.00  0.00     0.063 A 
ATOM     13  C   UNL     1      60.252   9.691   9.677  1.00  0.00     0.047 A 
ATOM     14  C   UNL     1      59.018   9.155  10.050  1.00  0.00     0.020 A 
ATOM     15  C   UNL     1      60.333  10.595   8.614  1.00  0.00     0.119 A 
ATOM     16  C   UNL     1      59.173  10.955   7.917  1.00  0.00     0.093 A 
ATOM     17  C   UNL     1      57.931  10.416   8.282  1.00  0.00     0.130 A 
BRANCH  15  18
ATOM     18  O   UNL     1      61.571  11.125   8.255  1.00  0.00    -0.508 OA
ATOM     19  H   UNL     1      62.038  10.847   7.401  1.00  0.00     0.293 HD
ENDBRANCH  15  18
BRANCH  17  20
ATOM     20  O   UNL     1      56.789  10.744   7.549  1.00  0.00    -0.507 OA
ATOM     21  H   UNL     1      55.899  10.917   8.002  1.00  0.00     0.293 HD
ENDBRANCH  17  20
ENDBRANCH   1  12
BRANCH   2  22
ATOM     22  O   UNL     1      55.564  11.125  10.104  1.00  0.00    -0.502 OA
ATOM     23  H   UNL     1      54.908  11.731  10.582  1.00  0.00     0.293 HD
ENDBRANCH   2  22
BRANCH   6  24
ATOM     24  O   UNL     1      51.878   7.543  11.520  1.00  0.00    -0.507 OA
ATOM     25  H   UNL     1      51.686   7.715  12.495  1.00  0.00     0.293 HD
ENDBRANCH   6  24
BRANCH   8  26
ATOM     26  O   UNL     1      54.207   3.476  10.558  1.00  0.00    -0.508 OA
ATOM     27  H   UNL     1      54.594   2.932  11.319  1.00  0.00     0.293 HD
ENDBRANCH   8  26
TORSDOF 6
ENDMDL
MODEL 7
REMARK VINA RESULT:    -4.119      2.650      4.229
REMARK INTER + INTRA:          -5.378
REMARK INTER:                  -5.262
REMARK INTRA:                  -0.116
REMARK UNBOUND:                -0.417
REMARK SMILES O=c1c(O)c(-c2ccc(O)cc2O)oc2cc(O)cc(O)c12
REMARK SMILES IDX 5 1 3 2 2 3 1 4 22 5 20 6 19 7 17 8 16 9 15 10 14 11 6 12
REMARK SMILES IDX 8 13 7 14 9 15 11 16 12 17 10 18 13 20 4 22 21 24 18 26
REMARK H PARENT 10 19 13 21 4 23 21 25 18 27
REMARK Flexibility Score: inf
ROOT
ATOM      1  C   UNL     1      55.067  10.115   7.065  1.00  0.00     0.184 A 
ATOM      2  C   UNL     1      53.709  10.468   7.069  1.00  0.00     0.208 A 
ATOM      3  C   UNL     1      53.072  10.733   5.846  1.00  0.00     0.238 A 
ATOM      4  O   UNL     1      51.875  11.122   5.862  1.00  0.00    -0.285 OA
ATOM      5  C   UNL     1      53.788  10.586   4.632  1.00  0.00     0.111 A 
ATOM      6  C   UNL     1      53.232  10.785   3.333  1.00  0.00     0.134 A 
ATOM      7  C   UNL     1      54.064  10.714   2.207  1.00  0.00     0.093 A 
ATOM      8  C   UNL     1      55.414  10.389   2.329  1.00  0.00     0.123 A 
ATOM      9  C   UNL     1      55.956  10.138   3.589  1.00  0.00     0.094 A 
ATOM     10  C   UNL     1      55.162  10.240   4.735  1.00  0.00     0.146 A 
ATOM     11  O   UNL     1      55.722  10.014   5.917  1.00  0.00    -0.451 OA
ENDROOT
BRANCH   1  12
ATOM     12  C   UNL     1      55.799   9.831   8.318  1.00  0.00     0.063 A 
ATOM     13  C   UNL     1      55.875   8.696  10.467  1.00  0.00     0.047 A 
ATOM     14  C   UNL     1      55.209   8.990   9.275  1.00  0.00     0.020 A 
ATOM     15  C   UNL     1      57.145   9.226  10.712  1.00  0.00     0.119 A 
ATOM     16  C   UNL     1      57.752  10.047   9.753  1.00  0.00     0.093 A 
ATOM     17  C   UNL     1      57.092  10.343   8.552  1.00  0.00     0.130 A 
BRANCH  15  18
ATOM     18  O   UNL     1      57.795   8.928  11.907  1.00  0.00    -0.508 OA
ATOM     19  H   UNL     1      58.079   7.982  12.133  1.00  0.00     0.293 HD
ENDBRANCH  15  18
BRANCH  17  20
ATOM     20  O   UNL     1      57.727  11.122   7.584  1.00  0.00    -0.507 OA
ATOM     21  H   UNL     1      57.585  12.125   7.532  1.00  0.00     0.293 HD
ENDBRANCH  17  20
ENDBRANCH   1  12
BRANCH   2  22
ATOM     22  O   UNL     1      53.007  10.538   8.276  1.00  0.00    -0.502 OA
ATOM     23  H   UNL     1      52.001  10.648   8.313  1.00  0.00     0.293 HD
ENDBRANCH   2  22
BRANCH   6  24
ATOM     24  O   UNL     1      51.877  11.028   3.089  1.00  0.00    -0.507 OA
ATOM     25  H   UNL     1      51.505  11.873   2.682  1.00  0.00     0.293 HD
ENDBRANCH   6  24
BRANCH   8  26
ATOM     26  O   UNL     1      56.207  10.310   1.186  1.00  0.00    -0.508 OA
ATOM     27  H   UNL     1      55.833   9.986   0.303  1.00  0.00     0.293 HD
ENDBRANCH   8  26
TORSDOF 6
ENDMDL
MODEL 8
REMARK VINA RESULT:    -3.985      2.357      4.280
REMARK INTER + INTRA:          -5.217
REMARK INTER:                  -4.794
REMARK INTRA:                  -0.423
REMARK UNBOUND:                -0.417
REMARK SMILES O=c1c(O)c(-c2ccc(O)cc2O)oc2cc(O)cc(O)c12
REMARK SMILES IDX 5 1 3 2 2 3 1 4 22 5 20 6 19 7 17 8 16 9 15 10 14 11 6 12
REMARK SMILES IDX 8 13 7 14 9 15 11 16 12 17 10 18 13 20 4 22 21 24 18 26
REMARK H PARENT 10 19 13 21 4 23 21 25 18 27
REMARK Flexibility Score: inf
ROOT
ATOM      1  C   UNL     1      54.674   8.738  10.460  1.00  0.00     0.184 A 
ATOM      2  C   UNL     1      54.026   9.228   9.316  1.00  0.00     0.208 A 
ATOM      3  C   UNL     1      54.780   9.907   8.346  1.00  0.00     0.238 A 
ATOM      4  O   UNL     1      54.180  10.409   7.360  1.00  0.00    -0.285 OA
ATOM      5  C   UNL     1      56.181  10.038   8.507  1.00  0.00     0.111 A 
ATOM      6  C   UNL     1      57.051  10.668   7.566  1.00  0.00     0.134 A 
ATOM      7  C   UNL     1      58.407  10.832   7.881  1.00  0.00     0.093 A 
ATOM      8  C   UNL     1      58.934  10.333   9.071  1.00  0.00     0.123 A 
ATOM      9  C   UNL     1      58.105   9.667   9.973  1.00  0.00     0.094 A 
ATOM     10  C   UNL     1      56.741   9.522   9.706  1.00  0.00     0.146 A 
ATOM     11  O   UNL     1      55.982   8.901  10.601  1.00  0.00    -0.451 OA
ENDROOT
BRANCH   1  12
ATOM     12  C   UNL     1      53.938   8.021  11.522  1.00  0.00     0.063 A 
ATOM     13  C   UNL     1      52.975   5.944  12.343  1.00  0.00     0.047 A 
ATOM     14  C   UNL     1      53.664   6.654  11.357  1.00  0.00     0.020 A 
ATOM     15  C   UNL     1      52.564   6.588  13.514  1.00  0.00     0.119 A 
ATOM     16  C   UNL     1      52.853   7.945  13.700  1.00  0.00     0.093 A 
ATOM     17  C   UNL     1      53.549   8.663  12.716  1.00  0.00     0.130 A 
BRANCH  15  18
ATOM     18  O   UNL     1      51.875   5.868  14.488  1.00  0.00    -0.508 OA
ATOM     19  H   UNL     1      52.047   6.014  15.475  1.00  0.00     0.293 HD
ENDBRANCH  15  18
BRANCH  17  20
ATOM     20  O   UNL     1      53.874  10.003  12.933  1.00  0.00    -0.507 OA
ATOM     21  H   UNL     1      53.211  10.747  12.746  1.00  0.00     0.293 HD
ENDBRANCH  17  20
ENDBRANCH   1  12
BRANCH   2  22
ATOM     22  O   UNL     1      52.653   9.024   9.148  1.00  0.00    -0.502 OA
ATOM     23  H   UNL     1      52.256   8.107   8.985  1.00  0.00     0.293 HD
ENDBRANCH   2  22
BRANCH   6  24
ATOM     24  O   UNL     1      56.647  11.124   6.308  1.00  0.00    -0.507 OA
ATOM     25  H   UNL     1      57.127  11.827   5.767  1.00  0.00     0.293 HD
ENDBRANCH   6  24
BRANCH   8  26
ATOM     26  O   UNL     1      60.291  10.499   9.344  1.00  0.00    -0.508 OA
ATOM     27  H   UNL     1      60.727  10.063  10.147  1.00  0.00     0.293 HD
ENDBRANCH   8  26
TORSDOF 6
ENDMDL
