MODEL 1
REMARK VINA RESULT:    -5.685      0.000      0.000
REMARK INTER + INTRA:          -8.769
REMARK INTER:                  -7.680
REMARK INTRA:                  -1.089
REMARK UNBOUND:                -1.089
REMARK SMILES CC(=O)CCC=C(C)CCC=C(C)C
REMARK SMILES IDX 7 1 6 2 8 3 9 4 10 5 11 6 13 7 12 8 14 9 5 10 4 11 2 12 3 13
REMARK SMILES IDX 1 14
REMARK H PARENT
REMARK Flexibility Score: inf
ROOT
ATOM      1  C   UNL     1     -12.965 -19.595  29.415  1.00  0.00    -0.077 C 
ATOM      2  C   UNL     1     -12.028 -18.702  29.023  1.00  0.00    -0.028 C 
ATOM      3  C   UNL     1     -14.104 -20.006  28.512  1.00  0.00     0.039 C 
ENDROOT
BRANCH   1   4
ATOM      4  C   UNL     1     -12.880 -20.185  30.805  1.00  0.00     0.034 C 
BRANCH   4   5
ATOM      5  C   UNL     1     -12.398 -19.135  31.813  1.00  0.00     0.032 C 
BRANCH   5   6
ATOM      6  C   UNL     1     -13.423 -18.040  31.978  1.00  0.00    -0.028 C 
ATOM      7  C   UNL     1     -11.737 -16.204  31.729  1.00  0.00     0.039 C 
ATOM      8  C   UNL     1     -13.144 -16.719  31.909  1.00  0.00    -0.080 C 
ATOM      9  C   UNL     1     -14.254 -15.710  32.061  1.00  0.00     0.039 C 
ENDBRANCH   5   6
ENDBRANCH   4   5
ENDBRANCH   1   4
BRANCH   2  10
ATOM     10  C   UNL     1     -11.962 -18.072  27.652  1.00  0.00     0.035 C 
BRANCH  10  11
ATOM     11  C   UNL     1     -11.863 -16.543  27.733  1.00  0.00     0.079 C 
BRANCH  11  12
ATOM     12  C   UNL     1     -13.202 -15.888  27.508  1.00  0.00     0.130 C 
ATOM     13  O   UNL     1     -13.907 -16.260  26.583  1.00  0.00    -0.300 OA
ATOM     14  C   UNL     1     -13.687 -14.784  28.399  1.00  0.00     0.087 C 
ENDBRANCH  11  12
ENDBRANCH  10  11
ENDBRANCH   2  10
TORSDOF 6
ENDMDL
MODEL 2
REMARK VINA RESULT:    -5.565      1.544      3.371
REMARK INTER + INTRA:          -8.606
REMARK INTER:                  -7.629
REMARK INTRA:                  -0.977
REMARK UNBOUND:                -1.089
REMARK SMILES CC(=O)CCC=C(C)CCC=C(C)C
REMARK SMILES IDX 7 1 6 2 8 3 9 4 10 5 11 6 13 7 12 8 14 9 5 10 4 11 2 12 3 13
REMARK SMILES IDX 1 14
REMARK H PARENT
REMARK Flexibility Score: inf
ROOT
ATOM      1  C   UNL     1     -12.980 -15.562  30.022  1.00  0.00    -0.077 C 
ATOM      2  C   UNL     1     -11.657 -15.832  30.100  1.00  0.00    -0.028 C 
ATOM      3  C   UNL     1     -13.638 -15.158  28.723  1.00  0.00     0.039 C 
ENDROOT
BRANCH   1   4
ATOM      4  C   UNL     1     -13.821 -15.647  31.276  1.00  0.00     0.034 C 
BRANCH   4   5
ATOM      5  C   UNL     1     -13.234 -16.668  32.257  1.00  0.00     0.032 C 
BRANCH   5   6
ATOM      6  C   UNL     1     -13.401 -18.073  31.732  1.00  0.00    -0.028 C 
ATOM      7  C   UNL     1     -10.994 -18.665  32.091  1.00  0.00     0.039 C 
ATOM      8  C   UNL     1     -12.409 -18.991  31.683  1.00  0.00    -0.080 C 
ATOM      9  C   UNL     1     -12.695 -20.377  31.163  1.00  0.00     0.039 C 
ENDBRANCH   5   6
ENDBRANCH   4   5
ENDBRANCH   1   4
BRANCH   2  10
ATOM     10  C   UNL     1     -10.710 -15.833  28.923  1.00  0.00     0.035 C 
BRANCH  10  11
ATOM     11  C   UNL     1     -10.443 -17.253  28.409  1.00  0.00     0.079 C 
BRANCH  11  12
ATOM     12  C   UNL     1     -11.497 -17.696  27.428  1.00  0.00     0.130 C 
ATOM     13  O   UNL     1     -12.425 -18.390  27.813  1.00  0.00    -0.300 OA
ATOM     14  C   UNL     1     -11.431 -17.301  25.983  1.00  0.00     0.087 C 
ENDBRANCH  11  12
ENDBRANCH  10  11
ENDBRANCH   2  10
TORSDOF 6
ENDMDL
MODEL 3
REMARK VINA RESULT:    -5.401      1.242      2.318
REMARK INTER + INTRA:          -8.385
REMARK INTER:                  -7.276
REMARK INTRA:                  -1.109
REMARK UNBOUND:                -1.089
REMARK SMILES CC(=O)CCC=C(C)CCC=C(C)C
REMARK SMILES IDX 7 1 6 2 8 3 9 4 10 5 11 6 13 7 12 8 14 9 5 10 4 11 2 12 3 13
REMARK SMILES IDX 1 14
REMARK H PARENT
REMARK Flexibility Score: inf
ROOT
ATOM      1  C   UNL     1     -12.034 -18.555  31.100  1.00  0.00    -0.077 C 
ATOM      2  C   UNL     1     -11.890 -18.164  29.813  1.00  0.00    -0.028 C 
ATOM      3  C   UNL     1     -12.892 -19.739  31.484  1.00  0.00     0.039 C 
ENDROOT
BRANCH   1   4
ATOM      4  C   UNL     1     -11.332 -17.773  32.188  1.00  0.00     0.034 C 
BRANCH   4   5
ATOM      5  C   UNL     1     -11.563 -16.268  32.011  1.00  0.00     0.032 C 
BRANCH   5   6
ATOM      6  C   UNL     1     -12.882 -15.854  32.616  1.00  0.00    -0.028 C 
ATOM      7  C   UNL     1     -13.882 -15.230  30.407  1.00  0.00     0.039 C 
ATOM      8  C   UNL     1     -13.944 -15.417  31.903  1.00  0.00    -0.080 C 
ATOM      9  C   UNL     1     -15.225 -15.056  32.610  1.00  0.00     0.039 C 
ENDBRANCH   5   6
ENDBRANCH   4   5
ENDBRANCH   1   4
BRANCH   2  10
ATOM     10  C   UNL     1     -12.492 -18.877  28.626  1.00  0.00     0.035 C 
BRANCH  10  11
ATOM     11  C   UNL     1     -13.599 -18.045  27.965  1.00  0.00     0.079 C 
BRANCH  11  12
ATOM     12  C   UNL     1     -13.030 -16.998  27.042  1.00  0.00     0.130 C 
ATOM     13  O   UNL     1     -13.609 -15.930  26.912  1.00  0.00    -0.300 OA
ATOM     14  C   UNL     1     -11.764 -17.241  26.276  1.00  0.00     0.087 C 
ENDBRANCH  11  12
ENDBRANCH  10  11
ENDBRANCH   2  10
TORSDOF 6
ENDMDL
MODEL 4
REMARK VINA RESULT:    -5.400      2.164      4.275
REMARK INTER + INTRA:          -8.383
REMARK INTER:                  -7.396
REMARK INTRA:                  -0.987
REMARK UNBOUND:                -1.089
REMARK SMILES CC(=O)CCC=C(C)CCC=C(C)C
REMARK SMILES IDX 7 1 6 2 8 3 9 4 10 5 11 6 13 7 12 8 14 9 5 10 4 11 2 12 3 13
REMARK SMILES IDX 1 14
REMARK H PARENT
REMARK Flexibility Score: inf
ROOT
ATOM      1  C   UNL     1     -12.234 -18.683  30.767  1.00  0.00    -0.077 C 
ATOM      2  C   UNL     1     -12.393 -17.530  31.456  1.00  0.00    -0.028 C 
ATOM      3  C   UNL     1     -13.234 -19.812  30.858  1.00  0.00     0.039 C 
ENDROOT
BRANCH   1   4
ATOM      4  C   UNL     1     -11.008 -18.855  29.898  1.00  0.00     0.034 C 
BRANCH   4   5
ATOM      5  C   UNL     1     -10.769 -17.607  29.040  1.00  0.00     0.032 C 
BRANCH   5   6
ATOM      6  C   UNL     1     -11.717 -17.574  27.867  1.00  0.00    -0.028 C 
ATOM      7  C   UNL     1     -12.817 -15.450  28.608  1.00  0.00     0.039 C 
ATOM      8  C   UNL     1     -12.620 -16.593  27.643  1.00  0.00    -0.080 C 
ATOM      9  C   UNL     1     -13.500 -16.647  26.421  1.00  0.00     0.039 C 
ENDBRANCH   5   6
ENDBRANCH   4   5
ENDBRANCH   1   4
BRANCH   2  10
ATOM     10  C   UNL     1     -13.587 -17.204  32.321  1.00  0.00     0.035 C 
BRANCH  10  11
ATOM     11  C   UNL     1     -13.650 -15.710  32.664  1.00  0.00     0.079 C 
BRANCH  11  12
ATOM     12  C   UNL     1     -14.996 -15.120  32.331  1.00  0.00     0.130 C 
ATOM     13  O   UNL     1     -15.970 -15.423  33.002  1.00  0.00    -0.300 OA
ATOM     14  C   UNL     1     -15.165 -14.164  31.187  1.00  0.00     0.087 C 
ENDBRANCH  11  12
ENDBRANCH  10  11
ENDBRANCH   2  10
TORSDOF 6
ENDMDL
MODEL 5
REMARK VINA RESULT:    -5.316      2.493      4.207
REMARK INTER + INTRA:          -8.270
REMARK INTER:                  -6.950
REMARK INTRA:                  -1.319
REMARK UNBOUND:                -1.089
REMARK SMILES CC(=O)CCC=C(C)CCC=C(C)C
REMARK SMILES IDX 7 1 6 2 8 3 9 4 10 5 11 6 13 7 12 8 14 9 5 10 4 11 2 12 3 13
REMARK SMILES IDX 1 14
REMARK H PARENT
REMARK Flexibility Score: inf
ROOT
ATOM      1  C   UNL     1     -12.303 -19.211  30.323  1.00  0.00    -0.077 C 
ATOM      2  C   UNL     1     -11.011 -18.840  30.469  1.00  0.00    -0.028 C 
ATOM      3  C   UNL     1     -13.215 -19.414  31.510  1.00  0.00     0.039 C 
ENDROOT
BRANCH   1   4
ATOM      4  C   UNL     1     -12.845 -19.449  28.931  1.00  0.00     0.034 C 
BRANCH   4   5
ATOM      5  C   UNL     1     -12.336 -18.379  27.958  1.00  0.00     0.032 C 
BRANCH   5   6
ATOM      6  C   UNL     1     -13.201 -17.145  28.018  1.00  0.00    -0.028 C 
ATOM      7  C   UNL     1     -11.323 -15.668  28.768  1.00  0.00     0.039 C 
ATOM      8  C   UNL     1     -12.751 -15.913  28.349  1.00  0.00    -0.080 C 
ATOM      9  C   UNL     1     -13.700 -14.743  28.349  1.00  0.00     0.039 C 
ENDBRANCH   5   6
ENDBRANCH   4   5
ENDBRANCH   1   4
BRANCH   2  10
ATOM     10  C   UNL     1     -10.352 -18.524  31.791  1.00  0.00     0.035 C 
BRANCH  10  11
ATOM     11  C   UNL     1      -9.942 -17.048  31.883  1.00  0.00     0.079 C 
BRANCH  11  12
ATOM     12  C   UNL     1     -10.861 -16.272  32.791  1.00  0.00     0.130 C 
ATOM     13  O   UNL     1     -10.425 -15.801  33.830  1.00  0.00    -0.300 OA
ATOM     14  C   UNL     1     -12.306 -16.065  32.444  1.00  0.00     0.087 C 
ENDBRANCH  11  12
ENDBRANCH  10  11
ENDBRANCH   2  10
TORSDOF 6
ENDMDL
MODEL 6
REMARK VINA RESULT:    -5.298      2.039      4.193
REMARK INTER + INTRA:          -8.246
REMARK INTER:                  -7.447
REMARK INTRA:                  -0.799
REMARK UNBOUND:                -1.089
REMARK SMILES CC(=O)CCC=C(C)CCC=C(C)C
REMARK SMILES IDX 7 1 6 2 8 3 9 4 10 5 11 6 13 7 12 8 14 9 5 10 4 11 2 12 3 13
REMARK SMILES IDX 1 14
REMARK H PARENT
REMARK Flexibility Score: inf
ROOT
ATOM      1  C   UNL     1     -12.856 -19.190  30.514  1.00  0.00    -0.077 C 
ATOM      2  C   UNL     1     -13.072 -17.913  30.900  1.00  0.00    -0.028 C 
ATOM      3  C   UNL     1     -12.591 -20.293  31.513  1.00  0.00     0.039 C 
ENDROOT
BRANCH   1   4
ATOM      4  C   UNL     1     -12.861 -19.522  29.038  1.00  0.00     0.034 C 
BRANCH   4   5
ATOM      5  C   UNL     1     -12.135 -18.436  28.234  1.00  0.00     0.032 C 
BRANCH   5   6
ATOM      6  C   UNL     1     -13.113 -17.638  27.408  1.00  0.00    -0.028 C 
ATOM      7  C   UNL     1     -12.530 -15.470  28.517  1.00  0.00     0.039 C 
ATOM      8  C   UNL     1     -13.277 -16.300  27.502  1.00  0.00    -0.080 C 
ATOM      9  C   UNL     1     -14.265 -15.600  26.604  1.00  0.00     0.039 C 
ENDBRANCH   5   6
ENDBRANCH   4   5
ENDBRANCH   1   4
BRANCH   2  10
ATOM     10  C   UNL     1     -13.142 -17.450  32.336  1.00  0.00     0.035 C 
BRANCH  10  11
ATOM     11  C   UNL     1     -13.243 -15.922  32.436  1.00  0.00     0.079 C 
BRANCH  11  12
ATOM     12  C   UNL     1     -14.672 -15.452  32.339  1.00  0.00     0.130 C 
ATOM     13  O   UNL     1     -15.530 -15.989  33.022  1.00  0.00    -0.300 OA
ATOM     14  C   UNL     1     -15.063 -14.334  31.419  1.00  0.00     0.087 C 
ENDBRANCH  11  12
ENDBRANCH  10  11
ENDBRANCH   2  10
TORSDOF 6
ENDMDL
MODEL 7
REMARK VINA RESULT:    -5.281      2.164      4.163
REMARK INTER + INTRA:          -8.223
REMARK INTER:                  -7.776
REMARK INTRA:                  -0.447
REMARK UNBOUND:                -1.089
REMARK SMILES CC(=O)CCC=C(C)CCC=C(C)C
REMARK SMILES IDX 7 1 6 2 8 3 9 4 10 5 11 6 13 7 12 8 14 9 5 10 4 11 2 12 3 13
REMARK SMILES IDX 1 14
REMARK H PARENT
REMARK Flexibility Score: inf
ROOT
ATOM      1  C   UNL     1     -12.807 -17.167  27.639  1.00  0.00    -0.077 C 
ATOM      2  C   UNL     1     -13.568 -18.119  28.226  1.00  0.00    -0.028 C 
ATOM      3  C   UNL     1     -11.369 -17.420  27.251  1.00  0.00     0.039 C 
ENDROOT
BRANCH   1   4
ATOM      4  C   UNL     1     -13.409 -15.803  27.382  1.00  0.00     0.034 C 
BRANCH   4   5
ATOM      5  C   UNL     1     -13.580 -15.028  28.693  1.00  0.00     0.032 C 
BRANCH   5   6
ATOM      6  C   UNL     1     -13.090 -15.842  29.865  1.00  0.00    -0.028 C 
ATOM      7  C   UNL     1     -14.659 -14.752  31.485  1.00  0.00     0.039 C 
ATOM      8  C   UNL     1     -13.589 -15.752  31.118  1.00  0.00    -0.080 C 
ATOM      9  C   UNL     1     -13.042 -16.636  32.209  1.00  0.00     0.039 C 
ENDBRANCH   5   6
ENDBRANCH   4   5
ENDBRANCH   1   4
BRANCH   2  10
ATOM     10  C   UNL     1     -13.114 -19.534  28.499  1.00  0.00     0.035 C 
BRANCH  10  11
ATOM     11  C   UNL     1     -13.503 -19.993  29.910  1.00  0.00     0.079 C 
BRANCH  11  12
ATOM     12  C   UNL     1     -12.337 -19.911  30.862  1.00  0.00     0.130 C 
ATOM     13  O   UNL     1     -12.427 -20.417  31.970  1.00  0.00    -0.300 OA
ATOM     14  C   UNL     1     -11.063 -19.220  30.475  1.00  0.00     0.087 C 
ENDBRANCH  11  12
ENDBRANCH  10  11
ENDBRANCH   2  10
TORSDOF 6
ENDMDL
MODEL 8
REMARK VINA RESULT:    -5.149      1.870      2.523
REMARK INTER + INTRA:          -8.044
REMARK INTER:                  -6.895
REMARK INTRA:                  -1.150
REMARK UNBOUND:                -1.089
REMARK SMILES CC(=O)CCC=C(C)CCC=C(C)C
REMARK SMILES IDX 7 1 6 2 8 3 9 4 10 5 11 6 13 7 12 8 14 9 5 10 4 11 2 12 3 13
REMARK SMILES IDX 1 14
REMARK H PARENT
REMARK Flexibility Score: inf
ROOT
ATOM      1  C   UNL     1     -10.961 -17.805  31.063  1.00  0.00    -0.077 C 
ATOM      2  C   UNL     1     -10.960 -18.122  29.749  1.00  0.00    -0.028 C 
ATOM      3  C   UNL     1     -10.103 -16.691  31.618  1.00  0.00     0.039 C 
ENDROOT
BRANCH   1   4
ATOM      4  C   UNL     1     -11.832 -18.601  32.009  1.00  0.00     0.034 C 
BRANCH   4   5
ATOM      5  C   UNL     1     -13.318 -18.364  31.713  1.00  0.00     0.032 C 
BRANCH   5   6
ATOM      6  C   UNL     1     -13.826 -17.155  32.460  1.00  0.00    -0.028 C 
ATOM      7  C   UNL     1     -13.662 -15.652  30.463  1.00  0.00     0.039 C 
ATOM      8  C   UNL     1     -14.017 -15.939  31.902  1.00  0.00    -0.080 C 
ATOM      9  C   UNL     1     -14.557 -14.806  32.737  1.00  0.00     0.039 C 
ENDBRANCH   5   6
ENDBRANCH   4   5
ENDBRANCH   1   4
BRANCH   2  10
ATOM     10  C   UNL     1     -10.178 -17.383  28.688  1.00  0.00     0.035 C 
BRANCH  10  11
ATOM     11  C   UNL     1     -11.044 -16.343  27.965  1.00  0.00     0.079 C 
BRANCH  11  12
ATOM     12  C   UNL     1     -11.866 -16.971  26.869  1.00  0.00     0.130 C 
ATOM     13  O   UNL     1     -11.311 -17.623  25.998  1.00  0.00    -0.300 OA
ATOM     14  C   UNL     1     -13.357 -16.811  26.825  1.00  0.00     0.087 C 
ENDBRANCH  11  12
ENDBRANCH  10  11
ENDBRANCH   2  10
TORSDOF 6
ENDMDL
MODEL 9
REMARK VINA RESULT:    -5.143      1.538      2.877
REMARK INTER + INTRA:          -8.036
REMARK INTER:                  -6.664
REMARK INTRA:                  -1.372
REMARK UNBOUND:                -1.089
REMARK SMILES CC(=O)CCC=C(C)CCC=C(C)C
REMARK SMILES IDX 7 1 6 2 8 3 9 4 10 5 11 6 13 7 12 8 14 9 5 10 4 11 2 12 3 13
REMARK SMILES IDX 1 14
REMARK H PARENT
REMARK Flexibility Score: inf
ROOT
ATOM      1  C   UNL     1     -10.237 -16.391  30.349  1.00  0.00    -0.077 C 
ATOM      2  C   UNL     1     -10.758 -17.548  29.881  1.00  0.00    -0.028 C 
ATOM      3  C   UNL     1      -9.988 -15.204  29.448  1.00  0.00     0.039 C 
ENDROOT
BRANCH   1   4
ATOM      4  C   UNL     1      -9.875 -16.289  31.815  1.00  0.00     0.034 C 
BRANCH   4   5
ATOM      5  C   UNL     1     -11.059 -16.700  32.698  1.00  0.00     0.032 C 
BRANCH   5   6
ATOM      6  C   UNL     1     -12.227 -15.766  32.495  1.00  0.00    -0.028 C 
ATOM      7  C   UNL     1     -13.825 -17.621  31.966  1.00  0.00     0.039 C 
ATOM      8  C   UNL     1     -13.483 -16.170  32.198  1.00  0.00    -0.080 C 
ATOM      9  C   UNL     1     -14.582 -15.150  32.045  1.00  0.00     0.039 C 
ENDBRANCH   5   6
ENDBRANCH   4   5
ENDBRANCH   1   4
BRANCH   2  10
ATOM     10  C   UNL     1     -11.207 -17.773  28.457  1.00  0.00     0.035 C 
BRANCH  10  11
ATOM     11  C   UNL     1     -12.735 -17.720  28.328  1.00  0.00     0.079 C 
BRANCH  11  12
ATOM     12  C   UNL     1     -13.189 -16.483  27.598  1.00  0.00     0.130 C 
ATOM     13  O   UNL     1     -13.466 -16.551  26.410  1.00  0.00    -0.300 OA
ATOM     14  C   UNL     1     -13.309 -15.163  28.301  1.00  0.00     0.087 C 
ENDBRANCH  11  12
ENDBRANCH  10  11
ENDBRANCH   2  10
TORSDOF 6
ENDMDL
