MODEL 1
REMARK VINA RESULT:    -3.778      0.000      0.000
REMARK INTER + INTRA:          -5.520
REMARK INTER:                  -5.103
REMARK INTRA:                  -0.417
REMARK UNBOUND:                -0.417
REMARK SMILES CCCCCCCC(=O)[O-]
REMARK SMILES IDX 5 1 6 2 7 3 8 4 9 5 10 6 4 7 3 8 2 9 1 10
REMARK H PARENT
REMARK Flexibility Score: inf
ROOT
ATOM      1  C   UNL     1      51.388 -50.619  -8.006  1.00  0.00     0.000 C 
ENDROOT
BRANCH   1   2
ATOM      2  C   UNL     1      51.980 -51.748  -8.867  1.00  0.00     0.006 C 
BRANCH   2   3
ATOM      3  C   UNL     1      53.123 -51.254  -9.764  1.00  0.00     0.053 C 
BRANCH   3   4
ATOM      4  C   UNL     1      52.750 -51.309 -11.215  1.00  0.00     0.041 C 
ATOM      5  O   UNL     1      53.594 -51.680 -12.073  1.00  0.00    -0.550 OA
ATOM      6  O   UNL     1      51.481 -50.919 -11.622  1.00  0.00    -0.550 OA
ENDBRANCH   3   4
ENDBRANCH   2   3
ENDBRANCH   1   2
BRANCH   1   7
ATOM      7  C   UNL     1      52.083 -49.269  -8.239  1.00  0.00     0.000 C 
BRANCH   7   8
ATOM      8  C   UNL     1      51.194 -48.270  -8.999  1.00  0.00    -0.000 C 
BRANCH   8   9
ATOM      9  C   UNL     1      51.915 -47.629 -10.195  1.00  0.00    -0.003 C 
ATOM     10  C   UNL     1      51.209 -46.375 -10.710  1.00  0.00     0.004 C 
ENDBRANCH   8   9
ENDBRANCH   7   8
ENDBRANCH   1   7
TORSDOF 6
ENDMDL
MODEL 2
REMARK VINA RESULT:    -3.678      3.035      4.817
REMARK INTER + INTRA:          -5.385
REMARK INTER:                  -5.025
REMARK INTRA:                  -0.360
REMARK UNBOUND:                -0.417
REMARK SMILES CCCCCCCC(=O)[O-]
REMARK SMILES IDX 5 1 6 2 7 3 8 4 9 5 10 6 4 7 3 8 2 9 1 10
REMARK H PARENT
REMARK Flexibility Score: inf
ROOT
ATOM      1  C   UNL     1      52.462 -48.485  -9.544  1.00  0.00     0.000 C 
ENDROOT
BRANCH   1   2
ATOM      2  C   UNL     1      51.015 -48.002  -9.354  1.00  0.00     0.006 C 
BRANCH   2   3
ATOM      3  C   UNL     1      50.276 -47.846 -10.689  1.00  0.00     0.053 C 
BRANCH   3   4
ATOM      4  C   UNL     1      49.192 -46.815 -10.605  1.00  0.00     0.041 C 
ATOM      5  O   UNL     1      48.030 -47.079 -11.012  1.00  0.00    -0.550 OA
ATOM      6  O   UNL     1      49.475 -45.549 -10.107  1.00  0.00    -0.550 OA
ENDBRANCH   3   4
ENDBRANCH   2   3
ENDBRANCH   1   2
BRANCH   1   7
ATOM      7  C   UNL     1      52.878 -49.537  -8.504  1.00  0.00     0.000 C 
BRANCH   7   8
ATOM      8  C   UNL     1      53.078 -50.932  -9.121  1.00  0.00    -0.000 C 
BRANCH   8   9
ATOM      9  C   UNL     1      51.817 -51.805  -9.025  1.00  0.00    -0.003 C 
ATOM     10  C   UNL     1      51.053 -51.601  -7.717  1.00  0.00     0.004 C 
ENDBRANCH   8   9
ENDBRANCH   7   8
ENDBRANCH   1   7
TORSDOF 6
ENDMDL
MODEL 3
REMARK VINA RESULT:    -3.671      2.549      4.599
REMARK INTER + INTRA:          -5.376
REMARK INTER:                  -4.987
REMARK INTRA:                  -0.389
REMARK UNBOUND:                -0.417
REMARK SMILES CCCCCCCC(=O)[O-]
REMARK SMILES IDX 5 1 6 2 7 3 8 4 9 5 10 6 4 7 3 8 2 9 1 10
REMARK H PARENT
REMARK Flexibility Score: inf
ROOT
ATOM      1  C   UNL     1      52.404 -48.552  -9.561  1.00  0.00     0.000 C 
ENDROOT
BRANCH   1   2
ATOM      2  C   UNL     1      51.037 -47.970  -9.160  1.00  0.00     0.006 C 
BRANCH   2   3
ATOM      3  C   UNL     1      50.189 -47.589 -10.381  1.00  0.00     0.053 C 
BRANCH   3   4
ATOM      4  C   UNL     1      50.669 -46.318 -11.013  1.00  0.00     0.041 C 
ATOM      5  O   UNL     1      51.246 -46.344 -12.131  1.00  0.00    -0.550 OA
ATOM      6  O   UNL     1      50.507 -45.108 -10.349  1.00  0.00    -0.550 OA
ENDBRANCH   3   4
ENDBRANCH   2   3
ENDBRANCH   1   2
BRANCH   1   7
ATOM      7  C   UNL     1      52.956 -49.539  -8.521  1.00  0.00     0.000 C 
BRANCH   7   8
ATOM      8  C   UNL     1      53.078 -50.970  -9.072  1.00  0.00    -0.000 C 
BRANCH   8   9
ATOM      9  C   UNL     1      51.744 -51.733  -9.034  1.00  0.00    -0.003 C 
ATOM     10  C   UNL     1      51.029 -51.608  -7.688  1.00  0.00     0.004 C 
ENDBRANCH   8   9
ENDBRANCH   7   8
ENDBRANCH   1   7
TORSDOF 6
ENDMDL
MODEL 4
REMARK VINA RESULT:    -3.608      1.356      2.306
REMARK INTER + INTRA:          -5.291
REMARK INTER:                  -4.794
REMARK INTRA:                  -0.497
REMARK UNBOUND:                -0.417
REMARK SMILES CCCCCCCC(=O)[O-]
REMARK SMILES IDX 5 1 6 2 7 3 8 4 9 5 10 6 4 7 3 8 2 9 1 10
REMARK H PARENT
REMARK Flexibility Score: inf
ROOT
ATOM      1  C   UNL     1      53.207 -51.507  -9.193  1.00  0.00     0.000 C 
ENDROOT
BRANCH   1   2
ATOM      2  C   UNL     1      53.363 -51.343 -10.714  1.00  0.00     0.006 C 
BRANCH   2   3
ATOM      3  C   UNL     1      52.009 -51.221 -11.426  1.00  0.00     0.053 C 
BRANCH   3   4
ATOM      4  C   UNL     1      52.106 -50.370 -12.655  1.00  0.00     0.041 C 
ATOM      5  O   UNL     1      52.652 -50.820 -13.697  1.00  0.00    -0.550 OA
ATOM      6  O   UNL     1      51.622 -49.068 -12.640  1.00  0.00    -0.550 OA
ENDBRANCH   3   4
ENDBRANCH   2   3
ENDBRANCH   1   2
BRANCH   1   7
ATOM      7  C   UNL     1      51.741 -51.676  -8.762  1.00  0.00     0.000 C 
BRANCH   7   8
ATOM      8  C   UNL     1      51.263 -50.541  -7.840  1.00  0.00    -0.000 C 
BRANCH   8   9
ATOM      9  C   UNL     1      52.013 -49.223  -8.089  1.00  0.00    -0.003 C 
ATOM     10  C   UNL     1      51.300 -48.315  -9.090  1.00  0.00     0.004 C 
ENDBRANCH   8   9
ENDBRANCH   7   8
ENDBRANCH   1   7
TORSDOF 6
ENDMDL
MODEL 5
REMARK VINA RESULT:    -3.591      2.261      4.332
REMARK INTER + INTRA:          -5.268
REMARK INTER:                  -4.913
REMARK INTRA:                  -0.355
REMARK UNBOUND:                -0.417
REMARK SMILES CCCCCCCC(=O)[O-]
REMARK SMILES IDX 5 1 6 2 7 3 8 4 9 5 10 6 4 7 3 8 2 9 1 10
REMARK H PARENT
REMARK Flexibility Score: inf
ROOT
ATOM      1  C   UNL     1      52.446 -48.733  -9.565  1.00  0.00     0.000 C 
ENDROOT
BRANCH   1   2
ATOM      2  C   UNL     1      51.055 -48.227  -9.148  1.00  0.00     0.006 C 
BRANCH   2   3
ATOM      3  C   UNL     1      50.678 -46.918  -9.856  1.00  0.00     0.053 C 
BRANCH   3   4
ATOM      4  C   UNL     1      50.621 -47.091 -11.343  1.00  0.00     0.041 C 
ATOM      5  O   UNL     1      49.791 -47.885 -11.859  1.00  0.00    -0.550 OA
ATOM      6  O   UNL     1      51.509 -46.400 -12.158  1.00  0.00    -0.550 OA
ENDBRANCH   3   4
ENDBRANCH   2   3
ENDBRANCH   1   2
BRANCH   1   7
ATOM      7  C   UNL     1      52.966 -49.858  -8.656  1.00  0.00     0.000 C 
BRANCH   7   8
ATOM      8  C   UNL     1      52.848 -51.246  -9.309  1.00  0.00    -0.000 C 
BRANCH   8   9
ATOM      9  C   UNL     1      51.500 -51.923  -9.015  1.00  0.00    -0.003 C 
ATOM     10  C   UNL     1      50.994 -51.646  -7.599  1.00  0.00     0.004 C 
ENDBRANCH   8   9
ENDBRANCH   7   8
ENDBRANCH   1   7
TORSDOF 6
ENDMDL
MODEL 6
REMARK VINA RESULT:    -3.569      2.039      3.060
REMARK INTER + INTRA:          -5.238
REMARK INTER:                  -4.953
REMARK INTRA:                  -0.285
REMARK UNBOUND:                -0.417
REMARK SMILES CCCCCCCC(=O)[O-]
REMARK SMILES IDX 5 1 6 2 7 3 8 4 9 5 10 6 4 7 3 8 2 9 1 10
REMARK H PARENT
REMARK Flexibility Score: inf
ROOT
ATOM      1  C   UNL     1      52.323 -48.408  -9.956  1.00  0.00     0.000 C 
ENDROOT
BRANCH   1   2
ATOM      2  C   UNL     1      52.813 -49.396  -8.883  1.00  0.00     0.006 C 
BRANCH   2   3
ATOM      3  C   UNL     1      51.677 -49.857  -7.960  1.00  0.00     0.053 C 
BRANCH   3   4
ATOM      4  C   UNL     1      51.336 -51.299  -8.180  1.00  0.00     0.041 C 
ATOM      5  O   UNL     1      50.942 -52.012  -7.221  1.00  0.00    -0.550 OA
ATOM      6  O   UNL     1      51.487 -51.865  -9.441  1.00  0.00    -0.550 OA
ENDBRANCH   3   4
ENDBRANCH   2   3
ENDBRANCH   1   2
BRANCH   1   7
ATOM      7  C   UNL     1      51.113 -47.582  -9.494  1.00  0.00     0.000 C 
BRANCH   7   8
ATOM      8  C   UNL     1      49.945 -47.635 -10.494  1.00  0.00    -0.000 C 
BRANCH   8   9
ATOM      9  C   UNL     1      49.146 -46.323 -10.536  1.00  0.00    -0.003 C 
ATOM     10  C   UNL     1      49.884 -45.158  -9.877  1.00  0.00     0.004 C 
ENDBRANCH   8   9
ENDBRANCH   7   8
ENDBRANCH   1   7
TORSDOF 6
ENDMDL
MODEL 7
REMARK VINA RESULT:    -3.559      1.752      2.289
REMARK INTER + INTRA:          -5.225
REMARK INTER:                  -4.676
REMARK INTRA:                  -0.549
REMARK UNBOUND:                -0.417
REMARK SMILES CCCCCCCC(=O)[O-]
REMARK SMILES IDX 5 1 6 2 7 3 8 4 9 5 10 6 4 7 3 8 2 9 1 10
REMARK H PARENT
REMARK Flexibility Score: inf
ROOT
ATOM      1  C   UNL     1      52.107 -48.689  -9.053  1.00  0.00     0.000 C 
ENDROOT
BRANCH   1   2
ATOM      2  C   UNL     1      51.705 -49.917  -8.218  1.00  0.00     0.006 C 
BRANCH   2   3
ATOM      3  C   UNL     1      51.727 -51.210  -9.044  1.00  0.00     0.053 C 
BRANCH   3   4
ATOM      4  C   UNL     1      53.067 -51.443  -9.672  1.00  0.00     0.041 C 
ATOM      5  O   UNL     1      54.066 -51.714  -8.954  1.00  0.00    -0.550 OA
ATOM      6  O   UNL     1      53.220 -51.326 -11.048  1.00  0.00    -0.550 OA
ENDBRANCH   3   4
ENDBRANCH   2   3
ENDBRANCH   1   2
BRANCH   1   7
ATOM      7  C   UNL     1      50.946 -47.701  -9.251  1.00  0.00     0.000 C 
BRANCH   7   8
ATOM      8  C   UNL     1      50.314 -47.807 -10.650  1.00  0.00    -0.000 C 
BRANCH   8   9
ATOM      9  C   UNL     1      51.272 -48.415 -11.686  1.00  0.00    -0.003 C 
ATOM     10  C   UNL     1      50.560 -49.316 -12.694  1.00  0.00     0.004 C 
ENDBRANCH   8   9
ENDBRANCH   7   8
ENDBRANCH   1   7
TORSDOF 6
ENDMDL
MODEL 8
REMARK VINA RESULT:    -3.554      1.228      3.138
REMARK INTER + INTRA:          -5.218
REMARK INTER:                  -4.634
REMARK INTRA:                  -0.585
REMARK UNBOUND:                -0.417
REMARK SMILES CCCCCCCC(=O)[O-]
REMARK SMILES IDX 5 1 6 2 7 3 8 4 9 5 10 6 4 7 3 8 2 9 1 10
REMARK H PARENT
REMARK Flexibility Score: inf
ROOT
ATOM      1  C   UNL     1      52.083 -48.368  -9.635  1.00  0.00     0.000 C 
ENDROOT
BRANCH   1   2
ATOM      2  C   UNL     1      51.119 -49.016 -10.643  1.00  0.00     0.006 C 
BRANCH   2   3
ATOM      3  C   UNL     1      51.794 -49.294 -11.993  1.00  0.00     0.053 C 
BRANCH   3   4
ATOM      4  C   UNL     1      51.958 -50.763 -12.236  1.00  0.00     0.041 C 
ATOM      5  O   UNL     1      53.107 -51.280 -12.249  1.00  0.00    -0.550 OA
ATOM      6  O   UNL     1      50.845 -51.557 -12.482  1.00  0.00    -0.550 OA
ENDBRANCH   3   4
ENDBRANCH   2   3
ENDBRANCH   1   2
BRANCH   1   7
ATOM      7  C   UNL     1      52.496 -49.327  -8.507  1.00  0.00     0.000 C 
BRANCH   7   8
ATOM      8  C   UNL     1      51.559 -50.542  -8.393  1.00  0.00    -0.000 C 
BRANCH   8   9
ATOM      9  C   UNL     1      52.283 -51.871  -8.659  1.00  0.00    -0.003 C 
ATOM     10  C   UNL     1      53.776 -51.689  -8.930  1.00  0.00     0.004 C 
ENDBRANCH   8   9
ENDBRANCH   7   8
ENDBRANCH   1   7
TORSDOF 6
ENDMDL
MODEL 9
REMARK VINA RESULT:    -3.486      1.522      2.258
REMARK INTER + INTRA:          -5.126
REMARK INTER:                  -4.754
REMARK INTRA:                  -0.371
REMARK UNBOUND:                -0.417
REMARK SMILES CCCCCCCC(=O)[O-]
REMARK SMILES IDX 5 1 6 2 7 3 8 4 9 5 10 6 4 7 3 8 2 9 1 10
REMARK H PARENT
REMARK Flexibility Score: inf
ROOT
ATOM      1  C   UNL     1      52.187 -48.406  -9.478  1.00  0.00     0.000 C 
ENDROOT
BRANCH   1   2
ATOM      2  C   UNL     1      51.908 -49.484  -8.417  1.00  0.00     0.006 C 
BRANCH   2   3
ATOM      3  C   UNL     1      51.775 -50.883  -9.034  1.00  0.00     0.053 C 
BRANCH   3   4
ATOM      4  C   UNL     1      53.071 -51.354  -9.620  1.00  0.00     0.041 C 
ATOM      5  O   UNL     1      54.020 -51.700  -8.867  1.00  0.00    -0.550 OA
ATOM      6  O   UNL     1      53.244 -51.378 -10.998  1.00  0.00    -0.550 OA
ENDBRANCH   3   4
ENDBRANCH   2   3
ENDBRANCH   1   2
BRANCH   1   7
ATOM      7  C   UNL     1      51.165 -48.424 -10.626  1.00  0.00     0.000 C 
BRANCH   7   8
ATOM      8  C   UNL     1      49.934 -47.549 -10.333  1.00  0.00    -0.000 C 
BRANCH   8   9
ATOM      9  C   UNL     1      50.300 -46.234  -9.627  1.00  0.00    -0.003 C 
ATOM     10  C   UNL     1      50.299 -45.034 -10.574  1.00  0.00     0.004 C 
ENDBRANCH   8   9
ENDBRANCH   7   8
ENDBRANCH   1   7
TORSDOF 6
ENDMDL
