MODEL 1
REMARK VINA RESULT:    -4.243      0.000      0.000
REMARK INTER + INTRA:          -5.310
REMARK INTER:                  -5.112
REMARK INTRA:                  -0.198
REMARK UNBOUND:                -0.198
REMARK SMILES C=CCc1ccc(O)c(OC)c1
REMARK SMILES IDX 9 1 7 2 6 3 5 4 4 5 12 6 10 7 11 8 8 9 3 11 2 12 1 13
REMARK H PARENT 8 10
REMARK Flexibility Score: inf
ROOT
ATOM      1  C   UNL     1     105.258 108.232 104.307  1.00  0.00     0.160 A 
ATOM      2  C   UNL     1     104.690 108.595 103.071  1.00  0.00     0.157 A 
ATOM      3  C   UNL     1     105.036 107.897 101.909  1.00  0.00     0.050 A 
ATOM      4  C   UNL     1     105.943 106.837 101.965  1.00  0.00     0.008 A 
ATOM      5  C   UNL     1     106.509 106.455 103.189  1.00  0.00    -0.040 A 
ATOM      6  C   UNL     1     106.171 107.159 104.355  1.00  0.00     0.054 A 
ENDROOT
BRANCH   1   7
ATOM      7  O   UNL     1     104.898 108.953 105.456  1.00  0.00    -0.493 OA
ATOM      8  C   UNL     1     104.895 108.421 106.777  1.00  0.00     0.278 C 
ENDBRANCH   1   7
BRANCH   2   9
ATOM      9  O   UNL     1     103.782 109.648 102.978  1.00  0.00    -0.504 OA
ATOM     10  H   UNL     1     103.462 110.011 102.088  1.00  0.00     0.293 HD
ENDBRANCH   2   9
BRANCH   5  11
ATOM     11  C   UNL     1     107.509 105.330 103.239  1.00  0.00     0.062 C 
BRANCH  11  12
ATOM     12  C   UNL     1     107.038 104.163 102.417  1.00  0.00    -0.030 C 
ATOM     13  C   UNL     1     107.660 102.981 102.455  1.00  0.00     0.004 C 
ENDBRANCH  11  12
ENDBRANCH   5  11
TORSDOF 4
ENDMDL
MODEL 2
REMARK VINA RESULT:    -4.233      3.085      3.534
REMARK INTER + INTRA:          -5.298
REMARK INTER:                  -5.109
REMARK INTRA:                  -0.189
REMARK UNBOUND:                -0.198
REMARK SMILES C=CCc1ccc(O)c(OC)c1
REMARK SMILES IDX 9 1 7 2 6 3 5 4 4 5 12 6 10 7 11 8 8 9 3 11 2 12 1 13
REMARK H PARENT 8 10
REMARK Flexibility Score: inf
ROOT
ATOM      1  C   UNL     1     108.192 106.753 104.296  1.00  0.00     0.160 A 
ATOM      2  C   UNL     1     108.567 107.314 103.061  1.00  0.00     0.157 A 
ATOM      3  C   UNL     1     107.891 106.951 101.892  1.00  0.00     0.050 A 
ATOM      4  C   UNL     1     106.840 106.032 101.940  1.00  0.00     0.008 A 
ATOM      5  C   UNL     1     106.447 105.472 103.163  1.00  0.00    -0.040 A 
ATOM      6  C   UNL     1     107.130 105.827 104.337  1.00  0.00     0.054 A 
ENDROOT
BRANCH   1   7
ATOM      7  O   UNL     1     108.893 107.131 105.453  1.00  0.00    -0.493 OA
ATOM      8  C   UNL     1     108.331 107.173 106.761  1.00  0.00     0.278 C 
ENDBRANCH   1   7
BRANCH   2   9
ATOM      9  O   UNL     1     109.611 108.234 102.976  1.00  0.00    -0.504 OA
ATOM     10  H   UNL     1     110.486 108.107 103.471  1.00  0.00     0.293 HD
ENDBRANCH   2   9
BRANCH   5  11
ATOM     11  C   UNL     1     105.333 104.459 103.205  1.00  0.00     0.062 C 
BRANCH  11  12
ATOM     12  C   UNL     1     104.033 105.080 102.776  1.00  0.00    -0.030 C 
ATOM     13  C   UNL     1     102.939 104.343 102.562  1.00  0.00     0.004 C 
ENDBRANCH  11  12
ENDBRANCH   5  11
TORSDOF 4
ENDMDL
MODEL 3
REMARK VINA RESULT:    -4.209      3.126      3.543
REMARK INTER + INTRA:          -5.268
REMARK INTER:                  -5.071
REMARK INTRA:                  -0.197
REMARK UNBOUND:                -0.198
REMARK SMILES C=CCc1ccc(O)c(OC)c1
REMARK SMILES IDX 9 1 7 2 6 3 5 4 4 5 12 6 10 7 11 8 8 9 3 11 2 12 1 13
REMARK H PARENT 8 10
REMARK Flexibility Score: inf
ROOT
ATOM      1  C   UNL     1     103.749 105.241 104.282  1.00  0.00     0.160 A 
ATOM      2  C   UNL     1     103.339 104.664 103.066  1.00  0.00     0.157 A 
ATOM      3  C   UNL     1     103.989 105.002 101.875  1.00  0.00     0.050 A 
ATOM      4  C   UNL     1     105.048 105.912 101.882  1.00  0.00     0.008 A 
ATOM      5  C   UNL     1     105.476 106.488 103.086  1.00  0.00    -0.040 A 
ATOM      6  C   UNL     1     104.820 106.158 104.281  1.00  0.00     0.054 A 
ENDROOT
BRANCH   1   7
ATOM      7  O   UNL     1     103.075 104.888 105.462  1.00  0.00    -0.493 OA
ATOM      8  C   UNL     1     103.665 104.875 106.758  1.00  0.00     0.278 C 
ENDBRANCH   1   7
BRANCH   2   9
ATOM      9  O   UNL     1     102.285 103.751 103.022  1.00  0.00    -0.504 OA
ATOM     10  H   UNL     1     102.437 102.750 102.998  1.00  0.00     0.293 HD
ENDBRANCH   2   9
BRANCH   5  11
ATOM     11  C   UNL     1     106.600 107.491 103.083  1.00  0.00     0.062 C 
BRANCH  11  12
ATOM     12  C   UNL     1     107.788 106.959 102.331  1.00  0.00    -0.030 C 
ATOM     13  C   UNL     1     109.001 107.502 102.459  1.00  0.00     0.004 C 
ENDBRANCH  11  12
ENDBRANCH   5  11
TORSDOF 4
ENDMDL
MODEL 4
REMARK VINA RESULT:    -4.193      3.349      5.020
REMARK INTER + INTRA:          -5.249
REMARK INTER:                  -5.049
REMARK INTRA:                  -0.199
REMARK UNBOUND:                -0.198
REMARK SMILES C=CCc1ccc(O)c(OC)c1
REMARK SMILES IDX 9 1 7 2 6 3 5 4 4 5 12 6 10 7 11 8 8 9 3 11 2 12 1 13
REMARK H PARENT 8 10
REMARK Flexibility Score: inf
ROOT
ATOM      1  C   UNL     1     106.775 103.764 104.309  1.00  0.00     0.160 A 
ATOM      2  C   UNL     1     107.296 103.435 103.044  1.00  0.00     0.157 A 
ATOM      3  C   UNL     1     106.938 104.188 101.921  1.00  0.00     0.050 A 
ATOM      4  C   UNL     1     106.064 105.270 102.046  1.00  0.00     0.008 A 
ATOM      5  C   UNL     1     105.544 105.618 103.300  1.00  0.00    -0.040 A 
ATOM      6  C   UNL     1     105.895 104.859 104.427  1.00  0.00     0.054 A 
ENDROOT
BRANCH   1   7
ATOM      7  O   UNL     1     107.147 102.987 105.418  1.00  0.00    -0.493 OA
ATOM      8  C   UNL     1     107.335 103.495 106.735  1.00  0.00     0.278 C 
ENDBRANCH   1   7
BRANCH   2   9
ATOM      9  O   UNL     1     108.171 102.362 102.883  1.00  0.00    -0.504 OA
ATOM     10  H   UNL     1     108.799 102.289 102.091  1.00  0.00     0.293 HD
ENDBRANCH   2   9
BRANCH   5  11
ATOM     11  C   UNL     1     104.579 106.767 103.424  1.00  0.00     0.062 C 
BRANCH  11  12
ATOM     12  C   UNL     1     105.190 108.035 102.894  1.00  0.00    -0.030 C 
ATOM     13  C   UNL     1     104.437 109.058 102.481  1.00  0.00     0.004 C 
ENDBRANCH  11  12
ENDBRANCH   5  11
TORSDOF 4
ENDMDL
MODEL 5
REMARK VINA RESULT:    -4.163      3.217      5.336
REMARK INTER + INTRA:          -5.213
REMARK INTER:                  -4.992
REMARK INTRA:                  -0.221
REMARK UNBOUND:                -0.198
REMARK SMILES C=CCc1ccc(O)c(OC)c1
REMARK SMILES IDX 9 1 7 2 6 3 5 4 4 5 12 6 10 7 11 8 8 9 3 11 2 12 1 13
REMARK H PARENT 8 10
REMARK Flexibility Score: inf
ROOT
ATOM      1  C   UNL     1     106.510 104.140 103.483  1.00  0.00     0.160 A 
ATOM      2  C   UNL     1     106.101 104.060 104.827  1.00  0.00     0.157 A 
ATOM      3  C   UNL     1     105.080 104.891 105.299  1.00  0.00     0.050 A 
ATOM      4  C   UNL     1     104.459 105.803 104.443  1.00  0.00     0.008 A 
ATOM      5  C   UNL     1     104.847 105.887 103.099  1.00  0.00    -0.040 A 
ATOM      6  C   UNL     1     105.878 105.061 102.624  1.00  0.00     0.054 A 
ENDROOT
BRANCH   1   7
ATOM      7  O   UNL     1     107.543 103.298 103.038  1.00  0.00    -0.493 OA
ATOM      8  C   UNL     1     107.468 102.469 101.883  1.00  0.00     0.278 C 
ENDBRANCH   1   7
BRANCH   2   9
ATOM      9  O   UNL     1     106.699 103.162 105.710  1.00  0.00    -0.504 OA
ATOM     10  H   UNL     1     106.246 102.302 105.997  1.00  0.00     0.293 HD
ENDBRANCH   2   9
BRANCH   5  11
ATOM     11  C   UNL     1     104.194 106.892 102.187  1.00  0.00     0.062 C 
BRANCH  11  12
ATOM     12  C   UNL     1     104.883 108.225 102.284  1.00  0.00    -0.030 C 
ATOM     13  C   UNL     1     104.235 109.323 102.685  1.00  0.00     0.004 C 
ENDBRANCH  11  12
ENDBRANCH   5  11
TORSDOF 4
ENDMDL
MODEL 6
REMARK VINA RESULT:    -4.093      2.794      3.943
REMARK INTER + INTRA:          -5.128
REMARK INTER:                  -4.904
REMARK INTRA:                  -0.225
REMARK UNBOUND:                -0.198
REMARK SMILES C=CCc1ccc(O)c(OC)c1
REMARK SMILES IDX 9 1 7 2 6 3 5 4 4 5 12 6 10 7 11 8 8 9 3 11 2 12 1 13
REMARK H PARENT 8 10
REMARK Flexibility Score: inf
ROOT
ATOM      1  C   UNL     1     104.135 105.549 103.656  1.00  0.00     0.160 A 
ATOM      2  C   UNL     1     104.109 105.999 104.989  1.00  0.00     0.157 A 
ATOM      3  C   UNL     1     104.951 107.039 105.394  1.00  0.00     0.050 A 
ATOM      4  C   UNL     1     105.821 107.640 104.482  1.00  0.00     0.008 A 
ATOM      5  C   UNL     1     105.852 107.211 103.148  1.00  0.00    -0.040 A 
ATOM      6  C   UNL     1     105.015 106.161 102.740  1.00  0.00     0.054 A 
ENDROOT
BRANCH   1   7
ATOM      7  O   UNL     1     103.283 104.498 103.278  1.00  0.00    -0.493 OA
ATOM      8  C   UNL     1     102.477 104.493 102.105  1.00  0.00     0.278 C 
ENDBRANCH   1   7
BRANCH   2   9
ATOM      9  O   UNL     1     103.253 105.422 105.926  1.00  0.00    -0.504 OA
ATOM     10  H   UNL     1     103.094 104.423 105.972  1.00  0.00     0.293 HD
ENDBRANCH   2   9
BRANCH   5  11
ATOM     11  C   UNL     1     106.813 107.842 102.176  1.00  0.00     0.062 C 
BRANCH  11  12
ATOM     12  C   UNL     1     108.154 107.164 102.236  1.00  0.00    -0.030 C 
ATOM     13  C   UNL     1     109.245 107.802 102.671  1.00  0.00     0.004 C 
ENDBRANCH  11  12
ENDBRANCH   5  11
TORSDOF 4
ENDMDL
MODEL 7
REMARK VINA RESULT:    -4.031      1.196      2.621
REMARK INTER + INTRA:          -5.054
REMARK INTER:                  -4.850
REMARK INTRA:                  -0.204
REMARK UNBOUND:                -0.198
REMARK SMILES C=CCc1ccc(O)c(OC)c1
REMARK SMILES IDX 9 1 7 2 6 3 5 4 4 5 12 6 10 7 11 8 8 9 3 11 2 12 1 13
REMARK H PARENT 8 10
REMARK Flexibility Score: inf
ROOT
ATOM      1  C   UNL     1     105.799 107.814 104.001  1.00  0.00     0.160 A 
ATOM      2  C   UNL     1     106.327 107.570 105.283  1.00  0.00     0.157 A 
ATOM      3  C   UNL     1     107.234 106.524 105.479  1.00  0.00     0.050 A 
ATOM      4  C   UNL     1     107.624 105.716 104.409  1.00  0.00     0.008 A 
ATOM      5  C   UNL     1     107.116 105.952 103.124  1.00  0.00    -0.040 A 
ATOM      6  C   UNL     1     106.198 106.995 102.925  1.00  0.00     0.054 A 
ENDROOT
BRANCH   1   7
ATOM      7  O   UNL     1     104.884 108.866 103.833  1.00  0.00    -0.493 OA
ATOM      8  C   UNL     1     104.213 109.167 102.615  1.00  0.00     0.278 C 
ENDBRANCH   1   7
BRANCH   2   9
ATOM      9  O   UNL     1     105.960 108.357 106.374  1.00  0.00    -0.504 OA
ATOM     10  H   UNL     1     105.889 107.982 107.312  1.00  0.00     0.293 HD
ENDBRANCH   2   9
BRANCH   5  11
ATOM     11  C   UNL     1     107.517 105.059 101.980  1.00  0.00     0.062 C 
BRANCH  11  12
ATOM     12  C   UNL     1     107.006 103.661 102.190  1.00  0.00    -0.030 C 
ATOM     13  C   UNL     1     107.832 102.641 102.440  1.00  0.00     0.004 C 
ENDBRANCH  11  12
ENDBRANCH   5  11
TORSDOF 4
ENDMDL
MODEL 8
REMARK VINA RESULT:    -4.011      2.625      3.880
REMARK INTER + INTRA:          -5.029
REMARK INTER:                  -4.796
REMARK INTRA:                  -0.233
REMARK UNBOUND:                -0.198
REMARK SMILES C=CCc1ccc(O)c(OC)c1
REMARK SMILES IDX 9 1 7 2 6 3 5 4 4 5 12 6 10 7 11 8 8 9 3 11 2 12 1 13
REMARK H PARENT 8 10
REMARK Flexibility Score: inf
ROOT
ATOM      1  C   UNL     1     107.353 107.147 103.985  1.00  0.00     0.160 A 
ATOM      2  C   UNL     1     106.879 107.429 105.280  1.00  0.00     0.157 A 
ATOM      3  C   UNL     1     105.509 107.366 105.554  1.00  0.00     0.050 A 
ATOM      4  C   UNL     1     104.602 107.023 104.549  1.00  0.00     0.008 A 
ATOM      5  C   UNL     1     105.058 106.728 103.257  1.00  0.00    -0.040 A 
ATOM      6  C   UNL     1     106.431 106.799 102.976  1.00  0.00     0.054 A 
ENDROOT
BRANCH   1   7
ATOM      7  O   UNL     1     108.733 107.223 103.736  1.00  0.00    -0.493 OA
ATOM      8  C   UNL     1     109.314 107.839 102.592  1.00  0.00     0.278 C 
ENDBRANCH   1   7
BRANCH   2   9
ATOM      9  O   UNL     1     107.756 107.775 106.307  1.00  0.00    -0.504 OA
ATOM     10  H   UNL     1     108.719 108.036 106.132  1.00  0.00     0.293 HD
ENDBRANCH   2   9
BRANCH   5  11
ATOM     11  C   UNL     1     104.073 106.386 102.170  1.00  0.00     0.062 C 
BRANCH  11  12
ATOM     12  C   UNL     1     103.889 104.898 102.067  1.00  0.00    -0.030 C 
ATOM     13  C   UNL     1     102.904 104.265 102.710  1.00  0.00     0.004 C 
ENDBRANCH  11  12
ENDBRANCH   5  11
TORSDOF 4
ENDMDL
MODEL 9
REMARK VINA RESULT:    -3.848      2.454      3.325
REMARK INTER + INTRA:          -4.833
REMARK INTER:                  -4.579
REMARK INTRA:                  -0.254
REMARK UNBOUND:                -0.198
REMARK SMILES C=CCc1ccc(O)c(OC)c1
REMARK SMILES IDX 9 1 7 2 6 3 5 4 4 5 12 6 10 7 11 8 8 9 3 11 2 12 1 13
REMARK H PARENT 8 10
REMARK Flexibility Score: inf
ROOT
ATOM      1  C   UNL     1     106.948 107.326 105.349  1.00  0.00     0.160 A 
ATOM      2  C   UNL     1     108.170 107.134 104.677  1.00  0.00     0.157 A 
ATOM      3  C   UNL     1     108.183 106.912 103.296  1.00  0.00     0.050 A 
ATOM      4  C   UNL     1     106.988 106.880 102.574  1.00  0.00     0.008 A 
ATOM      5  C   UNL     1     105.763 107.079 103.226  1.00  0.00    -0.040 A 
ATOM      6  C   UNL     1     105.746 107.293 104.613  1.00  0.00     0.054 A 
ENDROOT
BRANCH   1   7
ATOM      7  O   UNL     1     106.963 107.540 106.737  1.00  0.00    -0.493 OA
ATOM      8  C   UNL     1     105.868 108.051 107.488  1.00  0.00     0.278 C 
ENDBRANCH   1   7
BRANCH   2   9
ATOM      9  O   UNL     1     109.381 107.160 105.366  1.00  0.00    -0.504 OA
ATOM     10  H   UNL     1     110.094 106.453 105.235  1.00  0.00     0.293 HD
ENDBRANCH   2   9
BRANCH   5  11
ATOM     11  C   UNL     1     104.476 107.014 102.448  1.00  0.00     0.062 C 
BRANCH  11  12
ATOM     12  C   UNL     1     104.199 105.608 101.992  1.00  0.00    -0.030 C 
ATOM     13  C   UNL     1     103.568 104.728 102.774  1.00  0.00     0.004 C 
ENDBRANCH  11  12
ENDBRANCH   5  11
TORSDOF 4
ENDMDL
