MODEL 1
REMARK VINA RESULT:    -2.765      0.000      0.000
REMARK INTER + INTRA:          -3.152
REMARK INTER:                  -3.089
REMARK INTRA:                  -0.064
REMARK UNBOUND:                -0.064
REMARK SMILES CCCC(=O)[O-]
REMARK SMILES IDX 3 1 4 2 5 3 6 4 2 5 1 6
REMARK H PARENT
REMARK Flexibility Score: inf
ROOT
ATOM      1  C   UNL     1       3.633 -19.087   2.327  1.00  0.00     0.052 C 
ENDROOT
BRANCH   1   2
ATOM      2  C   UNL     1       4.160 -18.355   1.130  1.00  0.00     0.041 C 
ATOM      3  O   UNL     1       3.377 -17.995   0.212  1.00  0.00    -0.550 OA
ATOM      4  O   UNL     1       5.521 -18.103   1.013  1.00  0.00    -0.550 OA
ENDBRANCH   1   2
BRANCH   1   5
ATOM      5  C   UNL     1       4.114 -18.451   3.637  1.00  0.00     0.003 C 
ATOM      6  C   UNL     1       3.409 -17.129   3.935  1.00  0.00     0.004 C 
ENDBRANCH   1   5
TORSDOF 2
ENDMDL
MODEL 2
REMARK VINA RESULT:    -2.754     13.962     14.534
REMARK INTER + INTRA:          -3.139
REMARK INTER:                  -3.067
REMARK INTRA:                  -0.072
REMARK UNBOUND:                -0.064
REMARK SMILES CCCC(=O)[O-]
REMARK SMILES IDX 3 1 4 2 5 3 6 4 2 5 1 6
REMARK H PARENT
REMARK Flexibility Score: inf
ROOT
ATOM      1  C   UNL     1      12.061  -9.532  -7.548  1.00  0.00     0.052 C 
ENDROOT
BRANCH   1   2
ATOM      2  C   UNL     1      11.991  -9.726  -6.064  1.00  0.00     0.041 C 
ATOM      3  O   UNL     1      11.921 -10.886  -5.578  1.00  0.00    -0.550 OA
ATOM      4  O   UNL     1      11.968  -8.623  -5.220  1.00  0.00    -0.550 OA
ENDBRANCH   1   2
BRANCH   1   5
ATOM      5  C   UNL     1      10.803 -10.059  -8.249  1.00  0.00     0.003 C 
ATOM      6  C   UNL     1       9.538  -9.327  -7.803  1.00  0.00     0.004 C 
ENDBRANCH   1   5
TORSDOF 2
ENDMDL
MODEL 3
REMARK VINA RESULT:    -2.751      2.267      2.686
REMARK INTER + INTRA:          -3.137
REMARK INTER:                  -3.067
REMARK INTRA:                  -0.070
REMARK UNBOUND:                -0.064
REMARK SMILES CCCC(=O)[O-]
REMARK SMILES IDX 3 1 4 2 5 3 6 4 2 5 1 6
REMARK H PARENT
REMARK Flexibility Score: inf
ROOT
ATOM      1  C   UNL     1       3.715 -18.859   2.949  1.00  0.00     0.052 C 
ENDROOT
BRANCH   1   2
ATOM      2  C   UNL     1       3.516 -17.389   3.161  1.00  0.00     0.041 C 
ATOM      3  O   UNL     1       3.175 -16.951   4.291  1.00  0.00    -0.550 OA
ATOM      4  O   UNL     1       3.675 -16.507   2.099  1.00  0.00    -0.550 OA
ENDBRANCH   1   2
BRANCH   1   5
ATOM      5  C   UNL     1       4.944 -19.380   3.704  1.00  0.00     0.003 C 
ATOM      6  C   UNL     1       6.236 -18.701   3.254  1.00  0.00     0.004 C 
ENDBRANCH   1   5
TORSDOF 2
ENDMDL
MODEL 4
REMARK VINA RESULT:    -2.747      5.635      6.460
REMARK INTER + INTRA:          -3.132
REMARK INTER:                  -3.074
REMARK INTRA:                  -0.059
REMARK UNBOUND:                -0.064
REMARK SMILES CCCC(=O)[O-]
REMARK SMILES IDX 3 1 4 2 5 3 6 4 2 5 1 6
REMARK H PARENT
REMARK Flexibility Score: inf
ROOT
ATOM      1  C   UNL     1       3.451 -18.616  -4.658  1.00  0.00     0.052 C 
ENDROOT
BRANCH   1   2
ATOM      2  C   UNL     1       4.455 -17.507  -4.742  1.00  0.00     0.041 C 
ATOM      3  O   UNL     1       5.480 -17.522  -4.011  1.00  0.00    -0.550 OA
ATOM      4  O   UNL     1       4.240 -16.440  -5.605  1.00  0.00    -0.550 OA
ENDBRANCH   1   2
BRANCH   1   5
ATOM      5  C   UNL     1       3.002 -18.867  -3.213  1.00  0.00     0.003 C 
ATOM      6  C   UNL     1       1.979 -17.837  -2.735  1.00  0.00     0.004 C 
ENDBRANCH   1   5
TORSDOF 2
ENDMDL
MODEL 5
REMARK VINA RESULT:    -2.734      5.631      6.381
REMARK INTER + INTRA:          -3.117
REMARK INTER:                  -3.052
REMARK INTRA:                  -0.065
REMARK UNBOUND:                -0.064
REMARK SMILES CCCC(=O)[O-]
REMARK SMILES IDX 3 1 4 2 5 3 6 4 2 5 1 6
REMARK H PARENT
REMARK Flexibility Score: inf
ROOT
ATOM      1  C   UNL     1       7.724 -15.514   6.828  1.00  0.00     0.052 C 
ENDROOT
BRANCH   1   2
ATOM      2  C   UNL     1       7.343 -15.608   5.382  1.00  0.00     0.041 C 
ATOM      3  O   UNL     1       6.138 -15.764   5.052  1.00  0.00    -0.550 OA
ATOM      4  O   UNL     1       8.325 -15.558   4.400  1.00  0.00    -0.550 OA
ENDBRANCH   1   2
BRANCH   1   5
ATOM      5  C   UNL     1       8.689 -14.350   7.086  1.00  0.00     0.003 C 
ATOM      6  C   UNL     1       8.013 -12.988   6.931  1.00  0.00     0.004 C 
ENDBRANCH   1   5
TORSDOF 2
ENDMDL
MODEL 6
REMARK VINA RESULT:    -2.730     10.882     11.585
REMARK INTER + INTRA:          -3.112
REMARK INTER:                  -3.053
REMARK INTRA:                  -0.059
REMARK UNBOUND:                -0.064
REMARK SMILES CCCC(=O)[O-]
REMARK SMILES IDX 3 1 4 2 5 3 6 4 2 5 1 6
REMARK H PARENT
REMARK Flexibility Score: inf
ROOT
ATOM      1  C   UNL     1      12.532 -10.405   5.433  1.00  0.00     0.052 C 
ENDROOT
BRANCH   1   2
ATOM      2  C   UNL     1      11.498 -11.300   4.820  1.00  0.00     0.041 C 
ATOM      3  O   UNL     1      11.739 -11.900   3.739  1.00  0.00    -0.550 OA
ATOM      4  O   UNL     1      10.256 -11.443   5.426  1.00  0.00    -0.550 OA
ENDBRANCH   1   2
BRANCH   1   5
ATOM      5  C   UNL     1      13.146  -9.455   4.397  1.00  0.00     0.003 C 
ATOM      6  C   UNL     1      12.199  -8.316   4.020  1.00  0.00     0.004 C 
ENDBRANCH   1   5
TORSDOF 2
ENDMDL
MODEL 7
REMARK VINA RESULT:    -2.719     13.775     14.342
REMARK INTER + INTRA:          -3.100
REMARK INTER:                  -3.053
REMARK INTRA:                  -0.048
REMARK UNBOUND:                -0.064
REMARK SMILES CCCC(=O)[O-]
REMARK SMILES IDX 3 1 4 2 5 3 6 4 2 5 1 6
REMARK H PARENT
REMARK Flexibility Score: inf
ROOT
ATOM      1  C   UNL     1      11.216 -10.662  -8.010  1.00  0.00     0.052 C 
ENDROOT
BRANCH   1   2
ATOM      2  C   UNL     1       9.767 -10.283  -8.020  1.00  0.00     0.041 C 
ATOM      3  O   UNL     1       9.420  -9.106  -8.302  1.00  0.00    -0.550 OA
ATOM      4  O   UNL     1       8.801 -11.223  -7.683  1.00  0.00    -0.550 OA
ENDBRANCH   1   2
BRANCH   1   5
ATOM      5  C   UNL     1      12.094  -9.534  -7.454  1.00  0.00     0.003 C 
ATOM      6  C   UNL     1      12.024  -9.439  -5.931  1.00  0.00     0.004 C 
ENDBRANCH   1   5
TORSDOF 2
ENDMDL
MODEL 8
REMARK VINA RESULT:    -2.690     14.254     14.927
REMARK INTER + INTRA:          -3.068
REMARK INTER:                  -3.004
REMARK INTRA:                  -0.065
REMARK UNBOUND:                -0.064
REMARK SMILES CCCC(=O)[O-]
REMARK SMILES IDX 3 1 4 2 5 3 6 4 2 5 1 6
REMARK H PARENT
REMARK Flexibility Score: inf
ROOT
ATOM      1  C   UNL     1      14.390  -7.690  -1.566  1.00  0.00     0.052 C 
ENDROOT
BRANCH   1   2
ATOM      2  C   UNL     1      12.991  -7.358  -1.990  1.00  0.00     0.041 C 
ATOM      3  O   UNL     1      12.008  -7.845  -1.371  1.00  0.00    -0.550 OA
ATOM      4  O   UNL     1      12.775  -6.539  -3.091  1.00  0.00    -0.550 OA
ENDBRANCH   1   2
BRANCH   1   5
ATOM      5  C   UNL     1      15.139  -8.476  -2.648  1.00  0.00     0.003 C 
ATOM      6  C   UNL     1      14.443  -9.790  -3.001  1.00  0.00     0.004 C 
ENDBRANCH   1   5
TORSDOF 2
ENDMDL
MODEL 9
REMARK VINA RESULT:    -2.689      2.010      2.479
REMARK INTER + INTRA:          -3.067
REMARK INTER:                  -3.021
REMARK INTRA:                  -0.046
REMARK UNBOUND:                -0.064
REMARK SMILES CCCC(=O)[O-]
REMARK SMILES IDX 3 1 4 2 5 3 6 4 2 5 1 6
REMARK H PARENT
REMARK Flexibility Score: inf
ROOT
ATOM      1  C   UNL     1       3.467 -17.496   3.961  1.00  0.00     0.052 C 
ENDROOT
BRANCH   1   2
ATOM      2  C   UNL     1       3.912 -18.744   3.262  1.00  0.00     0.041 C 
ATOM      3  O   UNL     1       3.585 -18.951   2.063  1.00  0.00    -0.550 OA
ATOM      4  O   UNL     1       4.658 -19.696   3.946  1.00  0.00    -0.550 OA
ENDBRANCH   1   2
BRANCH   1   5
ATOM      5  C   UNL     1       4.325 -16.288   3.567  1.00  0.00     0.003 C 
ATOM      6  C   UNL     1       5.577 -16.157   4.432  1.00  0.00     0.004 C 
ENDBRANCH   1   5
TORSDOF 2
ENDMDL
