MODEL 1
REMARK VINA RESULT:    -6.161      0.000      0.000
REMARK INTER + INTRA:          -7.747
REMARK INTER:                  -7.422
REMARK INTRA:                  -0.326
REMARK UNBOUND:                -0.326
REMARK SMILES O=c1c(O)c(-c2ccc(O)c(O)c2)oc2cc(O)cc(O)c12
REMARK SMILES IDX 5 1 3 2 2 3 1 4 22 5 20 6 19 7 17 8 16 9 15 10 14 11 6 12
REMARK SMILES IDX 7 13 8 14 9 15 13 16 11 17 10 18 12 20 4 22 21 24 18 26
REMARK H PARENT 10 19 12 21 4 23 21 25 18 27
REMARK Flexibility Score: inf
ROOT
ATOM      1  C   UNL     1     -60.514  20.307 -30.019  1.00  0.00     0.180 A 
ATOM      2  C   UNL     1     -59.371  20.989 -29.558  1.00  0.00     0.208 A 
ATOM      3  C   UNL     1     -59.333  22.388 -29.648  1.00  0.00     0.238 A 
ATOM      4  O   UNL     1     -58.310  23.008 -29.248  1.00  0.00    -0.285 OA
ATOM      5  C   UNL     1     -60.441  23.084 -30.173  1.00  0.00     0.111 A 
ATOM      6  C   UNL     1     -60.486  24.493 -30.294  1.00  0.00     0.134 A 
ATOM      7  C   UNL     1     -61.629  25.112 -30.820  1.00  0.00     0.093 A 
ATOM      8  C   UNL     1     -62.728  24.351 -31.225  1.00  0.00     0.123 A 
ATOM      9  C   UNL     1     -62.691  22.957 -31.110  1.00  0.00     0.094 A 
ATOM     10  C   UNL     1     -61.559  22.322 -30.590  1.00  0.00     0.146 A 
ATOM     11  O   UNL     1     -61.547  20.997 -30.494  1.00  0.00    -0.452 OA
ENDROOT
BRANCH   1  12
ATOM     12  C   UNL     1     -60.622  18.832 -29.976  1.00  0.00     0.025 A 
ATOM     13  C   UNL     1     -61.147  18.169 -28.853  1.00  0.00     0.016 A 
ATOM     14  C   UNL     1     -61.218  16.773 -28.826  1.00  0.00     0.051 A 
ATOM     15  C   UNL     1     -60.754  16.020 -29.912  1.00  0.00     0.157 A 
ATOM     16  C   UNL     1     -60.139  18.071 -31.053  1.00  0.00     0.062 A 
ATOM     17  C   UNL     1     -60.209  16.674 -31.030  1.00  0.00     0.158 A 
BRANCH  15  18
ATOM     18  O   UNL     1     -60.828  14.629 -29.882  1.00  0.00    -0.504 OA
ATOM     19  H   UNL     1     -61.685  14.137 -30.111  1.00  0.00     0.293 HD
ENDBRANCH  15  18
BRANCH  17  20
ATOM     20  O   UNL     1     -59.731  15.953 -32.124  1.00  0.00    -0.504 OA
ATOM     21  H   UNL     1     -60.180  15.992 -33.031  1.00  0.00     0.293 HD
ENDBRANCH  17  20
ENDBRANCH   1  12
BRANCH   2  22
ATOM     22  O   UNL     1     -58.306  20.279 -28.995  1.00  0.00    -0.502 OA
ATOM     23  H   UNL     1     -57.393  20.236 -29.431  1.00  0.00     0.293 HD
ENDBRANCH   2  22
BRANCH   6  24
ATOM     24  O   UNL     1     -59.405  25.282 -29.896  1.00  0.00    -0.507 OA
ATOM     25  H   UNL     1     -58.901  25.866 -30.553  1.00  0.00     0.293 HD
ENDBRANCH   6  24
BRANCH   8  26
ATOM     26  O   UNL     1     -63.852  24.989 -31.743  1.00  0.00    -0.508 OA
ATOM     27  H   UNL     1     -64.395  24.580 -32.495  1.00  0.00     0.293 HD
ENDBRANCH   8  26
TORSDOF 6
ENDMDL
MODEL 2
REMARK VINA RESULT:    -5.992      1.294      2.966
REMARK INTER + INTRA:          -7.543
REMARK INTER:                  -7.223
REMARK INTRA:                  -0.321
REMARK UNBOUND:                -0.326
REMARK SMILES O=c1c(O)c(-c2ccc(O)c(O)c2)oc2cc(O)cc(O)c12
REMARK SMILES IDX 5 1 3 2 2 3 1 4 22 5 20 6 19 7 17 8 16 9 15 10 14 11 6 12
REMARK SMILES IDX 7 13 8 14 9 15 13 16 11 17 10 18 12 20 4 22 21 24 18 26
REMARK H PARENT 10 19 12 21 4 23 21 25 18 27
REMARK Flexibility Score: inf
ROOT
ATOM      1  C   UNL     1     -61.820  20.501 -30.507  1.00  0.00     0.180 A 
ATOM      2  C   UNL     1     -62.973  20.888 -31.218  1.00  0.00     0.208 A 
ATOM      3  C   UNL     1     -63.218  22.255 -31.421  1.00  0.00     0.238 A 
ATOM      4  O   UNL     1     -64.252  22.613 -32.047  1.00  0.00    -0.285 OA
ATOM      5  C   UNL     1     -62.301  23.208 -30.933  1.00  0.00     0.111 A 
ATOM      6  C   UNL     1     -62.471  24.603 -31.099  1.00  0.00     0.134 A 
ATOM      7  C   UNL     1     -61.508  25.487 -30.591  1.00  0.00     0.093 A 
ATOM      8  C   UNL     1     -60.381  25.006 -29.922  1.00  0.00     0.123 A 
ATOM      9  C   UNL     1     -60.207  23.628 -29.753  1.00  0.00     0.094 A 
ATOM     10  C   UNL     1     -61.156  22.730 -30.251  1.00  0.00     0.146 A 
ATOM     11  O   UNL     1     -60.969  21.427 -30.074  1.00  0.00    -0.452 OA
ENDROOT
BRANCH   1  12
ATOM     12  C   UNL     1     -61.502  19.081 -30.235  1.00  0.00     0.025 A 
ATOM     13  C   UNL     1     -61.858  18.472 -29.020  1.00  0.00     0.016 A 
ATOM     14  C   UNL     1     -61.527  17.136 -28.775  1.00  0.00     0.051 A 
ATOM     15  C   UNL     1     -60.824  16.395 -29.733  1.00  0.00     0.157 A 
ATOM     16  C   UNL     1     -60.779  18.340 -31.184  1.00  0.00     0.062 A 
ATOM     17  C   UNL     1     -60.446  17.003 -30.943  1.00  0.00     0.158 A 
BRANCH  15  18
ATOM     18  O   UNL     1     -60.496  15.063 -29.488  1.00  0.00    -0.504 OA
ATOM     19  H   UNL     1     -61.055  14.484 -28.871  1.00  0.00     0.293 HD
ENDBRANCH  15  18
BRANCH  17  20
ATOM     20  O   UNL     1     -59.738  16.295 -31.915  1.00  0.00    -0.504 OA
ATOM     21  H   UNL     1     -58.842  16.610 -32.264  1.00  0.00     0.293 HD
ENDBRANCH  17  20
ENDBRANCH   1  12
BRANCH   2  22
ATOM     22  O   UNL     1     -63.840  19.921 -31.735  1.00  0.00    -0.502 OA
ATOM     23  H   UNL     1     -64.538  19.460 -31.165  1.00  0.00     0.293 HD
ENDBRANCH   2  22
BRANCH   6  24
ATOM     24  O   UNL     1     -63.585  25.116 -31.764  1.00  0.00    -0.507 OA
ATOM     25  H   UNL     1     -63.978  26.021 -31.528  1.00  0.00     0.293 HD
ENDBRANCH   6  24
BRANCH   8  26
ATOM     26  O   UNL     1     -59.439  25.905 -29.428  1.00  0.00    -0.508 OA
ATOM     27  H   UNL     1     -58.666  25.598 -28.848  1.00  0.00     0.293 HD
ENDBRANCH   8  26
TORSDOF 6
ENDMDL
MODEL 3
REMARK VINA RESULT:    -5.977      2.474      6.413
REMARK INTER + INTRA:          -7.525
REMARK INTER:                  -7.209
REMARK INTRA:                  -0.316
REMARK UNBOUND:                -0.326
REMARK SMILES O=c1c(O)c(-c2ccc(O)c(O)c2)oc2cc(O)cc(O)c12
REMARK SMILES IDX 5 1 3 2 2 3 1 4 22 5 20 6 19 7 17 8 16 9 15 10 14 11 6 12
REMARK SMILES IDX 7 13 8 14 9 15 13 16 11 17 10 18 12 20 4 22 21 24 18 26
REMARK H PARENT 10 19 12 21 4 23 21 25 18 27
REMARK Flexibility Score: inf
ROOT
ATOM      1  C   UNL     1     -59.839  22.209 -30.598  1.00  0.00     0.180 A 
ATOM      2  C   UNL     1     -59.452  21.154 -29.748  1.00  0.00     0.208 A 
ATOM      3  C   UNL     1     -60.358  20.109 -29.509  1.00  0.00     0.238 A 
ATOM      4  O   UNL     1     -60.027  19.165 -28.742  1.00  0.00    -0.285 OA
ATOM      5  C   UNL     1     -61.620  20.122 -30.138  1.00  0.00     0.111 A 
ATOM      6  C   UNL     1     -62.588  19.106 -29.955  1.00  0.00     0.134 A 
ATOM      7  C   UNL     1     -63.818  19.188 -30.623  1.00  0.00     0.093 A 
ATOM      8  C   UNL     1     -64.099  20.262 -31.470  1.00  0.00     0.123 A 
ATOM      9  C   UNL     1     -63.148  21.270 -31.655  1.00  0.00     0.094 A 
ATOM     10  C   UNL     1     -61.916  21.208 -30.996  1.00  0.00     0.146 A 
ATOM     11  O   UNL     1     -61.031  22.180 -31.186  1.00  0.00    -0.452 OA
ENDROOT
BRANCH   1  12
ATOM     12  C   UNL     1     -58.948  23.356 -30.884  1.00  0.00     0.025 A 
ATOM     13  C   UNL     1     -57.967  23.289 -31.888  1.00  0.00     0.016 A 
ATOM     14  C   UNL     1     -57.123  24.377 -32.125  1.00  0.00     0.051 A 
ATOM     15  C   UNL     1     -57.235  25.540 -31.354  1.00  0.00     0.157 A 
ATOM     16  C   UNL     1     -59.043  24.518 -30.100  1.00  0.00     0.062 A 
ATOM     17  C   UNL     1     -58.199  25.609 -30.334  1.00  0.00     0.158 A 
BRANCH  15  18
ATOM     18  O   UNL     1     -56.392  26.624 -31.593  1.00  0.00    -0.504 OA
ATOM     19  H   UNL     1     -56.347  27.413 -30.958  1.00  0.00     0.293 HD
ENDBRANCH  15  18
BRANCH  17  20
ATOM     20  O   UNL     1     -58.332  26.751 -29.544  1.00  0.00    -0.504 OA
ATOM     21  H   UNL     1     -57.848  26.852 -28.660  1.00  0.00     0.293 HD
ENDBRANCH  17  20
ENDBRANCH   1  12
BRANCH   2  22
ATOM     22  O   UNL     1     -58.177  21.140 -29.177  1.00  0.00    -0.502 OA
ATOM     23  H   UNL     1     -57.356  21.456 -29.678  1.00  0.00     0.293 HD
ENDBRANCH   2  22
BRANCH   6  24
ATOM     24  O   UNL     1     -62.337  18.019 -29.117  1.00  0.00    -0.507 OA
ATOM     25  H   UNL     1     -63.082  17.551 -28.613  1.00  0.00     0.293 HD
ENDBRANCH   6  24
BRANCH   8  26
ATOM     26  O   UNL     1     -65.328  20.319 -32.122  1.00  0.00    -0.508 OA
ATOM     27  H   UNL     1     -66.155  20.689 -31.666  1.00  0.00     0.293 HD
ENDBRANCH   8  26
TORSDOF 6
ENDMDL
MODEL 4
REMARK VINA RESULT:    -5.789      9.010     12.577
REMARK INTER + INTRA:          -7.299
REMARK INTER:                  -7.281
REMARK INTRA:                  -0.018
REMARK UNBOUND:                -0.326
REMARK SMILES O=c1c(O)c(-c2ccc(O)c(O)c2)oc2cc(O)cc(O)c12
REMARK SMILES IDX 5 1 3 2 2 3 1 4 22 5 20 6 19 7 17 8 16 9 15 10 14 11 6 12
REMARK SMILES IDX 7 13 8 14 9 15 13 16 11 17 10 18 12 20 4 22 21 24 18 26
REMARK H PARENT 10 19 12 21 4 23 21 25 18 27
REMARK Flexibility Score: inf
ROOT
ATOM      1  C   UNL     1     -59.231  30.483 -24.793  1.00  0.00     0.180 A 
ATOM      2  C   UNL     1     -60.206  30.587 -23.782  1.00  0.00     0.208 A 
ATOM      3  C   UNL     1     -59.789  30.762 -22.453  1.00  0.00     0.238 A 
ATOM      4  O   UNL     1     -60.652  30.846 -21.538  1.00  0.00    -0.285 OA
ATOM      5  C   UNL     1     -58.412  30.852 -22.160  1.00  0.00     0.111 A 
ATOM      6  C   UNL     1     -57.909  31.032 -20.850  1.00  0.00     0.134 A 
ATOM      7  C   UNL     1     -56.525  31.121 -20.641  1.00  0.00     0.093 A 
ATOM      8  C   UNL     1     -55.636  31.034 -21.715  1.00  0.00     0.123 A 
ATOM      9  C   UNL     1     -56.126  30.854 -23.013  1.00  0.00     0.094 A 
ATOM     10  C   UNL     1     -57.503  30.762 -23.241  1.00  0.00     0.146 A 
ATOM     11  O   UNL     1     -57.942  30.588 -24.482  1.00  0.00    -0.452 OA
ENDROOT
BRANCH   1  12
ATOM     12  C   UNL     1     -59.590  30.279 -26.215  1.00  0.00     0.025 A 
ATOM     13  C   UNL     1     -60.516  31.114 -26.863  1.00  0.00     0.016 A 
ATOM     14  C   UNL     1     -60.857  30.888 -28.199  1.00  0.00     0.051 A 
ATOM     15  C   UNL     1     -60.291  29.817 -28.902  1.00  0.00     0.157 A 
ATOM     16  C   UNL     1     -59.041  29.194 -26.918  1.00  0.00     0.062 A 
ATOM     17  C   UNL     1     -59.380  28.965 -28.256  1.00  0.00     0.158 A 
BRANCH  15  18
ATOM     18  O   UNL     1     -60.631  29.595 -30.235  1.00  0.00    -0.504 OA
ATOM     19  H   UNL     1     -61.325  30.163 -30.708  1.00  0.00     0.293 HD
ENDBRANCH  15  18
BRANCH  17  20
ATOM     20  O   UNL     1     -58.803  27.885 -28.925  1.00  0.00    -0.504 OA
ATOM     21  H   UNL     1     -58.528  27.038 -28.443  1.00  0.00     0.293 HD
ENDBRANCH  17  20
ENDBRANCH   1  12
BRANCH   2  22
ATOM     22  O   UNL     1     -61.565  30.546 -24.105  1.00  0.00    -0.502 OA
ATOM     23  H   UNL     1     -62.265  30.206 -23.457  1.00  0.00     0.293 HD
ENDBRANCH   2  22
BRANCH   6  24
ATOM     24  O   UNL     1     -58.771  31.125 -19.757  1.00  0.00    -0.507 OA
ATOM     25  H   UNL     1     -59.303  30.326 -19.427  1.00  0.00     0.293 HD
ENDBRANCH   6  24
BRANCH   8  26
ATOM     26  O   UNL     1     -54.266  31.125 -21.481  1.00  0.00    -0.508 OA
ATOM     27  H   UNL     1     -53.588  30.846 -22.182  1.00  0.00     0.293 HD
ENDBRANCH   8  26
TORSDOF 6
ENDMDL
MODEL 5
REMARK VINA RESULT:    -5.721      2.724      3.829
REMARK INTER + INTRA:          -7.217
REMARK INTER:                  -6.949
REMARK INTRA:                  -0.268
REMARK UNBOUND:                -0.326
REMARK SMILES O=c1c(O)c(-c2ccc(O)c(O)c2)oc2cc(O)cc(O)c12
REMARK SMILES IDX 5 1 3 2 2 3 1 4 22 5 20 6 19 7 17 8 16 9 15 10 14 11 6 12
REMARK SMILES IDX 7 13 8 14 9 15 13 16 11 17 10 18 12 20 4 22 21 24 18 26
REMARK H PARENT 10 19 12 21 4 23 21 25 18 27
REMARK Flexibility Score: inf
ROOT
ATOM      1  C   UNL     1     -61.156  22.993 -30.614  1.00  0.00     0.180 A 
ATOM      2  C   UNL     1     -59.804  23.020 -31.007  1.00  0.00     0.208 A 
ATOM      3  C   UNL     1     -59.042  24.167 -30.738  1.00  0.00     0.238 A 
ATOM      4  O   UNL     1     -57.833  24.205 -31.095  1.00  0.00    -0.285 OA
ATOM      5  C   UNL     1     -59.633  25.255 -30.065  1.00  0.00     0.111 A 
ATOM      6  C   UNL     1     -58.933  26.445 -29.752  1.00  0.00     0.134 A 
ATOM      7  C   UNL     1     -59.590  27.480 -29.071  1.00  0.00     0.093 A 
ATOM      8  C   UNL     1     -60.929  27.350 -28.698  1.00  0.00     0.123 A 
ATOM      9  C   UNL     1     -61.627  26.177 -29.005  1.00  0.00     0.094 A 
ATOM     10  C   UNL     1     -60.990  25.134 -29.684  1.00  0.00     0.146 A 
ATOM     11  O   UNL     1     -61.676  24.033 -29.967  1.00  0.00    -0.452 OA
ENDROOT
BRANCH   1  12
ATOM     12  C   UNL     1     -62.031  21.829 -30.879  1.00  0.00     0.025 A 
ATOM     13  C   UNL     1     -63.018  21.868 -31.879  1.00  0.00     0.016 A 
ATOM     14  C   UNL     1     -63.848  20.765 -32.096  1.00  0.00     0.051 A 
ATOM     15  C   UNL     1     -63.715  19.614 -31.309  1.00  0.00     0.157 A 
ATOM     16  C   UNL     1     -61.915  20.680 -30.079  1.00  0.00     0.062 A 
ATOM     17  C   UNL     1     -62.744  19.574 -30.293  1.00  0.00     0.158 A 
BRANCH  15  18
ATOM     18  O   UNL     1     -64.542  18.515 -31.529  1.00  0.00    -0.504 OA
ATOM     19  H   UNL     1     -64.991  18.025 -30.762  1.00  0.00     0.293 HD
ENDBRANCH  15  18
BRANCH  17  20
ATOM     20  O   UNL     1     -62.591  18.446 -29.487  1.00  0.00    -0.504 OA
ATOM     21  H   UNL     1     -61.679  18.067 -29.261  1.00  0.00     0.293 HD
ENDBRANCH  17  20
ENDBRANCH   1  12
BRANCH   2  22
ATOM     22  O   UNL     1     -59.229  21.908 -31.628  1.00  0.00    -0.502 OA
ATOM     23  H   UNL     1     -58.566  21.306 -31.155  1.00  0.00     0.293 HD
ENDBRANCH   2  22
BRANCH   6  24
ATOM     24  O   UNL     1     -57.594  26.606 -30.109  1.00  0.00    -0.507 OA
ATOM     25  H   UNL     1     -56.843  26.457 -29.445  1.00  0.00     0.293 HD
ENDBRANCH   6  24
BRANCH   8  26
ATOM     26  O   UNL     1     -61.559  28.393 -28.022  1.00  0.00    -0.508 OA
ATOM     27  H   UNL     1     -62.384  28.847 -28.397  1.00  0.00     0.293 HD
ENDBRANCH   8  26
TORSDOF 6
ENDMDL
MODEL 6
REMARK VINA RESULT:    -5.715      1.993      2.785
REMARK INTER + INTRA:          -7.209
REMARK INTER:                  -7.337
REMARK INTRA:                   0.128
REMARK UNBOUND:                -0.326
REMARK SMILES O=c1c(O)c(-c2ccc(O)c(O)c2)oc2cc(O)cc(O)c12
REMARK SMILES IDX 5 1 3 2 2 3 1 4 22 5 20 6 19 7 17 8 16 9 15 10 14 11 6 12
REMARK SMILES IDX 7 13 8 14 9 15 13 16 11 17 10 18 12 20 4 22 21 24 18 26
REMARK H PARENT 10 19 12 21 4 23 21 25 18 27
REMARK Flexibility Score: inf
ROOT
ATOM      1  C   UNL     1     -59.766  22.130 -30.398  1.00  0.00     0.180 A 
ATOM      2  C   UNL     1     -58.552  22.752 -30.752  1.00  0.00     0.208 A 
ATOM      3  C   UNL     1     -58.409  24.131 -30.538  1.00  0.00     0.238 A 
ATOM      4  O   UNL     1     -57.332  24.700 -30.861  1.00  0.00    -0.285 OA
ATOM      5  C   UNL     1     -59.467  24.860 -29.957  1.00  0.00     0.111 A 
ATOM      6  C   UNL     1     -59.402  26.251 -29.703  1.00  0.00     0.134 A 
ATOM      7  C   UNL     1     -60.494  26.903 -29.114  1.00  0.00     0.093 A 
ATOM      8  C   UNL     1     -61.647  26.194 -28.771  1.00  0.00     0.123 A 
ATOM      9  C   UNL     1     -61.719  24.819 -29.020  1.00  0.00     0.094 A 
ATOM     10  C   UNL     1     -60.641  24.151 -29.609  1.00  0.00     0.146 A 
ATOM     11  O   UNL     1     -60.736  22.847 -29.838  1.00  0.00    -0.452 OA
ENDROOT
BRANCH   1  12
ATOM     12  C   UNL     1     -60.001  20.684 -30.610  1.00  0.00     0.025 A 
ATOM     13  C   UNL     1     -59.533  20.028 -31.761  1.00  0.00     0.016 A 
ATOM     14  C   UNL     1     -59.787  18.667 -31.951  1.00  0.00     0.051 A 
ATOM     15  C   UNL     1     -60.523  17.946 -31.003  1.00  0.00     0.157 A 
ATOM     16  C   UNL     1     -60.757  19.961 -29.673  1.00  0.00     0.062 A 
ATOM     17  C   UNL     1     -61.013  18.598 -29.859  1.00  0.00     0.158 A 
BRANCH  15  18
ATOM     18  O   UNL     1     -60.773  16.588 -31.194  1.00  0.00    -0.504 OA
ATOM     19  H   UNL     1     -61.078  16.225 -32.091  1.00  0.00     0.293 HD
ENDBRANCH  15  18
BRANCH  17  20
ATOM     20  O   UNL     1     -61.756  17.911 -28.899  1.00  0.00    -0.504 OA
ATOM     21  H   UNL     1     -62.755  18.040 -28.799  1.00  0.00     0.293 HD
ENDBRANCH  17  20
ENDBRANCH   1  12
BRANCH   2  22
ATOM     22  O   UNL     1     -57.501  21.997 -31.281  1.00  0.00    -0.502 OA
ATOM     23  H   UNL     1     -56.807  21.550 -30.694  1.00  0.00     0.293 HD
ENDBRANCH   2  22
BRANCH   6  24
ATOM     24  O   UNL     1     -58.263  26.988 -30.032  1.00  0.00    -0.507 OA
ATOM     25  H   UNL     1     -57.370  26.540 -30.207  1.00  0.00     0.293 HD
ENDBRANCH   6  24
BRANCH   8  26
ATOM     26  O   UNL     1     -62.718  26.865 -28.186  1.00  0.00    -0.508 OA
ATOM     27  H   UNL     1     -63.357  27.428 -28.736  1.00  0.00     0.293 HD
ENDBRANCH   8  26
TORSDOF 6
ENDMDL
MODEL 7
REMARK VINA RESULT:    -5.536      2.335      7.023
REMARK INTER + INTRA:          -6.995
REMARK INTER:                  -6.729
REMARK INTRA:                  -0.265
REMARK UNBOUND:                -0.326
REMARK SMILES O=c1c(O)c(-c2ccc(O)c(O)c2)oc2cc(O)cc(O)c12
REMARK SMILES IDX 5 1 3 2 2 3 1 4 22 5 20 6 19 7 17 8 16 9 15 10 14 11 6 12
REMARK SMILES IDX 7 13 8 14 9 15 13 16 11 17 10 18 12 20 4 22 21 24 18 26
REMARK H PARENT 10 19 12 21 4 23 21 25 18 27
REMARK Flexibility Score: inf
ROOT
ATOM      1  C   UNL     1     -60.376  22.747 -31.007  1.00  0.00     0.180 A 
ATOM      2  C   UNL     1     -61.663  23.007 -31.516  1.00  0.00     0.208 A 
ATOM      3  C   UNL     1     -62.659  22.028 -31.377  1.00  0.00     0.238 A 
ATOM      4  O   UNL     1     -63.812  22.246 -31.839  1.00  0.00    -0.285 OA
ATOM      5  C   UNL     1     -62.361  20.820 -30.714  1.00  0.00     0.111 A 
ATOM      6  C   UNL     1     -63.308  19.785 -30.527  1.00  0.00     0.134 A 
ATOM      7  C   UNL     1     -62.935  18.615 -29.849  1.00  0.00     0.093 A 
ATOM      8  C   UNL     1     -61.639  18.460 -29.354  1.00  0.00     0.123 A 
ATOM      9  C   UNL     1     -60.698  19.479 -29.536  1.00  0.00     0.094 A 
ATOM     10  C   UNL     1     -61.049  20.652 -30.211  1.00  0.00     0.146 A 
ATOM     11  O   UNL     1     -60.136  21.603 -30.374  1.00  0.00    -0.452 OA
ENDROOT
BRANCH   1  12
ATOM     12  C   UNL     1     -59.268  23.721 -31.132  1.00  0.00     0.025 A 
ATOM     13  C   UNL     1     -58.215  23.518 -32.040  1.00  0.00     0.016 A 
ATOM     14  C   UNL     1     -57.167  24.438 -32.125  1.00  0.00     0.051 A 
ATOM     15  C   UNL     1     -57.148  25.566 -31.294  1.00  0.00     0.157 A 
ATOM     16  C   UNL     1     -59.234  24.843 -30.288  1.00  0.00     0.062 A 
ATOM     17  C   UNL     1     -58.187  25.767 -30.370  1.00  0.00     0.158 A 
BRANCH  15  18
ATOM     18  O   UNL     1     -56.103  26.484 -31.382  1.00  0.00    -0.504 OA
ATOM     19  H   UNL     1     -56.251  27.426 -31.727  1.00  0.00     0.293 HD
ENDBRANCH  15  18
BRANCH  17  20
ATOM     20  O   UNL     1     -58.194  26.876 -29.523  1.00  0.00    -0.504 OA
ATOM     21  H   UNL     1     -58.378  27.811 -29.865  1.00  0.00     0.293 HD
ENDBRANCH  17  20
ENDBRANCH   1  12
BRANCH   2  22
ATOM     22  O   UNL     1     -61.946  24.233 -32.125  1.00  0.00    -0.502 OA
ATOM     23  H   UNL     1     -61.506  24.523 -32.990  1.00  0.00     0.293 HD
ENDBRANCH   2  22
BRANCH   6  24
ATOM     24  O   UNL     1     -64.611  19.909 -31.008  1.00  0.00    -0.507 OA
ATOM     25  H   UNL     1     -64.808  20.304 -31.921  1.00  0.00     0.293 HD
ENDBRANCH   6  24
BRANCH   8  26
ATOM     26  O   UNL     1     -61.294  17.289 -28.683  1.00  0.00    -0.508 OA
ATOM     27  H   UNL     1     -60.341  17.106 -28.390  1.00  0.00     0.293 HD
ENDBRANCH   8  26
TORSDOF 6
ENDMDL
MODEL 8
REMARK VINA RESULT:    -5.463      2.611      8.197
REMARK INTER + INTRA:          -6.907
REMARK INTER:                  -6.896
REMARK INTRA:                  -0.011
REMARK UNBOUND:                -0.326
REMARK SMILES O=c1c(O)c(-c2ccc(O)c(O)c2)oc2cc(O)cc(O)c12
REMARK SMILES IDX 5 1 3 2 2 3 1 4 22 5 20 6 19 7 17 8 16 9 15 10 14 11 6 12
REMARK SMILES IDX 7 13 8 14 9 15 13 16 11 17 10 18 12 20 4 22 21 24 18 26
REMARK H PARENT 10 19 12 21 4 23 21 25 18 27
REMARK Flexibility Score: inf
ROOT
ATOM      1  C   UNL     1     -61.185  24.970 -30.123  1.00  0.00     0.180 A 
ATOM      2  C   UNL     1     -62.246  24.227 -30.676  1.00  0.00     0.208 A 
ATOM      3  C   UNL     1     -62.047  22.867 -30.960  1.00  0.00     0.238 A 
ATOM      4  O   UNL     1     -62.987  22.196 -31.465  1.00  0.00    -0.285 OA
ATOM      5  C   UNL     1     -60.804  22.269 -30.669  1.00  0.00     0.111 A 
ATOM      6  C   UNL     1     -60.523  20.905 -30.920  1.00  0.00     0.134 A 
ATOM      7  C   UNL     1     -59.263  20.382 -30.594  1.00  0.00     0.093 A 
ATOM      8  C   UNL     1     -58.281  21.193 -30.022  1.00  0.00     0.123 A 
ATOM      9  C   UNL     1     -58.551  22.543 -29.772  1.00  0.00     0.094 A 
ATOM     10  C   UNL     1     -59.800  23.083 -30.092  1.00  0.00     0.146 A 
ATOM     11  O   UNL     1     -60.031  24.368 -29.848  1.00  0.00    -0.452 OA
ENDROOT
BRANCH   1  12
ATOM     12  C   UNL     1     -61.310  26.412 -29.813  1.00  0.00     0.025 A 
ATOM     13  C   UNL     1     -61.818  27.321 -30.757  1.00  0.00     0.016 A 
ATOM     14  C   UNL     1     -61.905  28.682 -30.451  1.00  0.00     0.051 A 
ATOM     15  C   UNL     1     -61.474  29.156 -29.205  1.00  0.00     0.157 A 
ATOM     16  C   UNL     1     -60.860  26.895 -28.574  1.00  0.00     0.062 A 
ATOM     17  C   UNL     1     -60.946  28.257 -28.264  1.00  0.00     0.158 A 
BRANCH  15  18
ATOM     18  O   UNL     1     -61.564  30.513 -28.902  1.00  0.00    -0.504 OA
ATOM     19  H   UNL     1     -60.754  31.047 -28.607  1.00  0.00     0.293 HD
ENDBRANCH  15  18
BRANCH  17  20
ATOM     20  O   UNL     1     -60.501  28.697 -27.017  1.00  0.00    -0.504 OA
ATOM     21  H   UNL     1     -59.640  29.217 -26.907  1.00  0.00     0.293 HD
ENDBRANCH  17  20
ENDBRANCH   1  12
BRANCH   2  22
ATOM     22  O   UNL     1     -63.484  24.832 -30.908  1.00  0.00    -0.502 OA
ATOM     23  H   UNL     1     -63.690  25.777 -30.607  1.00  0.00     0.293 HD
ENDBRANCH   2  22
BRANCH   6  24
ATOM     24  O   UNL     1     -61.483  20.067 -31.489  1.00  0.00    -0.507 OA
ATOM     25  H   UNL     1     -62.469  20.303 -31.479  1.00  0.00     0.293 HD
ENDBRANCH   6  24
BRANCH   8  26
ATOM     26  O   UNL     1     -57.038  20.649 -29.707  1.00  0.00    -0.508 OA
ATOM     27  H   UNL     1     -56.933  19.952 -28.979  1.00  0.00     0.293 HD
ENDBRANCH   8  26
TORSDOF 6
ENDMDL
MODEL 9
REMARK VINA RESULT:    -5.393      2.251      6.911
REMARK INTER + INTRA:          -6.822
REMARK INTER:                  -6.794
REMARK INTRA:                  -0.029
REMARK UNBOUND:                -0.326
REMARK SMILES O=c1c(O)c(-c2ccc(O)c(O)c2)oc2cc(O)cc(O)c12
REMARK SMILES IDX 5 1 3 2 2 3 1 4 22 5 20 6 19 7 17 8 16 9 15 10 14 11 6 12
REMARK SMILES IDX 7 13 8 14 9 15 13 16 11 17 10 18 12 20 4 22 21 24 18 26
REMARK H PARENT 10 19 12 21 4 23 21 25 18 27
REMARK Flexibility Score: inf
ROOT
ATOM      1  C   UNL     1     -60.539  23.190 -29.927  1.00  0.00     0.180 A 
ATOM      2  C   UNL     1     -59.705  22.123 -29.540  1.00  0.00     0.208 A 
ATOM      3  C   UNL     1     -60.156  20.807 -29.728  1.00  0.00     0.238 A 
ATOM      4  O   UNL     1     -59.422  19.844 -29.375  1.00  0.00    -0.285 OA
ATOM      5  C   UNL     1     -61.416  20.579 -30.317  1.00  0.00     0.111 A 
ATOM      6  C   UNL     1     -61.942  19.285 -30.545  1.00  0.00     0.134 A 
ATOM      7  C   UNL     1     -63.202  19.141 -31.144  1.00  0.00     0.093 A 
ATOM      8  C   UNL     1     -63.944  20.263 -31.520  1.00  0.00     0.123 A 
ATOM      9  C   UNL     1     -63.431  21.545 -31.296  1.00  0.00     0.094 A 
ATOM     10  C   UNL     1     -62.178  21.709 -30.698  1.00  0.00     0.146 A 
ATOM     11  O   UNL     1     -61.715  22.937 -30.493  1.00  0.00    -0.452 OA
ENDROOT
BRANCH   1  12
ATOM     12  C   UNL     1     -60.144  24.604 -29.744  1.00  0.00     0.025 A 
ATOM     13  C   UNL     1     -58.919  25.091 -30.233  1.00  0.00     0.016 A 
ATOM     14  C   UNL     1     -58.557  26.425 -30.028  1.00  0.00     0.051 A 
ATOM     15  C   UNL     1     -59.403  27.288 -29.320  1.00  0.00     0.157 A 
ATOM     16  C   UNL     1     -60.979  25.468 -29.017  1.00  0.00     0.062 A 
ATOM     17  C   UNL     1     -60.620  26.804 -28.810  1.00  0.00     0.158 A 
BRANCH  15  18
ATOM     18  O   UNL     1     -59.040  28.618 -29.119  1.00  0.00    -0.504 OA
ATOM     19  H   UNL     1     -58.187  28.868 -28.631  1.00  0.00     0.293 HD
ENDBRANCH  15  18
BRANCH  17  20
ATOM     20  O   UNL     1     -61.483  27.635 -28.094  1.00  0.00    -0.504 OA
ATOM     21  H   UNL     1     -62.361  27.959 -28.480  1.00  0.00     0.293 HD
ENDBRANCH  17  20
ENDBRANCH   1  12
BRANCH   2  22
ATOM     22  O   UNL     1     -58.439  22.375 -29.005  1.00  0.00    -0.502 OA
ATOM     23  H   UNL     1     -57.716  22.856 -29.527  1.00  0.00     0.293 HD
ENDBRANCH   2  22
BRANCH   6  24
ATOM     24  O   UNL     1     -61.224  18.145 -30.183  1.00  0.00    -0.507 OA
ATOM     25  H   UNL     1     -61.004  17.418 -30.855  1.00  0.00     0.293 HD
ENDBRANCH   6  24
BRANCH   8  26
ATOM     26  O   UNL     1     -65.193  20.093 -32.114  1.00  0.00    -0.508 OA
ATOM     27  H   UNL     1     -65.393  20.453 -33.040  1.00  0.00     0.293 HD
ENDBRANCH   8  26
TORSDOF 6
ENDMDL
