MODEL 1
REMARK VINA RESULT:    -5.866      0.000      0.000
REMARK INTER + INTRA:          -6.987
REMARK INTER:                  -6.723
REMARK INTRA:                  -0.264
REMARK UNBOUND:                -0.264
REMARK SMILES O=c1c(-c2ccc(O)cc2)coc2c(O)c(O)ccc12
REMARK SMILES IDX 3 1 11 2 12 3 13 4 20 5 2 6 1 7 19 8 18 9 16 10 14 11 4 12
REMARK SMILES IDX 5 13 6 14 7 15 10 16 9 17 8 18 15 20 17 22
REMARK H PARENT 8 19 15 21 17 23
REMARK Flexibility Score: inf
ROOT
ATOM      1  C   UNL     1      55.257 -40.094 -24.008  1.00  0.00     0.065 A 
ATOM      2  C   UNL     1      56.235 -39.236 -23.480  1.00  0.00     0.208 A 
ATOM      3  O   UNL     1      55.962 -38.437 -22.455  1.00  0.00    -0.459 OA
ATOM      4  C   UNL     1      54.769 -38.397 -21.873  1.00  0.00     0.183 A 
ATOM      5  C   UNL     1      53.721 -39.221 -22.340  1.00  0.00     0.069 A 
ATOM      6  C   UNL     1      53.975 -40.076 -23.427  1.00  0.00     0.200 A 
ATOM      7  O   UNL     1      53.055 -40.806 -23.892  1.00  0.00    -0.288 OA
ATOM      8  C   UNL     1      52.463 -39.163 -21.713  1.00  0.00     0.020 A 
ATOM      9  C   UNL     1      52.254 -38.297 -20.638  1.00  0.00     0.051 A 
ATOM     10  C   UNL     1      53.293 -37.480 -20.173  1.00  0.00     0.161 A 
ATOM     11  C   UNL     1      54.554 -37.528 -20.792  1.00  0.00     0.201 A 
ENDROOT
BRANCH   1  12
ATOM     12  C   UNL     1      55.590 -40.983 -25.150  1.00  0.00    -0.011 A 
ATOM     13  C   UNL     1      55.926 -42.331 -24.934  1.00  0.00     0.013 A 
ATOM     14  C   UNL     1      56.248 -43.161 -26.012  1.00  0.00     0.047 A 
ATOM     15  C   UNL     1      56.241 -42.654 -27.318  1.00  0.00     0.115 A 
ATOM     16  C   UNL     1      55.593 -40.480 -26.463  1.00  0.00     0.013 A 
ATOM     17  C   UNL     1      55.913 -41.313 -27.539  1.00  0.00     0.047 A 
BRANCH  15  18
ATOM     18  O   UNL     1      56.559 -43.472 -28.399  1.00  0.00    -0.508 OA
ATOM     19  H   UNL     1      57.476 -43.893 -28.493  1.00  0.00     0.293 HD
ENDBRANCH  15  18
ENDBRANCH   1  12
BRANCH  11  20
ATOM     20  O   UNL     1      55.602 -36.722 -20.346  1.00  0.00    -0.502 OA
ATOM     21  H   UNL     1      55.511 -36.118 -19.538  1.00  0.00     0.293 HD
ENDBRANCH  11  20
BRANCH  10  22
ATOM     22  O   UNL     1      53.076 -36.618 -19.099  1.00  0.00    -0.504 OA
ATOM     23  H   UNL     1      52.158 -36.509 -18.682  1.00  0.00     0.293 HD
ENDBRANCH  10  22
TORSDOF 4
ENDMDL
MODEL 2
REMARK VINA RESULT:    -5.661     15.039     16.402
REMARK INTER + INTRA:          -6.753
REMARK INTER:                  -6.535
REMARK INTRA:                  -0.218
REMARK UNBOUND:                -0.264
REMARK SMILES O=c1c(-c2ccc(O)cc2)coc2c(O)c(O)ccc12
REMARK SMILES IDX 3 1 11 2 12 3 13 4 20 5 2 6 1 7 19 8 18 9 16 10 14 11 4 12
REMARK SMILES IDX 5 13 6 14 7 15 10 16 9 17 8 18 15 20 17 22
REMARK H PARENT 8 19 15 21 17 23
REMARK Flexibility Score: inf
ROOT
ATOM      1  C   UNL     1      46.729 -28.795 -30.692  1.00  0.00     0.065 A 
ATOM      2  C   UNL     1      46.920 -29.024 -32.064  1.00  0.00     0.208 A 
ATOM      3  O   UNL     1      48.074 -28.728 -32.651  1.00  0.00    -0.459 OA
ATOM      4  C   UNL     1      49.103 -28.207 -31.994  1.00  0.00     0.183 A 
ATOM      5  C   UNL     1      49.001 -27.937 -30.611  1.00  0.00     0.069 A 
ATOM      6  C   UNL     1      47.791 -28.233 -29.958  1.00  0.00     0.200 A 
ATOM      7  O   UNL     1      47.651 -27.978 -28.729  1.00  0.00    -0.288 OA
ATOM      8  C   UNL     1      50.099 -27.381 -29.931  1.00  0.00     0.020 A 
ATOM      9  C   UNL     1      51.281 -27.100 -30.619  1.00  0.00     0.051 A 
ATOM     10  C   UNL     1      51.385 -27.369 -31.991  1.00  0.00     0.161 A 
ATOM     11  C   UNL     1      50.293 -27.922 -32.681  1.00  0.00     0.201 A 
ENDROOT
BRANCH   1  12
ATOM     12  C   UNL     1      45.432 -29.141 -30.057  1.00  0.00    -0.011 A 
ATOM     13  C   UNL     1      45.318 -30.273 -29.231  1.00  0.00     0.013 A 
ATOM     14  C   UNL     1      44.091 -30.599 -28.644  1.00  0.00     0.047 A 
ATOM     15  C   UNL     1      42.964 -29.800 -28.876  1.00  0.00     0.115 A 
ATOM     16  C   UNL     1      44.294 -28.349 -30.292  1.00  0.00     0.013 A 
ATOM     17  C   UNL     1      43.070 -28.677 -29.702  1.00  0.00     0.047 A 
BRANCH  15  18
ATOM     18  O   UNL     1      41.738 -30.115 -28.296  1.00  0.00    -0.508 OA
ATOM     19  H   UNL     1      41.520 -29.851 -27.343  1.00  0.00     0.293 HD
ENDBRANCH  15  18
ENDBRANCH   1  12
BRANCH  11  20
ATOM     20  O   UNL     1      50.374 -28.196 -34.047  1.00  0.00    -0.502 OA
ATOM     21  H   UNL     1      50.235 -27.480 -34.749  1.00  0.00     0.293 HD
ENDBRANCH  11  20
BRANCH  10  22
ATOM     22  O   UNL     1      52.569 -27.084 -32.671  1.00  0.00    -0.504 OA
ATOM     23  H   UNL     1      53.469 -27.110 -32.204  1.00  0.00     0.293 HD
ENDBRANCH  10  22
TORSDOF 4
ENDMDL
MODEL 3
REMARK VINA RESULT:    -5.649     14.099     14.790
REMARK INTER + INTRA:          -6.739
REMARK INTER:                  -7.280
REMARK INTRA:                   0.541
REMARK UNBOUND:                -0.264
REMARK SMILES O=c1c(-c2ccc(O)cc2)coc2c(O)c(O)ccc12
REMARK SMILES IDX 3 1 11 2 12 3 13 4 20 5 2 6 1 7 19 8 18 9 16 10 14 11 4 12
REMARK SMILES IDX 5 13 6 14 7 15 10 16 9 17 8 18 15 20 17 22
REMARK H PARENT 8 19 15 21 17 23
REMARK Flexibility Score: inf
ROOT
ATOM      1  C   UNL     1      51.648 -28.361 -31.155  1.00  0.00     0.065 A 
ATOM      2  C   UNL     1      51.176 -27.426 -32.090  1.00  0.00     0.208 A 
ATOM      3  O   UNL     1      49.875 -27.281 -32.315  1.00  0.00    -0.459 OA
ATOM      4  C   UNL     1      48.952 -27.997 -31.683  1.00  0.00     0.183 A 
ATOM      5  C   UNL     1      49.334 -28.966 -30.728  1.00  0.00     0.069 A 
ATOM      6  C   UNL     1      50.704 -29.149 -30.470  1.00  0.00     0.200 A 
ATOM      7  O   UNL     1      51.086 -30.027 -29.646  1.00  0.00    -0.288 OA
ATOM      8  C   UNL     1      48.344 -29.718 -30.071  1.00  0.00     0.020 A 
ATOM      9  C   UNL     1      46.994 -29.506 -30.361  1.00  0.00     0.051 A 
ATOM     10  C   UNL     1      46.614 -28.543 -31.306  1.00  0.00     0.161 A 
ATOM     11  C   UNL     1      47.595 -27.787 -31.970  1.00  0.00     0.201 A 
ENDROOT
BRANCH   1  12
ATOM     12  C   UNL     1      53.107 -28.498 -30.917  1.00  0.00    -0.011 A 
ATOM     13  C   UNL     1      53.603 -29.496 -30.061  1.00  0.00     0.013 A 
ATOM     14  C   UNL     1      54.977 -29.615 -29.834  1.00  0.00     0.047 A 
ATOM     15  C   UNL     1      55.873 -28.737 -30.457  1.00  0.00     0.115 A 
ATOM     16  C   UNL     1      54.013 -27.615 -31.533  1.00  0.00     0.013 A 
ATOM     17  C   UNL     1      55.386 -27.738 -31.305  1.00  0.00     0.047 A 
BRANCH  15  18
ATOM     18  O   UNL     1      57.244 -28.846 -30.238  1.00  0.00    -0.508 OA
ATOM     19  H   UNL     1      57.725 -29.733 -30.326  1.00  0.00     0.293 HD
ENDBRANCH  15  18
ENDBRANCH   1  12
BRANCH  11  20
ATOM     20  O   UNL     1      47.239 -26.825 -32.916  1.00  0.00    -0.502 OA
ATOM     21  H   UNL     1      46.286 -26.499 -33.021  1.00  0.00     0.293 HD
ENDBRANCH  11  20
BRANCH  10  22
ATOM     22  O   UNL     1      45.264 -28.338 -31.589  1.00  0.00    -0.504 OA
ATOM     23  H   UNL     1      44.844 -28.675 -32.448  1.00  0.00     0.293 HD
ENDBRANCH  10  22
TORSDOF 4
ENDMDL
MODEL 4
REMARK VINA RESULT:    -5.549      4.859      8.351
REMARK INTER + INTRA:          -6.624
REMARK INTER:                  -6.399
REMARK INTRA:                  -0.225
REMARK UNBOUND:                -0.264
REMARK SMILES O=c1c(-c2ccc(O)cc2)coc2c(O)c(O)ccc12
REMARK SMILES IDX 3 1 11 2 12 3 13 4 20 5 2 6 1 7 19 8 18 9 16 10 14 11 4 12
REMARK SMILES IDX 5 13 6 14 7 15 10 16 9 17 8 18 15 20 17 22
REMARK H PARENT 8 19 15 21 17 23
REMARK Flexibility Score: inf
ROOT
ATOM      1  C   UNL     1      52.887 -42.204 -27.469  1.00  0.00     0.065 A 
ATOM      2  C   UNL     1      54.282 -42.364 -27.463  1.00  0.00     0.208 A 
ATOM      3  O   UNL     1      55.005 -42.101 -28.546  1.00  0.00    -0.459 OA
ATOM      4  C   UNL     1      54.467 -41.678 -29.684  1.00  0.00     0.183 A 
ATOM      5  C   UNL     1      53.070 -41.493 -29.786  1.00  0.00     0.069 A 
ATOM      6  C   UNL     1      52.274 -41.767 -28.659  1.00  0.00     0.200 A 
ATOM      7  O   UNL     1      51.019 -41.643 -28.720  1.00  0.00    -0.288 OA
ATOM      8  C   UNL     1      52.517 -41.048 -31.000  1.00  0.00     0.020 A 
ATOM      9  C   UNL     1      53.344 -40.790 -32.095  1.00  0.00     0.051 A 
ATOM     10  C   UNL     1      54.731 -40.971 -31.995  1.00  0.00     0.161 A 
ATOM     11  C   UNL     1      55.294 -41.417 -30.787  1.00  0.00     0.201 A 
ENDROOT
BRANCH   1  12
ATOM     12  C   UNL     1      52.103 -42.498 -26.243  1.00  0.00    -0.011 A 
ATOM     13  C   UNL     1      52.089 -41.593 -25.168  1.00  0.00     0.013 A 
ATOM     14  C   UNL     1      51.356 -41.880 -24.012  1.00  0.00     0.047 A 
ATOM     15  C   UNL     1      50.630 -43.075 -23.916  1.00  0.00     0.115 A 
ATOM     16  C   UNL     1      51.378 -43.699 -26.136  1.00  0.00     0.013 A 
ATOM     17  C   UNL     1      50.645 -43.981 -24.980  1.00  0.00     0.047 A 
BRANCH  15  18
ATOM     18  O   UNL     1      49.896 -43.370 -22.770  1.00  0.00    -0.508 OA
ATOM     19  H   UNL     1      50.334 -43.775 -21.951  1.00  0.00     0.293 HD
ENDBRANCH  15  18
ENDBRANCH   1  12
BRANCH  11  20
ATOM     20  O   UNL     1      56.671 -41.606 -30.666  1.00  0.00    -0.502 OA
ATOM     21  H   UNL     1      57.266 -40.945 -30.181  1.00  0.00     0.293 HD
ENDBRANCH  11  20
BRANCH  10  22
ATOM     22  O   UNL     1      55.550 -40.712 -33.093  1.00  0.00    -0.504 OA
ATOM     23  H   UNL     1      56.511 -40.410 -32.980  1.00  0.00     0.293 HD
ENDBRANCH  10  22
TORSDOF 4
ENDMDL
MODEL 5
REMARK VINA RESULT:    -5.428      2.498      3.180
REMARK INTER + INTRA:          -6.485
REMARK INTER:                  -6.205
REMARK INTRA:                  -0.281
REMARK UNBOUND:                -0.264
REMARK SMILES O=c1c(-c2ccc(O)cc2)coc2c(O)c(O)ccc12
REMARK SMILES IDX 3 1 11 2 12 3 13 4 20 5 2 6 1 7 19 8 18 9 16 10 14 11 4 12
REMARK SMILES IDX 5 13 6 14 7 15 10 16 9 17 8 18 15 20 17 22
REMARK H PARENT 8 19 15 21 17 23
REMARK Flexibility Score: inf
ROOT
ATOM      1  C   UNL     1      54.399 -38.283 -22.578  1.00  0.00     0.065 A 
ATOM      2  C   UNL     1      54.521 -37.198 -21.696  1.00  0.00     0.208 A 
ATOM      3  O   UNL     1      53.672 -37.038 -20.687  1.00  0.00    -0.459 OA
ATOM      4  C   UNL     1      52.670 -37.878 -20.450  1.00  0.00     0.183 A 
ATOM      5  C   UNL     1      52.465 -38.996 -21.289  1.00  0.00     0.069 A 
ATOM      6  C   UNL     1      53.344 -39.192 -22.370  1.00  0.00     0.200 A 
ATOM      7  O   UNL     1      53.175 -40.163 -23.160  1.00  0.00    -0.288 OA
ATOM      8  C   UNL     1      51.398 -39.872 -21.027  1.00  0.00     0.020 A 
ATOM      9  C   UNL     1      50.548 -39.638 -19.944  1.00  0.00     0.051 A 
ATOM     10  C   UNL     1      50.750 -38.530 -19.109  1.00  0.00     0.161 A 
ATOM     11  C   UNL     1      51.813 -37.647 -19.363  1.00  0.00     0.201 A 
ENDROOT
BRANCH   1  12
ATOM     12  C   UNL     1      55.365 -38.443 -23.693  1.00  0.00    -0.011 A 
ATOM     13  C   UNL     1      56.578 -39.126 -23.498  1.00  0.00     0.013 A 
ATOM     14  C   UNL     1      57.489 -39.265 -24.550  1.00  0.00     0.047 A 
ATOM     15  C   UNL     1      57.200 -38.721 -25.808  1.00  0.00     0.115 A 
ATOM     16  C   UNL     1      55.087 -37.892 -24.957  1.00  0.00     0.013 A 
ATOM     17  C   UNL     1      55.998 -38.035 -26.007  1.00  0.00     0.047 A 
BRANCH  15  18
ATOM     18  O   UNL     1      58.099 -38.855 -26.863  1.00  0.00    -0.508 OA
ATOM     19  H   UNL     1      59.046 -39.184 -26.714  1.00  0.00     0.293 HD
ENDBRANCH  15  18
ENDBRANCH   1  12
BRANCH  11  20
ATOM     20  O   UNL     1      52.032 -36.537 -18.547  1.00  0.00    -0.502 OA
ATOM     21  H   UNL     1      51.287 -35.902 -18.287  1.00  0.00     0.293 HD
ENDBRANCH  11  20
BRANCH  10  22
ATOM     22  O   UNL     1      49.897 -38.303 -18.030  1.00  0.00    -0.504 OA
ATOM     23  H   UNL     1      49.482 -37.393 -17.863  1.00  0.00     0.293 HD
ENDBRANCH  10  22
TORSDOF 4
ENDMDL
MODEL 6
REMARK VINA RESULT:    -5.384     13.532     14.680
REMARK INTER + INTRA:          -6.435
REMARK INTER:                  -6.868
REMARK INTRA:                   0.433
REMARK UNBOUND:                -0.264
REMARK SMILES O=c1c(-c2ccc(O)cc2)coc2c(O)c(O)ccc12
REMARK SMILES IDX 3 1 11 2 12 3 13 4 20 5 2 6 1 7 19 8 18 9 16 10 14 11 4 12
REMARK SMILES IDX 5 13 6 14 7 15 10 16 9 17 8 18 15 20 17 22
REMARK H PARENT 8 19 15 21 17 23
REMARK Flexibility Score: inf
ROOT
ATOM      1  C   UNL     1      51.140 -28.965 -30.842  1.00  0.00     0.065 A 
ATOM      2  C   UNL     1      51.477 -30.012 -29.970  1.00  0.00     0.208 A 
ATOM      3  O   UNL     1      52.738 -30.224 -29.611  1.00  0.00    -0.459 OA
ATOM      4  C   UNL     1      53.745 -29.475 -30.046  1.00  0.00     0.183 A 
ATOM      5  C   UNL     1      53.503 -28.402 -30.932  1.00  0.00     0.069 A 
ATOM      6  C   UNL     1      52.178 -28.152 -31.336  1.00  0.00     0.200 A 
ATOM      7  O   UNL     1      51.926 -27.221 -32.150  1.00  0.00    -0.288 OA
ATOM      8  C   UNL     1      54.581 -27.621 -31.385  1.00  0.00     0.020 A 
ATOM      9  C   UNL     1      55.880 -27.906 -30.961  1.00  0.00     0.051 A 
ATOM     10  C   UNL     1      56.122 -28.969 -30.081  1.00  0.00     0.161 A 
ATOM     11  C   UNL     1      55.053 -29.757 -29.622  1.00  0.00     0.201 A 
ENDROOT
BRANCH   1  12
ATOM     12  C   UNL     1      49.722 -28.744 -31.221  1.00  0.00    -0.011 A 
ATOM     13  C   UNL     1      49.395 -28.066 -32.408  1.00  0.00     0.013 A 
ATOM     14  C   UNL     1      48.057 -27.853 -32.756  1.00  0.00     0.047 A 
ATOM     15  C   UNL     1      47.031 -28.313 -31.921  1.00  0.00     0.115 A 
ATOM     16  C   UNL     1      48.685 -29.196 -30.385  1.00  0.00     0.013 A 
ATOM     17  C   UNL     1      47.349 -28.983 -30.736  1.00  0.00     0.047 A 
BRANCH  15  18
ATOM     18  O   UNL     1      45.695 -28.107 -32.257  1.00  0.00    -0.508 OA
ATOM     19  H   UNL     1      45.331 -28.370 -33.166  1.00  0.00     0.293 HD
ENDBRANCH  15  18
ENDBRANCH   1  12
BRANCH  11  20
ATOM     20  O   UNL     1      55.271 -30.822 -28.747  1.00  0.00    -0.502 OA
ATOM     21  H   UNL     1      55.180 -31.787 -29.039  1.00  0.00     0.293 HD
ENDBRANCH  11  20
BRANCH  10  22
ATOM     22  O   UNL     1      57.423 -29.247 -29.662  1.00  0.00    -0.504 OA
ATOM     23  H   UNL     1      58.116 -28.514 -29.559  1.00  0.00     0.293 HD
ENDBRANCH  10  22
TORSDOF 4
ENDMDL
MODEL 7
REMARK VINA RESULT:    -5.382     12.896     14.198
REMARK INTER + INTRA:          -6.433
REMARK INTER:                  -6.152
REMARK INTRA:                  -0.281
REMARK UNBOUND:                -0.264
REMARK SMILES O=c1c(-c2ccc(O)cc2)coc2c(O)c(O)ccc12
REMARK SMILES IDX 3 1 11 2 12 3 13 4 20 5 2 6 1 7 19 8 18 9 16 10 14 11 4 12
REMARK SMILES IDX 5 13 6 14 7 15 10 16 9 17 8 18 15 20 17 22
REMARK H PARENT 8 19 15 21 17 23
REMARK Flexibility Score: inf
ROOT
ATOM      1  C   UNL     1      46.445 -31.592 -28.641  1.00  0.00     0.065 A 
ATOM      2  C   UNL     1      45.219 -31.090 -29.104  1.00  0.00     0.208 A 
ATOM      3  O   UNL     1      45.175 -30.082 -29.968  1.00  0.00    -0.459 OA
ATOM      4  C   UNL     1      46.268 -29.493 -30.442  1.00  0.00     0.183 A 
ATOM      5  C   UNL     1      47.547 -29.927 -30.028  1.00  0.00     0.069 A 
ATOM      6  C   UNL     1      47.629 -30.990 -29.110  1.00  0.00     0.200 A 
ATOM      7  O   UNL     1      48.753 -31.386 -28.693  1.00  0.00    -0.288 OA
ATOM      8  C   UNL     1      48.692 -29.290 -30.537  1.00  0.00     0.020 A 
ATOM      9  C   UNL     1      48.565 -28.237 -31.445  1.00  0.00     0.051 A 
ATOM     10  C   UNL     1      47.297 -27.807 -31.858  1.00  0.00     0.161 A 
ATOM     11  C   UNL     1      46.145 -28.435 -31.355  1.00  0.00     0.201 A 
ENDROOT
BRANCH   1  12
ATOM     12  C   UNL     1      46.467 -32.724 -27.681  1.00  0.00    -0.011 A 
ATOM     13  C   UNL     1      46.434 -32.489 -26.296  1.00  0.00     0.013 A 
ATOM     14  C   UNL     1      46.464 -33.559 -25.396  1.00  0.00     0.047 A 
ATOM     15  C   UNL     1      46.530 -34.876 -25.869  1.00  0.00     0.115 A 
ATOM     16  C   UNL     1      46.541 -34.049 -28.148  1.00  0.00     0.013 A 
ATOM     17  C   UNL     1      46.569 -35.116 -27.246  1.00  0.00     0.047 A 
BRANCH  15  18
ATOM     18  O   UNL     1      46.560 -35.949 -24.982  1.00  0.00    -0.508 OA
ATOM     19  H   UNL     1      46.008 -36.784 -25.142  1.00  0.00     0.293 HD
ENDBRANCH  15  18
ENDBRANCH   1  12
BRANCH  11  20
ATOM     20  O   UNL     1      44.872 -28.021 -31.751  1.00  0.00    -0.502 OA
ATOM     21  H   UNL     1      44.386 -28.445 -32.532  1.00  0.00     0.293 HD
ENDBRANCH  11  20
BRANCH  10  22
ATOM     22  O   UNL     1      47.178 -26.754 -32.765  1.00  0.00    -0.504 OA
ATOM     23  H   UNL     1      46.679 -25.903 -32.529  1.00  0.00     0.293 HD
ENDBRANCH  10  22
TORSDOF 4
ENDMDL
MODEL 8
REMARK VINA RESULT:    -5.335      1.203      2.457
REMARK INTER + INTRA:          -6.378
REMARK INTER:                  -6.146
REMARK INTRA:                  -0.232
REMARK UNBOUND:                -0.264
REMARK SMILES O=c1c(-c2ccc(O)cc2)coc2c(O)c(O)ccc12
REMARK SMILES IDX 3 1 11 2 12 3 13 4 20 5 2 6 1 7 19 8 18 9 16 10 14 11 4 12
REMARK SMILES IDX 5 13 6 14 7 15 10 16 9 17 8 18 15 20 17 22
REMARK H PARENT 8 19 15 21 17 23
REMARK Flexibility Score: inf
ROOT
ATOM      1  C   UNL     1      54.944 -40.723 -24.533  1.00  0.00     0.065 A 
ATOM      2  C   UNL     1      53.565 -40.776 -24.277  1.00  0.00     0.208 A 
ATOM      3  O   UNL     1      53.015 -40.018 -23.336  1.00  0.00    -0.459 OA
ATOM      4  C   UNL     1      53.719 -39.176 -22.588  1.00  0.00     0.183 A 
ATOM      5  C   UNL     1      55.115 -39.059 -22.770  1.00  0.00     0.069 A 
ATOM      6  C   UNL     1      55.731 -39.852 -23.755  1.00  0.00     0.200 A 
ATOM      7  O   UNL     1      56.980 -39.798 -23.927  1.00  0.00    -0.288 OA
ATOM      8  C   UNL     1      55.845 -38.165 -21.967  1.00  0.00     0.020 A 
ATOM      9  C   UNL     1      55.193 -37.399 -20.998  1.00  0.00     0.051 A 
ATOM     10  C   UNL     1      53.808 -37.513 -20.817  1.00  0.00     0.161 A 
ATOM     11  C   UNL     1      53.068 -38.404 -21.613  1.00  0.00     0.201 A 
ENDROOT
BRANCH   1  12
ATOM     12  C   UNL     1      55.534 -41.576 -25.596  1.00  0.00    -0.011 A 
ATOM     13  C   UNL     1      55.898 -41.025 -26.837  1.00  0.00     0.013 A 
ATOM     14  C   UNL     1      56.444 -41.835 -27.837  1.00  0.00     0.047 A 
ATOM     15  C   UNL     1      56.631 -43.205 -27.611  1.00  0.00     0.115 A 
ATOM     16  C   UNL     1      55.717 -42.953 -25.379  1.00  0.00     0.013 A 
ATOM     17  C   UNL     1      56.265 -43.760 -26.381  1.00  0.00     0.047 A 
BRANCH  15  18
ATOM     18  O   UNL     1      57.174 -44.021 -28.600  1.00  0.00    -0.508 OA
ATOM     19  H   UNL     1      58.126 -44.362 -28.540  1.00  0.00     0.293 HD
ENDBRANCH  15  18
ENDBRANCH   1  12
BRANCH  11  20
ATOM     20  O   UNL     1      51.689 -38.534 -21.449  1.00  0.00    -0.502 OA
ATOM     21  H   UNL     1      51.072 -38.753 -22.222  1.00  0.00     0.293 HD
ENDBRANCH  11  20
BRANCH  10  22
ATOM     22  O   UNL     1      53.165 -36.744 -19.847  1.00  0.00    -0.504 OA
ATOM     23  H   UNL     1      52.268 -37.018 -19.462  1.00  0.00     0.293 HD
ENDBRANCH  10  22
TORSDOF 4
ENDMDL
MODEL 9
REMARK VINA RESULT:    -5.265      1.584      7.342
REMARK INTER + INTRA:          -6.298
REMARK INTER:                  -6.018
REMARK INTRA:                  -0.280
REMARK UNBOUND:                -0.264
REMARK SMILES O=c1c(-c2ccc(O)cc2)coc2c(O)c(O)ccc12
REMARK SMILES IDX 3 1 11 2 12 3 13 4 20 5 2 6 1 7 19 8 18 9 16 10 14 11 4 12
REMARK SMILES IDX 5 13 6 14 7 15 10 16 9 17 8 18 15 20 17 22
REMARK H PARENT 8 19 15 21 17 23
REMARK Flexibility Score: inf
ROOT
ATOM      1  C   UNL     1      55.384 -40.327 -24.755  1.00  0.00     0.065 A 
ATOM      2  C   UNL     1      55.725 -41.682 -24.625  1.00  0.00     0.208 A 
ATOM      3  O   UNL     1      56.153 -42.383 -25.669  1.00  0.00    -0.459 OA
ATOM      4  C   UNL     1      56.284 -41.858 -26.882  1.00  0.00     0.183 A 
ATOM      5  C   UNL     1      55.959 -40.502 -27.110  1.00  0.00     0.069 A 
ATOM      6  C   UNL     1      55.497 -39.733 -26.026  1.00  0.00     0.200 A 
ATOM      7  O   UNL     1      55.168 -38.525 -26.197  1.00  0.00    -0.288 OA
ATOM      8  C   UNL     1      56.100 -39.964 -28.401  1.00  0.00     0.020 A 
ATOM      9  C   UNL     1      56.559 -40.765 -29.449  1.00  0.00     0.051 A 
ATOM     10  C   UNL     1      56.884 -42.109 -29.224  1.00  0.00     0.161 A 
ATOM     11  C   UNL     1      56.745 -42.658 -27.938  1.00  0.00     0.201 A 
ENDROOT
BRANCH   1  12
ATOM     12  C   UNL     1      54.915 -39.564 -23.570  1.00  0.00    -0.011 A 
ATOM     13  C   UNL     1      55.816 -38.804 -22.805  1.00  0.00     0.013 A 
ATOM     14  C   UNL     1      55.370 -38.096 -21.685  1.00  0.00     0.047 A 
ATOM     15  C   UNL     1      54.020 -38.140 -21.315  1.00  0.00     0.115 A 
ATOM     16  C   UNL     1      53.562 -39.610 -23.188  1.00  0.00     0.013 A 
ATOM     17  C   UNL     1      53.120 -38.899 -22.069  1.00  0.00     0.047 A 
BRANCH  15  18
ATOM     18  O   UNL     1      53.565 -37.438 -20.202  1.00  0.00    -0.508 OA
ATOM     19  H   UNL     1      53.545 -36.425 -20.187  1.00  0.00     0.293 HD
ENDBRANCH  15  18
ENDBRANCH   1  12
BRANCH  11  20
ATOM     20  O   UNL     1      57.060 -43.995 -27.693  1.00  0.00    -0.502 OA
ATOM     21  H   UNL     1      56.511 -44.573 -27.068  1.00  0.00     0.293 HD
ENDBRANCH  11  20
BRANCH  10  22
ATOM     22  O   UNL     1      57.341 -42.902 -30.276  1.00  0.00    -0.504 OA
ATOM     23  H   UNL     1      58.323 -42.938 -30.527  1.00  0.00     0.293 HD
ENDBRANCH  10  22
TORSDOF 4
ENDMDL
