MODEL 1
REMARK VINA RESULT:    -7.347      0.000      0.000
REMARK INTER + INTRA:          -8.919
REMARK INTER:                  -8.850
REMARK INTRA:                  -0.069
REMARK UNBOUND:                -0.069
REMARK SMILES O=c1c(O)c(-c2ccc(O)c(O)c2)oc2cc(O)cc(O)c12
REMARK SMILES IDX 5 1 3 2 2 3 1 4 22 5 20 6 19 7 17 8 16 9 15 10 14 11 6 12
REMARK SMILES IDX 7 13 8 14 9 15 13 16 11 17 10 18 12 20 4 22 21 24 18 26
REMARK H PARENT 10 19 12 21 4 23 21 25 18 27
REMARK Flexibility Score: inf
ROOT
ATOM      1  C   UNL     1       6.386  49.390  11.023  1.00  0.00     0.180 A 
ATOM      2  C   UNL     1       5.715  49.068  12.219  1.00  0.00     0.208 A 
ATOM      3  C   UNL     1       6.173  47.984  12.984  1.00  0.00     0.238 A 
ATOM      4  O   UNL     1       5.573  47.679  14.050  1.00  0.00    -0.285 OA
ATOM      5  C   UNL     1       7.303  47.256  12.554  1.00  0.00     0.111 A 
ATOM      6  C   UNL     1       7.830  46.154  13.269  1.00  0.00     0.134 A 
ATOM      7  C   UNL     1       8.964  45.487  12.780  1.00  0.00     0.093 A 
ATOM      8  C   UNL     1       9.579  45.902  11.593  1.00  0.00     0.123 A 
ATOM      9  C   UNL     1       9.061  46.988  10.886  1.00  0.00     0.094 A 
ATOM     10  C   UNL     1       7.931  47.665  11.355  1.00  0.00     0.146 A 
ATOM     11  O   UNL     1       7.457  48.691  10.658  1.00  0.00    -0.452 OA
ENDROOT
BRANCH   1  12
ATOM     12  C   UNL     1       5.952  50.507  10.154  1.00  0.00     0.025 A 
ATOM     13  C   UNL     1       5.899  51.808  10.676  1.00  0.00     0.016 A 
ATOM     14  C   UNL     1       5.513  52.880   9.868  1.00  0.00     0.051 A 
ATOM     15  C   UNL     1       5.189  52.669   8.520  1.00  0.00     0.157 A 
ATOM     16  C   UNL     1       5.647  50.302   8.796  1.00  0.00     0.062 A 
ATOM     17  C   UNL     1       5.261  51.374   7.983  1.00  0.00     0.158 A 
BRANCH  15  18
ATOM     18  O   UNL     1       4.802  53.741   7.717  1.00  0.00    -0.504 OA
ATOM     19  H   UNL     1       5.058  54.694   7.944  1.00  0.00     0.293 HD
ENDBRANCH  15  18
BRANCH  17  20
ATOM     20  O   UNL     1       4.959  51.133   6.643  1.00  0.00    -0.504 OA
ATOM     21  H   UNL     1       5.529  50.530   6.062  1.00  0.00     0.293 HD
ENDBRANCH  17  20
ENDBRANCH   1  12
BRANCH   2  22
ATOM     22  O   UNL     1       4.628  49.835  12.647  1.00  0.00    -0.502 OA
ATOM     23  H   UNL     1       3.669  49.544  12.503  1.00  0.00     0.293 HD
ENDBRANCH   2  22
BRANCH   6  24
ATOM     24  O   UNL     1       7.241  45.717  14.456  1.00  0.00    -0.507 OA
ATOM     25  H   UNL     1       7.795  45.367  15.229  1.00  0.00     0.293 HD
ENDBRANCH   6  24
BRANCH   8  26
ATOM     26  O   UNL     1      10.705  45.240  11.108  1.00  0.00    -0.508 OA
ATOM     27  H   UNL     1      11.639  45.505  11.395  1.00  0.00     0.293 HD
ENDBRANCH   8  26
TORSDOF 6
ENDMDL
MODEL 2
REMARK VINA RESULT:    -7.300      1.215      2.883
REMARK INTER + INTRA:          -8.863
REMARK INTER:                  -8.864
REMARK INTRA:                   0.000
REMARK UNBOUND:                -0.069
REMARK SMILES O=c1c(O)c(-c2ccc(O)c(O)c2)oc2cc(O)cc(O)c12
REMARK SMILES IDX 5 1 3 2 2 3 1 4 22 5 20 6 19 7 17 8 16 9 15 10 14 11 6 12
REMARK SMILES IDX 7 13 8 14 9 15 13 16 11 17 10 18 12 20 4 22 21 24 18 26
REMARK H PARENT 10 19 12 21 4 23 21 25 18 27
REMARK Flexibility Score: inf
ROOT
ATOM      1  C   UNL     1       6.711  49.326  10.762  1.00  0.00     0.180 A 
ATOM      2  C   UNL     1       7.818  48.576  10.321  1.00  0.00     0.208 A 
ATOM      3  C   UNL     1       8.314  47.552  11.142  1.00  0.00     0.238 A 
ATOM      4  O   UNL     1       9.313  46.881  10.762  1.00  0.00    -0.285 OA
ATOM      5  C   UNL     1       7.685  47.281  12.375  1.00  0.00     0.111 A 
ATOM      6  C   UNL     1       8.121  46.264  13.259  1.00  0.00     0.134 A 
ATOM      7  C   UNL     1       7.435  46.050  14.464  1.00  0.00     0.093 A 
ATOM      8  C   UNL     1       6.325  46.832  14.801  1.00  0.00     0.123 A 
ATOM      9  C   UNL     1       5.893  47.836  13.933  1.00  0.00     0.094 A 
ATOM     10  C   UNL     1       6.563  48.067  12.727  1.00  0.00     0.146 A 
ATOM     11  O   UNL     1       6.134  49.032  11.923  1.00  0.00    -0.452 OA
ENDROOT
BRANCH   1  12
ATOM     12  C   UNL     1       6.142  50.434   9.961  1.00  0.00     0.025 A 
ATOM     13  C   UNL     1       5.991  51.701  10.544  1.00  0.00     0.016 A 
ATOM     14  C   UNL     1       5.477  52.766   9.800  1.00  0.00     0.051 A 
ATOM     15  C   UNL     1       5.119  52.584   8.457  1.00  0.00     0.157 A 
ATOM     16  C   UNL     1       5.802  50.260   8.607  1.00  0.00     0.062 A 
ATOM     17  C   UNL     1       5.289  51.324   7.858  1.00  0.00     0.158 A 
BRANCH  15  18
ATOM     18  O   UNL     1       4.604  53.647   7.718  1.00  0.00    -0.504 OA
ATOM     19  H   UNL     1       5.210  54.316   7.258  1.00  0.00     0.293 HD
ENDBRANCH  15  18
BRANCH  17  20
ATOM     20  O   UNL     1       4.956  51.114   6.520  1.00  0.00    -0.504 OA
ATOM     21  H   UNL     1       5.657  51.083   5.789  1.00  0.00     0.293 HD
ENDBRANCH  17  20
ENDBRANCH   1  12
BRANCH   2  22
ATOM     22  O   UNL     1       8.393  48.833   9.073  1.00  0.00    -0.502 OA
ATOM     23  H   UNL     1       9.395  48.890   8.939  1.00  0.00     0.293 HD
ENDBRANCH   2  22
BRANCH   6  24
ATOM     24  O   UNL     1       9.223  45.467  12.950  1.00  0.00    -0.507 OA
ATOM     25  H   UNL     1       9.277  44.496  13.237  1.00  0.00     0.293 HD
ENDBRANCH   6  24
BRANCH   8  26
ATOM     26  O   UNL     1       5.643  46.620  15.997  1.00  0.00    -0.508 OA
ATOM     27  H   UNL     1       6.137  46.429  16.861  1.00  0.00     0.293 HD
ENDBRANCH   8  26
TORSDOF 6
ENDMDL
MODEL 3
REMARK VINA RESULT:    -7.282      1.522      3.208
REMARK INTER + INTRA:          -8.841
REMARK INTER:                  -8.508
REMARK INTRA:                  -0.332
REMARK UNBOUND:                -0.069
REMARK SMILES O=c1c(O)c(-c2ccc(O)c(O)c2)oc2cc(O)cc(O)c12
REMARK SMILES IDX 5 1 3 2 2 3 1 4 22 5 20 6 19 7 17 8 16 9 15 10 14 11 6 12
REMARK SMILES IDX 7 13 8 14 9 15 13 16 11 17 10 18 12 20 4 22 21 24 18 26
REMARK H PARENT 10 19 12 21 4 23 21 25 18 27
REMARK Flexibility Score: inf
ROOT
ATOM      1  C   UNL     1       7.045  49.472  10.773  1.00  0.00     0.180 A 
ATOM      2  C   UNL     1       7.927  48.520  10.225  1.00  0.00     0.208 A 
ATOM      3  C   UNL     1       8.336  47.437  11.018  1.00  0.00     0.238 A 
ATOM      4  O   UNL     1       9.134  46.585  10.542  1.00  0.00    -0.285 OA
ATOM      5  C   UNL     1       7.842  47.311  12.334  1.00  0.00     0.111 A 
ATOM      6  C   UNL     1       8.201  46.248  13.197  1.00  0.00     0.134 A 
ATOM      7  C   UNL     1       7.658  46.188  14.489  1.00  0.00     0.093 A 
ATOM      8  C   UNL     1       6.765  47.170  14.934  1.00  0.00     0.123 A 
ATOM      9  C   UNL     1       6.410  48.220  14.086  1.00  0.00     0.094 A 
ATOM     10  C   UNL     1       6.940  48.299  12.794  1.00  0.00     0.146 A 
ATOM     11  O   UNL     1       6.588  49.312  12.012  1.00  0.00    -0.452 OA
ENDROOT
BRANCH   1  12
ATOM     12  C   UNL     1       6.584  50.651  10.006  1.00  0.00     0.025 A 
ATOM     13  C   UNL     1       5.375  50.583   9.296  1.00  0.00     0.016 A 
ATOM     14  C   UNL     1       4.909  51.691   8.583  1.00  0.00     0.051 A 
ATOM     15  C   UNL     1       5.638  52.888   8.581  1.00  0.00     0.157 A 
ATOM     16  C   UNL     1       7.302  51.861  10.019  1.00  0.00     0.062 A 
ATOM     17  C   UNL     1       6.838  52.973   9.308  1.00  0.00     0.158 A 
BRANCH  15  18
ATOM     18  O   UNL     1       5.173  53.990   7.867  1.00  0.00    -0.504 OA
ATOM     19  H   UNL     1       5.147  54.916   8.277  1.00  0.00     0.293 HD
ENDBRANCH  15  18
BRANCH  17  20
ATOM     20  O   UNL     1       7.579  54.154   9.338  1.00  0.00    -0.504 OA
ATOM     21  H   UNL     1       7.551  54.787  10.127  1.00  0.00     0.293 HD
ENDBRANCH  17  20
ENDBRANCH   1  12
BRANCH   2  22
ATOM     22  O   UNL     1       8.364  48.642   8.903  1.00  0.00    -0.502 OA
ATOM     23  H   UNL     1       8.226  49.486   8.362  1.00  0.00     0.293 HD
ENDBRANCH   2  22
BRANCH   6  24
ATOM     24  O   UNL     1       9.087  45.253  12.782  1.00  0.00    -0.507 OA
ATOM     25  H   UNL     1       8.767  44.326  12.527  1.00  0.00     0.293 HD
ENDBRANCH   6  24
BRANCH   8  26
ATOM     26  O   UNL     1       6.226  47.111  16.217  1.00  0.00    -0.508 OA
ATOM     27  H   UNL     1       5.273  46.809  16.377  1.00  0.00     0.293 HD
ENDBRANCH   8  26
TORSDOF 6
ENDMDL
MODEL 4
REMARK VINA RESULT:    -7.279      1.755      1.844
REMARK INTER + INTRA:          -8.837
REMARK INTER:                  -8.542
REMARK INTRA:                  -0.295
REMARK UNBOUND:                -0.069
REMARK SMILES O=c1c(O)c(-c2ccc(O)c(O)c2)oc2cc(O)cc(O)c12
REMARK SMILES IDX 5 1 3 2 2 3 1 4 22 5 20 6 19 7 17 8 16 9 15 10 14 11 6 12
REMARK SMILES IDX 7 13 8 14 9 15 13 16 11 17 10 18 12 20 4 22 21 24 18 26
REMARK H PARENT 10 19 12 21 4 23 21 25 18 27
REMARK Flexibility Score: inf
ROOT
ATOM      1  C   UNL     1       6.442  49.388  11.317  1.00  0.00     0.180 A 
ATOM      2  C   UNL     1       5.439  48.906  12.182  1.00  0.00     0.208 A 
ATOM      3  C   UNL     1       5.819  48.238  13.355  1.00  0.00     0.238 A 
ATOM      4  O   UNL     1       4.930  47.792  14.131  1.00  0.00    -0.285 OA
ATOM      5  C   UNL     1       7.188  48.081  13.656  1.00  0.00     0.111 A 
ATOM      6  C   UNL     1       7.654  47.423  14.820  1.00  0.00     0.134 A 
ATOM      7  C   UNL     1       9.034  47.316  15.053  1.00  0.00     0.093 A 
ATOM      8  C   UNL     1       9.954  47.854  14.146  1.00  0.00     0.123 A 
ATOM      9  C   UNL     1       9.498  48.501  12.996  1.00  0.00     0.094 A 
ATOM     10  C   UNL     1       8.127  48.618  12.745  1.00  0.00     0.146 A 
ATOM     11  O   UNL     1       7.722  49.235  11.641  1.00  0.00    -0.452 OA
ENDROOT
BRANCH   1  12
ATOM     12  C   UNL     1       6.121  50.086  10.052  1.00  0.00     0.025 A 
ATOM     13  C   UNL     1       6.281  51.478   9.971  1.00  0.00     0.016 A 
ATOM     14  C   UNL     1       6.005  52.155   8.781  1.00  0.00     0.051 A 
ATOM     15  C   UNL     1       5.579  51.448   7.648  1.00  0.00     0.157 A 
ATOM     16  C   UNL     1       5.713  49.377   8.907  1.00  0.00     0.062 A 
ATOM     17  C   UNL     1       5.438  50.052   7.712  1.00  0.00     0.158 A 
BRANCH  15  18
ATOM     18  O   UNL     1       5.301  52.126   6.462  1.00  0.00    -0.504 OA
ATOM     19  H   UNL     1       5.960  52.782   6.060  1.00  0.00     0.293 HD
ENDBRANCH  15  18
BRANCH  17  20
ATOM     20  O   UNL     1       5.029  49.318   6.599  1.00  0.00    -0.504 OA
ATOM     21  H   UNL     1       4.441  48.498   6.680  1.00  0.00     0.293 HD
ENDBRANCH  17  20
ENDBRANCH   1  12
BRANCH   2  22
ATOM     22  O   UNL     1       4.090  49.117  11.885  1.00  0.00    -0.502 OA
ATOM     23  H   UNL     1       3.467  48.362  11.626  1.00  0.00     0.293 HD
ENDBRANCH   2  22
BRANCH   6  24
ATOM     24  O   UNL     1       6.762  46.879  15.745  1.00  0.00    -0.507 OA
ATOM     25  H   UNL     1       6.330  47.445  16.466  1.00  0.00     0.293 HD
ENDBRANCH   6  24
BRANCH   8  26
ATOM     26  O   UNL     1      11.323  47.748  14.376  1.00  0.00    -0.508 OA
ATOM     27  H   UNL     1      11.692  47.170  15.121  1.00  0.00     0.293 HD
ENDBRANCH   8  26
TORSDOF 6
ENDMDL
MODEL 5
REMARK VINA RESULT:    -7.261      2.093      7.068
REMARK INTER + INTRA:          -8.816
REMARK INTER:                  -8.485
REMARK INTRA:                  -0.331
REMARK UNBOUND:                -0.069
REMARK SMILES O=c1c(O)c(-c2ccc(O)c(O)c2)oc2cc(O)cc(O)c12
REMARK SMILES IDX 5 1 3 2 2 3 1 4 22 5 20 6 19 7 17 8 16 9 15 10 14 11 6 12
REMARK SMILES IDX 7 13 8 14 9 15 13 16 11 17 10 18 12 20 4 22 21 24 18 26
REMARK H PARENT 10 19 12 21 4 23 21 25 18 27
REMARK Flexibility Score: inf
ROOT
ATOM      1  C   UNL     1       8.246  48.521  10.861  1.00  0.00     0.180 A 
ATOM      2  C   UNL     1       8.900  49.716  11.223  1.00  0.00     0.208 A 
ATOM      3  C   UNL     1       8.587  50.896  10.533  1.00  0.00     0.238 A 
ATOM      4  O   UNL     1       9.174  51.970  10.840  1.00  0.00    -0.285 OA
ATOM      5  C   UNL     1       7.615  50.870   9.511  1.00  0.00     0.111 A 
ATOM      6  C   UNL     1       7.239  52.016   8.770  1.00  0.00     0.134 A 
ATOM      7  C   UNL     1       6.256  51.909   7.774  1.00  0.00     0.093 A 
ATOM      8  C   UNL     1       5.643  50.680   7.507  1.00  0.00     0.123 A 
ATOM      9  C   UNL     1       6.011  49.547   8.235  1.00  0.00     0.094 A 
ATOM     10  C   UNL     1       6.990  49.632   9.231  1.00  0.00     0.146 A 
ATOM     11  O   UNL     1       7.325  48.537   9.903  1.00  0.00    -0.452 OA
ENDROOT
BRANCH   1  12
ATOM     12  C   UNL     1       8.536  47.233  11.530  1.00  0.00     0.025 A 
ATOM     13  C   UNL     1       7.779  46.849  12.648  1.00  0.00     0.016 A 
ATOM     14  C   UNL     1       8.019  45.628  13.281  1.00  0.00     0.051 A 
ATOM     15  C   UNL     1       9.012  44.764  12.797  1.00  0.00     0.157 A 
ATOM     16  C   UNL     1       9.516  46.354  11.035  1.00  0.00     0.062 A 
ATOM     17  C   UNL     1       9.759  45.129  11.665  1.00  0.00     0.158 A 
BRANCH  15  18
ATOM     18  O   UNL     1       9.252  43.547  13.433  1.00  0.00    -0.504 OA
ATOM     19  H   UNL     1       9.397  42.694  12.908  1.00  0.00     0.293 HD
ENDBRANCH  15  18
BRANCH  17  20
ATOM     20  O   UNL     1      10.743  44.285  11.151  1.00  0.00    -0.504 OA
ATOM     21  H   UNL     1      10.556  43.638  10.395  1.00  0.00     0.293 HD
ENDBRANCH  17  20
ENDBRANCH   1  12
BRANCH   2  22
ATOM     22  O   UNL     1       9.824  49.725  12.272  1.00  0.00    -0.502 OA
ATOM     23  H   UNL     1      10.657  49.151  12.266  1.00  0.00     0.293 HD
ENDBRANCH   2  22
BRANCH   6  24
ATOM     24  O   UNL     1       7.831  53.256   9.014  1.00  0.00    -0.507 OA
ATOM     25  H   UNL     1       8.837  53.371   9.038  1.00  0.00     0.293 HD
ENDBRANCH   6  24
BRANCH   8  26
ATOM     26  O   UNL     1       4.666  50.573   6.520  1.00  0.00    -0.508 OA
ATOM     27  H   UNL     1       3.731  50.246   6.732  1.00  0.00     0.293 HD
ENDBRANCH   8  26
TORSDOF 6
ENDMDL
MODEL 6
REMARK VINA RESULT:    -7.051      7.551     11.068
REMARK INTER + INTRA:          -8.563
REMARK INTER:                  -8.251
REMARK INTRA:                  -0.312
REMARK UNBOUND:                -0.069
REMARK SMILES O=c1c(O)c(-c2ccc(O)c(O)c2)oc2cc(O)cc(O)c12
REMARK SMILES IDX 5 1 3 2 2 3 1 4 22 5 20 6 19 7 17 8 16 9 15 10 14 11 6 12
REMARK SMILES IDX 7 13 8 14 9 15 13 16 11 17 10 18 12 20 4 22 21 24 18 26
REMARK H PARENT 10 19 12 21 4 23 21 25 18 27
REMARK Flexibility Score: inf
ROOT
ATOM      1  C   UNL     1       6.244  46.921  20.454  1.00  0.00     0.180 A 
ATOM      2  C   UNL     1       5.158  46.388  19.733  1.00  0.00     0.208 A 
ATOM      3  C   UNL     1       5.147  46.508  18.335  1.00  0.00     0.238 A 
ATOM      4  O   UNL     1       4.174  46.045  17.679  1.00  0.00    -0.285 OA
ATOM      5  C   UNL     1       6.227  47.137  17.681  1.00  0.00     0.111 A 
ATOM      6  C   UNL     1       6.295  47.295  16.275  1.00  0.00     0.134 A 
ATOM      7  C   UNL     1       7.409  47.924  15.700  1.00  0.00     0.093 A 
ATOM      8  C   UNL     1       8.455  48.397  16.501  1.00  0.00     0.123 A 
ATOM      9  C   UNL     1       8.391  48.244  17.887  1.00  0.00     0.094 A 
ATOM     10  C   UNL     1       7.289  47.621  18.481  1.00  0.00     0.146 A 
ATOM     11  O   UNL     1       7.252  47.494  19.802  1.00  0.00    -0.452 OA
ENDROOT
BRANCH   1  12
ATOM     12  C   UNL     1       6.319  46.850  21.930  1.00  0.00     0.025 A 
ATOM     13  C   UNL     1       7.153  45.898  22.535  1.00  0.00     0.016 A 
ATOM     14  C   UNL     1       7.256  45.827  23.927  1.00  0.00     0.051 A 
ATOM     15  C   UNL     1       6.536  46.719  24.735  1.00  0.00     0.157 A 
ATOM     16  C   UNL     1       5.615  47.757  22.744  1.00  0.00     0.062 A 
ATOM     17  C   UNL     1       5.716  47.691  24.138  1.00  0.00     0.158 A 
BRANCH  15  18
ATOM     18  O   UNL     1       6.639  46.644  26.123  1.00  0.00    -0.504 OA
ATOM     19  H   UNL     1       5.909  46.999  26.728  1.00  0.00     0.293 HD
ENDBRANCH  15  18
BRANCH  17  20
ATOM     20  O   UNL     1       4.999  48.602  24.914  1.00  0.00    -0.504 OA
ATOM     21  H   UNL     1       4.902  48.496  25.916  1.00  0.00     0.293 HD
ENDBRANCH  17  20
ENDBRANCH   1  12
BRANCH   2  22
ATOM     22  O   UNL     1       4.123  45.727  20.401  1.00  0.00    -0.502 OA
ATOM     23  H   UNL     1       4.213  44.774  20.729  1.00  0.00     0.293 HD
ENDBRANCH   2  22
BRANCH   6  24
ATOM     24  O   UNL     1       5.270  46.833  15.449  1.00  0.00    -0.507 OA
ATOM     25  H   UNL     1       4.818  45.940  15.609  1.00  0.00     0.293 HD
ENDBRANCH   6  24
BRANCH   8  26
ATOM     26  O   UNL     1       9.561  49.021  15.930  1.00  0.00    -0.508 OA
ATOM     27  H   UNL     1      10.207  48.515  15.337  1.00  0.00     0.293 HD
ENDBRANCH   8  26
TORSDOF 6
ENDMDL
MODEL 7
REMARK VINA RESULT:    -7.008      3.050      7.220
REMARK INTER + INTRA:          -8.512
REMARK INTER:                  -8.224
REMARK INTRA:                  -0.288
REMARK UNBOUND:                -0.069
REMARK SMILES O=c1c(O)c(-c2ccc(O)c(O)c2)oc2cc(O)cc(O)c12
REMARK SMILES IDX 5 1 3 2 2 3 1 4 22 5 20 6 19 7 17 8 16 9 15 10 14 11 6 12
REMARK SMILES IDX 7 13 8 14 9 15 13 16 11 17 10 18 12 20 4 22 21 24 18 26
REMARK H PARENT 10 19 12 21 4 23 21 25 18 27
REMARK Flexibility Score: inf
ROOT
ATOM      1  C   UNL     1       7.373  48.014  14.013  1.00  0.00     0.180 A 
ATOM      2  C   UNL     1       8.170  47.150  13.237  1.00  0.00     0.208 A 
ATOM      3  C   UNL     1       8.142  47.273  11.840  1.00  0.00     0.238 A 
ATOM      4  O   UNL     1       8.843  46.497  11.134  1.00  0.00    -0.285 OA
ATOM      5  C   UNL     1       7.338  48.266  11.243  1.00  0.00     0.111 A 
ATOM      6  C   UNL     1       7.256  48.458   9.843  1.00  0.00     0.134 A 
ATOM      7  C   UNL     1       6.440  49.476   9.327  1.00  0.00     0.093 A 
ATOM      8  C   UNL     1       5.706  50.304  10.183  1.00  0.00     0.123 A 
ATOM      9  C   UNL     1       5.783  50.117  11.565  1.00  0.00     0.094 A 
ATOM     10  C   UNL     1       6.589  49.108  12.099  1.00  0.00     0.146 A 
ATOM     11  O   UNL     1       6.639  48.949  13.416  1.00  0.00    -0.452 OA
ENDROOT
BRANCH   1  12
ATOM     12  C   UNL     1       7.335  47.935  15.490  1.00  0.00     0.025 A 
ATOM     13  C   UNL     1       6.276  47.262  16.119  1.00  0.00     0.016 A 
ATOM     14  C   UNL     1       6.231  47.156  17.511  1.00  0.00     0.051 A 
ATOM     15  C   UNL     1       7.253  47.708  18.296  1.00  0.00     0.157 A 
ATOM     16  C   UNL     1       8.370  48.468  16.280  1.00  0.00     0.062 A 
ATOM     17  C   UNL     1       8.330  48.363  17.675  1.00  0.00     0.158 A 
BRANCH  15  18
ATOM     18  O   UNL     1       7.205  47.602  19.685  1.00  0.00    -0.504 OA
ATOM     19  H   UNL     1       7.801  48.164  20.281  1.00  0.00     0.293 HD
ENDBRANCH  15  18
BRANCH  17  20
ATOM     20  O   UNL     1       9.369  48.910  18.426  1.00  0.00    -0.504 OA
ATOM     21  H   UNL     1       9.850  49.755  18.145  1.00  0.00     0.293 HD
ENDBRANCH  17  20
ENDBRANCH   1  12
BRANCH   2  22
ATOM     22  O   UNL     1       8.995  46.206  13.855  1.00  0.00    -0.502 OA
ATOM     23  H   UNL     1       9.978  46.376  14.028  1.00  0.00     0.293 HD
ENDBRANCH   2  22
BRANCH   6  24
ATOM     24  O   UNL     1       7.977  47.650   8.963  1.00  0.00    -0.507 OA
ATOM     25  H   UNL     1       8.864  47.947   8.571  1.00  0.00     0.293 HD
ENDBRANCH   6  24
BRANCH   8  26
ATOM     26  O   UNL     1       4.895  51.315   9.672  1.00  0.00    -0.508 OA
ATOM     27  H   UNL     1       3.987  51.114   9.271  1.00  0.00     0.293 HD
ENDBRANCH   8  26
TORSDOF 6
ENDMDL
MODEL 8
REMARK VINA RESULT:    -7.007      2.647      6.081
REMARK INTER + INTRA:          -8.510
REMARK INTER:                  -8.206
REMARK INTRA:                  -0.304
REMARK UNBOUND:                -0.069
REMARK SMILES O=c1c(O)c(-c2ccc(O)c(O)c2)oc2cc(O)cc(O)c12
REMARK SMILES IDX 5 1 3 2 2 3 1 4 22 5 20 6 19 7 17 8 16 9 15 10 14 11 6 12
REMARK SMILES IDX 7 13 8 14 9 15 13 16 11 17 10 18 12 20 4 22 21 24 18 26
REMARK H PARENT 10 19 12 21 4 23 21 25 18 27
REMARK Flexibility Score: inf
ROOT
ATOM      1  C   UNL     1       6.348  49.759  11.026  1.00  0.00     0.180 A 
ATOM      2  C   UNL     1       5.526  49.654   9.887  1.00  0.00     0.208 A 
ATOM      3  C   UNL     1       6.041  50.043   8.641  1.00  0.00     0.238 A 
ATOM      4  O   UNL     1       5.311  49.964   7.616  1.00  0.00    -0.285 OA
ATOM      5  C   UNL     1       7.370  50.507   8.550  1.00  0.00     0.111 A 
ATOM      6  C   UNL     1       7.966  50.915   7.332  1.00  0.00     0.134 A 
ATOM      7  C   UNL     1       9.297  51.357   7.324  1.00  0.00     0.093 A 
ATOM      8  C   UNL     1      10.043  51.398   8.507  1.00  0.00     0.123 A 
ATOM      9  C   UNL     1       9.458  50.998   9.710  1.00  0.00     0.094 A 
ATOM     10  C   UNL     1       8.132  50.556   9.741  1.00  0.00     0.146 A 
ATOM     11  O   UNL     1       7.600  50.187  10.900  1.00  0.00    -0.452 OA
ENDROOT
BRANCH   1  12
ATOM     12  C   UNL     1       5.871  49.386  12.377  1.00  0.00     0.025 A 
ATOM     13  C   UNL     1       5.087  50.292  13.108  1.00  0.00     0.016 A 
ATOM     14  C   UNL     1       4.608  49.953  14.375  1.00  0.00     0.051 A 
ATOM     15  C   UNL     1       4.892  48.695  14.925  1.00  0.00     0.157 A 
ATOM     16  C   UNL     1       6.135  48.116  12.923  1.00  0.00     0.062 A 
ATOM     17  C   UNL     1       5.655  47.772  14.192  1.00  0.00     0.158 A 
BRANCH  15  18
ATOM     18  O   UNL     1       4.414  48.360  16.191  1.00  0.00    -0.504 OA
ATOM     19  H   UNL     1       4.631  48.921  17.006  1.00  0.00     0.293 HD
ENDBRANCH  15  18
BRANCH  17  20
ATOM     20  O   UNL     1       5.943  46.508  14.705  1.00  0.00    -0.504 OA
ATOM     21  H   UNL     1       5.635  46.217  15.625  1.00  0.00     0.293 HD
ENDBRANCH  17  20
ENDBRANCH   1  12
BRANCH   2  22
ATOM     22  O   UNL     1       4.229  49.144   9.996  1.00  0.00    -0.502 OA
ATOM     23  H   UNL     1       3.512  49.335   9.308  1.00  0.00     0.293 HD
ENDBRANCH   2  22
BRANCH   6  24
ATOM     24  O   UNL     1       7.249  50.884   6.135  1.00  0.00    -0.507 OA
ATOM     25  H   UNL     1       7.471  51.503   5.365  1.00  0.00     0.293 HD
ENDBRANCH   6  24
BRANCH   8  26
ATOM     26  O   UNL     1      11.365  51.836   8.499  1.00  0.00    -0.508 OA
ATOM     27  H   UNL     1      11.853  52.032   7.633  1.00  0.00     0.293 HD
ENDBRANCH   8  26
TORSDOF 6
ENDMDL
MODEL 9
REMARK VINA RESULT:    -6.941      2.324      4.073
REMARK INTER + INTRA:          -8.430
REMARK INTER:                  -8.115
REMARK INTRA:                  -0.316
REMARK UNBOUND:                -0.069
REMARK SMILES O=c1c(O)c(-c2ccc(O)c(O)c2)oc2cc(O)cc(O)c12
REMARK SMILES IDX 5 1 3 2 2 3 1 4 22 5 20 6 19 7 17 8 16 9 15 10 14 11 6 12
REMARK SMILES IDX 7 13 8 14 9 15 13 16 11 17 10 18 12 20 4 22 21 24 18 26
REMARK H PARENT 10 19 12 21 4 23 21 25 18 27
REMARK Flexibility Score: inf
ROOT
ATOM      1  C   UNL     1       9.141  47.654  11.653  1.00  0.00     0.180 A 
ATOM      2  C   UNL     1      10.005  47.809  12.755  1.00  0.00     0.208 A 
ATOM      3  C   UNL     1      10.962  46.815  13.011  1.00  0.00     0.238 A 
ATOM      4  O   UNL     1      11.734  46.937  14.001  1.00  0.00    -0.285 OA
ATOM      5  C   UNL     1      11.054  45.698  12.154  1.00  0.00     0.111 A 
ATOM      6  C   UNL     1      11.993  44.655  12.341  1.00  0.00     0.134 A 
ATOM      7  C   UNL     1      12.027  43.581  11.438  1.00  0.00     0.093 A 
ATOM      8  C   UNL     1      11.143  43.532  10.355  1.00  0.00     0.123 A 
ATOM      9  C   UNL     1      10.215  44.558  10.169  1.00  0.00     0.094 A 
ATOM     10  C   UNL     1      10.163  45.636  11.057  1.00  0.00     0.146 A 
ATOM     11  O   UNL     1       9.267  46.595  10.858  1.00  0.00    -0.452 OA
ENDROOT
BRANCH   1  12
ATOM     12  C   UNL     1       8.095  48.649  11.329  1.00  0.00     0.025 A 
ATOM     13  C   UNL     1       8.423  49.766  10.545  1.00  0.00     0.016 A 
ATOM     14  C   UNL     1       7.446  50.707  10.208  1.00  0.00     0.051 A 
ATOM     15  C   UNL     1       6.123  50.537  10.637  1.00  0.00     0.157 A 
ATOM     16  C   UNL     1       6.761  48.471  11.739  1.00  0.00     0.062 A 
ATOM     17  C   UNL     1       5.780  49.410  11.403  1.00  0.00     0.158 A 
BRANCH  15  18
ATOM     18  O   UNL     1       5.151  51.479  10.302  1.00  0.00    -0.504 OA
ATOM     19  H   UNL     1       4.967  51.730   9.338  1.00  0.00     0.293 HD
ENDBRANCH  15  18
BRANCH  17  20
ATOM     20  O   UNL     1       4.469  49.205  11.833  1.00  0.00    -0.504 OA
ATOM     21  H   UNL     1       3.895  49.959  12.190  1.00  0.00     0.293 HD
ENDBRANCH  17  20
ENDBRANCH   1  12
BRANCH   2  22
ATOM     22  O   UNL     1       9.926  48.948  13.560  1.00  0.00    -0.502 OA
ATOM     23  H   UNL     1      10.460  49.786  13.367  1.00  0.00     0.293 HD
ENDBRANCH   2  22
BRANCH   6  24
ATOM     24  O   UNL     1      12.889  44.676  13.410  1.00  0.00    -0.507 OA
ATOM     25  H   UNL     1      12.685  45.178  14.267  1.00  0.00     0.293 HD
ENDBRANCH   6  24
BRANCH   8  26
ATOM     26  O   UNL     1      11.177  42.466   9.458  1.00  0.00    -0.508 OA
ATOM     27  H   UNL     1      10.793  41.560   9.697  1.00  0.00     0.293 HD
ENDBRANCH   8  26
TORSDOF 6
ENDMDL
