MODEL 1
REMARK VINA RESULT:    -4.592      0.000      0.000
REMARK INTER + INTRA:          -4.883
REMARK INTER:                  -4.861
REMARK INTRA:                  -0.022
REMARK UNBOUND:                -0.022
REMARK SMILES O=C([O-])c1cccnc1
REMARK SMILES IDX 4 1 5 2 9 3 6 4 8 5 7 6 2 7 1 8 3 9
REMARK H PARENT
REMARK Flexibility Score: inf
ROOT
ATOM      1  C   UNL     1     219.391  -7.678  23.380  1.00  0.00     0.016 A 
ATOM      2  C   UNL     1     220.788  -7.625  23.240  1.00  0.00     0.013 A 
ATOM      3  C   UNL     1     218.648  -8.360  22.402  1.00  0.00     0.120 A 
ATOM      4  C   UNL     1     221.408  -8.241  22.151  1.00  0.00     0.021 A 
ATOM      5  N   UNL     1     219.277  -8.952  21.350  1.00  0.00    -0.264 NA
ATOM      6  C   UNL     1     220.627  -8.906  21.206  1.00  0.00     0.111 A 
ENDROOT
BRANCH   1   7
ATOM      7  C   UNL     1     218.716  -7.032  24.525  1.00  0.00     0.073 C 
ATOM      8  O   UNL     1     219.249  -6.056  25.116  1.00  0.00    -0.545 OA
ATOM      9  O   UNL     1     217.481  -7.495  24.967  1.00  0.00    -0.545 OA
ENDBRANCH   1   7
TORSDOF 1
ENDMDL
MODEL 2
REMARK VINA RESULT:    -4.585      2.782      3.539
REMARK INTER + INTRA:          -4.875
REMARK INTER:                  -4.851
REMARK INTRA:                  -0.024
REMARK UNBOUND:                -0.022
REMARK SMILES O=C([O-])c1cccnc1
REMARK SMILES IDX 4 1 5 2 9 3 6 4 8 5 7 6 2 7 1 8 3 9
REMARK H PARENT
REMARK Flexibility Score: inf
ROOT
ATOM      1  C   UNL     1     219.793  -7.991  22.767  1.00  0.00     0.016 A 
ATOM      2  C   UNL     1     220.729  -7.235  23.496  1.00  0.00     0.013 A 
ATOM      3  C   UNL     1     218.451  -7.971  23.183  1.00  0.00     0.120 A 
ATOM      4  C   UNL     1     220.319  -6.489  24.602  1.00  0.00     0.021 A 
ATOM      5  N   UNL     1     218.079  -7.235  24.264  1.00  0.00    -0.264 NA
ATOM      6  C   UNL     1     218.976  -6.502  24.975  1.00  0.00     0.111 A 
ENDROOT
BRANCH   1   7
ATOM      7  C   UNL     1     220.208  -8.788  21.593  1.00  0.00     0.073 C 
ATOM      8  O   UNL     1     221.398  -8.752  21.182  1.00  0.00    -0.545 OA
ATOM      9  O   UNL     1     219.288  -9.589  20.926  1.00  0.00    -0.545 OA
ENDBRANCH   1   7
TORSDOF 1
ENDMDL
MODEL 3
REMARK VINA RESULT:    -4.578      2.444      2.988
REMARK INTER + INTRA:          -4.868
REMARK INTER:                  -4.851
REMARK INTRA:                  -0.017
REMARK UNBOUND:                -0.022
REMARK SMILES O=C([O-])c1cccnc1
REMARK SMILES IDX 4 1 5 2 9 3 6 4 8 5 7 6 2 7 1 8 3 9
REMARK H PARENT
REMARK Flexibility Score: inf
ROOT
ATOM      1  C   UNL     1     219.668  -9.672  23.132  1.00  0.00     0.016 A 
ATOM      2  C   UNL     1     219.685  -8.967  21.916  1.00  0.00     0.013 A 
ATOM      3  C   UNL     1     220.867  -9.786  23.855  1.00  0.00     0.120 A 
ATOM      4  C   UNL     1     220.873  -8.398  21.452  1.00  0.00     0.021 A 
ATOM      5  N   UNL     1     222.010  -9.222  23.380  1.00  0.00    -0.264 NA
ATOM      6  C   UNL     1     222.038  -8.539  22.206  1.00  0.00     0.111 A 
ENDROOT
BRANCH   1   7
ATOM      7  C   UNL     1     218.420 -10.281  23.640  1.00  0.00     0.073 C 
ATOM      8  O   UNL     1     217.892  -9.866  24.705  1.00  0.00    -0.545 OA
ATOM      9  O   UNL     1     217.812 -11.323  22.947  1.00  0.00    -0.545 OA
ENDBRANCH   1   7
TORSDOF 1
ENDMDL
MODEL 4
REMARK VINA RESULT:    -4.525      2.753      3.353
REMARK INTER + INTRA:          -4.811
REMARK INTER:                  -4.789
REMARK INTRA:                  -0.022
REMARK UNBOUND:                -0.022
REMARK SMILES O=C([O-])c1cccnc1
REMARK SMILES IDX 4 1 5 2 9 3 6 4 8 5 7 6 2 7 1 8 3 9
REMARK H PARENT
REMARK Flexibility Score: inf
ROOT
ATOM      1  C   UNL     1     218.814  -8.407  23.097  1.00  0.00     0.016 A 
ATOM      2  C   UNL     1     220.152  -7.989  22.988  1.00  0.00     0.013 A 
ATOM      3  C   UNL     1     217.995  -7.778  24.050  1.00  0.00     0.120 A 
ATOM      4  C   UNL     1     220.640  -6.974  23.812  1.00  0.00     0.021 A 
ATOM      5  N   UNL     1     218.495  -6.791  24.841  1.00  0.00    -0.264 NA
ATOM      6  C   UNL     1     219.787  -6.381  24.743  1.00  0.00     0.111 A 
ENDROOT
BRANCH   1   7
ATOM      7  C   UNL     1     218.279  -9.481  22.234  1.00  0.00     0.073 C 
ATOM      8  O   UNL     1     218.778  -9.698  21.097  1.00  0.00    -0.545 OA
ATOM      9  O   UNL     1     217.217 -10.267  22.665  1.00  0.00    -0.545 OA
ENDBRANCH   1   7
TORSDOF 1
ENDMDL
MODEL 5
REMARK VINA RESULT:    -4.507      1.689      2.375
REMARK INTER + INTRA:          -4.793
REMARK INTER:                  -4.770
REMARK INTRA:                  -0.022
REMARK UNBOUND:                -0.022
REMARK SMILES O=C([O-])c1cccnc1
REMARK SMILES IDX 4 1 5 2 9 3 6 4 8 5 7 6 2 7 1 8 3 9
REMARK H PARENT
REMARK Flexibility Score: inf
ROOT
ATOM      1  C   UNL     1     218.241  -8.627  23.874  1.00  0.00     0.016 A 
ATOM      2  C   UNL     1     217.886  -9.936  24.241  1.00  0.00     0.013 A 
ATOM      3  C   UNL     1     218.589  -8.380  22.536  1.00  0.00     0.120 A 
ATOM      4  C   UNL     1     217.885 -10.956  23.288  1.00  0.00     0.021 A 
ATOM      5  N   UNL     1     218.579  -9.392  21.626  1.00  0.00    -0.264 NA
ATOM      6  C   UNL     1     218.239 -10.661  21.972  1.00  0.00     0.111 A 
ENDROOT
BRANCH   1   7
ATOM      7  C   UNL     1     218.249  -7.534  24.869  1.00  0.00     0.073 C 
ATOM      8  O   UNL     1     218.916  -6.485  24.665  1.00  0.00    -0.545 OA
ATOM      9  O   UNL     1     217.518  -7.648  26.047  1.00  0.00    -0.545 OA
ENDBRANCH   1   7
TORSDOF 1
ENDMDL
MODEL 6
REMARK VINA RESULT:    -4.497      3.598      4.985
REMARK INTER + INTRA:          -4.782
REMARK INTER:                  -4.758
REMARK INTRA:                  -0.024
REMARK UNBOUND:                -0.022
REMARK SMILES O=C([O-])c1cccnc1
REMARK SMILES IDX 4 1 5 2 9 3 6 4 8 5 7 6 2 7 1 8 3 9
REMARK H PARENT
REMARK Flexibility Score: inf
ROOT
ATOM      1  C   UNL     1     218.420  -7.552  26.292  1.00  0.00     0.016 A 
ATOM      2  C   UNL     1     217.384  -8.446  26.612  1.00  0.00     0.013 A 
ATOM      3  C   UNL     1     219.414  -7.311  27.254  1.00  0.00     0.120 A 
ATOM      4  C   UNL     1     217.358  -9.072  27.859  1.00  0.00     0.021 A 
ATOM      5  N   UNL     1     219.365  -7.933  28.462  1.00  0.00    -0.264 NA
ATOM      6  C   UNL     1     218.368  -8.800  28.782  1.00  0.00     0.111 A 
ENDROOT
BRANCH   1   7
ATOM      7  C   UNL     1     218.465  -6.879  24.976  1.00  0.00     0.073 C 
ATOM      8  O   UNL     1     219.385  -6.063  24.704  1.00  0.00    -0.545 OA
ATOM      9  O   UNL     1     217.490  -7.139  24.019  1.00  0.00    -0.545 OA
ENDBRANCH   1   7
TORSDOF 1
ENDMDL
MODEL 7
REMARK VINA RESULT:    -4.416      2.499      3.336
REMARK INTER + INTRA:          -4.696
REMARK INTER:                  -4.678
REMARK INTRA:                  -0.018
REMARK UNBOUND:                -0.022
REMARK SMILES O=C([O-])c1cccnc1
REMARK SMILES IDX 4 1 5 2 9 3 6 4 8 5 7 6 2 7 1 8 3 9
REMARK H PARENT
REMARK Flexibility Score: inf
ROOT
ATOM      1  C   UNL     1     217.841  -8.386  25.573  1.00  0.00     0.016 A 
ATOM      2  C   UNL     1     217.461  -7.269  24.809  1.00  0.00     0.013 A 
ATOM      3  C   UNL     1     218.393  -9.493  24.907  1.00  0.00     0.120 A 
ATOM      4  C   UNL     1     217.634  -7.275  23.425  1.00  0.00     0.021 A 
ATOM      5  N   UNL     1     218.551  -9.473  23.556  1.00  0.00    -0.264 NA
ATOM      6  C   UNL     1     218.186  -8.398  22.809  1.00  0.00     0.111 A 
ENDROOT
BRANCH   1   7
ATOM      7  C   UNL     1     217.665  -8.400  27.041  1.00  0.00     0.073 C 
ATOM      8  O   UNL     1     216.995  -9.310  27.598  1.00  0.00    -0.545 OA
ATOM      9  O   UNL     1     218.238  -7.406  27.828  1.00  0.00    -0.545 OA
ENDBRANCH   1   7
TORSDOF 1
ENDMDL
MODEL 8
REMARK VINA RESULT:    -4.398      1.802      1.947
REMARK INTER + INTRA:          -4.677
REMARK INTER:                  -4.660
REMARK INTRA:                  -0.017
REMARK UNBOUND:                -0.022
REMARK SMILES O=C([O-])c1cccnc1
REMARK SMILES IDX 4 1 5 2 9 3 6 4 8 5 7 6 2 7 1 8 3 9
REMARK H PARENT
REMARK Flexibility Score: inf
ROOT
ATOM      1  C   UNL     1     219.202  -8.157  24.110  1.00  0.00     0.016 A 
ATOM      2  C   UNL     1     220.161  -7.300  23.544  1.00  0.00     0.013 A 
ATOM      3  C   UNL     1     219.547  -9.504  24.312  1.00  0.00     0.120 A 
ATOM      4  C   UNL     1     221.421  -7.789  23.196  1.00  0.00     0.021 A 
ATOM      5  N   UNL     1     220.782  -9.955  23.964  1.00  0.00    -0.264 NA
ATOM      6  C   UNL     1     221.716  -9.134  23.415  1.00  0.00     0.111 A 
ENDROOT
BRANCH   1   7
ATOM      7  C   UNL     1     217.862  -7.657  24.485  1.00  0.00     0.073 C 
ATOM      8  O   UNL     1     217.501  -7.632  25.692  1.00  0.00    -0.545 OA
ATOM      9  O   UNL     1     216.979  -7.207  23.508  1.00  0.00    -0.545 OA
ENDBRANCH   1   7
TORSDOF 1
ENDMDL
