MODEL 1
REMARK VINA RESULT:    -3.185      0.000      0.000
REMARK INTER + INTRA:          -4.612
REMARK INTER:                  -4.302
REMARK INTRA:                  -0.310
REMARK UNBOUND:                -0.310
REMARK SMILES CCCCCCCC(C)=O
REMARK SMILES IDX 5 1 4 2 3 3 2 4 1 5 6 6 7 7 8 8 10 9 9 10
REMARK H PARENT
REMARK Flexibility Score: inf
ROOT
ATOM      1  C   UNL     1       4.938  -6.514  -5.115  1.00  0.00     0.000 C 
ENDROOT
BRANCH   1   2
ATOM      2  C   UNL     1       3.895  -6.749  -6.223  1.00  0.00     0.000 C 
BRANCH   2   3
ATOM      3  C   UNL     1       3.387  -5.473  -6.920  1.00  0.00    -0.000 C 
BRANCH   3   4
ATOM      4  C   UNL     1       2.001  -5.649  -7.556  1.00  0.00    -0.003 C 
ATOM      5  C   UNL     1       1.491  -7.076  -7.379  1.00  0.00     0.004 C 
ENDBRANCH   3   4
ENDBRANCH   2   3
ENDBRANCH   1   2
BRANCH   1   6
ATOM      6  C   UNL     1       5.506  -5.085  -5.121  1.00  0.00     0.008 C 
BRANCH   6   7
ATOM      7  C   UNL     1       6.065  -4.677  -3.751  1.00  0.00     0.075 C 
BRANCH   7   8
ATOM      8  C   UNL     1       6.225  -3.184  -3.627  1.00  0.00     0.129 C 
ATOM      9  O   UNL     1       6.932  -2.722  -2.745  1.00  0.00    -0.300 OA
ATOM     10  C   UNL     1       5.505  -2.251  -4.554  1.00  0.00     0.087 C 
ENDBRANCH   7   8
ENDBRANCH   6   7
ENDBRANCH   1   6
TORSDOF 6
ENDMDL
MODEL 2
REMARK VINA RESULT:    -3.171     14.103     15.275
REMARK INTER + INTRA:          -4.593
REMARK INTER:                  -3.917
REMARK INTRA:                  -0.676
REMARK UNBOUND:                -0.310
REMARK SMILES CCCCCCCC(C)=O
REMARK SMILES IDX 5 1 4 2 3 3 2 4 1 5 6 6 7 7 8 8 10 9 9 10
REMARK H PARENT
REMARK Flexibility Score: inf
ROOT
ATOM      1  C   UNL     1       7.763   3.274   5.419  1.00  0.00     0.000 C 
ENDROOT
BRANCH   1   2
ATOM      2  C   UNL     1       6.908   2.125   5.986  1.00  0.00     0.000 C 
BRANCH   2   3
ATOM      3  C   UNL     1       7.612   1.246   7.035  1.00  0.00    -0.000 C 
BRANCH   3   4
ATOM      4  C   UNL     1       6.866   1.200   8.376  1.00  0.00    -0.003 C 
ATOM      5  C   UNL     1       5.446   1.738   8.235  1.00  0.00     0.004 C 
ENDBRANCH   3   4
ENDBRANCH   2   3
ENDBRANCH   1   2
BRANCH   1   6
ATOM      6  C   UNL     1       6.941   4.538   5.115  1.00  0.00     0.008 C 
BRANCH   6   7
ATOM      7  C   UNL     1       5.560   4.507   5.784  1.00  0.00     0.075 C 
BRANCH   7   8
ATOM      8  C   UNL     1       5.457   5.497   6.915  1.00  0.00     0.129 C 
ATOM      9  O   UNL     1       4.638   6.401   6.855  1.00  0.00    -0.300 OA
ATOM     10  C   UNL     1       6.366   5.408   8.104  1.00  0.00     0.087 C 
ENDBRANCH   7   8
ENDBRANCH   6   7
ENDBRANCH   1   6
TORSDOF 6
ENDMDL
MODEL 3
REMARK VINA RESULT:    -3.155      2.682      4.731
REMARK INTER + INTRA:          -4.572
REMARK INTER:                  -4.050
REMARK INTRA:                  -0.522
REMARK UNBOUND:                -0.310
REMARK SMILES CCCCCCCC(C)=O
REMARK SMILES IDX 5 1 4 2 3 3 2 4 1 5 6 6 7 7 8 8 10 9 9 10
REMARK H PARENT
REMARK Flexibility Score: inf
ROOT
ATOM      1  C   UNL     1       4.828  -5.890  -5.953  1.00  0.00     0.000 C 
ENDROOT
BRANCH   1   2
ATOM      2  C   UNL     1       5.811  -4.814  -5.457  1.00  0.00     0.000 C 
BRANCH   2   3
ATOM      3  C   UNL     1       5.912  -4.680  -3.927  1.00  0.00    -0.000 C 
BRANCH   3   4
ATOM      4  C   UNL     1       6.265  -3.257  -3.471  1.00  0.00    -0.003 C 
ATOM      5  C   UNL     1       5.625  -2.213  -4.381  1.00  0.00     0.004 C 
ENDBRANCH   3   4
ENDBRANCH   2   3
ENDBRANCH   1   2
BRANCH   1   6
ATOM      6  C   UNL     1       3.589  -5.296  -6.644  1.00  0.00     0.008 C 
BRANCH   6   7
ATOM      7  C   UNL     1       3.860  -3.900  -7.221  1.00  0.00     0.075 C 
BRANCH   7   8
ATOM      8  C   UNL     1       2.686  -2.974  -7.036  1.00  0.00     0.129 C 
ATOM      9  O   UNL     1       1.551  -3.426  -7.052  1.00  0.00    -0.300 OA
ATOM     10  C   UNL     1       2.886  -1.499  -6.858  1.00  0.00     0.087 C 
ENDBRANCH   7   8
ENDBRANCH   6   7
ENDBRANCH   1   6
TORSDOF 6
ENDMDL
MODEL 4
REMARK VINA RESULT:    -3.123     12.318     13.872
REMARK INTER + INTRA:          -4.529
REMARK INTER:                  -4.252
REMARK INTRA:                  -0.277
REMARK UNBOUND:                -0.310
REMARK SMILES CCCCCCCC(C)=O
REMARK SMILES IDX 5 1 4 2 3 3 2 4 1 5 6 6 7 7 8 8 10 9 9 10
REMARK H PARENT
REMARK Flexibility Score: inf
ROOT
ATOM      1  C   UNL     1       7.345   1.292   5.680  1.00  0.00     0.000 C 
ENDROOT
BRANCH   1   2
ATOM      2  C   UNL     1       8.428   1.519   4.610  1.00  0.00     0.000 C 
BRANCH   2   3
ATOM      3  C   UNL     1       9.693   0.655   4.771  1.00  0.00    -0.000 C 
BRANCH   3   4
ATOM      4  C   UNL     1       9.477  -0.561   5.682  1.00  0.00    -0.003 C 
ATOM      5  C   UNL     1       9.567  -1.863   4.892  1.00  0.00     0.004 C 
ENDBRANCH   3   4
ENDBRANCH   2   3
ENDBRANCH   1   2
BRANCH   1   6
ATOM      6  C   UNL     1       6.981   2.575   6.445  1.00  0.00     0.008 C 
BRANCH   6   7
ATOM      7  C   UNL     1       6.875   3.793   5.517  1.00  0.00     0.075 C 
BRANCH   7   8
ATOM      8  C   UNL     1       5.683   4.653   5.846  1.00  0.00     0.129 C 
ATOM      9  O   UNL     1       4.694   4.616   5.131  1.00  0.00    -0.300 OA
ATOM     10  C   UNL     1       5.701   5.579   7.026  1.00  0.00     0.087 C 
ENDBRANCH   7   8
ENDBRANCH   6   7
ENDBRANCH   1   6
TORSDOF 6
ENDMDL
MODEL 5
REMARK VINA RESULT:    -3.119     13.152     14.318
REMARK INTER + INTRA:          -4.523
REMARK INTER:                  -3.953
REMARK INTRA:                  -0.570
REMARK UNBOUND:                -0.310
REMARK SMILES CCCCCCCC(C)=O
REMARK SMILES IDX 5 1 4 2 3 3 2 4 1 5 6 6 7 7 8 8 10 9 9 10
REMARK H PARENT
REMARK Flexibility Score: inf
ROOT
ATOM      1  C   UNL     1       7.233   1.121   7.249  1.00  0.00     0.000 C 
ENDROOT
BRANCH   1   2
ATOM      2  C   UNL     1       8.443   0.394   6.636  1.00  0.00     0.000 C 
BRANCH   2   3
ATOM      3  C   UNL     1       8.777   0.793   5.187  1.00  0.00    -0.000 C 
BRANCH   3   4
ATOM      4  C   UNL     1      10.150   1.467   5.052  1.00  0.00    -0.003 C 
ATOM      5  C   UNL     1      10.172   2.818   5.759  1.00  0.00     0.004 C 
ENDBRANCH   3   4
ENDBRANCH   2   3
ENDBRANCH   1   2
BRANCH   1   6
ATOM      6  C   UNL     1       6.415   1.904   6.209  1.00  0.00     0.008 C 
BRANCH   6   7
ATOM      7  C   UNL     1       5.978   3.280   6.731  1.00  0.00     0.075 C 
BRANCH   7   8
ATOM      8  C   UNL     1       5.889   4.301   5.627  1.00  0.00     0.129 C 
ATOM      9  O   UNL     1       4.795   4.691   5.249  1.00  0.00    -0.300 OA
ATOM     10  C   UNL     1       7.126   4.829   4.962  1.00  0.00     0.087 C 
ENDBRANCH   7   8
ENDBRANCH   6   7
ENDBRANCH   1   6
TORSDOF 6
ENDMDL
MODEL 6
REMARK VINA RESULT:    -3.098      3.125      4.742
REMARK INTER + INTRA:          -4.496
REMARK INTER:                  -4.229
REMARK INTRA:                  -0.267
REMARK UNBOUND:                -0.310
REMARK SMILES CCCCCCCC(C)=O
REMARK SMILES IDX 5 1 4 2 3 3 2 4 1 5 6 6 7 7 8 8 10 9 9 10
REMARK H PARENT
REMARK Flexibility Score: inf
ROOT
ATOM      1  C   UNL     1       3.146  -5.479  -7.389  1.00  0.00     0.000 C 
ENDROOT
BRANCH   1   2
ATOM      2  C   UNL     1       4.289  -5.152  -6.411  1.00  0.00     0.000 C 
BRANCH   2   3
ATOM      3  C   UNL     1       4.694  -6.305  -5.475  1.00  0.00    -0.000 C 
BRANCH   3   4
ATOM      4  C   UNL     1       3.817  -7.553  -5.646  1.00  0.00    -0.003 C 
ATOM      5  C   UNL     1       4.277  -8.680  -4.728  1.00  0.00     0.004 C 
ENDBRANCH   3   4
ENDBRANCH   2   3
ENDBRANCH   1   2
BRANCH   1   6
ATOM      6  C   UNL     1       1.994  -4.461  -7.324  1.00  0.00     0.008 C 
BRANCH   6   7
ATOM      7  C   UNL     1       2.499  -3.011  -7.350  1.00  0.00     0.075 C 
BRANCH   7   8
ATOM      8  C   UNL     1       1.375  -2.025  -7.535  1.00  0.00     0.129 C 
ATOM      9  O   UNL     1       1.306  -1.044  -6.811  1.00  0.00    -0.300 OA
ATOM     10  C   UNL     1       0.320  -2.243  -8.579  1.00  0.00     0.087 C 
ENDBRANCH   7   8
ENDBRANCH   6   7
ENDBRANCH   1   6
TORSDOF 6
ENDMDL
MODEL 7
REMARK VINA RESULT:    -3.064     13.667     15.231
REMARK INTER + INTRA:          -4.449
REMARK INTER:                  -4.074
REMARK INTRA:                  -0.375
REMARK UNBOUND:                -0.310
REMARK SMILES CCCCCCCC(C)=O
REMARK SMILES IDX 5 1 4 2 3 3 2 4 1 5 6 6 7 7 8 8 10 9 9 10
REMARK H PARENT
REMARK Flexibility Score: inf
ROOT
ATOM      1  C   UNL     1       6.976   4.532   4.950  1.00  0.00     0.000 C 
ENDROOT
BRANCH   1   2
ATOM      2  C   UNL     1       8.047   3.603   5.550  1.00  0.00     0.000 C 
BRANCH   2   3
ATOM      3  C   UNL     1       8.102   2.192   4.936  1.00  0.00    -0.000 C 
BRANCH   3   4
ATOM      4  C   UNL     1       7.601   1.102   5.895  1.00  0.00    -0.003 C 
ATOM      5  C   UNL     1       8.682   0.057   6.153  1.00  0.00     0.004 C 
ENDBRANCH   3   4
ENDBRANCH   2   3
ENDBRANCH   1   2
BRANCH   1   6
ATOM      6  C   UNL     1       5.622   4.430   5.672  1.00  0.00     0.008 C 
BRANCH   6   7
ATOM      7  C   UNL     1       5.718   4.851   7.146  1.00  0.00     0.075 C 
BRANCH   7   8
ATOM      8  C   UNL     1       5.493   6.329   7.327  1.00  0.00     0.129 C 
ATOM      9  O   UNL     1       4.381   6.799   7.146  1.00  0.00    -0.300 OA
ATOM     10  C   UNL     1       6.623   7.242   7.703  1.00  0.00     0.087 C 
ENDBRANCH   7   8
ENDBRANCH   6   7
ENDBRANCH   1   6
TORSDOF 6
ENDMDL
MODEL 8
REMARK VINA RESULT:    -3.041     15.232     15.955
REMARK INTER + INTRA:          -4.418
REMARK INTER:                  -4.138
REMARK INTRA:                  -0.280
REMARK UNBOUND:                -0.310
REMARK SMILES CCCCCCCC(C)=O
REMARK SMILES IDX 5 1 4 2 3 3 2 4 1 5 6 6 7 7 8 8 10 9 9 10
REMARK H PARENT
REMARK Flexibility Score: inf
ROOT
ATOM      1  C   UNL     1      -8.322   1.397   2.523  1.00  0.00     0.000 C 
ENDROOT
BRANCH   1   2
ATOM      2  C   UNL     1      -7.796   0.906   1.162  1.00  0.00     0.000 C 
BRANCH   2   3
ATOM      3  C   UNL     1      -7.927   1.919   0.010  1.00  0.00    -0.000 C 
BRANCH   3   4
ATOM      4  C   UNL     1      -6.690   2.815  -0.144  1.00  0.00    -0.003 C 
ATOM      5  C   UNL     1      -6.951   4.213   0.410  1.00  0.00     0.004 C 
ENDBRANCH   3   4
ENDBRANCH   2   3
ENDBRANCH   1   2
BRANCH   1   6
ATOM      6  C   UNL     1      -8.726   0.245   3.459  1.00  0.00     0.008 C 
BRANCH   6   7
ATOM      7  C   UNL     1      -7.512  -0.559   3.947  1.00  0.00     0.075 C 
BRANCH   7   8
ATOM      8  C   UNL     1      -7.604  -2.011   3.559  1.00  0.00     0.129 C 
ATOM      9  O   UNL     1      -7.195  -2.374   2.467  1.00  0.00    -0.300 OA
ATOM     10  C   UNL     1      -8.217  -3.020   4.484  1.00  0.00     0.087 C 
ENDBRANCH   7   8
ENDBRANCH   6   7
ENDBRANCH   1   6
TORSDOF 6
ENDMDL
MODEL 9
REMARK VINA RESULT:    -3.036     12.616     13.953
REMARK INTER + INTRA:          -4.411
REMARK INTER:                  -3.922
REMARK INTRA:                  -0.489
REMARK UNBOUND:                -0.310
REMARK SMILES CCCCCCCC(C)=O
REMARK SMILES IDX 5 1 4 2 3 3 2 4 1 5 6 6 7 7 8 8 10 9 9 10
REMARK H PARENT
REMARK Flexibility Score: inf
ROOT
ATOM      1  C   UNL     1       7.680   1.694   7.095  1.00  0.00     0.000 C 
ENDROOT
BRANCH   1   2
ATOM      2  C   UNL     1       6.994   3.063   7.257  1.00  0.00     0.000 C 
BRANCH   2   3
ATOM      3  C   UNL     1       5.656   3.214   6.510  1.00  0.00    -0.000 C 
BRANCH   3   4
ATOM      4  C   UNL     1       5.587   4.488   5.656  1.00  0.00    -0.003 C 
ATOM      5  C   UNL     1       6.958   4.849   5.094  1.00  0.00     0.004 C 
ENDBRANCH   3   4
ENDBRANCH   2   3
ENDBRANCH   1   2
BRANCH   1   6
ATOM      6  C   UNL     1       7.480   1.087   5.696  1.00  0.00     0.008 C 
BRANCH   6   7
ATOM      7  C   UNL     1       8.500   1.622   4.680  1.00  0.00     0.075 C 
BRANCH   7   8
ATOM      8  C   UNL     1       9.696   0.717   4.550  1.00  0.00     0.129 C 
ATOM      9  O   UNL     1      10.707   1.125   3.999  1.00  0.00    -0.300 OA
ATOM     10  C   UNL     1       9.659  -0.692   5.063  1.00  0.00     0.087 C 
ENDBRANCH   7   8
ENDBRANCH   6   7
ENDBRANCH   1   6
TORSDOF 6
ENDMDL
