MODEL 1
REMARK VINA RESULT:     1.951      0.000      0.000
REMARK INTER + INTRA:           2.196
REMARK INTER:                   3.092
REMARK INTRA:                  -0.896
REMARK UNBOUND:                -0.896
REMARK SMILES CCCCCCCCCCCC(=O)[O-]
REMARK SMILES IDX 7 1 8 2 9 3 10 4 11 5 12 6 13 7 14 8 6 9 5 10 4 11 3 12 2 13
REMARK SMILES IDX 1 14
REMARK H PARENT
REMARK Flexibility Score: inf
ROOT
ATOM      1  C   UNL     1     -17.527  42.523  -3.682  1.00  0.00     0.000 C 
ENDROOT
BRANCH   1   2
ATOM      2  C   UNL     1     -17.382  41.195  -2.916  1.00  0.00     0.000 C 
BRANCH   2   3
ATOM      3  C   UNL     1     -18.650  40.322  -2.875  1.00  0.00     0.000 C 
BRANCH   3   4
ATOM      4  C   UNL     1     -19.844  40.876  -3.674  1.00  0.00     0.006 C 
BRANCH   4   5
ATOM      5  C   UNL     1     -21.123  40.050  -3.487  1.00  0.00     0.053 C 
BRANCH   5   6
ATOM      6  C   UNL     1     -20.957  38.689  -4.085  1.00  0.00     0.041 C 
ATOM      7  O   UNL     1     -20.941  38.543  -5.336  1.00  0.00    -0.550 OA
ATOM      8  O   UNL     1     -20.868  37.574  -3.261  1.00  0.00    -0.550 OA
ENDBRANCH   5   6
ENDBRANCH   4   5
ENDBRANCH   3   4
ENDBRANCH   2   3
ENDBRANCH   1   2
BRANCH   1   9
ATOM      9  C   UNL     1     -17.046  43.756  -2.887  1.00  0.00     0.000 C 
BRANCH   9  10
ATOM     10  C   UNL     1     -18.084  44.891  -2.877  1.00  0.00    -0.000 C 
BRANCH  10  11
ATOM     11  C   UNL     1     -19.530  44.370  -2.876  1.00  0.00    -0.000 C 
BRANCH  11  12
ATOM     12  C   UNL     1     -20.353  44.911  -4.055  1.00  0.00    -0.000 C 
BRANCH  12  13
ATOM     13  C   UNL     1     -20.785  43.776  -4.989  1.00  0.00    -0.003 C 
ATOM     14  C   UNL     1     -20.951  44.273  -6.422  1.00  0.00     0.004 C 
ENDBRANCH  12  13
ENDBRANCH  11  12
ENDBRANCH  10  11
ENDBRANCH   9  10
ENDBRANCH   1   9
TORSDOF 10
ENDMDL
MODEL 2
REMARK VINA RESULT:     2.972     12.412     14.626
REMARK INTER + INTRA:           3.814
REMARK INTER:                   2.968
REMARK INTRA:                   0.846
REMARK UNBOUND:                -0.896
REMARK SMILES CCCCCCCCCCCC(=O)[O-]
REMARK SMILES IDX 7 1 8 2 9 3 10 4 11 5 12 6 13 7 14 8 6 9 5 10 4 11 3 12 2 13
REMARK SMILES IDX 1 14
REMARK H PARENT
REMARK Flexibility Score: inf
ROOT
ATOM      1  C   UNL     1     -17.277  27.152  -3.698  1.00  0.00     0.000 C 
ENDROOT
BRANCH   1   2
ATOM      2  C   UNL     1     -17.240  25.847  -2.881  1.00  0.00     0.000 C 
BRANCH   2   3
ATOM      3  C   UNL     1     -18.404  24.875  -3.150  1.00  0.00     0.000 C 
BRANCH   3   4
ATOM      4  C   UNL     1     -19.806  25.452  -2.878  1.00  0.00     0.006 C 
BRANCH   4   5
ATOM      5  C   UNL     1     -20.831  25.061  -3.949  1.00  0.00     0.053 C 
BRANCH   5   6
ATOM      6  C   UNL     1     -20.506  25.724  -5.250  1.00  0.00     0.041 C 
ATOM      7  O   UNL     1     -20.957  25.258  -6.330  1.00  0.00    -0.550 OA
ATOM      8  O   UNL     1     -19.665  26.829  -5.275  1.00  0.00    -0.550 OA
ENDBRANCH   5   6
ENDBRANCH   4   5
ENDBRANCH   3   4
ENDBRANCH   2   3
ENDBRANCH   1   2
BRANCH   1   9
ATOM      9  C   UNL     1     -16.906  28.409  -2.880  1.00  0.00     0.000 C 
BRANCH   9  10
ATOM     10  C   UNL     1     -18.007  29.482  -2.919  1.00  0.00    -0.000 C 
BRANCH  10  11
ATOM     11  C   UNL     1     -19.421  28.880  -2.879  1.00  0.00    -0.000 C 
BRANCH  11  12
ATOM     12  C   UNL     1     -20.519  29.949  -2.977  1.00  0.00    -0.000 C 
BRANCH  12  13
ATOM     13  C   UNL     1     -20.810  30.305  -4.440  1.00  0.00    -0.003 C 
ATOM     14  C   UNL     1     -20.832  29.057  -5.318  1.00  0.00     0.004 C 
ENDBRANCH  12  13
ENDBRANCH  11  12
ENDBRANCH  10  11
ENDBRANCH   9  10
ENDBRANCH   1   9
TORSDOF 10
ENDMDL
