MODEL 1
REMARK VINA RESULT:     1.514      0.000      0.000
REMARK INTER + INTRA:           1.953
REMARK INTER:                   1.646
REMARK INTRA:                   0.307
REMARK UNBOUND:                 0.307
REMARK SMILES CC(=O)[C@H]1CC[C@H]2[C@H]3CC=C4C[C@H](O)CC[C@@]4(C)[C@@H]3CC[C@]12C
REMARK SMILES IDX 4 1 5 2 6 3 7 4 22 5 21 6 20 7 19 8 8 9 9 10 10 11 11 12
REMARK SMILES IDX 17 13 16 14 15 15 13 16 12 17 18 18 23 19 2 20 1 21 3 22
REMARK SMILES IDX 14 23
REMARK H PARENT 14 24
REMARK Flexibility Score: inf
ROOT
ATOM      1  C   UNL     1      71.109  68.157  82.161  1.00  0.00     0.062 C 
ATOM      2  C   UNL     1      69.695  68.593  82.636  1.00  0.00     0.012 C 
ATOM      3  C   UNL     1      69.745  70.122  82.822  1.00  0.00     0.005 C 
ATOM      4  C   UNL     1      71.123  70.512  82.302  1.00  0.00    -0.001 C 
ATOM      5  C   UNL     1      72.040  69.317  82.603  1.00  0.00    -0.020 C 
ATOM      6  C   UNL     1      73.355  69.451  81.760  1.00  0.00     0.008 C 
ATOM      7  C   UNL     1      73.733  70.918  81.391  1.00  0.00     0.005 C 
ATOM      8  C   UNL     1      73.262  71.930  82.468  1.00  0.00     0.003 C 
ATOM      9  C   UNL     1      71.713  71.918  82.601  1.00  0.00     0.000 C 
ATOM     10  C   UNL     1      71.328  72.563  83.934  1.00  0.00     0.031 C 
ATOM     11  C   UNL     1      71.997  73.910  84.086  1.00  0.00    -0.027 C 
ATOM     12  C   UNL     1      73.129  74.279  83.425  1.00  0.00    -0.065 C 
ATOM     13  C   UNL     1      73.797  73.401  82.345  1.00  0.00    -0.008 C 
ATOM     14  C   UNL     1      75.341  73.408  82.586  1.00  0.00     0.014 C 
ATOM     15  C   UNL     1      75.932  74.810  82.815  1.00  0.00     0.033 C 
ATOM     16  C   UNL     1      75.229  75.528  83.973  1.00  0.00     0.118 C 
ATOM     17  C   UNL     1      73.723  75.644  83.703  1.00  0.00     0.063 C 
ATOM     18  C   UNL     1      73.499  73.996  80.942  1.00  0.00     0.016 C 
ATOM     19  C   UNL     1      72.368  69.157  84.124  1.00  0.00     0.012 C 
ENDROOT
BRANCH   1  20
ATOM     20  C   UNL     1      71.568  66.772  82.594  1.00  0.00     0.133 C 
ATOM     21  C   UNL     1      71.532  66.310  84.023  1.00  0.00     0.088 C 
ATOM     22  O   UNL     1      71.981  66.001  81.741  1.00  0.00    -0.300 OA
ENDBRANCH   1  20
BRANCH  16  23
ATOM     23  O   UNL     1      75.787  76.806  84.124  1.00  0.00    -0.393 OA
ATOM     24  H   UNL     1      75.045  77.457  84.017  1.00  0.00     0.210 HD
ENDBRANCH  16  23
TORSDOF 2
ENDMDL
MODEL 2
REMARK VINA RESULT:     2.462      4.463     10.205
REMARK INTER + INTRA:           2.985
REMARK INTER:                   2.693
REMARK INTRA:                   0.292
REMARK UNBOUND:                 0.307
REMARK SMILES CC(=O)[C@H]1CC[C@H]2[C@H]3CC=C4C[C@H](O)CC[C@@]4(C)[C@@H]3CC[C@]12C
REMARK SMILES IDX 4 1 5 2 6 3 7 4 22 5 21 6 20 7 19 8 8 9 9 10 10 11 11 12
REMARK SMILES IDX 17 13 16 14 15 15 13 16 12 17 18 18 23 19 2 20 1 21 3 22
REMARK SMILES IDX 14 23
REMARK H PARENT 14 24
REMARK Flexibility Score: inf
ROOT
ATOM      1  C   UNL     1      78.102  81.120  82.174  1.00  0.00     0.062 C 
ATOM      2  C   UNL     1      79.512  80.700  82.675  1.00  0.00     0.012 C 
ATOM      3  C   UNL     1      79.472  79.172  82.870  1.00  0.00     0.005 C 
ATOM      4  C   UNL     1      78.106  78.766  82.332  1.00  0.00    -0.001 C 
ATOM      5  C   UNL     1      77.174  79.955  82.609  1.00  0.00    -0.020 C 
ATOM      6  C   UNL     1      75.874  79.804  81.746  1.00  0.00     0.008 C 
ATOM      7  C   UNL     1      75.514  78.331  81.382  1.00  0.00     0.005 C 
ATOM      8  C   UNL     1      75.977  77.330  82.474  1.00  0.00     0.003 C 
ATOM      9  C   UNL     1      77.524  77.356  82.631  1.00  0.00     0.000 C 
ATOM     10  C   UNL     1      77.894  76.725  83.974  1.00  0.00     0.031 C 
ATOM     11  C   UNL     1      77.233  75.373  84.125  1.00  0.00    -0.027 C 
ATOM     12  C   UNL     1      76.115  74.989  83.449  1.00  0.00    -0.065 C 
ATOM     13  C   UNL     1      75.457  75.854  82.352  1.00  0.00    -0.008 C 
ATOM     14  C   UNL     1      73.909  75.835  82.569  1.00  0.00     0.014 C 
ATOM     15  C   UNL     1      73.328  74.429  82.799  1.00  0.00     0.033 C 
ATOM     16  C   UNL     1      74.018  73.725  83.973  1.00  0.00     0.118 C 
ATOM     17  C   UNL     1      75.529  73.620  83.727  1.00  0.00     0.063 C 
ATOM     18  C   UNL     1      75.783  75.251  80.958  1.00  0.00     0.016 C 
ATOM     19  C   UNL     1      76.821  80.122  84.124  1.00  0.00     0.012 C 
ENDROOT
BRANCH   1  20
ATOM     20  C   UNL     1      77.623  82.504  82.590  1.00  0.00     0.133 C 
ATOM     21  C   UNL     1      77.649  82.982  84.014  1.00  0.00     0.088 C 
ATOM     22  O   UNL     1      77.204  83.260  81.727  1.00  0.00    -0.300 OA
ENDBRANCH   1  20
BRANCH  16  23
ATOM     23  O   UNL     1      73.469  72.443  84.123  1.00  0.00    -0.393 OA
ATOM     24  H   UNL     1      74.074  71.815  83.649  1.00  0.00     0.210 HD
ENDBRANCH  16  23
TORSDOF 2
ENDMDL
