MODEL 1
REMARK VINA RESULT:    -3.559      0.000      0.000
REMARK INTER + INTRA:          -6.919
REMARK INTER:                  -6.264
REMARK INTRA:                  -0.654
REMARK UNBOUND:                -0.654
REMARK SMILES CCCCCCCCCCCCCCC(=O)[O-]
REMARK SMILES IDX 9 1 10 2 11 3 12 4 13 5 14 6 15 7 16 8 17 9 8 10 7 11 6 12
REMARK SMILES IDX 5 13 4 14 3 15 2 16 1 17
REMARK H PARENT
REMARK Flexibility Score: inf
ROOT
ATOM      1  C   UNL     1      14.284  -7.205   4.597  1.00  0.00     0.000 C 
ENDROOT
BRANCH   1   2
ATOM      2  C   UNL     1      14.488  -7.737   6.028  1.00  0.00     0.000 C 
BRANCH   2   3
ATOM      3  C   UNL     1      15.802  -7.251   6.659  1.00  0.00     0.000 C 
BRANCH   3   4
ATOM      4  C   UNL     1      17.043  -7.852   5.978  1.00  0.00     0.000 C 
BRANCH   4   5
ATOM      5  C   UNL     1      18.082  -6.778   5.593  1.00  0.00     0.006 C 
BRANCH   5   6
ATOM      6  C   UNL     1      19.467  -7.015   6.215  1.00  0.00     0.053 C 
BRANCH   6   7
ATOM      7  C   UNL     1      19.391  -7.287   7.685  1.00  0.00     0.041 C 
ATOM      8  O   UNL     1      18.891  -6.433   8.464  1.00  0.00    -0.550 OA
ATOM      9  O   UNL     1      19.847  -8.497   8.192  1.00  0.00    -0.550 OA
ENDBRANCH   6   7
ENDBRANCH   5   6
ENDBRANCH   4   5
ENDBRANCH   3   4
ENDBRANCH   2   3
ENDBRANCH   1   2
BRANCH   1  10
ATOM     10  C   UNL     1      12.792  -7.064   4.226  1.00  0.00     0.000 C 
BRANCH  10  11
ATOM     11  C   UNL     1      11.863  -8.011   5.010  1.00  0.00    -0.000 C 
BRANCH  11  12
ATOM     12  C   UNL     1      10.807  -7.314   5.889  1.00  0.00    -0.000 C 
BRANCH  12  13
ATOM     13  C   UNL     1       9.345  -7.615   5.512  1.00  0.00    -0.000 C 
BRANCH  13  14
ATOM     14  C   UNL     1       9.001  -9.113   5.588  1.00  0.00    -0.000 C 
BRANCH  14  15
ATOM     15  C   UNL     1       7.806  -9.393   6.525  1.00  0.00    -0.000 C 
BRANCH  15  16
ATOM     16  C   UNL     1       8.177  -9.391   8.018  1.00  0.00    -0.003 C 
ATOM     17  C   UNL     1       7.100 -10.013   8.905  1.00  0.00     0.004 C 
ENDBRANCH  15  16
ENDBRANCH  14  15
ENDBRANCH  13  14
ENDBRANCH  12  13
ENDBRANCH  11  12
ENDBRANCH  10  11
ENDBRANCH   1  10
TORSDOF 13
ENDMDL
MODEL 2
REMARK VINA RESULT:    -3.547      4.049      8.976
REMARK INTER + INTRA:          -6.897
REMARK INTER:                  -5.889
REMARK INTRA:                  -1.008
REMARK UNBOUND:                -0.654
REMARK SMILES CCCCCCCCCCCCCCC(=O)[O-]
REMARK SMILES IDX 9 1 10 2 11 3 12 4 13 5 14 6 15 7 16 8 17 9 8 10 7 11 6 12
REMARK SMILES IDX 5 13 4 14 3 15 2 16 1 17
REMARK H PARENT
REMARK Flexibility Score: inf
ROOT
ATOM      1  C   UNL     1      14.247  -7.518   6.117  1.00  0.00     0.000 C 
ENDROOT
BRANCH   1   2
ATOM      2  C   UNL     1      13.817  -7.220   4.668  1.00  0.00     0.000 C 
BRANCH   2   3
ATOM      3  C   UNL     1      12.299  -7.028   4.528  1.00  0.00     0.000 C 
BRANCH   3   4
ATOM      4  C   UNL     1      11.539  -7.355   5.825  1.00  0.00     0.000 C 
BRANCH   4   5
ATOM      5  C   UNL     1      10.008  -7.297   5.642  1.00  0.00     0.006 C 
BRANCH   5   6
ATOM      6  C   UNL     1       9.351  -8.683   5.534  1.00  0.00     0.053 C 
BRANCH   6   7
ATOM      7  C   UNL     1       8.239  -8.862   6.519  1.00  0.00     0.041 C 
ATOM      8  O   UNL     1       7.043  -8.682   6.166  1.00  0.00    -0.550 OA
ATOM      9  O   UNL     1       8.520  -9.254   7.822  1.00  0.00    -0.550 OA
ENDBRANCH   6   7
ENDBRANCH   5   6
ENDBRANCH   4   5
ENDBRANCH   3   4
ENDBRANCH   2   3
ENDBRANCH   1   2
BRANCH   1  10
ATOM     10  C   UNL     1      15.773  -7.401   6.316  1.00  0.00     0.000 C 
BRANCH  10  11
ATOM     11  C   UNL     1      16.482  -6.573   5.226  1.00  0.00    -0.000 C 
BRANCH  11  12
ATOM     12  C   UNL     1      17.746  -7.222   4.630  1.00  0.00    -0.000 C 
BRANCH  12  13
ATOM     13  C   UNL     1      19.021  -6.363   4.716  1.00  0.00    -0.000 C 
BRANCH  13  14
ATOM     14  C   UNL     1      20.131  -7.019   5.556  1.00  0.00    -0.000 C 
BRANCH  14  15
ATOM     15  C   UNL     1      19.600  -8.184   6.420  1.00  0.00    -0.000 C 
BRANCH  15  16
ATOM     16  C   UNL     1      19.630  -7.898   7.931  1.00  0.00    -0.003 C 
ATOM     17  C   UNL     1      18.998  -6.558   8.302  1.00  0.00     0.004 C 
ENDBRANCH  15  16
ENDBRANCH  14  15
ENDBRANCH  13  14
ENDBRANCH  12  13
ENDBRANCH  11  12
ENDBRANCH  10  11
ENDBRANCH   1  10
TORSDOF 13
ENDMDL
MODEL 3
REMARK VINA RESULT:    -3.500      1.025      1.759
REMARK INTER + INTRA:          -6.814
REMARK INTER:                  -6.034
REMARK INTRA:                  -0.779
REMARK UNBOUND:                -0.654
REMARK SMILES CCCCCCCCCCCCCCC(=O)[O-]
REMARK SMILES IDX 9 1 10 2 11 3 12 4 13 5 14 6 15 7 16 8 17 9 8 10 7 11 6 12
REMARK SMILES IDX 5 13 4 14 3 15 2 16 1 17
REMARK H PARENT
REMARK Flexibility Score: inf
ROOT
ATOM      1  C   UNL     1      12.120  -7.180   4.805  1.00  0.00     0.000 C 
ENDROOT
BRANCH   1   2
ATOM      2  C   UNL     1      13.398  -8.038   4.832  1.00  0.00     0.000 C 
BRANCH   2   3
ATOM      3  C   UNL     1      14.660  -7.212   5.123  1.00  0.00     0.000 C 
BRANCH   3   4
ATOM      4  C   UNL     1      15.338  -7.613   6.444  1.00  0.00     0.000 C 
BRANCH   4   5
ATOM      5  C   UNL     1      16.469  -6.642   6.844  1.00  0.00     0.006 C 
BRANCH   5   6
ATOM      6  C   UNL     1      17.851  -7.059   6.315  1.00  0.00     0.053 C 
BRANCH   6   7
ATOM      7  C   UNL     1      18.861  -7.198   7.411  1.00  0.00     0.041 C 
ATOM      8  O   UNL     1      18.856  -6.397   8.383  1.00  0.00    -0.550 OA
ATOM      9  O   UNL     1      19.791  -8.229   7.373  1.00  0.00    -0.550 OA
ENDBRANCH   6   7
ENDBRANCH   5   6
ENDBRANCH   4   5
ENDBRANCH   3   4
ENDBRANCH   2   3
ENDBRANCH   1   2
BRANCH   1  10
ATOM     10  C   UNL     1      11.357  -7.215   6.147  1.00  0.00     0.000 C 
BRANCH  10  11
ATOM     11  C   UNL     1       9.981  -7.904   6.064  1.00  0.00    -0.000 C 
BRANCH  11  12
ATOM     12  C   UNL     1       9.825  -8.918   4.915  1.00  0.00    -0.000 C 
BRANCH  12  13
ATOM     13  C   UNL     1       8.413  -9.511   4.755  1.00  0.00    -0.000 C 
BRANCH  13  14
ATOM     14  C   UNL     1       7.303  -8.447   4.840  1.00  0.00    -0.000 C 
BRANCH  14  15
ATOM     15  C   UNL     1       6.514  -8.528   6.164  1.00  0.00    -0.000 C 
BRANCH  15  16
ATOM     16  C   UNL     1       6.758  -9.827   6.952  1.00  0.00    -0.003 C 
ATOM     17  C   UNL     1       7.428  -9.593   8.304  1.00  0.00     0.004 C 
ENDBRANCH  15  16
ENDBRANCH  14  15
ENDBRANCH  13  14
ENDBRANCH  12  13
ENDBRANCH  11  12
ENDBRANCH  10  11
ENDBRANCH   1  10
TORSDOF 13
ENDMDL
MODEL 4
REMARK VINA RESULT:    -3.392      1.497      2.836
REMARK INTER + INTRA:          -6.624
REMARK INTER:                  -5.653
REMARK INTRA:                  -0.970
REMARK UNBOUND:                -0.654
REMARK SMILES CCCCCCCCCCCCCCC(=O)[O-]
REMARK SMILES IDX 9 1 10 2 11 3 12 4 13 5 14 6 15 7 16 8 17 9 8 10 7 11 6 12
REMARK SMILES IDX 5 13 4 14 3 15 2 16 1 17
REMARK H PARENT
REMARK Flexibility Score: inf
ROOT
ATOM      1  C   UNL     1      10.509  -6.753   5.423  1.00  0.00     0.000 C 
ENDROOT
BRANCH   1   2
ATOM      2  C   UNL     1      11.726  -7.136   4.561  1.00  0.00     0.000 C 
BRANCH   2   3
ATOM      3  C   UNL     1      12.955  -7.507   5.405  1.00  0.00     0.000 C 
BRANCH   3   4
ATOM      4  C   UNL     1      14.231  -7.656   4.559  1.00  0.00     0.000 C 
BRANCH   4   5
ATOM      5  C   UNL     1      15.384  -6.766   5.070  1.00  0.00     0.006 C 
BRANCH   5   6
ATOM      6  C   UNL     1      15.949  -7.214   6.427  1.00  0.00     0.053 C 
BRANCH   6   7
ATOM      7  C   UNL     1      17.439  -7.361   6.400  1.00  0.00     0.041 C 
ATOM      8  O   UNL     1      18.152  -6.748   7.238  1.00  0.00    -0.550 OA
ATOM      9  O   UNL     1      18.038  -8.197   5.467  1.00  0.00    -0.550 OA
ENDBRANCH   6   7
ENDBRANCH   5   6
ENDBRANCH   4   5
ENDBRANCH   3   4
ENDBRANCH   2   3
ENDBRANCH   1   2
BRANCH   1  10
ATOM     10  C   UNL     1       9.434  -5.988   4.620  1.00  0.00     0.000 C 
BRANCH  10  11
ATOM     11  C   UNL     1       8.300  -6.885   4.086  1.00  0.00    -0.000 C 
BRANCH  11  12
ATOM     12  C   UNL     1       7.013  -6.887   4.933  1.00  0.00    -0.000 C 
BRANCH  12  13
ATOM     13  C   UNL     1       6.640  -8.249   5.548  1.00  0.00    -0.000 C 
BRANCH  13  14
ATOM     14  C   UNL     1       7.677  -9.346   5.249  1.00  0.00    -0.000 C 
BRANCH  14  15
ATOM     15  C   UNL     1       8.432  -9.798   6.518  1.00  0.00    -0.000 C 
BRANCH  15  16
ATOM     16  C   UNL     1       7.941  -9.115   7.807  1.00  0.00    -0.003 C 
ATOM     17  C   UNL     1       7.192 -10.064   8.740  1.00  0.00     0.004 C 
ENDBRANCH  15  16
ENDBRANCH  14  15
ENDBRANCH  13  14
ENDBRANCH  12  13
ENDBRANCH  11  12
ENDBRANCH  10  11
ENDBRANCH   1  10
TORSDOF 13
ENDMDL
MODEL 5
REMARK VINA RESULT:    -3.276      3.567      5.813
REMARK INTER + INTRA:          -6.421
REMARK INTER:                  -4.930
REMARK INTRA:                  -1.491
REMARK UNBOUND:                -0.654
REMARK SMILES CCCCCCCCCCCCCCC(=O)[O-]
REMARK SMILES IDX 9 1 10 2 11 3 12 4 13 5 14 6 15 7 16 8 17 9 8 10 7 11 6 12
REMARK SMILES IDX 5 13 4 14 3 15 2 16 1 17
REMARK H PARENT
REMARK Flexibility Score: inf
ROOT
ATOM      1  C   UNL     1      19.785  -8.513   7.790  1.00  0.00     0.000 C 
ENDROOT
BRANCH   1   2
ATOM      2  C   UNL     1      18.980  -9.267   6.715  1.00  0.00     0.000 C 
BRANCH   2   3
ATOM      3  C   UNL     1      19.735  -9.383   5.382  1.00  0.00     0.000 C 
BRANCH   3   4
ATOM      4  C   UNL     1      19.243  -8.371   4.333  1.00  0.00     0.000 C 
BRANCH   4   5
ATOM      5  C   UNL     1      20.358  -7.407   3.876  1.00  0.00     0.006 C 
BRANCH   5   6
ATOM      6  C   UNL     1      20.000  -5.924   4.063  1.00  0.00     0.053 C 
BRANCH   6   7
ATOM      7  C   UNL     1      21.191  -5.094   4.430  1.00  0.00     0.041 C 
ATOM      8  O   UNL     1      22.265  -5.649   4.787  1.00  0.00    -0.550 OA
ATOM      9  O   UNL     1      21.125  -3.709   4.351  1.00  0.00    -0.550 OA
ENDBRANCH   6   7
ENDBRANCH   5   6
ENDBRANCH   4   5
ENDBRANCH   3   4
ENDBRANCH   2   3
ENDBRANCH   1   2
BRANCH   1  10
ATOM     10  C   UNL     1      19.035  -7.276   8.329  1.00  0.00     0.000 C 
BRANCH  10  11
ATOM     11  C   UNL     1      18.364  -6.427   7.232  1.00  0.00    -0.000 C 
BRANCH  11  12
ATOM     12  C   UNL     1      16.867  -6.713   7.007  1.00  0.00    -0.000 C 
BRANCH  12  13
ATOM     13  C   UNL     1      16.318  -6.267   5.639  1.00  0.00    -0.000 C 
BRANCH  13  14
ATOM     14  C   UNL     1      15.672  -7.418   4.847  1.00  0.00    -0.000 C 
BRANCH  14  15
ATOM     15  C   UNL     1      14.734  -8.276   5.723  1.00  0.00    -0.000 C 
BRANCH  15  16
ATOM     16  C   UNL     1      13.350  -7.643   5.952  1.00  0.00    -0.003 C 
ATOM     17  C   UNL     1      12.604  -7.344   4.654  1.00  0.00     0.004 C 
ENDBRANCH  15  16
ENDBRANCH  14  15
ENDBRANCH  13  14
ENDBRANCH  12  13
ENDBRANCH  11  12
ENDBRANCH  10  11
ENDBRANCH   1  10
TORSDOF 13
ENDMDL
MODEL 6
REMARK VINA RESULT:    -3.269      1.913      2.455
REMARK INTER + INTRA:          -6.408
REMARK INTER:                  -5.793
REMARK INTRA:                  -0.615
REMARK UNBOUND:                -0.654
REMARK SMILES CCCCCCCCCCCCCCC(=O)[O-]
REMARK SMILES IDX 9 1 10 2 11 3 12 4 13 5 14 6 15 7 16 8 17 9 8 10 7 11 6 12
REMARK SMILES IDX 5 13 4 14 3 15 2 16 1 17
REMARK H PARENT
REMARK Flexibility Score: inf
ROOT
ATOM      1  C   UNL     1      12.901  -7.829   4.695  1.00  0.00     0.000 C 
ENDROOT
BRANCH   1   2
ATOM      2  C   UNL     1      14.434  -7.849   4.840  1.00  0.00     0.000 C 
BRANCH   2   3
ATOM      3  C   UNL     1      14.896  -7.591   6.282  1.00  0.00     0.000 C 
BRANCH   3   4
ATOM      4  C   UNL     1      16.197  -6.773   6.350  1.00  0.00     0.000 C 
BRANCH   4   5
ATOM      5  C   UNL     1      17.418  -7.567   5.842  1.00  0.00     0.006 C 
BRANCH   5   6
ATOM      6  C   UNL     1      18.764  -6.909   6.188  1.00  0.00     0.053 C 
BRANCH   6   7
ATOM      7  C   UNL     1      19.213  -7.233   7.579  1.00  0.00     0.041 C 
ATOM      8  O   UNL     1      18.964  -6.441   8.526  1.00  0.00    -0.550 OA
ATOM      9  O   UNL     1      19.882  -8.423   7.834  1.00  0.00    -0.550 OA
ENDBRANCH   6   7
ENDBRANCH   5   6
ENDBRANCH   4   5
ENDBRANCH   3   4
ENDBRANCH   2   3
ENDBRANCH   1   2
BRANCH   1  10
ATOM     10  C   UNL     1      12.188  -7.467   6.016  1.00  0.00     0.000 C 
BRANCH  10  11
ATOM     11  C   UNL     1      10.701  -7.101   5.841  1.00  0.00    -0.000 C 
BRANCH  11  12
ATOM     12  C   UNL     1      10.324  -6.534   4.459  1.00  0.00    -0.000 C 
BRANCH  12  13
ATOM     13  C   UNL     1       8.922  -5.902   4.375  1.00  0.00    -0.000 C 
BRANCH  13  14
ATOM     14  C   UNL     1       7.843  -6.895   3.906  1.00  0.00    -0.000 C 
BRANCH  14  15
ATOM     15  C   UNL     1       6.885  -7.299   5.048  1.00  0.00    -0.000 C 
BRANCH  15  16
ATOM     16  C   UNL     1       5.709  -6.326   5.243  1.00  0.00    -0.003 C 
ATOM     17  C   UNL     1       4.580  -6.539   4.237  1.00  0.00     0.004 C 
ENDBRANCH  15  16
ENDBRANCH  14  15
ENDBRANCH  13  14
ENDBRANCH  12  13
ENDBRANCH  11  12
ENDBRANCH  10  11
ENDBRANCH   1  10
TORSDOF 13
ENDMDL
MODEL 7
REMARK VINA RESULT:    -3.269      2.084      4.155
REMARK INTER + INTRA:          -6.407
REMARK INTER:                  -5.228
REMARK INTRA:                  -1.179
REMARK UNBOUND:                -0.654
REMARK SMILES CCCCCCCCCCCCCCC(=O)[O-]
REMARK SMILES IDX 9 1 10 2 11 3 12 4 13 5 14 6 15 7 16 8 17 9 8 10 7 11 6 12
REMARK SMILES IDX 5 13 4 14 3 15 2 16 1 17
REMARK H PARENT
REMARK Flexibility Score: inf
ROOT
ATOM      1  C   UNL     1      10.271  -7.382   5.812  1.00  0.00     0.000 C 
ENDROOT
BRANCH   1   2
ATOM      2  C   UNL     1      10.706  -6.955   4.398  1.00  0.00     0.000 C 
BRANCH   2   3
ATOM      3  C   UNL     1      12.230  -7.003   4.208  1.00  0.00     0.000 C 
BRANCH   3   4
ATOM      4  C   UNL     1      12.971  -7.458   5.477  1.00  0.00     0.000 C 
BRANCH   4   5
ATOM      5  C   UNL     1      14.192  -8.346   5.160  1.00  0.00     0.006 C 
BRANCH   5   6
ATOM      6  C   UNL     1      15.282  -8.299   6.244  1.00  0.00     0.053 C 
BRANCH   6   7
ATOM      7  C   UNL     1      16.020  -6.998   6.251  1.00  0.00     0.041 C 
ATOM      8  O   UNL     1      16.269  -6.403   5.169  1.00  0.00    -0.550 OA
ATOM      9  O   UNL     1      16.411  -6.426   7.455  1.00  0.00    -0.550 OA
ENDBRANCH   6   7
ENDBRANCH   5   6
ENDBRANCH   4   5
ENDBRANCH   3   4
ENDBRANCH   2   3
ENDBRANCH   1   2
BRANCH   1  10
ATOM     10  C   UNL     1       9.321  -8.599   5.795  1.00  0.00     0.000 C 
BRANCH  10  11
ATOM     11  C   UNL     1       8.852  -9.042   7.195  1.00  0.00    -0.000 C 
BRANCH  11  12
ATOM     12  C   UNL     1       7.478  -9.738   7.236  1.00  0.00    -0.000 C 
BRANCH  12  13
ATOM     13  C   UNL     1       6.877 -10.073   5.858  1.00  0.00    -0.000 C 
BRANCH  13  14
ATOM     14  C   UNL     1       5.389  -9.697   5.745  1.00  0.00    -0.000 C 
BRANCH  14  15
ATOM     15  C   UNL     1       5.162  -8.478   4.825  1.00  0.00    -0.000 C 
BRANCH  15  16
ATOM     16  C   UNL     1       5.722  -7.161   5.391  1.00  0.00    -0.003 C 
ATOM     17  C   UNL     1       6.673  -6.452   4.430  1.00  0.00     0.004 C 
ENDBRANCH  15  16
ENDBRANCH  14  15
ENDBRANCH  13  14
ENDBRANCH  12  13
ENDBRANCH  11  12
ENDBRANCH  10  11
ENDBRANCH   1  10
TORSDOF 13
ENDMDL
MODEL 8
REMARK VINA RESULT:    -3.199      4.705      9.210
REMARK INTER + INTRA:          -6.284
REMARK INTER:                  -5.382
REMARK INTRA:                  -0.903
REMARK UNBOUND:                -0.654
REMARK SMILES CCCCCCCCCCCCCCC(=O)[O-]
REMARK SMILES IDX 9 1 10 2 11 3 12 4 13 5 14 6 15 7 16 8 17 9 8 10 7 11 6 12
REMARK SMILES IDX 5 13 4 14 3 15 2 16 1 17
REMARK H PARENT
REMARK Flexibility Score: inf
ROOT
ATOM      1  C   UNL     1      12.199  -7.465   6.139  1.00  0.00     0.000 C 
ENDROOT
BRANCH   1   2
ATOM      2  C   UNL     1      10.725  -7.251   5.748  1.00  0.00     0.000 C 
BRANCH   2   3
ATOM      3  C   UNL     1      10.227  -8.286   4.727  1.00  0.00     0.000 C 
BRANCH   3   4
ATOM      4  C   UNL     1       9.217  -9.275   5.332  1.00  0.00     0.000 C 
BRANCH   4   5
ATOM      5  C   UNL     1       8.836  -8.914   6.784  1.00  0.00     0.006 C 
BRANCH   5   6
ATOM      6  C   UNL     1       7.356  -9.168   7.110  1.00  0.00     0.053 C 
BRANCH   6   7
ATOM      7  C   UNL     1       6.450  -8.774   5.986  1.00  0.00     0.041 C 
ATOM      8  O   UNL     1       6.283  -7.558   5.703  1.00  0.00    -0.550 OA
ATOM      9  O   UNL     1       5.812  -9.750   5.232  1.00  0.00    -0.550 OA
ENDBRANCH   6   7
ENDBRANCH   5   6
ENDBRANCH   4   5
ENDBRANCH   3   4
ENDBRANCH   2   3
ENDBRANCH   1   2
BRANCH   1  10
ATOM     10  C   UNL     1      13.147  -7.408   4.922  1.00  0.00     0.000 C 
BRANCH  10  11
ATOM     11  C   UNL     1      14.324  -8.400   5.002  1.00  0.00    -0.000 C 
BRANCH  11  12
ATOM     12  C   UNL     1      15.139  -8.345   6.309  1.00  0.00    -0.000 C 
BRANCH  12  13
ATOM     13  C   UNL     1      15.877  -7.017   6.561  1.00  0.00    -0.000 C 
BRANCH  13  14
ATOM     14  C   UNL     1      16.696  -6.546   5.346  1.00  0.00    -0.000 C 
BRANCH  14  15
ATOM     15  C   UNL     1      18.157  -7.044   5.397  1.00  0.00    -0.000 C 
BRANCH  15  16
ATOM     16  C   UNL     1      18.764  -7.039   6.811  1.00  0.00    -0.003 C 
ATOM     17  C   UNL     1      19.516  -8.324   7.146  1.00  0.00     0.004 C 
ENDBRANCH  15  16
ENDBRANCH  14  15
ENDBRANCH  13  14
ENDBRANCH  12  13
ENDBRANCH  11  12
ENDBRANCH  10  11
ENDBRANCH   1  10
TORSDOF 13
ENDMDL
MODEL 9
REMARK VINA RESULT:    -3.194      2.335      3.034
REMARK INTER + INTRA:          -6.276
REMARK INTER:                  -5.634
REMARK INTRA:                  -0.642
REMARK UNBOUND:                -0.654
REMARK SMILES CCCCCCCCCCCCCCC(=O)[O-]
REMARK SMILES IDX 9 1 10 2 11 3 12 4 13 5 14 6 15 7 16 8 17 9 8 10 7 11 6 12
REMARK SMILES IDX 5 13 4 14 3 15 2 16 1 17
REMARK H PARENT
REMARK Flexibility Score: inf
ROOT
ATOM      1  C   UNL     1      15.426  -7.306   6.605  1.00  0.00     0.000 C 
ENDROOT
BRANCH   1   2
ATOM      2  C   UNL     1      16.376  -6.374   5.829  1.00  0.00     0.000 C 
BRANCH   2   3
ATOM      3  C   UNL     1      17.353  -7.143   4.926  1.00  0.00     0.000 C 
BRANCH   3   4
ATOM      4  C   UNL     1      18.760  -7.254   5.536  1.00  0.00     0.000 C 
BRANCH   4   5
ATOM      5  C   UNL     1      19.874  -7.021   4.494  1.00  0.00     0.006 C 
BRANCH   5   6
ATOM      6  C   UNL     1      19.891  -5.593   3.924  1.00  0.00     0.053 C 
BRANCH   6   7
ATOM      7  C   UNL     1      21.145  -4.856   4.275  1.00  0.00     0.041 C 
ATOM      8  O   UNL     1      22.173  -5.489   4.635  1.00  0.00    -0.550 OA
ATOM      9  O   UNL     1      21.188  -3.471   4.178  1.00  0.00    -0.550 OA
ENDBRANCH   6   7
ENDBRANCH   5   6
ENDBRANCH   4   5
ENDBRANCH   3   4
ENDBRANCH   2   3
ENDBRANCH   1   2
BRANCH   1  10
ATOM     10  C   UNL     1      15.043  -8.564   5.797  1.00  0.00     0.000 C 
BRANCH  10  11
ATOM     11  C   UNL     1      13.735  -8.416   4.996  1.00  0.00    -0.000 C 
BRANCH  11  12
ATOM     12  C   UNL     1      12.677  -7.497   5.635  1.00  0.00    -0.000 C 
BRANCH  12  13
ATOM     13  C   UNL     1      11.425  -7.246   4.773  1.00  0.00    -0.000 C 
BRANCH  13  14
ATOM     14  C   UNL     1      10.374  -8.363   4.904  1.00  0.00    -0.000 C 
BRANCH  14  15
ATOM     15  C   UNL     1       9.453  -8.159   6.126  1.00  0.00    -0.000 C 
BRANCH  15  16
ATOM     16  C   UNL     1       8.511  -9.346   6.397  1.00  0.00    -0.003 C 
ATOM     17  C   UNL     1       8.275  -9.597   7.884  1.00  0.00     0.004 C 
ENDBRANCH  15  16
ENDBRANCH  14  15
ENDBRANCH  13  14
ENDBRANCH  12  13
ENDBRANCH  11  12
ENDBRANCH  10  11
ENDBRANCH   1  10
TORSDOF 13
ENDMDL
