MODEL 1
REMARK VINA RESULT:    -8.078      0.000      0.000
REMARK INTER + INTRA:          -9.269
REMARK INTER:                  -8.786
REMARK INTRA:                  -0.483
REMARK UNBOUND:                -0.483
REMARK SMILES C=C(C)[C@H]1CC[C@]2(C)CC[C@@]3(C)[C@H](CC[C@H]4[C@]5(C)CC[C@H](O)C(C)(C)[C@@H]5CC[C@]43C)[C@H]12
REMARK SMILES IDX 4 1 5 2 6 3 7 4 31 5 13 6 14 7 15 8 16 9 17 10 19 11 20 12
REMARK SMILES IDX 21 13 23 14 26 15 27 16 28 17 29 18 11 19 10 20 9 21 12 22
REMARK SMILES IDX 30 23 24 24 25 25 18 26 8 27 2 28 3 29 1 30 22 31
REMARK H PARENT 22 32
REMARK Flexibility Score: inf
ROOT
ATOM      1  C   UNL     1     -27.163 -14.832  -0.930  1.00  0.00     0.018 C 
ATOM      2  C   UNL     1     -28.264 -14.644   0.134  1.00  0.00     0.009 C 
ATOM      3  C   UNL     1     -29.355 -13.751  -0.471  1.00  0.00     0.008 C 
ATOM      4  C   UNL     1     -28.846 -13.248  -1.840  1.00  0.00    -0.029 C 
ATOM      5  C   UNL     1     -27.749 -14.278  -2.259  1.00  0.00     0.006 C 
ATOM      6  C   UNL     1     -28.231 -15.412  -3.243  1.00  0.00    -0.000 C 
ATOM      7  C   UNL     1     -29.044 -16.533  -2.533  1.00  0.00     0.005 C 
ATOM      8  C   UNL     1     -29.962 -17.366  -3.433  1.00  0.00     0.005 C 
ATOM      9  C   UNL     1     -29.424 -17.523  -4.878  1.00  0.00     0.002 C 
ATOM     10  C   UNL     1     -30.165 -18.707  -5.733  1.00  0.00    -0.026 C 
ATOM     11  C   UNL     1     -29.098 -19.504  -6.559  1.00  0.00     0.010 C 
ATOM     12  C   UNL     1     -29.671 -20.563  -7.510  1.00  0.00     0.033 C 
ATOM     13  C   UNL     1     -30.692 -19.966  -8.489  1.00  0.00     0.120 C 
ATOM     14  C   UNL     1     -31.871 -19.235  -7.768  1.00  0.00    -0.006 C 
ATOM     15  C   UNL     1     -31.331 -18.178  -6.684  1.00  0.00     0.003 C 
ATOM     16  C   UNL     1     -30.970 -16.824  -7.342  1.00  0.00     0.005 C 
ATOM     17  C   UNL     1     -30.589 -15.764  -6.321  1.00  0.00     0.008 C 
ATOM     18  C   UNL     1     -29.289 -16.070  -5.547  1.00  0.00    -0.024 C 
ATOM     19  C   UNL     1     -29.001 -14.851  -4.472  1.00  0.00    -0.024 C 
ATOM     20  C   UNL     1     -30.287 -14.157  -3.896  1.00  0.00     0.008 C 
ATOM     21  C   UNL     1     -30.021 -13.041  -2.863  1.00  0.00     0.007 C 
ATOM     22  C   UNL     1     -28.167 -13.707  -5.153  1.00  0.00     0.012 C 
ATOM     23  C   UNL     1     -28.103 -16.125  -6.572  1.00  0.00     0.012 C 
ATOM     24  C   UNL     1     -32.744 -18.546  -8.863  1.00  0.00     0.014 C 
ATOM     25  C   UNL     1     -32.827 -20.288  -7.113  1.00  0.00     0.014 C 
ATOM     26  C   UNL     1     -30.769 -19.753  -4.739  1.00  0.00     0.012 C 
ATOM     27  C   UNL     1     -28.196 -11.854  -1.625  1.00  0.00     0.011 C 
ENDROOT
BRANCH   1  28
ATOM     28  C   UNL     1     -25.778 -14.247  -0.617  1.00  0.00    -0.077 C 
ATOM     29  C   UNL     1     -25.522 -13.761   0.788  1.00  0.00     0.039 C 
ATOM     30  C   UNL     1     -24.762 -14.169  -1.497  1.00  0.00     0.008 C 
ENDBRANCH   1  28
BRANCH  13  31
ATOM     31  O   UNL     1     -30.028 -19.091  -9.369  1.00  0.00    -0.393 OA
ATOM     32  H   UNL     1     -30.277 -19.359 -10.292  1.00  0.00     0.210 HD
ENDBRANCH  13  31
TORSDOF 2
ENDMDL
MODEL 2
REMARK VINA RESULT:    -7.814      3.678      7.322
REMARK INTER + INTRA:          -8.982
REMARK INTER:                  -8.476
REMARK INTRA:                  -0.506
REMARK UNBOUND:                -0.483
REMARK SMILES C=C(C)[C@H]1CC[C@]2(C)CC[C@@]3(C)[C@H](CC[C@H]4[C@]5(C)CC[C@H](O)C(C)(C)[C@@H]5CC[C@]43C)[C@H]12
REMARK SMILES IDX 4 1 5 2 6 3 7 4 31 5 13 6 14 7 15 8 16 9 17 10 19 11 20 12
REMARK SMILES IDX 21 13 23 14 26 15 27 16 28 17 29 18 11 19 10 20 9 21 12 22
REMARK SMILES IDX 30 23 24 24 25 25 18 26 8 27 2 28 3 29 1 30 22 31
REMARK H PARENT 22 32
REMARK Flexibility Score: inf
ROOT
ATOM      1  C   UNL     1     -29.508 -16.259  -6.247  1.00  0.00     0.018 C 
ATOM      2  C   UNL     1     -28.133 -16.737  -6.757  1.00  0.00     0.009 C 
ATOM      3  C   UNL     1     -28.287 -18.185  -7.240  1.00  0.00     0.008 C 
ATOM      4  C   UNL     1     -29.709 -18.656  -6.869  1.00  0.00    -0.029 C 
ATOM      5  C   UNL     1     -30.532 -17.339  -6.696  1.00  0.00     0.006 C 
ATOM      6  C   UNL     1     -31.378 -16.904  -7.954  1.00  0.00    -0.000 C 
ATOM      7  C   UNL     1     -30.517 -16.247  -9.072  1.00  0.00     0.005 C 
ATOM      8  C   UNL     1     -31.121 -16.267 -10.480  1.00  0.00     0.005 C 
ATOM      9  C   UNL     1     -32.670 -16.202 -10.482  1.00  0.00     0.002 C 
ATOM     10  C   UNL     1     -33.312 -15.832 -11.942  1.00  0.00    -0.026 C 
ATOM     11  C   UNL     1     -34.492 -14.818 -11.754  1.00  0.00     0.010 C 
ATOM     12  C   UNL     1     -35.272 -14.484 -13.032  1.00  0.00     0.033 C 
ATOM     13  C   UNL     1     -35.822 -15.744 -13.718  1.00  0.00     0.120 C 
ATOM     14  C   UNL     1     -34.707 -16.787 -14.056  1.00  0.00    -0.006 C 
ATOM     15  C   UNL     1     -33.792 -17.105 -12.774  1.00  0.00     0.003 C 
ATOM     16  C   UNL     1     -34.440 -18.178 -11.866  1.00  0.00     0.005 C 
ATOM     17  C   UNL     1     -33.532 -18.597 -10.721  1.00  0.00     0.008 C 
ATOM     18  C   UNL     1     -33.247 -17.477  -9.696  1.00  0.00    -0.024 C 
ATOM     19  C   UNL     1     -32.247 -18.062  -8.522  1.00  0.00    -0.024 C 
ATOM     20  C   UNL     1     -31.237 -19.166  -8.998  1.00  0.00     0.008 C 
ATOM     21  C   UNL     1     -30.276 -19.689  -7.909  1.00  0.00     0.007 C 
ATOM     22  C   UNL     1     -33.086 -18.720  -7.367  1.00  0.00     0.012 C 
ATOM     23  C   UNL     1     -34.605 -17.054  -9.034  1.00  0.00     0.012 C 
ATOM     24  C   UNL     1     -35.408 -18.072 -14.599  1.00  0.00     0.014 C 
ATOM     25  C   UNL     1     -33.847 -16.274 -15.260  1.00  0.00     0.014 C 
ATOM     26  C   UNL     1     -32.247 -15.057 -12.787  1.00  0.00     0.012 C 
ATOM     27  C   UNL     1     -29.627 -19.400  -5.507  1.00  0.00     0.011 C 
ENDROOT
BRANCH   1  28
ATOM     28  C   UNL     1     -29.627 -15.934  -4.751  1.00  0.00    -0.077 C 
ATOM     29  C   UNL     1     -31.005 -15.668  -4.197  1.00  0.00     0.039 C 
ATOM     30  C   UNL     1     -28.594 -15.904  -3.888  1.00  0.00     0.008 C 
ENDBRANCH   1  28
BRANCH  13  31
ATOM     31  O   UNL     1     -36.810 -16.319 -12.898  1.00  0.00    -0.393 OA
ATOM     32  H   UNL     1     -36.823 -15.803 -12.050  1.00  0.00     0.210 HD
ENDBRANCH  13  31
TORSDOF 2
ENDMDL
MODEL 3
REMARK VINA RESULT:    -7.756      5.213      7.395
REMARK INTER + INTRA:          -8.919
REMARK INTER:                  -8.436
REMARK INTRA:                  -0.483
REMARK UNBOUND:                -0.483
REMARK SMILES C=C(C)[C@H]1CC[C@]2(C)CC[C@@]3(C)[C@H](CC[C@H]4[C@]5(C)CC[C@H](O)C(C)(C)[C@@H]5CC[C@]43C)[C@H]12
REMARK SMILES IDX 4 1 5 2 6 3 7 4 31 5 13 6 14 7 15 8 16 9 17 10 19 11 20 12
REMARK SMILES IDX 21 13 23 14 26 15 27 16 28 17 29 18 11 19 10 20 9 21 12 22
REMARK SMILES IDX 30 23 24 24 25 25 18 26 8 27 2 28 3 29 1 30 22 31
REMARK H PARENT 22 32
REMARK Flexibility Score: inf
ROOT
ATOM      1  C   UNL     1     -29.185 -12.500  -0.955  1.00  0.00     0.018 C 
ATOM      2  C   UNL     1     -27.968 -12.074  -1.804  1.00  0.00     0.009 C 
ATOM      3  C   UNL     1     -26.727 -12.124  -0.904  1.00  0.00     0.008 C 
ATOM      4  C   UNL     1     -27.201 -12.410   0.537  1.00  0.00    -0.029 C 
ATOM      5  C   UNL     1     -28.606 -13.071   0.370  1.00  0.00     0.006 C 
ATOM      6  C   UNL     1     -28.619 -14.647   0.422  1.00  0.00    -0.000 C 
ATOM      7  C   UNL     1     -28.126 -15.306  -0.900  1.00  0.00     0.005 C 
ATOM      8  C   UNL     1     -27.623 -16.749  -0.780  1.00  0.00     0.005 C 
ATOM      9  C   UNL     1     -28.341 -17.557   0.330  1.00  0.00     0.002 C 
ATOM     10  C   UNL     1     -28.111 -19.174   0.221  1.00  0.00    -0.026 C 
ATOM     11  C   UNL     1     -29.460 -19.918   0.513  1.00  0.00     0.010 C 
ATOM     12  C   UNL     1     -29.360 -21.447   0.574  1.00  0.00     0.033 C 
ATOM     13  C   UNL     1     -28.319 -21.916   1.600  1.00  0.00     0.120 C 
ATOM     14  C   UNL     1     -26.897 -21.320   1.341  1.00  0.00    -0.006 C 
ATOM     15  C   UNL     1     -26.952 -19.723   1.170  1.00  0.00     0.003 C 
ATOM     16  C   UNL     1     -26.939 -19.004   2.541  1.00  0.00     0.005 C 
ATOM     17  C   UNL     1     -26.851 -17.493   2.405  1.00  0.00     0.008 C 
ATOM     18  C   UNL     1     -28.086 -16.843   1.745  1.00  0.00    -0.024 C 
ATOM     19  C   UNL     1     -27.853 -15.213   1.651  1.00  0.00    -0.024 C 
ATOM     20  C   UNL     1     -26.359 -14.764   1.474  1.00  0.00     0.008 C 
ATOM     21  C   UNL     1     -26.143 -13.241   1.350  1.00  0.00     0.007 C 
ATOM     22  C   UNL     1     -28.356 -14.512   2.966  1.00  0.00     0.012 C 
ATOM     23  C   UNL     1     -29.336 -17.121   2.651  1.00  0.00     0.012 C 
ATOM     24  C   UNL     1     -25.979 -21.743   2.531  1.00  0.00     0.014 C 
ATOM     25  C   UNL     1     -26.254 -22.007   0.089  1.00  0.00     0.014 C 
ATOM     26  C   UNL     1     -27.760 -19.543  -1.258  1.00  0.00     0.012 C 
ATOM     27  C   UNL     1     -27.351 -11.048   1.270  1.00  0.00     0.011 C 
ENDROOT
BRANCH   1  28
ATOM     28  C   UNL     1     -30.270 -11.443  -0.706  1.00  0.00    -0.077 C 
ATOM     29  C   UNL     1     -31.511 -11.872   0.036  1.00  0.00     0.039 C 
ATOM     30  C   UNL     1     -30.180 -10.150  -1.071  1.00  0.00     0.008 C 
ENDBRANCH   1  28
BRANCH  13  31
ATOM     31  O   UNL     1     -28.767 -21.587   2.893  1.00  0.00    -0.393 OA
ATOM     32  H   UNL     1     -28.935 -22.441   3.371  1.00  0.00     0.210 HD
ENDBRANCH  13  31
TORSDOF 2
ENDMDL
MODEL 4
REMARK VINA RESULT:    -7.652      1.816      4.144
REMARK INTER + INTRA:          -8.805
REMARK INTER:                  -8.294
REMARK INTRA:                  -0.511
REMARK UNBOUND:                -0.483
REMARK SMILES C=C(C)[C@H]1CC[C@]2(C)CC[C@@]3(C)[C@H](CC[C@H]4[C@]5(C)CC[C@H](O)C(C)(C)[C@@H]5CC[C@]43C)[C@H]12
REMARK SMILES IDX 4 1 5 2 6 3 7 4 31 5 13 6 14 7 15 8 16 9 17 10 19 11 20 12
REMARK SMILES IDX 21 13 23 14 26 15 27 16 28 17 29 18 11 19 10 20 9 21 12 22
REMARK SMILES IDX 30 23 24 24 25 25 18 26 8 27 2 28 3 29 1 30 22 31
REMARK H PARENT 22 32
REMARK Flexibility Score: inf
ROOT
ATOM      1  C   UNL     1     -29.660 -11.169  -0.829  1.00  0.00     0.018 C 
ATOM      2  C   UNL     1     -28.172 -10.771  -0.744  1.00  0.00     0.009 C 
ATOM      3  C   UNL     1     -27.399 -11.963  -0.165  1.00  0.00     0.008 C 
ATOM      4  C   UNL     1     -28.430 -13.027   0.269  1.00  0.00    -0.029 C 
ATOM      5  C   UNL     1     -29.713 -12.699  -0.561  1.00  0.00     0.006 C 
ATOM      6  C   UNL     1     -29.901 -13.551  -1.875  1.00  0.00    -0.000 C 
ATOM      7  C   UNL     1     -28.993 -13.076  -3.046  1.00  0.00     0.005 C 
ATOM      8  C   UNL     1     -28.724 -14.110  -4.145  1.00  0.00     0.005 C 
ATOM      9  C   UNL     1     -29.899 -15.098  -4.357  1.00  0.00     0.002 C 
ATOM     10  C   UNL     1     -29.806 -15.943  -5.756  1.00  0.00    -0.026 C 
ATOM     11  C   UNL     1     -31.226 -16.029  -6.413  1.00  0.00     0.010 C 
ATOM     12  C   UNL     1     -31.311 -16.907  -7.668  1.00  0.00     0.033 C 
ATOM     13  C   UNL     1     -30.813 -18.336  -7.406  1.00  0.00     0.120 C 
ATOM     14  C   UNL     1     -29.353 -18.379  -6.847  1.00  0.00    -0.006 C 
ATOM     15  C   UNL     1     -29.177 -17.399  -5.586  1.00  0.00     0.003 C 
ATOM     16  C   UNL     1     -29.637 -18.077  -4.272  1.00  0.00     0.005 C 
ATOM     17  C   UNL     1     -29.353 -17.223  -3.047  1.00  0.00     0.008 C 
ATOM     18  C   UNL     1     -30.155 -15.905  -2.993  1.00  0.00    -0.024 C 
ATOM     19  C   UNL     1     -29.745 -15.078  -1.626  1.00  0.00    -0.024 C 
ATOM     20  C   UNL     1     -28.265 -15.288  -1.142  1.00  0.00     0.008 C 
ATOM     21  C   UNL     1     -27.868 -14.487   0.116  1.00  0.00     0.007 C 
ATOM     22  C   UNL     1     -30.654 -15.523  -0.424  1.00  0.00     0.012 C 
ATOM     23  C   UNL     1     -31.683 -16.257  -2.927  1.00  0.00     0.012 C 
ATOM     24  C   UNL     1     -29.028 -19.860  -6.479  1.00  0.00     0.014 C 
ATOM     25  C   UNL     1     -28.339 -18.029  -7.988  1.00  0.00     0.014 C 
ATOM     26  C   UNL     1     -28.937 -15.141  -6.781  1.00  0.00     0.012 C 
ATOM     27  C   UNL     1     -28.723 -12.822   1.781  1.00  0.00     0.011 C 
ENDROOT
BRANCH   1  28
ATOM     28  C   UNL     1     -30.645 -10.390   0.055  1.00  0.00    -0.077 C 
ATOM     29  C   UNL     1     -31.869 -11.119   0.553  1.00  0.00     0.039 C 
ATOM     30  C   UNL     1     -30.478  -9.114   0.450  1.00  0.00     0.008 C 
ENDBRANCH   1  28
BRANCH  13  31
ATOM     31  O   UNL     1     -31.701 -18.977  -6.523  1.00  0.00    -0.393 OA
ATOM     32  H   UNL     1     -31.901 -18.336  -5.791  1.00  0.00     0.210 HD
ENDBRANCH  13  31
TORSDOF 2
ENDMDL
MODEL 5
REMARK VINA RESULT:    -7.534      2.374      7.981
REMARK INTER + INTRA:          -8.677
REMARK INTER:                  -8.186
REMARK INTRA:                  -0.491
REMARK UNBOUND:                -0.483
REMARK SMILES C=C(C)[C@H]1CC[C@]2(C)CC[C@@]3(C)[C@H](CC[C@H]4[C@]5(C)CC[C@H](O)C(C)(C)[C@@H]5CC[C@]43C)[C@H]12
REMARK SMILES IDX 4 1 5 2 6 3 7 4 31 5 13 6 14 7 15 8 16 9 17 10 19 11 20 12
REMARK SMILES IDX 21 13 23 14 26 15 27 16 28 17 29 18 11 19 10 20 9 21 12 22
REMARK SMILES IDX 30 23 24 24 25 25 18 26 8 27 2 28 3 29 1 30 22 31
REMARK H PARENT 22 32
REMARK Flexibility Score: inf
ROOT
ATOM      1  C   UNL     1     -31.406 -19.380  -5.927  1.00  0.00     0.018 C 
ATOM      2  C   UNL     1     -30.339 -20.468  -6.166  1.00  0.00     0.009 C 
ATOM      3  C   UNL     1     -29.193 -19.836  -6.965  1.00  0.00     0.008 C 
ATOM      4  C   UNL     1     -29.630 -18.411  -7.368  1.00  0.00    -0.029 C 
ATOM      5  C   UNL     1     -30.750 -18.034  -6.346  1.00  0.00     0.006 C 
ATOM      6  C   UNL     1     -30.275 -17.168  -5.117  1.00  0.00    -0.000 C 
ATOM      7  C   UNL     1     -29.533 -18.002  -4.032  1.00  0.00     0.005 C 
ATOM      8  C   UNL     1     -28.614 -17.211  -3.094  1.00  0.00     0.005 C 
ATOM      9  C   UNL     1     -29.104 -15.764  -2.834  1.00  0.00     0.002 C 
ATOM     10  C   UNL     1     -28.377 -15.042  -1.557  1.00  0.00    -0.026 C 
ATOM     11  C   UNL     1     -29.442 -14.242  -0.731  1.00  0.00     0.010 C 
ATOM     12  C   UNL     1     -28.875 -13.406   0.424  1.00  0.00     0.033 C 
ATOM     13  C   UNL     1     -27.796 -12.423  -0.052  1.00  0.00     0.120 C 
ATOM     14  C   UNL     1     -26.618 -13.128  -0.800  1.00  0.00    -0.006 C 
ATOM     15  C   UNL     1     -27.157 -14.098  -1.962  1.00  0.00     0.003 C 
ATOM     16  C   UNL     1     -27.440 -13.316  -3.268  1.00  0.00     0.005 C 
ATOM     17  C   UNL     1     -27.819 -14.228  -4.423  1.00  0.00     0.008 C 
ATOM     18  C   UNL     1     -29.157 -14.972  -4.230  1.00  0.00    -0.024 C 
ATOM     19  C   UNL     1     -29.438 -15.929  -5.544  1.00  0.00    -0.024 C 
ATOM     20  C   UNL     1     -28.149 -16.497  -6.239  1.00  0.00     0.008 C 
ATOM     21  C   UNL     1     -28.410 -17.423  -7.447  1.00  0.00     0.007 C 
ATOM     22  C   UNL     1     -30.202 -15.122  -6.655  1.00  0.00     0.012 C 
ATOM     23  C   UNL     1     -30.306 -13.908  -4.130  1.00  0.00     0.012 C 
ATOM     24  C   UNL     1     -25.678 -12.016  -1.363  1.00  0.00     0.014 C 
ATOM     25  C   UNL     1     -25.728 -13.907   0.228  1.00  0.00     0.014 C 
ATOM     26  C   UNL     1     -27.852 -16.143  -0.578  1.00  0.00     0.012 C 
ATOM     27  C   UNL     1     -30.234 -18.482  -8.798  1.00  0.00     0.011 C 
ENDROOT
BRANCH   1  28
ATOM     28  C   UNL     1     -32.778 -19.586  -6.585  1.00  0.00    -0.077 C 
ATOM     29  C   UNL     1     -33.494 -18.368  -7.113  1.00  0.00     0.039 C 
ATOM     30  C   UNL     1     -33.373 -20.782  -6.760  1.00  0.00     0.008 C 
ENDBRANCH   1  28
BRANCH  13  31
ATOM     31  O   UNL     1     -28.392 -11.448  -0.872  1.00  0.00    -0.393 OA
ATOM     32  H   UNL     1     -27.684 -11.101  -1.476  1.00  0.00     0.210 HD
ENDBRANCH  13  31
TORSDOF 2
ENDMDL
MODEL 6
REMARK VINA RESULT:    -7.527      2.704      8.190
REMARK INTER + INTRA:          -8.670
REMARK INTER:                  -8.198
REMARK INTRA:                  -0.472
REMARK UNBOUND:                -0.483
REMARK SMILES C=C(C)[C@H]1CC[C@]2(C)CC[C@@]3(C)[C@H](CC[C@H]4[C@]5(C)CC[C@H](O)C(C)(C)[C@@H]5CC[C@]43C)[C@H]12
REMARK SMILES IDX 4 1 5 2 6 3 7 4 31 5 13 6 14 7 15 8 16 9 17 10 19 11 20 12
REMARK SMILES IDX 21 13 23 14 26 15 27 16 28 17 29 18 11 19 10 20 9 21 12 22
REMARK SMILES IDX 30 23 24 24 25 25 18 26 8 27 2 28 3 29 1 30 22 31
REMARK H PARENT 22 32
REMARK Flexibility Score: inf
ROOT
ATOM      1  C   UNL     1     -29.874 -18.478  -6.300  1.00  0.00     0.018 C 
ATOM      2  C   UNL     1     -31.118 -17.724  -6.815  1.00  0.00     0.009 C 
ATOM      3  C   UNL     1     -32.116 -17.616  -5.655  1.00  0.00     0.008 C 
ATOM      4  C   UNL     1     -31.564 -18.451  -4.479  1.00  0.00    -0.029 C 
ATOM      5  C   UNL     1     -30.030 -18.562  -4.755  1.00  0.00     0.006 C 
ATOM      6  C   UNL     1     -29.130 -17.520  -3.986  1.00  0.00    -0.000 C 
ATOM      7  C   UNL     1     -29.166 -16.098  -4.617  1.00  0.00     0.005 C 
ATOM      8  C   UNL     1     -28.767 -14.944  -3.690  1.00  0.00     0.005 C 
ATOM      9  C   UNL     1     -27.718 -15.351  -2.624  1.00  0.00     0.002 C 
ATOM     10  C   UNL     1     -26.996 -14.077  -1.891  1.00  0.00    -0.026 C 
ATOM     11  C   UNL     1     -25.463 -14.363  -1.732  1.00  0.00     0.010 C 
ATOM     12  C   UNL     1     -24.683 -13.306  -0.940  1.00  0.00     0.033 C 
ATOM     13  C   UNL     1     -25.279 -13.075   0.457  1.00  0.00     0.120 C 
ATOM     14  C   UNL     1     -26.790 -12.673   0.415  1.00  0.00    -0.006 C 
ATOM     15  C   UNL     1     -27.644 -13.694  -0.485  1.00  0.00     0.003 C 
ATOM     16  C   UNL     1     -28.061 -14.948   0.321  1.00  0.00     0.005 C 
ATOM     17  C   UNL     1     -28.986 -15.864  -0.465  1.00  0.00     0.008 C 
ATOM     18  C   UNL     1     -28.333 -16.514  -1.703  1.00  0.00    -0.024 C 
ATOM     19  C   UNL     1     -29.444 -17.466  -2.463  1.00  0.00    -0.024 C 
ATOM     20  C   UNL     1     -30.931 -16.975  -2.346  1.00  0.00     0.008 C 
ATOM     21  C   UNL     1     -31.969 -17.845  -3.087  1.00  0.00     0.007 C 
ATOM     22  C   UNL     1     -29.425 -18.917  -1.860  1.00  0.00     0.012 C 
ATOM     23  C   UNL     1     -27.144 -17.417  -1.220  1.00  0.00     0.012 C 
ATOM     24  C   UNL     1     -27.309 -12.623   1.886  1.00  0.00     0.014 C 
ATOM     25  C   UNL     1     -26.932 -11.201  -0.099  1.00  0.00     0.014 C 
ATOM     26  C   UNL     1     -27.078 -12.831  -2.833  1.00  0.00     0.012 C 
ATOM     27  C   UNL     1     -32.208 -19.863  -4.552  1.00  0.00     0.011 C 
ENDROOT
BRANCH   1  28
ATOM     28  C   UNL     1     -29.574 -19.847  -6.928  1.00  0.00    -0.077 C 
ATOM     29  C   UNL     1     -30.010 -20.076  -8.353  1.00  0.00     0.039 C 
ATOM     30  C   UNL     1     -28.915 -20.846  -6.311  1.00  0.00     0.008 C 
ENDBRANCH   1  28
BRANCH  13  31
ATOM     31  O   UNL     1     -25.095 -14.235   1.231  1.00  0.00    -0.393 OA
ATOM     32  H   UNL     1     -24.870 -13.940   2.152  1.00  0.00     0.210 HD
ENDBRANCH  13  31
TORSDOF 2
ENDMDL
MODEL 7
REMARK VINA RESULT:    -7.505      3.341      8.495
REMARK INTER + INTRA:          -8.646
REMARK INTER:                  -8.226
REMARK INTRA:                  -0.420
REMARK UNBOUND:                -0.483
REMARK SMILES C=C(C)[C@H]1CC[C@]2(C)CC[C@@]3(C)[C@H](CC[C@H]4[C@]5(C)CC[C@H](O)C(C)(C)[C@@H]5CC[C@]43C)[C@H]12
REMARK SMILES IDX 4 1 5 2 6 3 7 4 31 5 13 6 14 7 15 8 16 9 17 10 19 11 20 12
REMARK SMILES IDX 21 13 23 14 26 15 27 16 28 17 29 18 11 19 10 20 9 21 12 22
REMARK SMILES IDX 30 23 24 24 25 25 18 26 8 27 2 28 3 29 1 30 22 31
REMARK H PARENT 22 32
REMARK Flexibility Score: inf
ROOT
ATOM      1  C   UNL     1     -30.714 -15.004  -6.674  1.00  0.00     0.018 C 
ATOM      2  C   UNL     1     -31.385 -16.376  -6.454  1.00  0.00     0.009 C 
ATOM      3  C   UNL     1     -30.414 -17.250  -5.651  1.00  0.00     0.008 C 
ATOM      4  C   UNL     1     -29.081 -16.482  -5.526  1.00  0.00    -0.029 C 
ATOM      5  C   UNL     1     -29.462 -14.984  -5.753  1.00  0.00     0.006 C 
ATOM      6  C   UNL     1     -29.675 -14.137  -4.439  1.00  0.00    -0.000 C 
ATOM      7  C   UNL     1     -31.046 -14.407  -3.753  1.00  0.00     0.005 C 
ATOM      8  C   UNL     1     -31.130 -14.051  -2.265  1.00  0.00     0.005 C 
ATOM      9  C   UNL     1     -30.228 -12.854  -1.870  1.00  0.00     0.002 C 
ATOM     10  C   UNL     1     -30.586 -12.214  -0.406  1.00  0.00    -0.026 C 
ATOM     11  C   UNL     1     -30.527 -10.650  -0.489  1.00  0.00     0.010 C 
ATOM     12  C   UNL     1     -30.714  -9.921   0.848  1.00  0.00     0.033 C 
ATOM     13  C   UNL     1     -29.703 -10.387   1.906  1.00  0.00     0.120 C 
ATOM     14  C   UNL     1     -29.750 -11.930   2.153  1.00  0.00    -0.006 C 
ATOM     15  C   UNL     1     -29.657 -12.749   0.774  1.00  0.00     0.003 C 
ATOM     16  C   UNL     1     -28.188 -12.927   0.317  1.00  0.00     0.005 C 
ATOM     17  C   UNL     1     -28.063 -13.815  -0.910  1.00  0.00     0.008 C 
ATOM     18  C   UNL     1     -28.699 -13.225  -2.187  1.00  0.00    -0.024 C 
ATOM     19  C   UNL     1     -28.502 -14.291  -3.431  1.00  0.00    -0.024 C 
ATOM     20  C   UNL     1     -28.488 -15.805  -3.012  1.00  0.00     0.008 C 
ATOM     21  C   UNL     1     -28.340 -16.805  -4.178  1.00  0.00     0.007 C 
ATOM     22  C   UNL     1     -27.132 -14.036  -4.157  1.00  0.00     0.012 C 
ATOM     23  C   UNL     1     -27.950 -11.894  -2.543  1.00  0.00     0.012 C 
ATOM     24  C   UNL     1     -28.581 -12.293   3.122  1.00  0.00     0.014 C 
ATOM     25  C   UNL     1     -31.046 -12.300   2.951  1.00  0.00     0.014 C 
ATOM     26  C   UNL     1     -32.076 -12.542  -0.055  1.00  0.00     0.012 C 
ATOM     27  C   UNL     1     -28.145 -16.958  -6.671  1.00  0.00     0.011 C 
ENDROOT
BRANCH   1  28
ATOM     28  C   UNL     1     -30.377 -14.613  -8.120  1.00  0.00    -0.077 C 
ATOM     29  C   UNL     1     -30.069 -13.163  -8.402  1.00  0.00     0.039 C 
ATOM     30  C   UNL     1     -30.299 -15.476  -9.150  1.00  0.00     0.008 C 
ENDBRANCH   1  28
BRANCH  13  31
ATOM     31  O   UNL     1     -28.412  -9.986   1.515  1.00  0.00    -0.393 OA
ATOM     32  H   UNL     1     -27.903 -10.810   1.295  1.00  0.00     0.210 HD
ENDBRANCH  13  31
TORSDOF 2
ENDMDL
MODEL 8
REMARK VINA RESULT:    -7.398      5.082      8.644
REMARK INTER + INTRA:          -8.530
REMARK INTER:                  -8.019
REMARK INTRA:                  -0.511
REMARK UNBOUND:                -0.483
REMARK SMILES C=C(C)[C@H]1CC[C@]2(C)CC[C@@]3(C)[C@H](CC[C@H]4[C@]5(C)CC[C@H](O)C(C)(C)[C@@H]5CC[C@]43C)[C@H]12
REMARK SMILES IDX 4 1 5 2 6 3 7 4 31 5 13 6 14 7 15 8 16 9 17 10 19 11 20 12
REMARK SMILES IDX 21 13 23 14 26 15 27 16 28 17 29 18 11 19 10 20 9 21 12 22
REMARK SMILES IDX 30 23 24 24 25 25 18 26 8 27 2 28 3 29 1 30 22 31
REMARK H PARENT 22 32
REMARK Flexibility Score: inf
ROOT
ATOM      1  C   UNL     1     -31.146 -19.086  -8.068  1.00  0.00     0.018 C 
ATOM      2  C   UNL     1     -32.164 -19.917  -7.260  1.00  0.00     0.009 C 
ATOM      3  C   UNL     1     -33.228 -18.955  -6.715  1.00  0.00     0.008 C 
ATOM      4  C   UNL     1     -32.772 -17.516  -7.039  1.00  0.00    -0.029 C 
ATOM      5  C   UNL     1     -31.774 -17.674  -8.231  1.00  0.00     0.006 C 
ATOM      6  C   UNL     1     -32.391 -17.432  -9.662  1.00  0.00    -0.000 C 
ATOM      7  C   UNL     1     -33.232 -18.636 -10.176  1.00  0.00     0.005 C 
ATOM      8  C   UNL     1     -34.258 -18.317 -11.269  1.00  0.00     0.005 C 
ATOM      9  C   UNL     1     -33.821 -17.156 -12.198  1.00  0.00     0.002 C 
ATOM     10  C   UNL     1     -34.691 -17.055 -13.581  1.00  0.00    -0.026 C 
ATOM     11  C   UNL     1     -33.734 -16.746 -14.782  1.00  0.00     0.010 C 
ATOM     12  C   UNL     1     -34.433 -16.495 -16.124  1.00  0.00     0.033 C 
ATOM     13  C   UNL     1     -35.471 -15.366 -16.031  1.00  0.00     0.120 C 
ATOM     14  C   UNL     1     -36.551 -15.623 -14.930  1.00  0.00    -0.006 C 
ATOM     15  C   UNL     1     -35.876 -15.989 -13.519  1.00  0.00     0.003 C 
ATOM     16  C   UNL     1     -35.467 -14.716 -12.738  1.00  0.00     0.005 C 
ATOM     17  C   UNL     1     -34.952 -15.029 -11.342  1.00  0.00     0.008 C 
ATOM     18  C   UNL     1     -33.631 -15.827 -11.318  1.00  0.00    -0.024 C 
ATOM     19  C   UNL     1     -33.196 -16.105  -9.751  1.00  0.00    -0.024 C 
ATOM     20  C   UNL     1     -34.395 -16.259  -8.747  1.00  0.00     0.008 C 
ATOM     21  C   UNL     1     -33.991 -16.555  -7.287  1.00  0.00     0.007 C 
ATOM     22  C   UNL     1     -32.331 -14.913  -9.203  1.00  0.00     0.012 C 
ATOM     23  C   UNL     1     -32.516 -14.959 -12.001  1.00  0.00     0.012 C 
ATOM     24  C   UNL     1     -37.442 -14.345 -14.831  1.00  0.00     0.014 C 
ATOM     25  C   UNL     1     -37.533 -16.747 -15.403  1.00  0.00     0.014 C 
ATOM     26  C   UNL     1     -35.302 -18.459 -13.904  1.00  0.00     0.012 C 
ATOM     27  C   UNL     1     -32.017 -16.962  -5.799  1.00  0.00     0.011 C 
ENDROOT
BRANCH   1  28
ATOM     28  C   UNL     1     -29.708 -19.024  -7.531  1.00  0.00    -0.077 C 
ATOM     29  C   UNL     1     -28.832 -17.890  -8.001  1.00  0.00     0.039 C 
ATOM     30  C   UNL     1     -29.184 -19.888  -6.642  1.00  0.00     0.008 C 
ENDBRANCH   1  28
BRANCH  13  31
ATOM     31  O   UNL     1     -34.805 -14.148 -15.800  1.00  0.00    -0.393 OA
ATOM     32  H   UNL     1     -35.497 -13.436 -15.776  1.00  0.00     0.210 HD
ENDBRANCH  13  31
TORSDOF 2
ENDMDL
MODEL 9
REMARK VINA RESULT:    -7.376      2.750      8.081
REMARK INTER + INTRA:          -8.505
REMARK INTER:                  -7.995
REMARK INTRA:                  -0.510
REMARK UNBOUND:                -0.483
REMARK SMILES C=C(C)[C@H]1CC[C@]2(C)CC[C@@]3(C)[C@H](CC[C@H]4[C@]5(C)CC[C@H](O)C(C)(C)[C@@H]5CC[C@]43C)[C@H]12
REMARK SMILES IDX 4 1 5 2 6 3 7 4 31 5 13 6 14 7 15 8 16 9 17 10 19 11 20 12
REMARK SMILES IDX 21 13 23 14 26 15 27 16 28 17 29 18 11 19 10 20 9 21 12 22
REMARK SMILES IDX 30 23 24 24 25 25 18 26 8 27 2 28 3 29 1 30 22 31
REMARK H PARENT 22 32
REMARK Flexibility Score: inf
ROOT
ATOM      1  C   UNL     1     -29.213 -16.667  -7.350  1.00  0.00     0.018 C 
ATOM      2  C   UNL     1     -29.807 -15.490  -8.151  1.00  0.00     0.009 C 
ATOM      3  C   UNL     1     -31.077 -15.023  -7.428  1.00  0.00     0.008 C 
ATOM      4  C   UNL     1     -31.360 -16.019  -6.283  1.00  0.00    -0.029 C 
ATOM      5  C   UNL     1     -29.984 -16.704  -6.001  1.00  0.00     0.006 C 
ATOM      6  C   UNL     1     -29.161 -16.093  -4.802  1.00  0.00    -0.000 C 
ATOM      7  C   UNL     1     -28.450 -14.757  -5.167  1.00  0.00     0.005 C 
ATOM      8  C   UNL     1     -28.077 -13.854  -3.986  1.00  0.00     0.005 C 
ATOM      9  C   UNL     1     -27.746 -14.643  -2.693  1.00  0.00     0.002 C 
ATOM     10  C   UNL     1     -26.980 -13.750  -1.555  1.00  0.00    -0.026 C 
ATOM     11  C   UNL     1     -25.838 -14.600  -0.901  1.00  0.00     0.010 C 
ATOM     12  C   UNL     1     -25.120 -13.930   0.277  1.00  0.00     0.033 C 
ATOM     13  C   UNL     1     -26.098 -13.507   1.382  1.00  0.00     0.120 C 
ATOM     14  C   UNL     1     -27.228 -12.558   0.864  1.00  0.00    -0.006 C 
ATOM     15  C   UNL     1     -27.954 -13.165  -0.435  1.00  0.00     0.003 C 
ATOM     16  C   UNL     1     -29.061 -14.175  -0.047  1.00  0.00     0.005 C 
ATOM     17  C   UNL     1     -29.855 -14.659  -1.249  1.00  0.00     0.008 C 
ATOM     18  C   UNL     1     -29.035 -15.494  -2.256  1.00  0.00    -0.024 C 
ATOM     19  C   UNL     1     -30.011 -15.942  -3.508  1.00  0.00    -0.024 C 
ATOM     20  C   UNL     1     -31.153 -14.921  -3.858  1.00  0.00     0.008 C 
ATOM     21  C   UNL     1     -32.045 -15.321  -5.053  1.00  0.00     0.007 C 
ATOM     22  C   UNL     1     -30.735 -17.297  -3.180  1.00  0.00     0.012 C 
ATOM     23  C   UNL     1     -28.527 -16.788  -1.528  1.00  0.00     0.012 C 
ATOM     24  C   UNL     1     -28.234 -12.331   2.036  1.00  0.00     0.014 C 
ATOM     25  C   UNL     1     -26.637 -11.136   0.577  1.00  0.00     0.014 C 
ATOM     26  C   UNL     1     -26.246 -12.556  -2.250  1.00  0.00     0.012 C 
ATOM     27  C   UNL     1     -32.369 -17.078  -6.809  1.00  0.00     0.011 C 
ENDROOT
BRANCH   1  28
ATOM     28  C   UNL     1     -29.183 -18.040  -8.039  1.00  0.00    -0.077 C 
ATOM     29  C   UNL     1     -29.143 -19.265  -7.161  1.00  0.00     0.039 C 
ATOM     30  C   UNL     1     -29.228 -18.230  -9.371  1.00  0.00     0.008 C 
ENDBRANCH   1  28
BRANCH  13  31
ATOM     31  O   UNL     1     -26.649 -14.658   1.974  1.00  0.00    -0.393 OA
ATOM     32  H   UNL     1     -25.907 -15.305   2.103  1.00  0.00     0.210 HD
ENDBRANCH  13  31
TORSDOF 2
ENDMDL
