MODEL 1
REMARK VINA RESULT:    -3.033      0.000      0.000
REMARK INTER + INTRA:          -3.429
REMARK INTER:                  -3.388
REMARK INTRA:                  -0.041
REMARK UNBOUND:                -0.041
REMARK SMILES CCCC(=O)[O-]
REMARK SMILES IDX 3 1 4 2 5 3 6 4 2 5 1 6
REMARK H PARENT
REMARK Flexibility Score: inf
ROOT
ATOM      1  C   UNL     1       7.651  56.997  18.292  1.00  0.00     0.052 C 
ENDROOT
BRANCH   1   2
ATOM      2  C   UNL     1       7.917  58.442  18.570  1.00  0.00     0.041 C 
ATOM      3  O   UNL     1       7.246  59.053  19.442  1.00  0.00    -0.550 OA
ATOM      4  O   UNL     1       8.873  59.128  17.832  1.00  0.00    -0.550 OA
ENDBRANCH   1   2
BRANCH   1   5
ATOM      5  C   UNL     1       6.699  56.847  17.102  1.00  0.00     0.003 C 
ATOM      6  C   UNL     1       5.253  56.705  17.568  1.00  0.00     0.004 C 
ENDBRANCH   1   5
TORSDOF 2
ENDMDL
MODEL 2
REMARK VINA RESULT:    -2.971      2.666      3.474
REMARK INTER + INTRA:          -3.359
REMARK INTER:                  -3.321
REMARK INTRA:                  -0.039
REMARK UNBOUND:                -0.041
REMARK SMILES CCCC(=O)[O-]
REMARK SMILES IDX 3 1 4 2 5 3 6 4 2 5 1 6
REMARK H PARENT
REMARK Flexibility Score: inf
ROOT
ATOM      1  C   UNL     1       6.785  57.094  16.942  1.00  0.00     0.052 C 
ENDROOT
BRANCH   1   2
ATOM      2  C   UNL     1       5.390  56.558  17.011  1.00  0.00     0.041 C 
ATOM      3  O   UNL     1       4.610  56.939  17.923  1.00  0.00    -0.550 OA
ATOM      4  O   UNL     1       4.967  55.599  16.100  1.00  0.00    -0.550 OA
ENDBRANCH   1   2
BRANCH   1   5
ATOM      5  C   UNL     1       7.427  57.100  18.331  1.00  0.00     0.003 C 
ATOM      6  C   UNL     1       7.720  58.524  18.796  1.00  0.00     0.004 C 
ENDBRANCH   1   5
TORSDOF 2
ENDMDL
MODEL 3
REMARK VINA RESULT:    -2.904      1.787      2.251
REMARK INTER + INTRA:          -3.284
REMARK INTER:                  -3.249
REMARK INTRA:                  -0.036
REMARK UNBOUND:                -0.041
REMARK SMILES CCCC(=O)[O-]
REMARK SMILES IDX 3 1 4 2 5 3 6 4 2 5 1 6
REMARK H PARENT
REMARK Flexibility Score: inf
ROOT
ATOM      1  C   UNL     1       8.256  58.670  18.303  1.00  0.00     0.052 C 
ENDROOT
BRANCH   1   2
ATOM      2  C   UNL     1       9.457  58.921  17.446  1.00  0.00     0.041 C 
ATOM      3  O   UNL     1       9.423  58.659  16.216  1.00  0.00    -0.550 OA
ATOM      4  O   UNL     1      10.631  59.397  18.016  1.00  0.00    -0.550 OA
ENDBRANCH   1   2
BRANCH   1   5
ATOM      5  C   UNL     1       7.896  57.182  18.298  1.00  0.00     0.003 C 
ATOM      6  C   UNL     1       6.611  56.930  17.515  1.00  0.00     0.004 C 
ENDBRANCH   1   5
TORSDOF 2
ENDMDL
MODEL 4
REMARK VINA RESULT:    -2.834      6.650      7.647
REMARK INTER + INTRA:          -3.206
REMARK INTER:                  -3.169
REMARK INTRA:                  -0.037
REMARK UNBOUND:                -0.041
REMARK SMILES CCCC(=O)[O-]
REMARK SMILES IDX 3 1 4 2 5 3 6 4 2 5 1 6
REMARK H PARENT
REMARK Flexibility Score: inf
ROOT
ATOM      1  C   UNL     1       0.663  54.786  20.736  1.00  0.00     0.052 C 
ENDROOT
BRANCH   1   2
ATOM      2  C   UNL     1       0.149  55.765  19.728  1.00  0.00     0.041 C 
ATOM      3  O   UNL     1       0.942  56.320  18.923  1.00  0.00    -0.550 OA
ATOM      4  O   UNL     1      -1.198  56.103  19.710  1.00  0.00    -0.550 OA
ENDBRANCH   1   2
BRANCH   1   5
ATOM      5  C   UNL     1       2.184  54.901  20.868  1.00  0.00     0.003 C 
ATOM      6  C   UNL     1       2.880  53.667  20.304  1.00  0.00     0.004 C 
ENDBRANCH   1   5
TORSDOF 2
ENDMDL
MODEL 5
REMARK VINA RESULT:    -2.803      3.502      4.403
REMARK INTER + INTRA:          -3.171
REMARK INTER:                  -3.145
REMARK INTRA:                  -0.027
REMARK UNBOUND:                -0.041
REMARK SMILES CCCC(=O)[O-]
REMARK SMILES IDX 3 1 4 2 5 3 6 4 2 5 1 6
REMARK H PARENT
REMARK Flexibility Score: inf
ROOT
ATOM      1  C   UNL     1       3.723  55.856  17.846  1.00  0.00     0.052 C 
ENDROOT
BRANCH   1   2
ATOM      2  C   UNL     1       4.603  55.960  16.641  1.00  0.00     0.041 C 
ATOM      3  O   UNL     1       4.406  55.214  15.647  1.00  0.00    -0.550 OA
ATOM      4  O   UNL     1       5.672  56.847  16.634  1.00  0.00    -0.550 OA
ENDBRANCH   1   2
BRANCH   1   5
ATOM      5  C   UNL     1       3.423  57.247  18.412  1.00  0.00     0.003 C 
ATOM      6  C   UNL     1       1.998  57.681  18.078  1.00  0.00     0.004 C 
ENDBRANCH   1   5
TORSDOF 2
ENDMDL
MODEL 6
REMARK VINA RESULT:    -2.801      4.393      5.471
REMARK INTER + INTRA:          -3.170
REMARK INTER:                  -3.147
REMARK INTRA:                  -0.023
REMARK UNBOUND:                -0.041
REMARK SMILES CCCC(=O)[O-]
REMARK SMILES IDX 3 1 4 2 5 3 6 4 2 5 1 6
REMARK H PARENT
REMARK Flexibility Score: inf
ROOT
ATOM      1  C   UNL     1       2.672  55.212  15.737  1.00  0.00     0.052 C 
ENDROOT
BRANCH   1   2
ATOM      2  C   UNL     1       4.025  55.170  16.374  1.00  0.00     0.041 C 
ATOM      3  O   UNL     1       4.428  54.118  16.936  1.00  0.00    -0.550 OA
ATOM      4  O   UNL     1       4.821  56.308  16.392  1.00  0.00    -0.550 OA
ENDBRANCH   1   2
BRANCH   1   5
ATOM      5  C   UNL     1       1.576  55.210  16.805  1.00  0.00     0.003 C 
ATOM      6  C   UNL     1       0.809  56.529  16.809  1.00  0.00     0.004 C 
ENDBRANCH   1   5
TORSDOF 2
ENDMDL
MODEL 7
REMARK VINA RESULT:    -2.755      5.273      5.779
REMARK INTER + INTRA:          -3.118
REMARK INTER:                  -3.046
REMARK INTRA:                  -0.072
REMARK UNBOUND:                -0.041
REMARK SMILES CCCC(=O)[O-]
REMARK SMILES IDX 3 1 4 2 5 3 6 4 2 5 1 6
REMARK H PARENT
REMARK Flexibility Score: inf
ROOT
ATOM      1  C   UNL     1       2.816  57.036  18.311  1.00  0.00     0.052 C 
ENDROOT
BRANCH   1   2
ATOM      2  C   UNL     1       2.632  55.786  19.114  1.00  0.00     0.041 C 
ATOM      3  O   UNL     1       2.082  55.836  20.245  1.00  0.00    -0.550 OA
ATOM      4  O   UNL     1       3.113  54.574  18.635  1.00  0.00    -0.550 OA
ENDBRANCH   1   2
BRANCH   1   5
ATOM      5  C   UNL     1       1.460  57.609  17.894  1.00  0.00     0.003 C 
ATOM      6  C   UNL     1       0.729  56.660  16.948  1.00  0.00     0.004 C 
ENDBRANCH   1   5
TORSDOF 2
ENDMDL
MODEL 8
REMARK VINA RESULT:    -2.740      4.743      5.500
REMARK INTER + INTRA:          -3.101
REMARK INTER:                  -3.030
REMARK INTRA:                  -0.071
REMARK UNBOUND:                -0.041
REMARK SMILES CCCC(=O)[O-]
REMARK SMILES IDX 3 1 4 2 5 3 6 4 2 5 1 6
REMARK H PARENT
REMARK Flexibility Score: inf
ROOT
ATOM      1  C   UNL     1       1.423  57.120  17.648  1.00  0.00     0.052 C 
ENDROOT
BRANCH   1   2
ATOM      2  C   UNL     1       2.468  56.827  18.679  1.00  0.00     0.041 C 
ATOM      3  O   UNL     1       2.253  55.963  19.569  1.00  0.00    -0.550 OA
ATOM      4  O   UNL     1       3.657  57.544  18.688  1.00  0.00    -0.550 OA
ENDBRANCH   1   2
BRANCH   1   5
ATOM      5  C   UNL     1       1.103  55.862  16.838  1.00  0.00     0.003 C 
ATOM      6  C   UNL     1       2.315  55.401  16.034  1.00  0.00     0.004 C 
ENDBRANCH   1   5
TORSDOF 2
ENDMDL
MODEL 9
REMARK VINA RESULT:    -2.707      4.600      5.873
REMARK INTER + INTRA:          -3.065
REMARK INTER:                  -3.026
REMARK INTRA:                  -0.038
REMARK UNBOUND:                -0.041
REMARK SMILES CCCC(=O)[O-]
REMARK SMILES IDX 3 1 4 2 5 3 6 4 2 5 1 6
REMARK H PARENT
REMARK Flexibility Score: inf
ROOT
ATOM      1  C   UNL     1       1.586  57.586  17.964  1.00  0.00     0.052 C 
ENDROOT
BRANCH   1   2
ATOM      2  C   UNL     1       2.775  56.772  18.366  1.00  0.00     0.041 C 
ATOM      3  O   UNL     1       3.928  57.108  17.990  1.00  0.00    -0.550 OA
ATOM      4  O   UNL     1       2.605  55.615  19.114  1.00  0.00    -0.550 OA
ENDBRANCH   1   2
BRANCH   1   5
ATOM      5  C   UNL     1       0.722  56.814  16.963  1.00  0.00     0.003 C 
ATOM      6  C   UNL     1      -0.615  56.415  17.583  1.00  0.00     0.004 C 
ENDBRANCH   1   5
TORSDOF 2
ENDMDL
