MODEL 1
REMARK VINA RESULT:    -2.785      0.000      0.000
REMARK INTER + INTRA:          -3.029
REMARK INTER:                  -3.029
REMARK INTRA:                   0.000
REMARK UNBOUND:                 0.000
REMARK SMILES [NH3+]CC(=O)[O-]
REMARK SMILES IDX 2 1 1 2 3 6 4 7 5 8
REMARK H PARENT 1 3 1 4 1 5
REMARK Flexibility Score: inf
ROOT
ATOM      1  C   UNL     1     155.984 156.610 144.732  1.00  0.00     0.312 C 
ENDROOT
BRANCH   1   2
ATOM      2  N   UNL     1     154.728 157.352 144.814  1.00  0.00    -0.353 N 
ATOM      3  H   UNL     1     154.672 157.829 145.742  1.00  0.00     0.344 HD
ATOM      4  H   UNL     1     153.917 156.698 144.720  1.00  0.00     0.344 HD
ATOM      5  H   UNL     1     154.688 158.074 144.058  1.00  0.00     0.344 HD
ENDBRANCH   1   2
BRANCH   1   6
ATOM      6  C   UNL     1     156.408 156.445 143.305  1.00  0.00     0.096 C 
ATOM      7  O   UNL     1     157.611 156.201 143.026  1.00  0.00    -0.544 OA
ATOM      8  O   UNL     1     155.484 156.611 142.282  1.00  0.00    -0.544 OA
ENDBRANCH   1   6
TORSDOF 2
ENDMDL
MODEL 2
REMARK VINA RESULT:    -2.738      0.110      1.447
REMARK INTER + INTRA:          -2.978
REMARK INTER:                  -2.978
REMARK INTRA:                   0.000
REMARK UNBOUND:                 0.000
REMARK SMILES [NH3+]CC(=O)[O-]
REMARK SMILES IDX 2 1 1 2 3 6 4 7 5 8
REMARK H PARENT 1 3 1 4 1 5
REMARK Flexibility Score: inf
ROOT
ATOM      1  C   UNL     1     155.999 156.609 144.689  1.00  0.00     0.312 C 
ENDROOT
BRANCH   1   2
ATOM      2  N   UNL     1     154.746 157.343 144.859  1.00  0.00    -0.353 N 
ATOM      3  H   UNL     1     154.959 158.360 144.977  1.00  0.00     0.344 HD
ATOM      4  H   UNL     1     154.242 157.001 145.709  1.00  0.00     0.344 HD
ATOM      5  H   UNL     1     154.141 157.219 144.015  1.00  0.00     0.344 HD
ENDBRANCH   1   2
BRANCH   1   6
ATOM      6  C   UNL     1     156.355 156.503 143.238  1.00  0.00     0.096 C 
ATOM      7  O   UNL     1     155.458 156.571 142.358  1.00  0.00    -0.544 OA
ATOM      8  O   UNL     1     157.673 156.278 142.861  1.00  0.00    -0.544 OA
ENDBRANCH   1   6
TORSDOF 2
ENDMDL
MODEL 3
REMARK VINA RESULT:    -2.714      2.308      2.663
REMARK INTER + INTRA:          -2.952
REMARK INTER:                  -2.952
REMARK INTRA:                   0.000
REMARK UNBOUND:                 0.000
REMARK SMILES [NH3+]CC(=O)[O-]
REMARK SMILES IDX 2 1 1 2 3 6 4 7 5 8
REMARK H PARENT 1 3 1 4 1 5
REMARK Flexibility Score: inf
ROOT
ATOM      1  C   UNL     1     157.498 156.587 143.228  1.00  0.00     0.312 C 
ENDROOT
BRANCH   1   2
ATOM      2  N   UNL     1     157.250 157.021 141.854  1.00  0.00    -0.353 N 
ATOM      3  H   UNL     1     157.594 158.001 141.738  1.00  0.00     0.344 HD
ATOM      4  H   UNL     1     156.225 156.993 141.648  1.00  0.00     0.344 HD
ATOM      5  H   UNL     1     157.762 156.401 141.185  1.00  0.00     0.344 HD
ENDBRANCH   1   2
BRANCH   1   6
ATOM      6  C   UNL     1     156.207 156.399 143.963  1.00  0.00     0.096 C 
ATOM      7  O   UNL     1     155.230 155.844 143.396  1.00  0.00    -0.544 OA
ATOM      8  O   UNL     1     156.068 156.882 145.258  1.00  0.00    -0.544 OA
ENDBRANCH   1   6
TORSDOF 2
ENDMDL
MODEL 4
REMARK VINA RESULT:    -2.280     11.093     11.454
REMARK INTER + INTRA:          -2.480
REMARK INTER:                  -2.480
REMARK INTRA:                   0.000
REMARK UNBOUND:                 0.000
REMARK SMILES [NH3+]CC(=O)[O-]
REMARK SMILES IDX 2 1 1 2 3 6 4 7 5 8
REMARK H PARENT 1 3 1 4 1 5
REMARK Flexibility Score: inf
ROOT
ATOM      1  C   UNL     1     152.916 148.755 136.120  1.00  0.00     0.312 C 
ENDROOT
BRANCH   1   2
ATOM      2  N   UNL     1     153.767 149.464 137.073  1.00  0.00    -0.353 N 
ATOM      3  H   UNL     1     153.233 149.620 137.958  1.00  0.00     0.344 HD
ATOM      4  H   UNL     1     154.052 150.391 136.681  1.00  0.00     0.344 HD
ATOM      5  H   UNL     1     154.618 148.893 137.287  1.00  0.00     0.344 HD
ENDBRANCH   1   2
BRANCH   1   6
ATOM      6  C   UNL     1     151.551 148.532 136.695  1.00  0.00     0.096 C 
ATOM      7  O   UNL     1     151.090 147.365 136.799  1.00  0.00    -0.544 OA
ATOM      8  O   UNL     1     150.769 149.617 137.070  1.00  0.00    -0.544 OA
ENDBRANCH   1   6
TORSDOF 2
ENDMDL
MODEL 5
REMARK VINA RESULT:    -2.274     10.649     11.034
REMARK INTER + INTRA:          -2.474
REMARK INTER:                  -2.474
REMARK INTRA:                   0.000
REMARK UNBOUND:                 0.000
REMARK SMILES [NH3+]CC(=O)[O-]
REMARK SMILES IDX 2 1 1 2 3 6 4 7 5 8
REMARK H PARENT 1 3 1 4 1 5
REMARK Flexibility Score: inf
ROOT
ATOM      1  C   UNL     1     150.539 150.221 137.090  1.00  0.00     0.312 C 
ENDROOT
BRANCH   1   2
ATOM      2  N   UNL     1     150.757 151.268 136.094  1.00  0.00    -0.353 N 
ATOM      3  H   UNL     1     150.762 152.198 136.571  1.00  0.00     0.344 HD
ATOM      4  H   UNL     1     149.989 151.255 135.384  1.00  0.00     0.344 HD
ATOM      5  H   UNL     1     151.679 151.125 135.619  1.00  0.00     0.344 HD
ENDBRANCH   1   2
BRANCH   1   6
ATOM      6  C   UNL     1     151.563 149.137 136.949  1.00  0.00     0.096 C 
ATOM      7  O   UNL     1     151.205 147.957 136.698  1.00  0.00    -0.544 OA
ATOM      8  O   UNL     1     152.908 149.422 137.144  1.00  0.00    -0.544 OA
ENDBRANCH   1   6
TORSDOF 2
ENDMDL
MODEL 6
REMARK VINA RESULT:    -2.199     10.679     10.944
REMARK INTER + INTRA:          -2.392
REMARK INTER:                  -2.392
REMARK INTRA:                   0.000
REMARK UNBOUND:                 0.000
REMARK SMILES [NH3+]CC(=O)[O-]
REMARK SMILES IDX 2 1 1 2 3 6 4 7 5 8
REMARK H PARENT 1 3 1 4 1 5
REMARK Flexibility Score: inf
ROOT
ATOM      1  C   UNL     1     151.735 149.057 136.591  1.00  0.00     0.312 C 
ENDROOT
BRANCH   1   2
ATOM      2  N   UNL     1     153.115 149.442 136.882  1.00  0.00    -0.353 N 
ATOM      3  H   UNL     1     153.686 149.349 136.012  1.00  0.00     0.344 HD
ATOM      4  H   UNL     1     153.514 148.817 137.619  1.00  0.00     0.344 HD
ATOM      5  H   UNL     1     153.149 150.437 137.205  1.00  0.00     0.344 HD
ENDBRANCH   1   2
BRANCH   1   6
ATOM      6  C   UNL     1     150.831 150.250 136.647  1.00  0.00     0.096 C 
ATOM      7  O   UNL     1     150.316 150.604 137.739  1.00  0.00    -0.544 OA
ATOM      8  O   UNL     1     150.518 150.939 135.483  1.00  0.00    -0.544 OA
ENDBRANCH   1   6
TORSDOF 2
ENDMDL
MODEL 7
REMARK VINA RESULT:    -2.160     17.010     17.227
REMARK INTER + INTRA:          -2.349
REMARK INTER:                  -2.349
REMARK INTRA:                   0.000
REMARK UNBOUND:                 0.000
REMARK SMILES [NH3+]CC(=O)[O-]
REMARK SMILES IDX 2 1 1 2 3 6 4 7 5 8
REMARK H PARENT 1 3 1 4 1 5
REMARK Flexibility Score: inf
ROOT
ATOM      1  C   UNL     1     161.640 151.966 128.729  1.00  0.00     0.312 C 
ENDROOT
BRANCH   1   2
ATOM      2  N   UNL     1     160.878 153.213 128.741  1.00  0.00    -0.353 N 
ATOM      3  H   UNL     1     161.540 154.018 128.666  1.00  0.00     0.344 HD
ATOM      4  H   UNL     1     160.340 153.297 129.634  1.00  0.00     0.344 HD
ATOM      5  H   UNL     1     160.220 153.238 127.928  1.00  0.00     0.344 HD
ENDBRANCH   1   2
BRANCH   1   6
ATOM      6  C   UNL     1     160.964 150.942 127.870  1.00  0.00     0.096 C 
ATOM      7  O   UNL     1     160.113 151.295 127.014  1.00  0.00    -0.544 OA
ATOM      8  O   UNL     1     161.238 149.592 128.053  1.00  0.00    -0.544 OA
ENDBRANCH   1   6
TORSDOF 2
ENDMDL
MODEL 8
REMARK VINA RESULT:    -2.160     16.226     16.610
REMARK INTER + INTRA:          -2.349
REMARK INTER:                  -2.349
REMARK INTRA:                   0.000
REMARK UNBOUND:                 0.000
REMARK SMILES [NH3+]CC(=O)[O-]
REMARK SMILES IDX 2 1 1 2 3 6 4 7 5 8
REMARK H PARENT 1 3 1 4 1 5
REMARK Flexibility Score: inf
ROOT
ATOM      1  C   UNL     1     146.427 155.059 130.329  1.00  0.00     0.312 C 
ENDROOT
BRANCH   1   2
ATOM      2  N   UNL     1     146.242 155.894 131.514  1.00  0.00    -0.353 N 
ATOM      3  H   UNL     1     146.764 155.472 132.315  1.00  0.00     0.344 HD
ATOM      4  H   UNL     1     145.227 155.949 131.761  1.00  0.00     0.344 HD
ATOM      5  H   UNL     1     146.615 156.856 131.336  1.00  0.00     0.344 HD
ENDBRANCH   1   2
BRANCH   1   6
ATOM      6  C   UNL     1     147.219 155.787 129.287  1.00  0.00     0.096 C 
ATOM      7  O   UNL     1     148.470 155.660 129.239  1.00  0.00    -0.544 OA
ATOM      8  O   UNL     1     146.579 156.646 128.403  1.00  0.00    -0.544 OA
ENDBRANCH   1   6
TORSDOF 2
ENDMDL
MODEL 9
REMARK VINA RESULT:    -2.110     16.288     16.547
REMARK INTER + INTRA:          -2.295
REMARK INTER:                  -2.295
REMARK INTRA:                   0.000
REMARK UNBOUND:                 0.000
REMARK SMILES [NH3+]CC(=O)[O-]
REMARK SMILES IDX 2 1 1 2 3 6 4 7 5 8
REMARK H PARENT 1 3 1 4 1 5
REMARK Flexibility Score: inf
ROOT
ATOM      1  C   UNL     1     147.672 155.775 129.209  1.00  0.00     0.312 C 
ENDROOT
BRANCH   1   2
ATOM      2  N   UNL     1     146.875 155.928 130.425  1.00  0.00    -0.353 N 
ATOM      3  H   UNL     1     146.564 156.922 130.507  1.00  0.00     0.344 HD
ATOM      4  H   UNL     1     147.449 155.682 131.264  1.00  0.00     0.344 HD
ATOM      5  H   UNL     1     146.032 155.310 130.381  1.00  0.00     0.344 HD
ENDBRANCH   1   2
BRANCH   1   6
ATOM      6  C   UNL     1     148.261 154.400 129.133  1.00  0.00     0.096 C 
ATOM      7  O   UNL     1     147.514 153.388 129.170  1.00  0.00    -0.544 OA
ATOM      8  O   UNL     1     149.639 154.237 129.072  1.00  0.00    -0.544 OA
ENDBRANCH   1   6
TORSDOF 2
ENDMDL
