MODEL 1
REMARK VINA RESULT:    -3.395      0.000      0.000
REMARK INTER + INTRA:          -4.157
REMARK INTER:                  -4.785
REMARK INTRA:                   0.628
REMARK UNBOUND:                 0.628
REMARK SMILES CC1=CCC(=C(C)C)C(=O)CC(C)=CCC1
REMARK SMILES IDX 12 1 14 2 13 3 15 4 16 5 2 6 1 7 3 8 11 10 9 11 10 12 5 13
REMARK SMILES IDX 6 14 7 15 8 16 4 17
REMARK H PARENT
REMARK Flexibility Score: 60.00
ROOT
ATOM      1  C   UNL     1      -3.336 -13.963  -9.033  1.00  0.00    -0.070 C 
ATOM      2  C   UNL     1      -3.622 -12.644  -9.092  1.00  0.00    -0.027 C 
ATOM      3  C   UNL     1      -1.888 -14.375  -9.114  1.00  0.00     0.039 C 
ENDROOT
BRANCH   2   4
ATOM      4  C   UNL     1      -5.010 -12.041  -9.124  1.00  0.00     0.032 C 
BRANCH   4   5
ATOM      5  C   UNL     1      -6.067 -12.807  -8.300  1.00  0.00     0.034 C 
BRANCH   5   6
ATOM      6  C   UNL     1      -6.045 -12.453  -6.824  1.00  0.00    -0.077 C 
ATOM      7  C   UNL     1      -6.139 -10.995  -6.450  1.00  0.00     0.039 C 
ATOM      8  C   UNL     1      -5.877 -13.354  -5.825  1.00  0.00    -0.023 CG0
ATOM      9  G   UNL     1      -5.779 -14.861  -5.960  1.00  0.00     0.000 G0
ENDBRANCH   5   6
ENDBRANCH   4   5
ENDBRANCH   2   4
BRANCH   1  10
ATOM     10  C   UNL     1      -4.399 -15.043  -8.983  1.00  0.00     0.111 C 
BRANCH  10  11
ATOM     11  C   UNL     1      -4.270 -15.891  -7.745  1.00  0.00     0.163 C 
ATOM     12  O   UNL     1      -4.092 -17.131  -7.891  1.00  0.00    -0.294 OA
BRANCH  11  13
ATOM     13  C   UNL     1      -4.407 -15.328  -6.369  1.00  0.00    -0.002 C 
ATOM     14  C   UNL     1      -3.344 -15.316  -5.510  1.00  0.00    -0.069 C 
ATOM     15  C   UNL     1      -1.960 -15.724  -5.967  1.00  0.00     0.039 C 
ATOM     16  C   UNL     1      -3.488 -14.900  -4.062  1.00  0.00     0.039 C 
BRANCH  13  17
ATOM     17  C   UNL     1      -5.789 -14.863  -5.943  1.00  0.00     0.066 CG0
ATOM     18  G   UNL     1      -5.874 -13.355  -5.807  1.00  0.00     0.000 G0
ENDBRANCH  13  17
ENDBRANCH  11  13
ENDBRANCH  10  11
ENDBRANCH   1  10
TORSDOF 0
ENDMDL
MODEL 2
REMARK VINA RESULT:    -3.251      1.860      2.823
REMARK INTER + INTRA:          -3.954
REMARK INTER:                  -5.015
REMARK INTRA:                   1.061
REMARK UNBOUND:                 0.628
REMARK SMILES CC1=CCC(=C(C)C)C(=O)CC(C)=CCC1
REMARK SMILES IDX 12 1 14 2 13 3 15 4 16 5 2 6 1 7 3 8 11 10 9 11 10 12 5 13
REMARK SMILES IDX 6 14 7 15 8 16 4 17
REMARK H PARENT
REMARK Flexibility Score: 60.00
ROOT
ATOM      1  C   UNL     1      -3.462 -11.939  -7.763  1.00  0.00    -0.070 C 
ATOM      2  C   UNL     1      -4.769 -11.794  -7.455  1.00  0.00    -0.027 C 
ATOM      3  C   UNL     1      -2.915 -11.137  -8.917  1.00  0.00     0.039 C 
ENDROOT
BRANCH   2   4
ATOM      4  C   UNL     1      -5.522 -12.579  -6.402  1.00  0.00     0.032 C 
BRANCH   4   5
ATOM      5  C   UNL     1      -5.973 -13.987  -6.845  1.00  0.00     0.034 C 
BRANCH   5   6
ATOM      6  C   UNL     1      -6.018 -14.153  -8.354  1.00  0.00    -0.077 C 
ATOM      7  C   UNL     1      -6.989 -13.295  -9.125  1.00  0.00     0.039 C 
ATOM      8  C   UNL     1      -5.295 -15.069  -9.043  1.00  0.00    -0.023 CG0
ATOM      9  G   UNL     1      -4.252 -16.019  -8.486  1.00  0.00     0.000 G0
ENDBRANCH   5   6
ENDBRANCH   4   5
ENDBRANCH   2   4
BRANCH   1  10
ATOM     10  C   UNL     1      -2.550 -12.931  -7.070  1.00  0.00     0.111 C 
BRANCH  10  11
ATOM     11  C   UNL     1      -2.514 -14.252  -7.795  1.00  0.00     0.163 C 
ATOM     12  O   UNL     1      -1.755 -14.359  -8.796  1.00  0.00    -0.294 OA
BRANCH  11  13
ATOM     13  C   UNL     1      -3.384 -15.402  -7.409  1.00  0.00    -0.002 C 
ATOM     14  C   UNL     1      -3.337 -15.920  -6.145  1.00  0.00    -0.069 C 
ATOM     15  C   UNL     1      -2.527 -15.256  -5.053  1.00  0.00     0.039 C 
ATOM     16  C   UNL     1      -4.086 -17.180  -5.768  1.00  0.00     0.039 C 
BRANCH  13  17
ATOM     17  C   UNL     1      -4.242 -16.021  -8.500  1.00  0.00     0.066 CG0
ATOM     18  G   UNL     1      -5.291 -15.060  -9.024  1.00  0.00     0.000 G0
ENDBRANCH  13  17
ENDBRANCH  11  13
ENDBRANCH  10  11
ENDBRANCH   1  10
TORSDOF 0
ENDMDL
MODEL 3
REMARK VINA RESULT:    -3.180      1.517      2.006
REMARK INTER + INTRA:          -3.854
REMARK INTER:                  -5.118
REMARK INTRA:                   1.265
REMARK UNBOUND:                 0.628
REMARK SMILES CC1=CCC(=C(C)C)C(=O)CC(C)=CCC1
REMARK SMILES IDX 12 1 14 2 13 3 15 4 16 5 2 6 1 7 3 8 11 10 9 11 10 12 5 13
REMARK SMILES IDX 6 14 7 15 8 16 4 17
REMARK H PARENT
REMARK Flexibility Score: 60.00
ROOT
ATOM      1  C   UNL     1      -3.313 -11.492  -8.479  1.00  0.00    -0.070 C 
ATOM      2  C   UNL     1      -4.512 -11.561  -9.098  1.00  0.00    -0.027 C 
ATOM      3  C   UNL     1      -2.275 -10.562  -9.055  1.00  0.00     0.039 C 
ENDROOT
BRANCH   2   4
ATOM      4  C   UNL     1      -5.642 -12.500  -8.733  1.00  0.00     0.032 C 
BRANCH   4   5
ATOM      5  C   UNL     1      -6.644 -11.937  -7.703  1.00  0.00     0.034 C 
BRANCH   5   6
ATOM      6  C   UNL     1      -6.487 -12.546  -6.321  1.00  0.00    -0.077 C 
ATOM      7  C   UNL     1      -6.988 -11.750  -5.143  1.00  0.00     0.039 C 
ATOM      8  C   UNL     1      -5.865 -13.725  -6.073  1.00  0.00    -0.023 CG0
ATOM      9  G   UNL     1      -5.305 -14.696  -7.093  1.00  0.00     0.000 G0
ENDBRANCH   5   6
ENDBRANCH   4   5
ENDBRANCH   2   4
BRANCH   1  10
ATOM     10  C   UNL     1      -2.934 -12.366  -7.301  1.00  0.00     0.111 C 
BRANCH  10  11
ATOM     11  C   UNL     1      -2.939 -13.827  -7.669  1.00  0.00     0.163 C 
ATOM     12  O   UNL     1      -2.243 -14.192  -8.655  1.00  0.00    -0.294 OA
BRANCH  11  13
ATOM     13  C   UNL     1      -3.780 -14.831  -6.954  1.00  0.00    -0.002 C 
ATOM     14  C   UNL     1      -3.203 -15.872  -6.280  1.00  0.00    -0.069 C 
ATOM     15  C   UNL     1      -1.703 -15.956  -6.100  1.00  0.00     0.039 C 
ATOM     16  C   UNL     1      -4.026 -16.991  -5.680  1.00  0.00     0.039 C 
BRANCH  13  17
ATOM     17  C   UNL     1      -5.288 -14.699  -7.090  1.00  0.00     0.066 CG0
ATOM     18  G   UNL     1      -5.875 -13.732  -6.081  1.00  0.00     0.000 G0
ENDBRANCH  13  17
ENDBRANCH  11  13
ENDBRANCH  10  11
ENDBRANCH   1  10
TORSDOF 0
ENDMDL
MODEL 4
REMARK VINA RESULT:    -3.017      1.939      3.623
REMARK INTER + INTRA:          -3.624
REMARK INTER:                  -4.930
REMARK INTRA:                   1.306
REMARK UNBOUND:                 0.628
REMARK SMILES CC1=CCC(=C(C)C)C(=O)CC(C)=CCC1
REMARK SMILES IDX 12 1 14 2 13 3 15 4 16 5 2 6 1 7 3 8 11 10 9 11 10 12 5 13
REMARK SMILES IDX 6 14 7 15 8 16 4 17
REMARK H PARENT
REMARK Flexibility Score: 60.00
ROOT
ATOM      1  C   UNL     1      -6.328 -12.674  -6.069  1.00  0.00    -0.070 C 
ATOM      2  C   UNL     1      -6.277 -11.596  -6.883  1.00  0.00    -0.027 C 
ATOM      3  C   UNL     1      -6.494 -12.434  -4.590  1.00  0.00     0.039 C 
ENDROOT
BRANCH   2   4
ATOM      4  C   UNL     1      -6.019 -11.626  -8.374  1.00  0.00     0.032 C 
BRANCH   4   5
ATOM      5  C   UNL     1      -4.690 -12.294  -8.787  1.00  0.00     0.034 C 
BRANCH   5   6
ATOM      6  C   UNL     1      -3.466 -11.505  -8.358  1.00  0.00    -0.077 C 
ATOM      7  C   UNL     1      -3.155 -10.233  -9.106  1.00  0.00     0.039 C 
ATOM      8  C   UNL     1      -2.599 -11.904  -7.396  1.00  0.00    -0.023 CG0
ATOM      9  G   UNL     1      -2.718 -13.127  -6.508  1.00  0.00     0.000 G0
ENDBRANCH   5   6
ENDBRANCH   4   5
ENDBRANCH   2   4
BRANCH   1  10
ATOM     10  C   UNL     1      -6.135 -14.095  -6.559  1.00  0.00     0.111 C 
BRANCH  10  11
ATOM     11  C   UNL     1      -4.761 -14.614  -6.225  1.00  0.00     0.163 C 
ATOM     12  O   UNL     1      -4.634 -15.344  -5.205  1.00  0.00    -0.294 OA
BRANCH  11  13
ATOM     13  C   UNL     1      -3.550 -14.245  -7.017  1.00  0.00    -0.002 C 
ATOM     14  C   UNL     1      -3.199 -14.957  -8.130  1.00  0.00    -0.069 C 
ATOM     15  C   UNL     1      -4.102 -16.036  -8.688  1.00  0.00     0.039 C 
ATOM     16  C   UNL     1      -1.898 -14.710  -8.861  1.00  0.00     0.039 C 
BRANCH  13  17
ATOM     17  C   UNL     1      -2.685 -13.117  -6.479  1.00  0.00     0.066 CG0
ATOM     18  G   UNL     1      -2.633 -11.931  -7.422  1.00  0.00     0.000 G0
ENDBRANCH  13  17
ENDBRANCH  11  13
ENDBRANCH  10  11
ENDBRANCH   1  10
TORSDOF 0
ENDMDL
MODEL 5
REMARK VINA RESULT:    -2.809      1.929      3.105
REMARK INTER + INTRA:          -3.330
REMARK INTER:                  -4.033
REMARK INTRA:                   0.703
REMARK UNBOUND:                 0.628
REMARK SMILES CC1=CCC(=C(C)C)C(=O)CC(C)=CCC1
REMARK SMILES IDX 12 1 14 2 13 3 15 4 16 5 2 6 1 7 3 8 11 10 9 11 10 12 5 13
REMARK SMILES IDX 6 14 7 15 8 16 4 17
REMARK H PARENT
REMARK Flexibility Score: 60.00
ROOT
ATOM      1  C   UNL     1      -6.013 -12.987  -6.765  1.00  0.00    -0.070 C 
ATOM      2  C   UNL     1      -5.556 -11.978  -7.539  1.00  0.00    -0.027 C 
ATOM      3  C   UNL     1      -6.383 -12.670  -5.338  1.00  0.00     0.039 C 
ENDROOT
BRANCH   2   4
ATOM      4  C   UNL     1      -5.044 -12.113  -8.957  1.00  0.00     0.032 C 
BRANCH   4   5
ATOM      5  C   UNL     1      -3.512 -11.993  -9.105  1.00  0.00     0.034 C 
BRANCH   5   6
ATOM      6  C   UNL     1      -2.797 -11.788  -7.782  1.00  0.00    -0.077 C 
ATOM      7  C   UNL     1      -2.640 -10.374  -7.281  1.00  0.00     0.039 C 
ATOM      8  C   UNL     1      -2.232 -12.785  -7.057  1.00  0.00    -0.023 CG0
ATOM      9  G   UNL     1      -2.280 -14.271  -7.354  1.00  0.00     0.000 G0
ENDBRANCH   5   6
ENDBRANCH   4   5
ENDBRANCH   2   4
BRANCH   1  10
ATOM     10  C   UNL     1      -6.082 -14.427  -7.232  1.00  0.00     0.111 C 
BRANCH  10  11
ATOM     11  C   UNL     1      -4.738 -14.922  -7.700  1.00  0.00     0.163 C 
ATOM     12  O   UNL     1      -4.649 -15.379  -8.872  1.00  0.00    -0.294 OA
BRANCH  11  13
ATOM     13  C   UNL     1      -3.539 -14.949  -6.812  1.00  0.00    -0.002 C 
ATOM     14  C   UNL     1      -3.614 -15.478  -5.553  1.00  0.00    -0.069 C 
ATOM     15  C   UNL     1      -4.859 -16.193  -5.075  1.00  0.00     0.039 C 
ATOM     16  C   UNL     1      -2.465 -15.378  -4.573  1.00  0.00     0.039 C 
BRANCH  13  17
ATOM     17  C   UNL     1      -2.275 -14.282  -7.329  1.00  0.00     0.066 CG0
ATOM     18  G   UNL     1      -2.253 -12.792  -7.050  1.00  0.00     0.000 G0
ENDBRANCH  13  17
ENDBRANCH  11  13
ENDBRANCH  10  11
ENDBRANCH   1  10
TORSDOF 0
ENDMDL
MODEL 6
REMARK VINA RESULT:    -2.506      2.003      2.525
REMARK INTER + INTRA:          -2.904
REMARK INTER:                  -3.959
REMARK INTRA:                   1.055
REMARK UNBOUND:                 0.628
REMARK SMILES CC1=CCC(=C(C)C)C(=O)CC(C)=CCC1
REMARK SMILES IDX 12 1 14 2 13 3 15 4 16 5 2 6 1 7 3 8 11 10 9 11 10 12 5 13
REMARK SMILES IDX 6 14 7 15 8 16 4 17
REMARK H PARENT
REMARK Flexibility Score: 60.00
ROOT
ATOM      1  C   UNL     1      -4.619 -14.689  -8.923  1.00  0.00    -0.070 C 
ATOM      2  C   UNL     1      -5.412 -13.594  -8.950  1.00  0.00    -0.027 C 
ATOM      3  C   UNL     1      -5.265 -16.020  -8.634  1.00  0.00     0.039 C 
ENDROOT
BRANCH   2   4
ATOM      4  C   UNL     1      -4.941 -12.167  -9.125  1.00  0.00     0.032 C 
BRANCH   4   5
ATOM      5  C   UNL     1      -4.789 -11.371  -7.811  1.00  0.00     0.034 C 
BRANCH   5   6
ATOM      6  C   UNL     1      -3.362 -11.336  -7.295  1.00  0.00    -0.077 C 
ATOM      7  C   UNL     1      -2.461 -10.237  -7.798  1.00  0.00     0.039 C 
ATOM      8  C   UNL     1      -2.826 -12.266  -6.466  1.00  0.00    -0.023 CG0
ATOM      9  G   UNL     1      -3.541 -13.439  -5.825  1.00  0.00     0.000 G0
ENDBRANCH   5   6
ENDBRANCH   4   5
ENDBRANCH   2   4
BRANCH   1  10
ATOM     10  C   UNL     1      -3.113 -14.628  -9.075  1.00  0.00     0.111 C 
BRANCH  10  11
ATOM     11  C   UNL     1      -2.416 -14.732  -7.743  1.00  0.00     0.163 C 
ATOM     12  O   UNL     1      -1.161 -14.843  -7.738  1.00  0.00    -0.294 OA
BRANCH  11  13
ATOM     13  C   UNL     1      -3.161 -14.771  -6.450  1.00  0.00    -0.002 C 
ATOM     14  C   UNL     1      -3.549 -15.962  -5.903  1.00  0.00    -0.069 C 
ATOM     15  C   UNL     1      -3.106 -17.281  -6.499  1.00  0.00     0.039 C 
ATOM     16  C   UNL     1      -4.438 -16.030  -4.681  1.00  0.00     0.039 C 
BRANCH  13  17
ATOM     17  C   UNL     1      -3.545 -13.438  -5.828  1.00  0.00     0.066 CG0
ATOM     18  G   UNL     1      -2.808 -12.273  -6.460  1.00  0.00     0.000 G0
ENDBRANCH  13  17
ENDBRANCH  11  13
ENDBRANCH  10  11
ENDBRANCH   1  10
TORSDOF 0
ENDMDL
MODEL 7
REMARK VINA RESULT:    -2.470      1.911      3.981
REMARK INTER + INTRA:          -2.852
REMARK INTER:                  -4.661
REMARK INTRA:                   1.808
REMARK UNBOUND:                 0.628
REMARK SMILES CC1=CCC(=C(C)C)C(=O)CC(C)=CCC1
REMARK SMILES IDX 12 1 14 2 13 3 15 4 16 5 2 6 1 7 3 8 11 10 9 11 10 12 5 13
REMARK SMILES IDX 6 14 7 15 8 16 4 17
REMARK H PARENT
REMARK Flexibility Score: 60.00
ROOT
ATOM      1  C   UNL     1      -3.413 -16.245  -6.561  1.00  0.00    -0.070 C 
ATOM      2  C   UNL     1      -2.233 -15.603  -6.710  1.00  0.00    -0.027 C 
ATOM      3  C   UNL     1      -3.456 -17.439  -5.642  1.00  0.00     0.039 C 
ENDROOT
BRANCH   2   4
ATOM      4  C   UNL     1      -1.966 -14.452  -7.656  1.00  0.00     0.032 C 
BRANCH   4   5
ATOM      5  C   UNL     1      -2.625 -13.116  -7.251  1.00  0.00     0.034 C 
BRANCH   5   6
ATOM      6  C   UNL     1      -3.007 -12.254  -8.441  1.00  0.00    -0.077 C 
ATOM      7  C   UNL     1      -2.061 -11.149  -8.839  1.00  0.00     0.039 C 
ATOM      8  C   UNL     1      -4.172 -12.368  -9.125  1.00  0.00    -0.023 CG0
ATOM      9  G   UNL     1      -5.256 -13.407  -8.916  1.00  0.00     0.000 G0
ENDBRANCH   5   6
ENDBRANCH   4   5
ENDBRANCH   2   4
BRANCH   1  10
ATOM     10  C   UNL     1      -4.661 -15.881  -7.341  1.00  0.00     0.111 C 
BRANCH  10  11
ATOM     11  C   UNL     1      -5.393 -14.726  -6.707  1.00  0.00     0.163 C 
ATOM     12  O   UNL     1      -5.815 -14.867  -5.527  1.00  0.00    -0.294 OA
BRANCH  11  13
ATOM     13  C   UNL     1      -5.687 -13.462  -7.444  1.00  0.00    -0.002 C 
ATOM     14  C   UNL     1      -6.376 -12.446  -6.841  1.00  0.00    -0.069 C 
ATOM     15  C   UNL     1      -6.726 -12.500  -5.369  1.00  0.00     0.039 C 
ATOM     16  C   UNL     1      -6.827 -11.220  -7.605  1.00  0.00     0.039 C 
BRANCH  13  17
ATOM     17  C   UNL     1      -5.274 -13.396  -8.905  1.00  0.00     0.066 CG0
ATOM     18  G   UNL     1      -4.182 -12.372  -9.149  1.00  0.00     0.000 G0
ENDBRANCH  13  17
ENDBRANCH  11  13
ENDBRANCH  10  11
ENDBRANCH   1  10
TORSDOF 0
ENDMDL
MODEL 8
REMARK VINA RESULT:    -2.339      1.472      3.776
REMARK INTER + INTRA:          -2.669
REMARK INTER:                  -5.997
REMARK INTRA:                   3.328
REMARK UNBOUND:                 0.628
REMARK SMILES CC1=CCC(=C(C)C)C(=O)CC(C)=CCC1
REMARK SMILES IDX 12 1 14 2 13 3 15 4 16 5 2 6 1 7 3 8 11 10 9 11 10 12 5 13
REMARK SMILES IDX 6 14 7 15 8 16 4 17
REMARK H PARENT
REMARK Flexibility Score: 60.00
ROOT
ATOM      1  C   UNL     1      -2.645 -14.031  -8.131  1.00  0.00    -0.070 C 
ATOM      2  C   UNL     1      -2.267 -13.848  -6.846  1.00  0.00    -0.027 C 
ATOM      3  C   UNL     1      -2.379 -12.916  -9.110  1.00  0.00     0.039 C 
ENDROOT
BRANCH   2   4
ATOM      4  C   UNL     1      -2.533 -14.802  -5.702  1.00  0.00     0.032 C 
BRANCH   4   5
ATOM      5  C   UNL     1      -2.477 -16.298  -6.081  1.00  0.00     0.034 C 
BRANCH   5   6
ATOM      6  C   UNL     1      -3.785 -17.026  -5.833  1.00  0.00    -0.077 C 
ATOM      7  C   UNL     1      -3.750 -18.533  -5.780  1.00  0.00     0.039 C 
ATOM      8  C   UNL     1      -4.991 -16.416  -5.725  1.00  0.00    -0.023 CG0
ATOM      9  G   UNL     1      -5.264 -14.924  -5.730  1.00  0.00     0.000 G0
ENDBRANCH   5   6
ENDBRANCH   4   5
ENDBRANCH   2   4
BRANCH   1  10
ATOM     10  C   UNL     1      -3.401 -15.255  -8.608  1.00  0.00     0.111 C 
BRANCH  10  11
ATOM     11  C   UNL     1      -4.862 -15.179  -8.247  1.00  0.00     0.163 C 
ATOM     12  O   UNL     1      -5.683 -15.814  -8.963  1.00  0.00    -0.294 OA
BRANCH  11  13
ATOM     13  C   UNL     1      -5.368 -14.337  -7.123  1.00  0.00    -0.002 C 
ATOM     14  C   UNL     1      -5.812 -13.064  -7.350  1.00  0.00    -0.069 C 
ATOM     15  C   UNL     1      -5.954 -12.520  -8.755  1.00  0.00     0.039 C 
ATOM     16  C   UNL     1      -6.182 -12.131  -6.217  1.00  0.00     0.039 C 
BRANCH  13  17
ATOM     17  C   UNL     1      -5.278 -14.919  -5.722  1.00  0.00     0.066 CG0
ATOM     18  G   UNL     1      -5.018 -16.412  -5.734  1.00  0.00     0.000 G0
ENDBRANCH  13  17
ENDBRANCH  11  13
ENDBRANCH  10  11
ENDBRANCH   1  10
TORSDOF 0
ENDMDL
MODEL 9
REMARK VINA RESULT:    -2.240      1.955      3.590
REMARK INTER + INTRA:          -2.529
REMARK INTER:                  -3.195
REMARK INTRA:                   0.666
REMARK UNBOUND:                 0.628
REMARK SMILES CC1=CCC(=C(C)C)C(=O)CC(C)=CCC1
REMARK SMILES IDX 12 1 14 2 13 3 15 4 16 5 2 6 1 7 3 8 11 10 9 11 10 12 5 13
REMARK SMILES IDX 6 14 7 15 8 16 4 17
REMARK H PARENT
REMARK Flexibility Score: 60.00
ROOT
ATOM      1  C   UNL     1      -5.324 -13.533  -6.001  1.00  0.00    -0.070 C 
ATOM      2  C   UNL     1      -6.055 -12.651  -6.719  1.00  0.00    -0.027 C 
ATOM      3  C   UNL     1      -6.055 -14.651  -5.301  1.00  0.00     0.039 C 
ENDROOT
BRANCH   2   4
ATOM      4  C   UNL     1      -5.521 -11.414  -7.407  1.00  0.00     0.032 C 
BRANCH   4   5
ATOM      5  C   UNL     1      -5.080 -11.628  -8.871  1.00  0.00     0.034 C 
BRANCH   5   6
ATOM      6  C   UNL     1      -3.602 -11.946  -9.010  1.00  0.00    -0.077 C 
ATOM      7  C   UNL     1      -2.642 -10.787  -9.109  1.00  0.00     0.039 C 
ATOM      8  C   UNL     1      -3.097 -13.199  -9.120  1.00  0.00    -0.023 CG0
ATOM      9  G   UNL     1      -3.864 -14.504  -9.030  1.00  0.00     0.000 G0
ENDBRANCH   5   6
ENDBRANCH   4   5
ENDBRANCH   2   4
BRANCH   1  10
ATOM     10  C   UNL     1      -3.829 -13.397  -5.792  1.00  0.00     0.111 C 
BRANCH  10  11
ATOM     11  C   UNL     1      -3.063 -14.423  -6.587  1.00  0.00     0.163 C 
ATOM     12  O   UNL     1      -1.836 -14.570  -6.339  1.00  0.00    -0.294 OA
BRANCH  11  13
ATOM     13  C   UNL     1      -3.688 -15.215  -7.687  1.00  0.00    -0.002 C 
ATOM     14  C   UNL     1      -4.024 -16.527  -7.500  1.00  0.00    -0.069 C 
ATOM     15  C   UNL     1      -3.923 -17.177  -6.137  1.00  0.00     0.039 C 
ATOM     16  C   UNL     1      -4.511 -17.399  -8.637  1.00  0.00     0.039 C 
BRANCH  13  17
ATOM     17  C   UNL     1      -3.842 -14.531  -9.036  1.00  0.00     0.066 CG0
ATOM     18  G   UNL     1      -3.093 -13.214  -9.103  1.00  0.00     0.000 G0
ENDBRANCH  13  17
ENDBRANCH  11  13
ENDBRANCH  10  11
ENDBRANCH   1  10
TORSDOF 0
ENDMDL
