MODEL 1
REMARK VINA RESULT:    -4.016      0.000      0.000
REMARK INTER + INTRA:          -4.825
REMARK INTER:                  -4.721
REMARK INTRA:                  -0.104
REMARK UNBOUND:                -0.104
REMARK SMILES Oc1ccc(-c2[o+]c3cc(O)cc(O)c3cc2O)cc1
REMARK SMILES IDX 6 1 7 2 8 3 9 4 10 5 12 6 13 7 15 8 16 9 17 10 5 11 4 12
REMARK SMILES IDX 3 13 2 14 19 15 20 16 1 17 18 19 11 21 14 23
REMARK H PARENT 1 18 18 20 11 22 14 24
REMARK Flexibility Score: inf
ROOT
ATOM      1  C   UNL     1       6.839   4.557  13.478  1.00  0.00     0.401 A 
ATOM      2  O   UNL     1       6.520   5.014  14.686  1.00  0.00    -0.202 OA
ATOM      3  C   UNL     1       6.560   6.302  15.013  1.00  0.00     0.368 A 
ATOM      4  C   UNL     1       6.204   6.686  16.308  1.00  0.00     0.162 A 
ATOM      5  C   UNL     1       6.233   8.031  16.678  1.00  0.00     0.128 A 
ATOM      6  C   UNL     1       6.621   9.001  15.747  1.00  0.00     0.093 A 
ATOM      7  C   UNL     1       6.981   8.642  14.443  1.00  0.00     0.136 A 
ATOM      8  C   UNL     1       6.955   7.275  14.063  1.00  0.00     0.125 A 
ATOM      9  C   UNL     1       7.314   6.821  12.783  1.00  0.00     0.078 A 
ATOM     10  C   UNL     1       7.268   5.457  12.485  1.00  0.00     0.223 A 
ENDROOT
BRANCH   1  11
ATOM     11  C   UNL     1       6.745   3.099  13.234  1.00  0.00     0.084 A 
ATOM     12  C   UNL     1       7.400   2.210  14.102  1.00  0.00     0.022 A 
ATOM     13  C   UNL     1       7.307   0.829  13.904  1.00  0.00     0.047 A 
ATOM     14  C   UNL     1       6.548   0.319  12.846  1.00  0.00     0.115 A 
ATOM     15  C   UNL     1       5.967   2.579  12.183  1.00  0.00     0.022 A 
ATOM     16  C   UNL     1       5.875   1.198  11.988  1.00  0.00     0.047 A 
BRANCH  14  17
ATOM     17  O   UNL     1       6.464  -1.059  12.659  1.00  0.00    -0.508 OA
ATOM     18  H   UNL     1       7.115  -1.694  13.105  1.00  0.00     0.293 HD
ENDBRANCH  14  17
ENDBRANCH   1  11
BRANCH  10  19
ATOM     19  O   UNL     1       7.671   5.001  11.230  1.00  0.00    -0.500 OA
ATOM     20  H   UNL     1       8.079   5.624  10.542  1.00  0.00     0.294 HD
ENDBRANCH  10  19
BRANCH   5  21
ATOM     21  O   UNL     1       5.875   8.394  17.974  1.00  0.00    -0.507 OA
ATOM     22  H   UNL     1       5.490   7.719  18.626  1.00  0.00     0.293 HD
ENDBRANCH   5  21
BRANCH   7  23
ATOM     23  O   UNL     1       7.353   9.670  13.572  1.00  0.00    -0.507 OA
ATOM     24  H   UNL     1       8.304   9.970  13.416  1.00  0.00     0.293 HD
ENDBRANCH   7  23
TORSDOF 5
ENDMDL
MODEL 2
REMARK VINA RESULT:    -3.606      3.090      8.644
REMARK INTER + INTRA:          -4.342
REMARK INTER:                  -4.708
REMARK INTRA:                   0.366
REMARK UNBOUND:                -0.104
REMARK SMILES Oc1ccc(-c2[o+]c3cc(O)cc(O)c3cc2O)cc1
REMARK SMILES IDX 6 1 7 2 8 3 9 4 10 5 12 6 13 7 15 8 16 9 17 10 5 11 4 12
REMARK SMILES IDX 3 13 2 14 19 15 20 16 1 17 18 19 11 21 14 23
REMARK H PARENT 1 18 18 20 11 22 14 24
REMARK Flexibility Score: inf
ROOT
ATOM      1  C   UNL     1       6.512  -0.100  12.559  1.00  0.00     0.401 A 
ATOM      2  O   UNL     1       6.766  -0.843  13.633  1.00  0.00    -0.202 OA
ATOM      3  C   UNL     1       6.791  -2.172  13.612  1.00  0.00     0.368 A 
ATOM      4  C   UNL     1       7.070  -2.866  14.792  1.00  0.00     0.162 A 
ATOM      5  C   UNL     1       7.105  -4.261  14.798  1.00  0.00     0.128 A 
ATOM      6  C   UNL     1       6.860  -4.969  13.617  1.00  0.00     0.093 A 
ATOM      7  C   UNL     1       6.578  -4.297  12.421  1.00  0.00     0.136 A 
ATOM      8  C   UNL     1       6.539  -2.879  12.411  1.00  0.00     0.125 A 
ATOM      9  C   UNL     1       6.252  -2.122  11.263  1.00  0.00     0.078 A 
ATOM     10  C   UNL     1       6.226  -0.726  11.332  1.00  0.00     0.223 A 
ENDROOT
BRANCH   1  11
ATOM     11  C   UNL     1       6.524   1.373  12.709  1.00  0.00     0.084 A 
ATOM     12  C   UNL     1       7.245   1.955  13.765  1.00  0.00     0.022 A 
ATOM     13  C   UNL     1       7.287   3.344  13.914  1.00  0.00     0.047 A 
ATOM     14  C   UNL     1       6.625   4.170  13.001  1.00  0.00     0.115 A 
ATOM     15  C   UNL     1       5.875   2.211  11.783  1.00  0.00     0.022 A 
ATOM     16  C   UNL     1       5.920   3.600  11.933  1.00  0.00     0.047 A 
BRANCH  14  17
ATOM     17  O   UNL     1       6.674   5.553  13.161  1.00  0.00    -0.508 OA
ATOM     18  H   UNL     1       6.479   5.991  14.054  1.00  0.00     0.293 HD
ENDBRANCH  14  17
ENDBRANCH   1  11
BRANCH  10  19
ATOM     19  O   UNL     1       5.892   0.023  10.204  1.00  0.00    -0.500 OA
ATOM     20  H   UNL     1       5.018  -0.116   9.710  1.00  0.00     0.294 HD
ENDBRANCH  10  19
BRANCH   5  21
ATOM     21  O   UNL     1       7.385  -4.934  15.985  1.00  0.00    -0.507 OA
ATOM     22  H   UNL     1       8.059  -4.575  16.652  1.00  0.00     0.293 HD
ENDBRANCH   5  21
BRANCH   7  23
ATOM     23  O   UNL     1       6.348  -5.076  11.284  1.00  0.00    -0.507 OA
ATOM     24  H   UNL     1       7.073  -5.523  10.742  1.00  0.00     0.293 HD
ENDBRANCH   7  23
TORSDOF 5
ENDMDL
MODEL 3
REMARK VINA RESULT:    -3.235      3.031      9.039
REMARK INTER + INTRA:          -3.907
REMARK INTER:                  -3.916
REMARK INTRA:                   0.010
REMARK UNBOUND:                -0.104
REMARK SMILES Oc1ccc(-c2[o+]c3cc(O)cc(O)c3cc2O)cc1
REMARK SMILES IDX 6 1 7 2 8 3 9 4 10 5 12 6 13 7 15 8 16 9 17 10 5 11 4 12
REMARK SMILES IDX 3 13 2 14 19 15 20 16 1 17 18 19 11 21 14 23
REMARK H PARENT 1 18 18 20 11 22 14 24
REMARK Flexibility Score: inf
ROOT
ATOM      1  C   UNL     1       6.480   0.179  12.441  1.00  0.00     0.401 A 
ATOM      2  O   UNL     1       6.784  -0.358  11.262  1.00  0.00    -0.202 OA
ATOM      3  C   UNL     1       6.764  -1.666  11.029  1.00  0.00     0.368 A 
ATOM      4  C   UNL     1       7.098  -2.136   9.756  1.00  0.00     0.162 A 
ATOM      5  C   UNL     1       7.082  -3.504   9.483  1.00  0.00     0.128 A 
ATOM      6  C   UNL     1       6.730  -4.411  10.488  1.00  0.00     0.093 A 
ATOM      7  C   UNL     1       6.391  -3.966  11.771  1.00  0.00     0.136 A 
ATOM      8  C   UNL     1       6.409  -2.576  12.054  1.00  0.00     0.125 A 
ATOM      9  C   UNL     1       6.097  -2.040  13.315  1.00  0.00     0.078 A 
ATOM     10  C   UNL     1       6.141  -0.658  13.519  1.00  0.00     0.223 A 
ENDROOT
BRANCH   1  11
ATOM     11  C   UNL     1       6.530   1.653  12.571  1.00  0.00     0.084 A 
ATOM     12  C   UNL     1       7.289   2.231  13.603  1.00  0.00     0.022 A 
ATOM     13  C   UNL     1       7.367   3.621  13.733  1.00  0.00     0.047 A 
ATOM     14  C   UNL     1       6.701   4.450  12.825  1.00  0.00     0.115 A 
ATOM     15  C   UNL     1       5.877   2.494  11.650  1.00  0.00     0.022 A 
ATOM     16  C   UNL     1       5.958   3.883  11.782  1.00  0.00     0.047 A 
BRANCH  14  17
ATOM     17  O   UNL     1       6.786   5.834  12.966  1.00  0.00    -0.508 OA
ATOM     18  H   UNL     1       6.748   6.452  12.165  1.00  0.00     0.293 HD
ENDBRANCH  14  17
ENDBRANCH   1  11
BRANCH  10  19
ATOM     19  O   UNL     1       5.881  -0.130  14.784  1.00  0.00    -0.500 OA
ATOM     20  H   UNL     1       6.384  -0.443  15.606  1.00  0.00     0.294 HD
ENDBRANCH  10  19
BRANCH   5  21
ATOM     21  O   UNL     1       7.418  -3.952   8.207  1.00  0.00    -0.507 OA
ATOM     22  H   UNL     1       8.363  -3.873   7.850  1.00  0.00     0.293 HD
ENDBRANCH   5  21
BRANCH   7  23
ATOM     23  O   UNL     1       6.048  -4.935  12.719  1.00  0.00    -0.507 OA
ATOM     24  H   UNL     1       5.104  -5.233  12.914  1.00  0.00     0.293 HD
ENDBRANCH   7  23
TORSDOF 5
ENDMDL
MODEL 4
REMARK VINA RESULT:    -2.631      1.945      7.015
REMARK INTER + INTRA:          -3.197
REMARK INTER:                  -3.046
REMARK INTRA:                  -0.150
REMARK UNBOUND:                -0.104
REMARK SMILES Oc1ccc(-c2[o+]c3cc(O)cc(O)c3cc2O)cc1
REMARK SMILES IDX 6 1 7 2 8 3 9 4 10 5 12 6 13 7 15 8 16 9 17 10 5 11 4 12
REMARK SMILES IDX 3 13 2 14 19 15 20 16 1 17 18 19 11 21 14 23
REMARK H PARENT 1 18 18 20 11 22 14 24
REMARK Flexibility Score: inf
ROOT
ATOM      1  C   UNL     1       6.674   3.225  12.674  1.00  0.00     0.401 A 
ATOM      2  O   UNL     1       6.547   2.275  13.596  1.00  0.00    -0.202 OA
ATOM      3  C   UNL     1       6.330   0.997  13.303  1.00  0.00     0.368 A 
ATOM      4  C   UNL     1       6.214   0.071  14.343  1.00  0.00     0.162 A 
ATOM      5  C   UNL     1       5.988  -1.278  14.065  1.00  0.00     0.128 A 
ATOM      6  C   UNL     1       5.879  -1.706  12.737  1.00  0.00     0.093 A 
ATOM      7  C   UNL     1       5.993  -0.798  11.677  1.00  0.00     0.136 A 
ATOM      8  C   UNL     1       6.219   0.575  11.957  1.00  0.00     0.125 A 
ATOM      9  C   UNL     1       6.332   1.558  10.959  1.00  0.00     0.078 A 
ATOM     10  C   UNL     1       6.550   2.892  11.312  1.00  0.00     0.223 A 
ENDROOT
BRANCH   1  11
ATOM     11  C   UNL     1       6.925   4.612  13.127  1.00  0.00     0.084 A 
ATOM     12  C   UNL     1       8.135   4.921  13.770  1.00  0.00     0.022 A 
ATOM     13  C   UNL     1       8.402   6.228  14.188  1.00  0.00     0.047 A 
ATOM     14  C   UNL     1       7.471   7.245  13.956  1.00  0.00     0.115 A 
ATOM     15  C   UNL     1       6.000   5.644  12.880  1.00  0.00     0.022 A 
ATOM     16  C   UNL     1       6.270   6.950  13.298  1.00  0.00     0.047 A 
BRANCH  14  17
ATOM     17  O   UNL     1       7.749   8.543  14.378  1.00  0.00    -0.508 OA
ATOM     18  H   UNL     1       8.279   8.724  15.222  1.00  0.00     0.293 HD
ENDBRANCH  14  17
ENDBRANCH   1  11
BRANCH  10  19
ATOM     19  O   UNL     1       6.612   3.875  10.325  1.00  0.00    -0.500 OA
ATOM     20  H   UNL     1       7.494   4.172   9.922  1.00  0.00     0.294 HD
ENDBRANCH  10  19
BRANCH   5  21
ATOM     21  O   UNL     1       5.875  -2.185  15.115  1.00  0.00    -0.507 OA
ATOM     22  H   UNL     1       6.230  -1.972  16.040  1.00  0.00     0.293 HD
ENDBRANCH   5  21
BRANCH   7  23
ATOM     23  O   UNL     1       5.875  -1.305  10.380  1.00  0.00    -0.507 OA
ATOM     24  H   UNL     1       5.048  -1.221   9.807  1.00  0.00     0.293 HD
ENDBRANCH   7  23
TORSDOF 5
ENDMDL
MODEL 5
REMARK VINA RESULT:    -2.541      1.899      7.084
REMARK INTER + INTRA:          -3.090
REMARK INTER:                  -2.893
REMARK INTRA:                  -0.197
REMARK UNBOUND:                -0.104
REMARK SMILES Oc1ccc(-c2[o+]c3cc(O)cc(O)c3cc2O)cc1
REMARK SMILES IDX 6 1 7 2 8 3 9 4 10 5 12 6 13 7 15 8 16 9 17 10 5 11 4 12
REMARK SMILES IDX 3 13 2 14 19 15 20 16 1 17 18 19 11 21 14 23
REMARK H PARENT 1 18 18 20 11 22 14 24
REMARK Flexibility Score: inf
ROOT
ATOM      1  C   UNL     1       6.674   3.225  12.674  1.00  0.00     0.401 A 
ATOM      2  O   UNL     1       6.547   2.275  13.596  1.00  0.00    -0.202 OA
ATOM      3  C   UNL     1       6.330   0.997  13.303  1.00  0.00     0.368 A 
ATOM      4  C   UNL     1       6.214   0.071  14.343  1.00  0.00     0.162 A 
ATOM      5  C   UNL     1       5.988  -1.278  14.065  1.00  0.00     0.128 A 
ATOM      6  C   UNL     1       5.879  -1.706  12.737  1.00  0.00     0.093 A 
ATOM      7  C   UNL     1       5.993  -0.798  11.677  1.00  0.00     0.136 A 
ATOM      8  C   UNL     1       6.219   0.575  11.957  1.00  0.00     0.125 A 
ATOM      9  C   UNL     1       6.332   1.558  10.959  1.00  0.00     0.078 A 
ATOM     10  C   UNL     1       6.550   2.892  11.312  1.00  0.00     0.223 A 
ENDROOT
BRANCH   1  11
ATOM     11  C   UNL     1       6.925   4.612  13.127  1.00  0.00     0.084 A 
ATOM     12  C   UNL     1       5.912   5.577  12.994  1.00  0.00     0.022 A 
ATOM     13  C   UNL     1       6.119   6.887  13.434  1.00  0.00     0.047 A 
ATOM     14  C   UNL     1       7.333   7.247  14.027  1.00  0.00     0.115 A 
ATOM     15  C   UNL     1       8.137   4.976  13.742  1.00  0.00     0.022 A 
ATOM     16  C   UNL     1       8.341   6.286  14.183  1.00  0.00     0.047 A 
BRANCH  14  17
ATOM     17  O   UNL     1       7.527   8.556  14.461  1.00  0.00    -0.508 OA
ATOM     18  H   UNL     1       7.035   9.333  14.037  1.00  0.00     0.293 HD
ENDBRANCH  14  17
ENDBRANCH   1  11
BRANCH  10  19
ATOM     19  O   UNL     1       6.612   3.875  10.325  1.00  0.00    -0.500 OA
ATOM     20  H   UNL     1       7.134   4.734  10.459  1.00  0.00     0.294 HD
ENDBRANCH  10  19
BRANCH   5  21
ATOM     21  O   UNL     1       5.875  -2.185  15.115  1.00  0.00    -0.507 OA
ATOM     22  H   UNL     1       6.587  -2.885  15.290  1.00  0.00     0.293 HD
ENDBRANCH   5  21
BRANCH   7  23
ATOM     23  O   UNL     1       5.875  -1.305  10.380  1.00  0.00    -0.507 OA
ATOM     24  H   UNL     1       5.048  -1.221   9.807  1.00  0.00     0.293 HD
ENDBRANCH   7  23
TORSDOF 5
ENDMDL
MODEL 6
REMARK VINA RESULT:    -2.110      2.224      4.153
REMARK INTER + INTRA:          -2.584
REMARK INTER:                  -2.770
REMARK INTRA:                   0.185
REMARK UNBOUND:                -0.104
REMARK SMILES Oc1ccc(-c2[o+]c3cc(O)cc(O)c3cc2O)cc1
REMARK SMILES IDX 6 1 7 2 8 3 9 4 10 5 12 6 13 7 15 8 16 9 17 10 5 11 4 12
REMARK SMILES IDX 3 13 2 14 19 15 20 16 1 17 18 19 11 21 14 23
REMARK H PARENT 1 18 18 20 11 22 14 24
REMARK Flexibility Score: inf
ROOT
ATOM      1  C   UNL     1       6.678   1.461  13.064  1.00  0.00     0.401 A 
ATOM      2  O   UNL     1       7.086   2.413  12.228  1.00  0.00    -0.202 OA
ATOM      3  C   UNL     1       7.255   3.680  12.591  1.00  0.00     0.368 A 
ATOM      4  C   UNL     1       7.690   4.607  11.641  1.00  0.00     0.162 A 
ATOM      5  C   UNL     1       7.879   5.944  11.995  1.00  0.00     0.128 A 
ATOM      6  C   UNL     1       7.632   6.358  13.308  1.00  0.00     0.093 A 
ATOM      7  C   UNL     1       7.195   5.449  14.279  1.00  0.00     0.136 A 
ATOM      8  C   UNL     1       7.000   4.089  13.922  1.00  0.00     0.125 A 
ATOM      9  C   UNL     1       6.552   3.110  14.825  1.00  0.00     0.078 A 
ATOM     10  C   UNL     1       6.377   1.791  14.399  1.00  0.00     0.223 A 
ENDROOT
BRANCH   1  11
ATOM     11  C   UNL     1       6.538   0.083  12.541  1.00  0.00     0.084 A 
ATOM     12  C   UNL     1       6.868  -1.006  13.365  1.00  0.00     0.022 A 
ATOM     13  C   UNL     1       6.724  -2.316  12.899  1.00  0.00     0.047 A 
ATOM     14  C   UNL     1       6.234  -2.555  11.612  1.00  0.00     0.115 A 
ATOM     15  C   UNL     1       6.028  -0.165  11.253  1.00  0.00     0.022 A 
ATOM     16  C   UNL     1       5.884  -1.476  10.790  1.00  0.00     0.047 A 
BRANCH  14  17
ATOM     17  O   UNL     1       6.097  -3.866  11.160  1.00  0.00    -0.508 OA
ATOM     18  H   UNL     1       5.195  -4.244  10.897  1.00  0.00     0.293 HD
ENDBRANCH  14  17
ENDBRANCH   1  11
BRANCH  10  19
ATOM     19  O   UNL     1       5.885   0.830  15.282  1.00  0.00    -0.500 OA
ATOM     20  H   UNL     1       6.503   0.256  15.844  1.00  0.00     0.294 HD
ENDBRANCH  10  19
BRANCH   5  21
ATOM     21  O   UNL     1       8.313   6.853  11.033  1.00  0.00    -0.507 OA
ATOM     22  H   UNL     1       9.091   6.643  10.418  1.00  0.00     0.293 HD
ENDBRANCH   5  21
BRANCH   7  23
ATOM     23  O   UNL     1       6.974   5.940  15.568  1.00  0.00    -0.507 OA
ATOM     24  H   UNL     1       6.149   6.448  15.852  1.00  0.00     0.293 HD
ENDBRANCH   7  23
TORSDOF 5
ENDMDL
