MODEL 1
REMARK VINA RESULT:    -4.716      0.000      0.000
REMARK INTER + INTRA:          -7.450
REMARK INTER:                  -6.783
REMARK INTRA:                  -0.667
REMARK UNBOUND:                -0.667
REMARK SMILES O=C(CO)[C@@H](O)[C@H](O)[C@H](O)CO
REMARK SMILES IDX 7 1 9 2 11 3 12 4 10 6 5 8 2 9 1 10 3 11 4 12 6 14 8 16
REMARK H PARENT 12 5 10 7 4 13 6 15 8 17
REMARK Flexibility Score: inf
ROOT
ATOM      1  C   UNL     1      58.722  35.290  80.639  1.00  0.00     0.181 C 
ENDROOT
BRANCH   1   2
ATOM      2  C   UNL     1      58.275  36.770  80.501  1.00  0.00     0.171 C 
BRANCH   2   3
ATOM      3  C   UNL     1      58.966  37.482  79.321  1.00  0.00     0.190 C 
BRANCH   3   4
ATOM      4  O   UNL     1      60.209  36.898  79.032  1.00  0.00    -0.394 OA
ATOM      5  H   UNL     1      60.656  36.736  79.903  1.00  0.00     0.210 HD
ENDBRANCH   3   4
ENDBRANCH   2   3
BRANCH   2   6
ATOM      6  O   UNL     1      56.879  36.860  80.351  1.00  0.00    -0.388 OA
ATOM      7  H   UNL     1      56.665  36.649  79.404  1.00  0.00     0.211 HD
ENDBRANCH   2   6
ENDBRANCH   1   2
BRANCH   1   8
ATOM      8  C   UNL     1      57.698  34.326  79.999  1.00  0.00     0.214 C 
BRANCH   8   9
ATOM      9  C   UNL     1      58.184  33.845  78.649  1.00  0.00     0.189 C 
ATOM     10  O   UNL     1      58.932  32.880  78.582  1.00  0.00    -0.294 OA
BRANCH   9  11
ATOM     11  C   UNL     1      57.754  34.525  77.378  1.00  0.00     0.234 C 
BRANCH  11  12
ATOM     12  O   UNL     1      56.683  35.392  77.633  1.00  0.00    -0.388 OA
ATOM     13  H   UNL     1      56.592  35.444  78.621  1.00  0.00     0.211 HD
ENDBRANCH  11  12
ENDBRANCH   9  11
ENDBRANCH   8   9
BRANCH   8  14
ATOM     14  O   UNL     1      57.481  33.226  80.845  1.00  0.00    -0.382 OA
ATOM     15  H   UNL     1      57.883  32.436  80.398  1.00  0.00     0.211 HD
ENDBRANCH   8  14
ENDBRANCH   1   8
BRANCH   1  16
ATOM     16  O   UNL     1      58.878  34.976  82.002  1.00  0.00    -0.387 OA
ATOM     17  H   UNL     1      59.347  35.738  82.430  1.00  0.00     0.211 HD
ENDBRANCH   1  16
TORSDOF 10
ENDMDL
MODEL 2
REMARK VINA RESULT:    -4.643      1.053      2.295
REMARK INTER + INTRA:          -7.346
REMARK INTER:                  -6.779
REMARK INTRA:                  -0.567
REMARK UNBOUND:                -0.667
REMARK SMILES O=C(CO)[C@@H](O)[C@H](O)[C@H](O)CO
REMARK SMILES IDX 7 1 9 2 11 3 12 4 10 6 5 8 2 9 1 10 3 11 4 12 6 14 8 16
REMARK H PARENT 12 5 10 7 4 13 6 15 8 17
REMARK Flexibility Score: inf
ROOT
ATOM      1  C   UNL     1      58.732  34.729  80.211  1.00  0.00     0.181 C 
ENDROOT
BRANCH   1   2
ATOM      2  C   UNL     1      58.710  36.220  79.784  1.00  0.00     0.171 C 
BRANCH   2   3
ATOM      3  C   UNL     1      58.221  37.146  80.917  1.00  0.00     0.190 C 
BRANCH   3   4
ATOM      4  O   UNL     1      56.820  37.155  80.997  1.00  0.00    -0.394 OA
ATOM      5  H   UNL     1      56.501  37.814  80.328  1.00  0.00     0.210 HD
ENDBRANCH   3   4
ENDBRANCH   2   3
BRANCH   2   6
ATOM      6  O   UNL     1      59.982  36.639  79.354  1.00  0.00    -0.388 OA
ATOM      7  H   UNL     1      60.467  36.987  80.148  1.00  0.00     0.211 HD
ENDBRANCH   2   6
ENDBRANCH   1   2
BRANCH   1   8
ATOM      8  C   UNL     1      57.559  33.941  79.583  1.00  0.00     0.214 C 
BRANCH   8   9
ATOM      9  C   UNL     1      57.860  33.587  78.143  1.00  0.00     0.189 C 
ATOM     10  O   UNL     1      57.407  34.276  77.241  1.00  0.00    -0.294 OA
BRANCH   9  11
ATOM     11  C   UNL     1      58.721  32.403  77.796  1.00  0.00     0.234 C 
BRANCH  11  12
ATOM     12  O   UNL     1      57.976  31.220  77.892  1.00  0.00    -0.388 OA
ATOM     13  H   UNL     1      58.128  30.721  77.047  1.00  0.00     0.211 HD
ENDBRANCH  11  12
ENDBRANCH   9  11
ENDBRANCH   8   9
BRANCH   8  14
ATOM     14  O   UNL     1      57.319  32.770  80.321  1.00  0.00    -0.382 OA
ATOM     15  H   UNL     1      56.348  32.575  80.241  1.00  0.00     0.211 HD
ENDBRANCH   8  14
ENDBRANCH   1   8
BRANCH   1  16
ATOM     16  O   UNL     1      58.658  34.645  81.613  1.00  0.00    -0.387 OA
ATOM     17  H   UNL     1      58.203  33.791  81.836  1.00  0.00     0.211 HD
ENDBRANCH   1  16
TORSDOF 10
ENDMDL
MODEL 3
REMARK VINA RESULT:    -4.593      1.480      3.365
REMARK INTER + INTRA:          -7.273
REMARK INTER:                  -5.812
REMARK INTRA:                  -1.461
REMARK UNBOUND:                -0.667
REMARK SMILES O=C(CO)[C@@H](O)[C@H](O)[C@H](O)CO
REMARK SMILES IDX 7 1 9 2 11 3 12 4 10 6 5 8 2 9 1 10 3 11 4 12 6 14 8 16
REMARK H PARENT 12 5 10 7 4 13 6 15 8 17
REMARK Flexibility Score: inf
ROOT
ATOM      1  C   UNL     1      59.086  36.492  80.075  1.00  0.00     0.181 C 
ENDROOT
BRANCH   1   2
ATOM      2  C   UNL     1      58.895  35.218  80.940  1.00  0.00     0.171 C 
BRANCH   2   3
ATOM      3  C   UNL     1      58.895  33.929  80.092  1.00  0.00     0.190 C 
BRANCH   3   4
ATOM      4  O   UNL     1      57.655  33.732  79.466  1.00  0.00    -0.394 OA
ATOM      5  H   UNL     1      57.513  34.510  78.866  1.00  0.00     0.210 HD
ENDBRANCH   3   4
ENDBRANCH   2   3
BRANCH   2   6
ATOM      6  O   UNL     1      59.891  35.128  81.929  1.00  0.00    -0.388 OA
ATOM      7  H   UNL     1      59.436  35.114  82.812  1.00  0.00     0.211 HD
ENDBRANCH   2   6
ENDBRANCH   1   2
BRANCH   1   8
ATOM      8  C   UNL     1      57.768  37.286  79.934  1.00  0.00     0.214 C 
BRANCH   8   9
ATOM      9  C   UNL     1      57.475  37.588  78.480  1.00  0.00     0.189 C 
ATOM     10  O   UNL     1      58.130  38.436  77.893  1.00  0.00    -0.294 OA
BRANCH   9  11
ATOM     11  C   UNL     1      56.395  36.852  77.734  1.00  0.00     0.234 C 
BRANCH  11  12
ATOM     12  O   UNL     1      56.728  35.496  77.616  1.00  0.00    -0.388 OA
ATOM     13  H   UNL     1      55.888  35.018  77.388  1.00  0.00     0.211 HD
ENDBRANCH  11  12
ENDBRANCH   9  11
ENDBRANCH   8   9
BRANCH   8  14
ATOM     14  O   UNL     1      56.706  36.554  80.491  1.00  0.00    -0.382 OA
ATOM     15  H   UNL     1      57.026  36.204  81.364  1.00  0.00     0.211 HD
ENDBRANCH   8  14
ENDBRANCH   1   8
BRANCH   1  16
ATOM     16  O   UNL     1      59.552  36.122  78.799  1.00  0.00    -0.387 OA
ATOM     17  H   UNL     1      60.405  36.606  78.644  1.00  0.00     0.211 HD
ENDBRANCH   1  16
TORSDOF 10
ENDMDL
MODEL 4
REMARK VINA RESULT:    -4.459      1.823      3.135
REMARK INTER + INTRA:          -7.081
REMARK INTER:                  -6.279
REMARK INTRA:                  -0.803
REMARK UNBOUND:                -0.667
REMARK SMILES O=C(CO)[C@@H](O)[C@H](O)[C@H](O)CO
REMARK SMILES IDX 7 1 9 2 11 3 12 4 10 6 5 8 2 9 1 10 3 11 4 12 6 14 8 16
REMARK H PARENT 12 5 10 7 4 13 6 15 8 17
REMARK Flexibility Score: inf
ROOT
ATOM      1  C   UNL     1      58.778  37.398  79.341  1.00  0.00     0.181 C 
ENDROOT
BRANCH   1   2
ATOM      2  C   UNL     1      58.116  36.496  80.416  1.00  0.00     0.171 C 
BRANCH   2   3
ATOM      3  C   UNL     1      59.102  35.464  81.001  1.00  0.00     0.190 C 
BRANCH   3   4
ATOM      4  O   UNL     1      58.693  35.035  82.273  1.00  0.00    -0.394 OA
ATOM      5  H   UNL     1      58.623  35.847  82.838  1.00  0.00     0.210 HD
ENDBRANCH   3   4
ENDBRANCH   2   3
BRANCH   2   6
ATOM      6  O   UNL     1      57.577  37.271  81.459  1.00  0.00    -0.388 OA
ATOM      7  H   UNL     1      56.651  37.520  81.200  1.00  0.00     0.211 HD
ENDBRANCH   2   6
ENDBRANCH   1   2
BRANCH   1   8
ATOM      8  C   UNL     1      57.833  37.638  78.142  1.00  0.00     0.214 C 
BRANCH   8   9
ATOM      9  C   UNL     1      57.970  36.531  77.120  1.00  0.00     0.189 C 
ATOM     10  O   UNL     1      58.892  36.557  76.317  1.00  0.00    -0.294 OA
BRANCH   9  11
ATOM     11  C   UNL     1      56.998  35.384  77.078  1.00  0.00     0.234 C 
BRANCH  11  12
ATOM     12  O   UNL     1      55.773  35.810  76.547  1.00  0.00    -0.388 OA
ATOM     13  H   UNL     1      55.911  35.918  75.570  1.00  0.00     0.211 HD
ENDBRANCH  11  12
ENDBRANCH   9  11
ENDBRANCH   8   9
BRANCH   8  14
ATOM     14  O   UNL     1      56.503  37.712  78.587  1.00  0.00    -0.382 OA
ATOM     15  H   UNL     1      56.037  36.908  78.234  1.00  0.00     0.211 HD
ENDBRANCH   8  14
ENDBRANCH   1   8
BRANCH   1  16
ATOM     16  O   UNL     1      59.966  36.792  78.892  1.00  0.00    -0.387 OA
ATOM     17  H   UNL     1      60.688  37.469  78.958  1.00  0.00     0.211 HD
ENDBRANCH   1  16
TORSDOF 10
ENDMDL
MODEL 5
REMARK VINA RESULT:    -4.439      1.463      3.912
REMARK INTER + INTRA:          -7.052
REMARK INTER:                  -6.264
REMARK INTRA:                  -0.787
REMARK UNBOUND:                -0.667
REMARK SMILES O=C(CO)[C@@H](O)[C@H](O)[C@H](O)CO
REMARK SMILES IDX 7 1 9 2 11 3 12 4 10 6 5 8 2 9 1 10 3 11 4 12 6 14 8 16
REMARK H PARENT 12 5 10 7 4 13 6 15 8 17
REMARK Flexibility Score: inf
ROOT
ATOM      1  C   UNL     1      57.949  35.869  79.981  1.00  0.00     0.181 C 
ENDROOT
BRANCH   1   2
ATOM      2  C   UNL     1      58.386  34.450  80.430  1.00  0.00     0.171 C 
BRANCH   2   3
ATOM      3  C   UNL     1      58.667  33.517  79.234  1.00  0.00     0.190 C 
BRANCH   3   4
ATOM      4  O   UNL     1      57.616  32.606  79.043  1.00  0.00    -0.394 OA
ATOM      5  H   UNL     1      57.190  32.474  79.929  1.00  0.00     0.210 HD
ENDBRANCH   3   4
ENDBRANCH   2   3
BRANCH   2   6
ATOM      6  O   UNL     1      59.526  34.512  81.252  1.00  0.00    -0.388 OA
ATOM      7  H   UNL     1      60.277  34.092  80.755  1.00  0.00     0.211 HD
ENDBRANCH   2   6
ENDBRANCH   1   2
BRANCH   1   8
ATOM      8  C   UNL     1      58.801  36.377  78.795  1.00  0.00     0.214 C 
BRANCH   8   9
ATOM      9  C   UNL     1      58.245  37.675  78.251  1.00  0.00     0.189 C 
ATOM     10  O   UNL     1      57.141  37.690  77.729  1.00  0.00    -0.294 OA
BRANCH   9  11
ATOM     11  C   UNL     1      59.024  38.958  78.351  1.00  0.00     0.234 C 
BRANCH  11  12
ATOM     12  O   UNL     1      59.477  39.147  79.664  1.00  0.00    -0.388 OA
ATOM     13  H   UNL     1      59.672  38.243  80.027  1.00  0.00     0.211 HD
ENDBRANCH  11  12
ENDBRANCH   9  11
ENDBRANCH   8   9
BRANCH   8  14
ATOM     14  O   UNL     1      60.131  36.564  79.207  1.00  0.00    -0.382 OA
ATOM     15  H   UNL     1      60.284  35.947  79.970  1.00  0.00     0.211 HD
ENDBRANCH   8  14
ENDBRANCH   1   8
BRANCH   1  16
ATOM     16  O   UNL     1      58.070  36.758  81.064  1.00  0.00    -0.387 OA
ATOM     17  H   UNL     1      58.809  37.386  80.851  1.00  0.00     0.211 HD
ENDBRANCH   1  16
TORSDOF 10
ENDMDL
MODEL 6
REMARK VINA RESULT:    -4.370      1.332      3.544
REMARK INTER + INTRA:          -6.953
REMARK INTER:                  -5.989
REMARK INTRA:                  -0.963
REMARK UNBOUND:                -0.667
REMARK SMILES O=C(CO)[C@@H](O)[C@H](O)[C@H](O)CO
REMARK SMILES IDX 7 1 9 2 11 3 12 4 10 6 5 8 2 9 1 10 3 11 4 12 6 14 8 16
REMARK H PARENT 12 5 10 7 4 13 6 15 8 17
REMARK Flexibility Score: inf
ROOT
ATOM      1  C   UNL     1      57.295  35.509  79.619  1.00  0.00     0.181 C 
ENDROOT
BRANCH   1   2
ATOM      2  C   UNL     1      58.189  34.313  80.040  1.00  0.00     0.171 C 
BRANCH   2   3
ATOM      3  C   UNL     1      59.301  34.732  81.025  1.00  0.00     0.190 C 
BRANCH   3   4
ATOM      4  O   UNL     1      58.771  35.042  82.287  1.00  0.00    -0.394 OA
ATOM      5  H   UNL     1      58.787  36.031  82.367  1.00  0.00     0.210 HD
ENDBRANCH   3   4
ENDBRANCH   2   3
BRANCH   2   6
ATOM      6  O   UNL     1      57.418  33.287  80.615  1.00  0.00    -0.388 OA
ATOM      7  H   UNL     1      56.470  33.447  80.362  1.00  0.00     0.211 HD
ENDBRANCH   2   6
ENDBRANCH   1   2
BRANCH   1   8
ATOM      8  C   UNL     1      57.528  35.898  78.141  1.00  0.00     0.214 C 
BRANCH   8   9
ATOM      9  C   UNL     1      58.089  37.300  78.036  1.00  0.00     0.189 C 
ATOM     10  O   UNL     1      57.349  38.262  78.172  1.00  0.00    -0.294 OA
BRANCH   9  11
ATOM     11  C   UNL     1      59.553  37.535  77.779  1.00  0.00     0.234 C 
BRANCH  11  12
ATOM     12  O   UNL     1      60.315  37.051  78.851  1.00  0.00    -0.388 OA
ATOM     13  H   UNL     1      59.684  36.575  79.454  1.00  0.00     0.211 HD
ENDBRANCH  11  12
ENDBRANCH   9  11
ENDBRANCH   8   9
BRANCH   8  14
ATOM     14  O   UNL     1      58.410  34.986  77.538  1.00  0.00    -0.382 OA
ATOM     15  H   UNL     1      57.857  34.382  76.976  1.00  0.00     0.211 HD
ENDBRANCH   8  14
ENDBRANCH   1   8
BRANCH   1  16
ATOM     16  O   UNL     1      57.573  36.613  80.446  1.00  0.00    -0.387 OA
ATOM     17  H   UNL     1      57.569  36.288  81.384  1.00  0.00     0.211 HD
ENDBRANCH   1  16
TORSDOF 10
ENDMDL
MODEL 7
REMARK VINA RESULT:    -4.351      1.248      4.202
REMARK INTER + INTRA:          -6.926
REMARK INTER:                  -5.776
REMARK INTRA:                  -1.149
REMARK UNBOUND:                -0.667
REMARK SMILES O=C(CO)[C@@H](O)[C@H](O)[C@H](O)CO
REMARK SMILES IDX 7 1 9 2 11 3 12 4 10 6 5 8 2 9 1 10 3 11 4 12 6 14 8 16
REMARK H PARENT 12 5 10 7 4 13 6 15 8 17
REMARK Flexibility Score: inf
ROOT
ATOM      1  C   UNL     1      58.262  35.201  78.091  1.00  0.00     0.181 C 
ENDROOT
BRANCH   1   2
ATOM      2  C   UNL     1      58.228  34.109  79.192  1.00  0.00     0.171 C 
BRANCH   2   3
ATOM      3  C   UNL     1      57.779  32.739  78.643  1.00  0.00     0.190 C 
BRANCH   3   4
ATOM      4  O   UNL     1      58.193  32.563  77.314  1.00  0.00    -0.394 OA
ATOM      5  H   UNL     1      58.790  31.770  77.305  1.00  0.00     0.210 HD
ENDBRANCH   3   4
ENDBRANCH   2   3
BRANCH   2   6
ATOM      6  O   UNL     1      59.486  33.976  79.807  1.00  0.00    -0.388 OA
ATOM      7  H   UNL     1      59.505  33.095  80.266  1.00  0.00     0.211 HD
ENDBRANCH   2   6
ENDBRANCH   1   2
BRANCH   1   8
ATOM      8  C   UNL     1      58.633  36.584  78.675  1.00  0.00     0.214 C 
BRANCH   8   9
ATOM      9  C   UNL     1      57.674  36.976  79.778  1.00  0.00     0.189 C 
ATOM     10  O   UNL     1      56.482  37.087  79.535  1.00  0.00    -0.294 OA
BRANCH   9  11
ATOM     11  C   UNL     1      58.160  37.223  81.181  1.00  0.00     0.234 C 
BRANCH  11  12
ATOM     12  O   UNL     1      58.630  36.030  81.745  1.00  0.00    -0.388 OA
ATOM     13  H   UNL     1      58.186  35.290  81.254  1.00  0.00     0.211 HD
ENDBRANCH  11  12
ENDBRANCH   9  11
ENDBRANCH   8   9
BRANCH   8  14
ATOM     14  O   UNL     1      59.946  36.556  79.173  1.00  0.00    -0.382 OA
ATOM     15  H   UNL     1      60.307  37.477  79.081  1.00  0.00     0.211 HD
ENDBRANCH   8  14
ENDBRANCH   1   8
BRANCH   1  16
ATOM     16  O   UNL     1      57.001  35.275  77.470  1.00  0.00    -0.387 OA
ATOM     17  H   UNL     1      57.077  34.820  76.592  1.00  0.00     0.211 HD
ENDBRANCH   1  16
TORSDOF 10
ENDMDL
MODEL 8
REMARK VINA RESULT:    -4.320      1.375      2.631
REMARK INTER + INTRA:          -6.880
REMARK INTER:                  -6.315
REMARK INTRA:                  -0.566
REMARK UNBOUND:                -0.667
REMARK SMILES O=C(CO)[C@@H](O)[C@H](O)[C@H](O)CO
REMARK SMILES IDX 7 1 9 2 11 3 12 4 10 6 5 8 2 9 1 10 3 11 4 12 6 14 8 16
REMARK H PARENT 12 5 10 7 4 13 6 15 8 17
REMARK Flexibility Score: inf
ROOT
ATOM      1  C   UNL     1      58.626  36.472  79.119  1.00  0.00     0.181 C 
ENDROOT
BRANCH   1   2
ATOM      2  C   UNL     1      57.904  37.286  80.225  1.00  0.00     0.171 C 
BRANCH   2   3
ATOM      3  C   UNL     1      56.418  37.532  79.893  1.00  0.00     0.190 C 
BRANCH   3   4
ATOM      4  O   UNL     1      55.641  37.595  81.060  1.00  0.00    -0.394 OA
ATOM      5  H   UNL     1      55.925  36.836  81.632  1.00  0.00     0.210 HD
ENDBRANCH   3   4
ENDBRANCH   2   3
BRANCH   2   6
ATOM      6  O   UNL     1      58.005  36.641  81.470  1.00  0.00    -0.388 OA
ATOM      7  H   UNL     1      57.209  36.898  82.007  1.00  0.00     0.211 HD
ENDBRANCH   2   6
ENDBRANCH   1   2
BRANCH   1   8
ATOM      8  C   UNL     1      58.299  34.964  79.219  1.00  0.00     0.214 C 
BRANCH   8   9
ATOM      9  C   UNL     1      58.009  34.385  77.851  1.00  0.00     0.189 C 
ATOM     10  O   UNL     1      57.783  35.133  76.912  1.00  0.00    -0.294 OA
BRANCH   9  11
ATOM     11  C   UNL     1      58.005  32.899  77.619  1.00  0.00     0.234 C 
BRANCH  11  12
ATOM     12  O   UNL     1      57.601  32.230  78.782  1.00  0.00    -0.388 OA
ATOM     13  H   UNL     1      58.412  32.135  79.349  1.00  0.00     0.211 HD
ENDBRANCH  11  12
ENDBRANCH   9  11
ENDBRANCH   8   9
BRANCH   8  14
ATOM     14  O   UNL     1      59.375  34.279  79.807  1.00  0.00    -0.382 OA
ATOM     15  H   UNL     1      59.102  33.326  79.882  1.00  0.00     0.211 HD
ENDBRANCH   8  14
ENDBRANCH   1   8
BRANCH   1  16
ATOM     16  O   UNL     1      60.016  36.661  79.234  1.00  0.00    -0.387 OA
ATOM     17  H   UNL     1      60.371  36.811  78.320  1.00  0.00     0.211 HD
ENDBRANCH   1  16
TORSDOF 10
ENDMDL
MODEL 9
REMARK VINA RESULT:    -4.246      1.550      3.001
REMARK INTER + INTRA:          -6.774
REMARK INTER:                  -5.859
REMARK INTRA:                  -0.915
REMARK UNBOUND:                -0.667
REMARK SMILES O=C(CO)[C@@H](O)[C@H](O)[C@H](O)CO
REMARK SMILES IDX 7 1 9 2 11 3 12 4 10 6 5 8 2 9 1 10 3 11 4 12 6 14 8 16
REMARK H PARENT 12 5 10 7 4 13 6 15 8 17
REMARK Flexibility Score: inf
ROOT
ATOM      1  C   UNL     1      57.586  36.549  78.313  1.00  0.00     0.181 C 
ENDROOT
BRANCH   1   2
ATOM      2  C   UNL     1      58.207  37.959  78.490  1.00  0.00     0.171 C 
BRANCH   2   3
ATOM      3  C   UNL     1      59.677  38.014  78.023  1.00  0.00     0.190 C 
BRANCH   3   4
ATOM      4  O   UNL     1      60.508  37.268  78.873  1.00  0.00    -0.394 OA
ATOM      5  H   UNL     1      59.910  36.753  79.476  1.00  0.00     0.210 HD
ENDBRANCH   3   4
ENDBRANCH   2   3
BRANCH   2   6
ATOM      6  O   UNL     1      57.460  38.928  77.796  1.00  0.00    -0.388 OA
ATOM      7  H   UNL     1      58.103  39.542  77.352  1.00  0.00     0.211 HD
ENDBRANCH   2   6
ENDBRANCH   1   2
BRANCH   1   8
ATOM      8  C   UNL     1      57.226  35.913  79.676  1.00  0.00     0.214 C 
BRANCH   8   9
ATOM      9  C   UNL     1      58.077  34.690  79.939  1.00  0.00     0.189 C 
ATOM     10  O   UNL     1      57.834  33.644  79.355  1.00  0.00    -0.294 OA
BRANCH   9  11
ATOM     11  C   UNL     1      59.232  34.737  80.903  1.00  0.00     0.234 C 
BRANCH  11  12
ATOM     12  O   UNL     1      58.772  35.038  82.192  1.00  0.00    -0.388 OA
ATOM     13  H   UNL     1      58.511  35.996  82.182  1.00  0.00     0.211 HD
ENDBRANCH  11  12
ENDBRANCH   9  11
ENDBRANCH   8   9
BRANCH   8  14
ATOM     14  O   UNL     1      57.409  36.850  80.705  1.00  0.00    -0.382 OA
ATOM     15  H   UNL     1      56.895  37.661  80.449  1.00  0.00     0.211 HD
ENDBRANCH   8  14
ENDBRANCH   1   8
BRANCH   1  16
ATOM     16  O   UNL     1      58.497  35.720  77.633  1.00  0.00    -0.387 OA
ATOM     17  H   UNL     1      59.151  35.387  78.300  1.00  0.00     0.211 HD
ENDBRANCH   1  16
TORSDOF 10
ENDMDL
