MODEL 1
REMARK VINA RESULT:    -5.358      0.000      0.000
REMARK INTER + INTRA:         -10.563
REMARK INTER:                  -9.117
REMARK INTRA:                  -1.446
REMARK UNBOUND:                -1.446
REMARK SMILES CCCCCCCCCCCCCC(=O)[O-]
REMARK SMILES IDX 8 1 9 2 10 3 11 4 12 5 13 6 14 7 15 8 16 9 7 10 6 11 5 12
REMARK SMILES IDX 4 13 3 14 2 15 1 16
REMARK H PARENT
REMARK Flexibility Score: inf
ROOT
ATOM      1  C   UNL     1      11.785  24.202  -9.997  1.00  0.00     0.000 C 
ENDROOT
BRANCH   1   2
ATOM      2  C   UNL     1      10.517  23.337 -10.006  1.00  0.00     0.000 C 
BRANCH   2   3
ATOM      3  C   UNL     1       9.532  23.703  -8.880  1.00  0.00     0.000 C 
BRANCH   3   4
ATOM      4  C   UNL     1       8.099  23.172  -9.071  1.00  0.00     0.000 C 
BRANCH   4   5
ATOM      5  C   UNL     1       7.024  24.176  -8.627  1.00  0.00     0.006 C 
BRANCH   5   6
ATOM      6  C   UNL     1       6.235  23.640  -7.429  1.00  0.00     0.053 C 
BRANCH   6   7
ATOM      7  C   UNL     1       6.856  24.095  -6.147  1.00  0.00     0.041 C 
ATOM      8  O   UNL     1       6.699  25.280  -5.753  1.00  0.00    -0.550 OA
ATOM      9  O   UNL     1       7.650  23.224  -5.412  1.00  0.00    -0.550 OA
ENDBRANCH   6   7
ENDBRANCH   5   6
ENDBRANCH   4   5
ENDBRANCH   3   4
ENDBRANCH   2   3
ENDBRANCH   1   2
BRANCH   1  10
ATOM     10  C   UNL     1      12.213  24.535  -8.562  1.00  0.00     0.000 C 
BRANCH  10  11
ATOM     11  C   UNL     1      13.558  23.877  -8.222  1.00  0.00    -0.000 C 
BRANCH  11  12
ATOM     12  C   UNL     1      13.467  22.940  -7.006  1.00  0.00    -0.000 C 
BRANCH  12  13
ATOM     13  C   UNL     1      12.276  21.970  -7.096  1.00  0.00    -0.000 C 
BRANCH  13  14
ATOM     14  C   UNL     1      12.476  20.888  -8.169  1.00  0.00    -0.000 C 
BRANCH  14  15
ATOM     15  C   UNL     1      11.453  19.748  -8.054  1.00  0.00    -0.003 C 
ATOM     16  C   UNL     1      10.113  20.261  -7.537  1.00  0.00     0.004 C 
ENDBRANCH  14  15
ENDBRANCH  13  14
ENDBRANCH  12  13
ENDBRANCH  11  12
ENDBRANCH  10  11
ENDBRANCH   1  10
TORSDOF 12
ENDMDL
MODEL 2
REMARK VINA RESULT:    -5.257      2.699      5.761
REMARK INTER + INTRA:         -10.391
REMARK INTER:                  -8.801
REMARK INTRA:                  -1.590
REMARK UNBOUND:                -1.446
REMARK SMILES CCCCCCCCCCCCCC(=O)[O-]
REMARK SMILES IDX 8 1 9 2 10 3 11 4 12 5 13 6 14 7 15 8 16 9 7 10 6 11 5 12
REMARK SMILES IDX 4 13 3 14 2 15 1 16
REMARK H PARENT
REMARK Flexibility Score: inf
ROOT
ATOM      1  C   UNL     1       7.698  23.035  -5.247  1.00  0.00     0.000 C 
ENDROOT
BRANCH   1   2
ATOM      2  C   UNL     1       8.450  21.713  -5.460  1.00  0.00     0.000 C 
BRANCH   2   3
ATOM      3  C   UNL     1       9.813  21.902  -6.150  1.00  0.00     0.000 C 
BRANCH   3   4
ATOM      4  C   UNL     1      10.125  20.886  -7.264  1.00  0.00     0.000 C 
BRANCH   4   5
ATOM      5  C   UNL     1      11.225  21.366  -8.223  1.00  0.00     0.006 C 
BRANCH   5   6
ATOM      6  C   UNL     1      11.549  22.844  -7.991  1.00  0.00     0.053 C 
BRANCH   6   7
ATOM      7  C   UNL     1      11.704  23.559  -9.296  1.00  0.00     0.041 C 
ATOM      8  O   UNL     1      12.305  24.663  -9.346  1.00  0.00    -0.550 OA
ATOM      9  O   UNL     1      11.138  23.030 -10.449  1.00  0.00    -0.550 OA
ENDBRANCH   6   7
ENDBRANCH   5   6
ENDBRANCH   4   5
ENDBRANCH   3   4
ENDBRANCH   2   3
ENDBRANCH   1   2
BRANCH   1  10
ATOM     10  C   UNL     1       6.775  23.339  -6.434  1.00  0.00     0.000 C 
BRANCH  10  11
ATOM     11  C   UNL     1       7.094  24.714  -7.041  1.00  0.00    -0.000 C 
BRANCH  11  12
ATOM     12  C   UNL     1       7.310  24.653  -8.562  1.00  0.00    -0.000 C 
BRANCH  12  13
ATOM     13  C   UNL     1       7.980  23.343  -9.012  1.00  0.00    -0.000 C 
BRANCH  13  14
ATOM     14  C   UNL     1       7.164  22.600 -10.081  1.00  0.00    -0.000 C 
BRANCH  14  15
ATOM     15  C   UNL     1       5.764  23.200 -10.277  1.00  0.00    -0.003 C 
ATOM     16  C   UNL     1       4.700  22.350  -9.590  1.00  0.00     0.004 C 
ENDBRANCH  14  15
ENDBRANCH  13  14
ENDBRANCH  12  13
ENDBRANCH  11  12
ENDBRANCH  10  11
ENDBRANCH   1  10
TORSDOF 12
ENDMDL
MODEL 3
REMARK VINA RESULT:    -5.068      3.087      6.169
REMARK INTER + INTRA:         -10.069
REMARK INTER:                  -8.684
REMARK INTRA:                  -1.385
REMARK UNBOUND:                -1.446
REMARK SMILES CCCCCCCCCCCCCC(=O)[O-]
REMARK SMILES IDX 8 1 9 2 10 3 11 4 12 5 13 6 14 7 15 8 16 9 7 10 6 11 5 12
REMARK SMILES IDX 4 13 3 14 2 15 1 16
REMARK H PARENT
REMARK Flexibility Score: inf
ROOT
ATOM      1  C   UNL     1       5.920  23.618  -6.968  1.00  0.00     0.000 C 
ENDROOT
BRANCH   1   2
ATOM      2  C   UNL     1       6.343  22.868  -5.697  1.00  0.00     0.000 C 
BRANCH   2   3
ATOM      3  C   UNL     1       7.818  23.104  -5.321  1.00  0.00     0.000 C 
BRANCH   3   4
ATOM      4  C   UNL     1       8.706  21.847  -5.350  1.00  0.00     0.000 C 
BRANCH   4   5
ATOM      5  C   UNL     1       9.871  21.959  -6.345  1.00  0.00     0.006 C 
BRANCH   5   6
ATOM      6  C   UNL     1      10.007  20.680  -7.176  1.00  0.00     0.053 C 
BRANCH   6   7
ATOM      7  C   UNL     1      11.293  20.685  -7.940  1.00  0.00     0.041 C 
ATOM      8  O   UNL     1      11.833  19.599  -8.276  1.00  0.00    -0.550 OA
ATOM      9  O   UNL     1      11.921  21.888  -8.236  1.00  0.00    -0.550 OA
ENDBRANCH   6   7
ENDBRANCH   5   6
ENDBRANCH   4   5
ENDBRANCH   3   4
ENDBRANCH   2   3
ENDBRANCH   1   2
BRANCH   1  10
ATOM     10  C   UNL     1       6.950  24.693  -7.339  1.00  0.00     0.000 C 
BRANCH  10  11
ATOM     11  C   UNL     1       7.487  24.472  -8.762  1.00  0.00    -0.000 C 
BRANCH  11  12
ATOM     12  C   UNL     1       7.801  22.995  -9.051  1.00  0.00    -0.000 C 
BRANCH  12  13
ATOM     13  C   UNL     1       7.207  22.515 -10.387  1.00  0.00    -0.000 C 
BRANCH  13  14
ATOM     14  C   UNL     1       5.692  22.758 -10.480  1.00  0.00    -0.000 C 
BRANCH  14  15
ATOM     15  C   UNL     1       5.300  23.568 -11.725  1.00  0.00    -0.003 C 
ATOM     16  C   UNL     1       4.385  24.731 -11.357  1.00  0.00     0.004 C 
ENDBRANCH  14  15
ENDBRANCH  13  14
ENDBRANCH  12  13
ENDBRANCH  11  12
ENDBRANCH  10  11
ENDBRANCH   1  10
TORSDOF 12
ENDMDL
MODEL 4
REMARK VINA RESULT:    -5.026      1.466      3.395
REMARK INTER + INTRA:          -9.999
REMARK INTER:                  -8.845
REMARK INTRA:                  -1.154
REMARK UNBOUND:                -1.446
REMARK SMILES CCCCCCCCCCCCCC(=O)[O-]
REMARK SMILES IDX 8 1 9 2 10 3 11 4 12 5 13 6 14 7 15 8 16 9 7 10 6 11 5 12
REMARK SMILES IDX 4 13 3 14 2 15 1 16
REMARK H PARENT
REMARK Flexibility Score: inf
ROOT
ATOM      1  C   UNL     1       7.563  22.093 -10.178  1.00  0.00     0.000 C 
ENDROOT
BRANCH   1   2
ATOM      2  C   UNL     1       6.388  23.040 -10.464  1.00  0.00     0.000 C 
BRANCH   2   3
ATOM      3  C   UNL     1       5.018  22.407 -10.155  1.00  0.00     0.000 C 
BRANCH   3   4
ATOM      4  C   UNL     1       4.544  22.561  -8.699  1.00  0.00     0.000 C 
BRANCH   4   5
ATOM      5  C   UNL     1       5.398  23.551  -7.892  1.00  0.00     0.006 C 
BRANCH   5   6
ATOM      6  C   UNL     1       5.460  23.145  -6.416  1.00  0.00     0.053 C 
BRANCH   6   7
ATOM      7  C   UNL     1       6.600  23.829  -5.731  1.00  0.00     0.041 C 
ATOM      8  O   UNL     1       6.695  25.084  -5.760  1.00  0.00    -0.550 OA
ATOM      9  O   UNL     1       7.586  23.078  -5.104  1.00  0.00    -0.550 OA
ENDBRANCH   6   7
ENDBRANCH   5   6
ENDBRANCH   4   5
ENDBRANCH   3   4
ENDBRANCH   2   3
ENDBRANCH   1   2
BRANCH   1  10
ATOM     10  C   UNL     1       8.822  22.880  -9.792  1.00  0.00     0.000 C 
BRANCH  10  11
ATOM     11  C   UNL     1       9.011  22.903  -8.268  1.00  0.00    -0.000 C 
BRANCH  11  12
ATOM     12  C   UNL     1       9.886  21.744  -7.764  1.00  0.00    -0.000 C 
BRANCH  12  13
ATOM     13  C   UNL     1      11.215  22.228  -7.156  1.00  0.00    -0.000 C 
BRANCH  13  14
ATOM     14  C   UNL     1      12.296  22.475  -8.220  1.00  0.00    -0.000 C 
BRANCH  14  15
ATOM     15  C   UNL     1      12.683  23.956  -8.334  1.00  0.00    -0.003 C 
ATOM     16  C   UNL     1      12.058  24.595  -9.570  1.00  0.00     0.004 C 
ENDBRANCH  14  15
ENDBRANCH  13  14
ENDBRANCH  12  13
ENDBRANCH  11  12
ENDBRANCH  10  11
ENDBRANCH   1  10
TORSDOF 12
ENDMDL
MODEL 5
REMARK VINA RESULT:    -5.019      2.095      3.858
REMARK INTER + INTRA:          -9.987
REMARK INTER:                  -8.290
REMARK INTRA:                  -1.697
REMARK UNBOUND:                -1.446
REMARK SMILES CCCCCCCCCCCCCC(=O)[O-]
REMARK SMILES IDX 8 1 9 2 10 3 11 4 12 5 13 6 14 7 15 8 16 9 7 10 6 11 5 12
REMARK SMILES IDX 4 13 3 14 2 15 1 16
REMARK H PARENT
REMARK Flexibility Score: inf
ROOT
ATOM      1  C   UNL     1       9.895  22.313  -6.795  1.00  0.00     0.000 C 
ENDROOT
BRANCH   1   2
ATOM      2  C   UNL     1       9.139  21.707  -5.604  1.00  0.00     0.000 C 
BRANCH   2   3
ATOM      3  C   UNL     1       7.811  22.428  -5.306  1.00  0.00     0.000 C 
BRANCH   3   4
ATOM      4  C   UNL     1       7.628  23.777  -6.024  1.00  0.00     0.000 C 
BRANCH   4   5
ATOM      5  C   UNL     1       6.529  23.742  -7.098  1.00  0.00     0.006 C 
BRANCH   5   6
ATOM      6  C   UNL     1       7.000  24.422  -8.387  1.00  0.00     0.053 C 
BRANCH   6   7
ATOM      7  C   UNL     1       6.374  23.773  -9.581  1.00  0.00     0.041 C 
ATOM      8  O   UNL     1       6.704  22.605  -9.912  1.00  0.00    -0.550 OA
ATOM      9  O   UNL     1       5.465  24.479 -10.358  1.00  0.00    -0.550 OA
ENDBRANCH   6   7
ENDBRANCH   5   6
ENDBRANCH   4   5
ENDBRANCH   3   4
ENDBRANCH   2   3
ENDBRANCH   1   2
BRANCH   1  10
ATOM     10  C   UNL     1       9.784  21.411  -8.032  1.00  0.00     0.000 C 
BRANCH  10  11
ATOM     11  C   UNL     1      10.126  22.189  -9.312  1.00  0.00    -0.000 C 
BRANCH  11  12
ATOM     12  C   UNL     1      10.480  23.659  -9.033  1.00  0.00    -0.000 C 
BRANCH  12  13
ATOM     13  C   UNL     1      11.928  24.002  -9.424  1.00  0.00    -0.000 C 
BRANCH  13  14
ATOM     14  C   UNL     1      12.858  24.116  -8.205  1.00  0.00    -0.000 C 
BRANCH  14  15
ATOM     15  C   UNL     1      13.490  22.771  -7.818  1.00  0.00    -0.003 C 
ATOM     16  C   UNL     1      13.497  22.583  -6.305  1.00  0.00     0.004 C 
ENDBRANCH  14  15
ENDBRANCH  13  14
ENDBRANCH  12  13
ENDBRANCH  11  12
ENDBRANCH  10  11
ENDBRANCH   1  10
TORSDOF 12
ENDMDL
MODEL 6
REMARK VINA RESULT:    -5.009      2.579      5.614
REMARK INTER + INTRA:          -9.968
REMARK INTER:                  -8.290
REMARK INTRA:                  -1.678
REMARK UNBOUND:                -1.446
REMARK SMILES CCCCCCCCCCCCCC(=O)[O-]
REMARK SMILES IDX 8 1 9 2 10 3 11 4 12 5 13 6 14 7 15 8 16 9 7 10 6 11 5 12
REMARK SMILES IDX 4 13 3 14 2 15 1 16
REMARK H PARENT
REMARK Flexibility Score: inf
ROOT
ATOM      1  C   UNL     1       9.504  21.668  -8.420  1.00  0.00     0.000 C 
ENDROOT
BRANCH   1   2
ATOM      2  C   UNL     1       9.951  22.500  -9.630  1.00  0.00     0.000 C 
BRANCH   2   3
ATOM      3  C   UNL     1      10.491  23.888  -9.239  1.00  0.00     0.000 C 
BRANCH   3   4
ATOM      4  C   UNL     1      11.983  24.115  -9.541  1.00  0.00     0.000 C 
BRANCH   4   5
ATOM      5  C   UNL     1      12.795  24.507  -8.297  1.00  0.00     0.006 C 
BRANCH   5   6
ATOM      6  C   UNL     1      13.888  23.474  -8.008  1.00  0.00     0.053 C 
BRANCH   6   7
ATOM      7  C   UNL     1      13.323  22.306  -7.265  1.00  0.00     0.041 C 
ATOM      8  O   UNL     1      13.227  22.340  -6.010  1.00  0.00    -0.550 OA
ATOM      9  O   UNL     1      12.951  21.158  -7.953  1.00  0.00    -0.550 OA
ENDBRANCH   6   7
ENDBRANCH   5   6
ENDBRANCH   4   5
ENDBRANCH   3   4
ENDBRANCH   2   3
ENDBRANCH   1   2
BRANCH   1  10
ATOM     10  C   UNL     1       9.716  22.442  -7.112  1.00  0.00     0.000 C 
BRANCH  10  11
ATOM     11  C   UNL     1       8.405  22.551  -6.319  1.00  0.00    -0.000 C 
BRANCH  11  12
ATOM     12  C   UNL     1       7.642  23.852  -6.614  1.00  0.00    -0.000 C 
BRANCH  12  13
ATOM     13  C   UNL     1       6.456  23.638  -7.571  1.00  0.00    -0.000 C 
BRANCH  13  14
ATOM     14  C   UNL     1       6.754  24.125  -8.998  1.00  0.00    -0.000 C 
BRANCH  14  15
ATOM     15  C   UNL     1       6.235  23.157 -10.072  1.00  0.00    -0.003 C 
ATOM     16  C   UNL     1       4.795  22.739  -9.786  1.00  0.00     0.004 C 
ENDBRANCH  14  15
ENDBRANCH  13  14
ENDBRANCH  12  13
ENDBRANCH  11  12
ENDBRANCH  10  11
ENDBRANCH   1  10
TORSDOF 12
ENDMDL
MODEL 7
REMARK VINA RESULT:    -5.000      2.772      5.926
REMARK INTER + INTRA:          -9.954
REMARK INTER:                  -8.493
REMARK INTRA:                  -1.461
REMARK UNBOUND:                -1.446
REMARK SMILES CCCCCCCCCCCCCC(=O)[O-]
REMARK SMILES IDX 8 1 9 2 10 3 11 4 12 5 13 6 14 7 15 8 16 9 7 10 6 11 5 12
REMARK SMILES IDX 4 13 3 14 2 15 1 16
REMARK H PARENT
REMARK Flexibility Score: inf
ROOT
ATOM      1  C   UNL     1       7.692  23.451  -5.585  1.00  0.00     0.000 C 
ENDROOT
BRANCH   1   2
ATOM      2  C   UNL     1       8.210  22.006  -5.524  1.00  0.00     0.000 C 
BRANCH   2   3
ATOM      3  C   UNL     1       9.674  21.873  -5.983  1.00  0.00     0.000 C 
BRANCH   3   4
ATOM      4  C   UNL     1       9.899  20.921  -7.172  1.00  0.00     0.000 C 
BRANCH   4   5
ATOM      5  C   UNL     1      10.998  21.407  -8.130  1.00  0.00     0.006 C 
BRANCH   5   6
ATOM      6  C   UNL     1      11.379  22.861  -7.836  1.00  0.00     0.053 C 
BRANCH   6   7
ATOM      7  C   UNL     1      12.844  22.974  -7.557  1.00  0.00     0.041 C 
ATOM      8  O   UNL     1      13.575  23.687  -8.293  1.00  0.00    -0.550 OA
ATOM      9  O   UNL     1      13.411  22.250  -6.516  1.00  0.00    -0.550 OA
ENDBRANCH   6   7
ENDBRANCH   5   6
ENDBRANCH   4   5
ENDBRANCH   3   4
ENDBRANCH   2   3
ENDBRANCH   1   2
BRANCH   1  10
ATOM     10  C   UNL     1       6.574  23.590  -6.626  1.00  0.00     0.000 C 
BRANCH  10  11
ATOM     11  C   UNL     1       7.010  24.499  -7.784  1.00  0.00    -0.000 C 
BRANCH  11  12
ATOM     12  C   UNL     1       8.073  23.844  -8.682  1.00  0.00    -0.000 C 
BRANCH  12  13
ATOM     13  C   UNL     1       7.456  22.954  -9.775  1.00  0.00    -0.000 C 
BRANCH  13  14
ATOM     14  C   UNL     1       6.033  23.390 -10.158  1.00  0.00    -0.000 C 
BRANCH  14  15
ATOM     15  C   UNL     1       5.003  22.265  -9.980  1.00  0.00    -0.003 C 
ATOM     16  C   UNL     1       3.969  22.628  -8.920  1.00  0.00     0.004 C 
ENDBRANCH  14  15
ENDBRANCH  13  14
ENDBRANCH  12  13
ENDBRANCH  11  12
ENDBRANCH  10  11
ENDBRANCH   1  10
TORSDOF 12
ENDMDL
MODEL 8
REMARK VINA RESULT:    -4.970      2.325      6.065
REMARK INTER + INTRA:          -9.903
REMARK INTER:                  -8.898
REMARK INTRA:                  -1.005
REMARK UNBOUND:                -1.446
REMARK SMILES CCCCCCCCCCCCCC(=O)[O-]
REMARK SMILES IDX 8 1 9 2 10 3 11 4 12 5 13 6 14 7 15 8 16 9 7 10 6 11 5 12
REMARK SMILES IDX 4 13 3 14 2 15 1 16
REMARK H PARENT
REMARK Flexibility Score: inf
ROOT
ATOM      1  C   UNL     1       8.452  22.908  -9.303  1.00  0.00     0.000 C 
ENDROOT
BRANCH   1   2
ATOM      2  C   UNL     1       9.687  22.060  -8.965  1.00  0.00     0.000 C 
BRANCH   2   3
ATOM      3  C   UNL     1      10.954  22.521  -9.708  1.00  0.00     0.000 C 
BRANCH   3   4
ATOM      4  C   UNL     1      11.316  24.005  -9.518  1.00  0.00     0.000 C 
BRANCH   4   5
ATOM      5  C   UNL     1      12.416  24.225  -8.468  1.00  0.00     0.006 C 
BRANCH   5   6
ATOM      6  C   UNL     1      13.172  22.923  -8.185  1.00  0.00     0.053 C 
BRANCH   6   7
ATOM      7  C   UNL     1      13.030  22.537  -6.747  1.00  0.00     0.041 C 
ATOM      8  O   UNL     1      11.906  22.207  -6.288  1.00  0.00    -0.550 OA
ATOM      9  O   UNL     1      14.131  22.590  -5.902  1.00  0.00    -0.550 OA
ENDBRANCH   6   7
ENDBRANCH   5   6
ENDBRANCH   4   5
ENDBRANCH   3   4
ENDBRANCH   2   3
ENDBRANCH   1   2
BRANCH   1  10
ATOM     10  C   UNL     1       7.557  22.193 -10.323  1.00  0.00     0.000 C 
BRANCH  10  11
ATOM     11  C   UNL     1       6.089  22.615 -10.157  1.00  0.00    -0.000 C 
BRANCH  11  12
ATOM     12  C   UNL     1       5.854  23.450  -8.887  1.00  0.00    -0.000 C 
BRANCH  12  13
ATOM     13  C   UNL     1       4.777  22.843  -7.971  1.00  0.00    -0.000 C 
BRANCH  13  14
ATOM     14  C   UNL     1       4.976  23.220  -6.495  1.00  0.00    -0.000 C 
BRANCH  14  15
ATOM     15  C   UNL     1       6.433  23.582  -6.171  1.00  0.00    -0.003 C 
ATOM     16  C   UNL     1       6.539  25.004  -5.629  1.00  0.00     0.004 C 
ENDBRANCH  14  15
ENDBRANCH  13  14
ENDBRANCH  12  13
ENDBRANCH  11  12
ENDBRANCH  10  11
ENDBRANCH   1  10
TORSDOF 12
ENDMDL
MODEL 9
REMARK VINA RESULT:    -4.953      2.654      6.045
REMARK INTER + INTRA:          -9.874
REMARK INTER:                  -8.570
REMARK INTRA:                  -1.305
REMARK UNBOUND:                -1.446
REMARK SMILES CCCCCCCCCCCCCC(=O)[O-]
REMARK SMILES IDX 8 1 9 2 10 3 11 4 12 5 13 6 14 7 15 8 16 9 7 10 6 11 5 12
REMARK SMILES IDX 4 13 3 14 2 15 1 16
REMARK H PARENT
REMARK Flexibility Score: inf
ROOT
ATOM      1  C   UNL     1       9.179  21.758  -5.764  1.00  0.00     0.000 C 
ENDROOT
BRANCH   1   2
ATOM      2  C   UNL     1       9.440  22.411  -7.129  1.00  0.00     0.000 C 
BRANCH   2   3
ATOM      3  C   UNL     1       9.875  21.398  -8.205  1.00  0.00     0.000 C 
BRANCH   3   4
ATOM      4  C   UNL     1      11.104  20.547  -7.839  1.00  0.00     0.000 C 
BRANCH   4   5
ATOM      5  C   UNL     1      12.423  21.147  -8.349  1.00  0.00     0.006 C 
BRANCH   5   6
ATOM      6  C   UNL     1      13.025  22.106  -7.318  1.00  0.00     0.053 C 
BRANCH   6   7
ATOM      7  C   UNL     1      13.255  23.453  -7.926  1.00  0.00     0.041 C 
ATOM      8  O   UNL     1      14.340  24.059  -7.730  1.00  0.00    -0.550 OA
ATOM      9  O   UNL     1      12.250  24.062  -8.666  1.00  0.00    -0.550 OA
ENDBRANCH   6   7
ENDBRANCH   5   6
ENDBRANCH   4   5
ENDBRANCH   3   4
ENDBRANCH   2   3
ENDBRANCH   1   2
BRANCH   1  10
ATOM     10  C   UNL     1       7.945  22.371  -5.089  1.00  0.00     0.000 C 
BRANCH  10  11
ATOM     11  C   UNL     1       7.476  23.627  -5.838  1.00  0.00    -0.000 C 
BRANCH  11  12
ATOM     12  C   UNL     1       5.958  23.634  -6.086  1.00  0.00    -0.000 C 
BRANCH  12  13
ATOM     13  C   UNL     1       5.592  23.210  -7.519  1.00  0.00    -0.000 C 
BRANCH  13  14
ATOM     14  C   UNL     1       6.484  23.876  -8.578  1.00  0.00    -0.000 C 
BRANCH  14  15
ATOM     15  C   UNL     1       6.184  23.379 -10.000  1.00  0.00    -0.003 C 
ATOM     16  C   UNL     1       7.162  22.285 -10.417  1.00  0.00     0.004 C 
ENDBRANCH  14  15
ENDBRANCH  13  14
ENDBRANCH  12  13
ENDBRANCH  11  12
ENDBRANCH  10  11
ENDBRANCH   1  10
TORSDOF 12
ENDMDL
