MODEL 1
REMARK VINA RESULT:    -6.056      0.000      0.000
REMARK INTER + INTRA:          -8.089
REMARK INTER:                  -7.472
REMARK INTRA:                  -0.616
REMARK UNBOUND:                -0.616
REMARK SMILES CC(C)=CCC[C@H](C)c1ccc(C)cc1
REMARK SMILES IDX 6 1 7 2 8 3 9 4 13 5 12 6 11 7 14 8 10 9 15 10 5 11 4 12
REMARK SMILES IDX 2 13 1 14 3 15
REMARK H PARENT
REMARK Flexibility Score: inf
ROOT
ATOM      1  C   UNL     1     -15.202 -22.720 -41.374  1.00  0.00     0.012 C 
ENDROOT
BRANCH   1   2
ATOM      2  C   UNL     1     -14.371 -22.866 -42.666  1.00  0.00     0.016 C 
ATOM      3  C   UNL     1     -15.151 -23.652 -43.729  1.00  0.00     0.013 C 
BRANCH   2   4
ATOM      4  C   UNL     1     -13.022 -23.514 -42.407  1.00  0.00    -0.045 A 
ATOM      5  C   UNL     1      -9.200 -25.374 -41.631  1.00  0.00     0.044 C 
ATOM      6  C   UNL     1     -10.538 -24.754 -41.911  1.00  0.00    -0.051 A 
ATOM      7  C   UNL     1     -10.793 -24.152 -43.151  1.00  0.00     0.004 A 
ATOM      8  C   UNL     1     -11.520 -24.713 -40.912  1.00  0.00     0.004 A 
ATOM      9  C   UNL     1     -12.026 -23.543 -43.401  1.00  0.00     0.004 A 
ATOM     10  C   UNL     1     -12.755 -24.103 -41.159  1.00  0.00     0.004 A 
ENDBRANCH   2   4
ENDBRANCH   1   2
BRANCH   1  11
ATOM     11  C   UNL     1     -15.387 -21.249 -40.969  1.00  0.00     0.028 C 
BRANCH  11  12
ATOM     12  C   UNL     1     -14.820 -20.998 -39.595  1.00  0.00    -0.028 C 
ATOM     13  C   UNL     1     -14.607 -19.771 -39.070  1.00  0.00    -0.080 C 
ATOM     14  C   UNL     1     -14.071 -19.674 -37.664  1.00  0.00     0.039 C 
ATOM     15  C   UNL     1     -14.872 -18.507 -39.853  1.00  0.00     0.039 C 
ENDBRANCH  11  12
ENDBRANCH   1  11
TORSDOF 4
ENDMDL
MODEL 2
REMARK VINA RESULT:    -5.802      1.344      2.620
REMARK INTER + INTRA:          -7.775
REMARK INTER:                  -6.700
REMARK INTRA:                  -1.075
REMARK UNBOUND:                -0.616
REMARK SMILES CC(C)=CCC[C@H](C)c1ccc(C)cc1
REMARK SMILES IDX 6 1 7 2 8 3 9 4 13 5 12 6 11 7 14 8 10 9 15 10 5 11 4 12
REMARK SMILES IDX 2 13 1 14 3 15
REMARK H PARENT
REMARK Flexibility Score: inf
ROOT
ATOM      1  C   UNL     1     -16.938 -21.728 -40.727  1.00  0.00     0.012 C 
ENDROOT
BRANCH   1   2
ATOM      2  C   UNL     1     -16.284 -23.104 -40.477  1.00  0.00     0.016 C 
ATOM      3  C   UNL     1     -16.044 -23.328 -38.978  1.00  0.00     0.013 C 
BRANCH   2   4
ATOM      4  C   UNL     1     -14.991 -23.270 -41.256  1.00  0.00    -0.045 A 
ATOM      5  C   UNL     1     -11.295 -23.768 -43.437  1.00  0.00     0.044 C 
ATOM      6  C   UNL     1     -12.586 -23.624 -42.687  1.00  0.00    -0.051 A 
ATOM      7  C   UNL     1     -13.727 -23.125 -43.332  1.00  0.00     0.004 A 
ATOM      8  C   UNL     1     -12.646 -23.922 -41.319  1.00  0.00     0.004 A 
ATOM      9  C   UNL     1     -14.921 -22.956 -42.626  1.00  0.00     0.004 A 
ATOM     10  C   UNL     1     -13.839 -23.753 -40.609  1.00  0.00     0.004 A 
ENDBRANCH   2   4
ENDBRANCH   1   2
BRANCH   1  11
ATOM     11  C   UNL     1     -16.940 -20.851 -39.466  1.00  0.00     0.028 C 
BRANCH  11  12
ATOM     12  C   UNL     1     -16.267 -19.528 -39.734  1.00  0.00    -0.028 C 
ATOM     13  C   UNL     1     -14.989 -19.241 -39.403  1.00  0.00    -0.080 C 
ATOM     14  C   UNL     1     -14.438 -17.887 -39.772  1.00  0.00     0.039 C 
ATOM     15  C   UNL     1     -14.112 -20.225 -38.666  1.00  0.00     0.039 C 
ENDBRANCH  11  12
ENDBRANCH   1  11
TORSDOF 4
ENDMDL
MODEL 3
REMARK VINA RESULT:    -5.699      3.363      5.547
REMARK INTER + INTRA:          -7.648
REMARK INTER:                  -6.380
REMARK INTRA:                  -1.268
REMARK UNBOUND:                -0.616
REMARK SMILES CC(C)=CCC[C@H](C)c1ccc(C)cc1
REMARK SMILES IDX 6 1 7 2 8 3 9 4 13 5 12 6 11 7 14 8 10 9 15 10 5 11 4 12
REMARK SMILES IDX 2 13 1 14 3 15
REMARK H PARENT
REMARK Flexibility Score: inf
ROOT
ATOM      1  C   UNL     1     -14.467 -19.476 -37.388  1.00  0.00     0.012 C 
ENDROOT
BRANCH   1   2
ATOM      2  C   UNL     1     -14.449 -19.244 -38.914  1.00  0.00     0.016 C 
ATOM      3  C   UNL     1     -15.075 -17.887 -39.265  1.00  0.00     0.013 C 
BRANCH   2   4
ATOM      4  C   UNL     1     -15.143 -20.363 -39.669  1.00  0.00    -0.045 A 
ATOM      5  C   UNL     1     -17.087 -23.578 -41.804  1.00  0.00     0.044 C 
ATOM      6  C   UNL     1     -16.424 -22.472 -41.037  1.00  0.00    -0.051 A 
ATOM      7  C   UNL     1     -17.069 -21.236 -40.878  1.00  0.00     0.004 A 
ATOM      8  C   UNL     1     -15.128 -22.641 -40.530  1.00  0.00     0.004 A 
ATOM      9  C   UNL     1     -16.438 -20.193 -40.195  1.00  0.00     0.004 A 
ATOM     10  C   UNL     1     -14.495 -21.598 -39.847  1.00  0.00     0.004 A 
ENDBRANCH   2   4
ENDBRANCH   1   2
BRANCH   1  11
ATOM     11  C   UNL     1     -15.880 -19.774 -36.865  1.00  0.00     0.028 C 
BRANCH  11  12
ATOM     12  C   UNL     1     -15.846 -20.868 -35.827  1.00  0.00    -0.028 C 
ATOM     13  C   UNL     1     -16.344 -22.110 -36.011  1.00  0.00    -0.080 C 
ATOM     14  C   UNL     1     -16.201 -23.115 -34.896  1.00  0.00     0.039 C 
ATOM     15  C   UNL     1     -17.049 -22.510 -37.286  1.00  0.00     0.039 C 
ENDBRANCH  11  12
ENDBRANCH   1  11
TORSDOF 4
ENDMDL
MODEL 4
REMARK VINA RESULT:    -5.642      0.929      1.611
REMARK INTER + INTRA:          -7.578
REMARK INTER:                  -6.409
REMARK INTRA:                  -1.169
REMARK UNBOUND:                -0.616
REMARK SMILES CC(C)=CCC[C@H](C)c1ccc(C)cc1
REMARK SMILES IDX 6 1 7 2 8 3 9 4 13 5 12 6 11 7 14 8 10 9 15 10 5 11 4 12
REMARK SMILES IDX 2 13 1 14 3 15
REMARK H PARENT
REMARK Flexibility Score: inf
ROOT
ATOM      1  C   UNL     1     -14.923 -22.367 -43.196  1.00  0.00     0.012 C 
ENDROOT
BRANCH   1   2
ATOM      2  C   UNL     1     -14.517 -23.854 -43.279  1.00  0.00     0.016 C 
ATOM      3  C   UNL     1     -15.542 -24.739 -42.559  1.00  0.00     0.013 C 
BRANCH   2   4
ATOM      4  C   UNL     1     -13.122 -24.096 -42.729  1.00  0.00    -0.045 A 
ATOM      5  C   UNL     1      -9.172 -24.803 -41.127  1.00  0.00     0.044 C 
ATOM      6  C   UNL     1     -10.546 -24.586 -41.691  1.00  0.00    -0.051 A 
ATOM      7  C   UNL     1     -10.705 -24.168 -43.021  1.00  0.00     0.004 A 
ATOM      8  C   UNL     1     -11.677 -24.736 -40.877  1.00  0.00     0.004 A 
ATOM      9  C   UNL     1     -11.982 -23.931 -43.538  1.00  0.00     0.004 A 
ATOM     10  C   UNL     1     -12.955 -24.498 -41.392  1.00  0.00     0.004 A 
ENDBRANCH   2   4
ENDBRANCH   1   2
BRANCH   1  11
ATOM     11  C   UNL     1     -15.876 -22.093 -42.023  1.00  0.00     0.028 C 
BRANCH  11  12
ATOM     12  C   UNL     1     -15.229 -21.179 -41.012  1.00  0.00    -0.028 C 
ATOM     13  C   UNL     1     -14.972 -21.520 -39.730  1.00  0.00    -0.080 C 
ATOM     14  C   UNL     1     -14.281 -20.515 -38.844  1.00  0.00     0.039 C 
ATOM     15  C   UNL     1     -15.370 -22.862 -39.163  1.00  0.00     0.039 C 
ENDBRANCH  11  12
ENDBRANCH   1  11
TORSDOF 4
ENDMDL
MODEL 5
REMARK VINA RESULT:    -5.610      0.998      1.932
REMARK INTER + INTRA:          -7.538
REMARK INTER:                  -6.816
REMARK INTRA:                  -0.721
REMARK UNBOUND:                -0.616
REMARK SMILES CC(C)=CCC[C@H](C)c1ccc(C)cc1
REMARK SMILES IDX 6 1 7 2 8 3 9 4 13 5 12 6 11 7 14 8 10 9 15 10 5 11 4 12
REMARK SMILES IDX 2 13 1 14 3 15
REMARK H PARENT
REMARK Flexibility Score: inf
ROOT
ATOM      1  C   UNL     1     -15.320 -22.553 -39.956  1.00  0.00     0.012 C 
ENDROOT
BRANCH   1   2
ATOM      2  C   UNL     1     -14.937 -22.355 -41.438  1.00  0.00     0.016 C 
ATOM      3  C   UNL     1     -16.103 -22.740 -42.358  1.00  0.00     0.013 C 
BRANCH   2   4
ATOM      4  C   UNL     1     -13.684 -23.128 -41.811  1.00  0.00    -0.045 A 
ATOM      5  C   UNL     1     -10.119 -25.306 -42.911  1.00  0.00     0.044 C 
ATOM      6  C   UNL     1     -11.340 -24.525 -42.523  1.00  0.00    -0.051 A 
ATOM      7  C   UNL     1     -11.813 -24.564 -41.203  1.00  0.00     0.004 A 
ATOM      8  C   UNL     1     -12.056 -23.806 -43.489  1.00  0.00     0.004 A 
ATOM      9  C   UNL     1     -12.971 -23.866 -40.847  1.00  0.00     0.004 A 
ATOM     10  C   UNL     1     -13.215 -23.107 -43.136  1.00  0.00     0.004 A 
ENDBRANCH   2   4
ENDBRANCH   1   2
BRANCH   1  11
ATOM     11  C   UNL     1     -16.240 -21.434 -39.442  1.00  0.00     0.028 C 
BRANCH  11  12
ATOM     12  C   UNL     1     -15.732 -20.083 -39.878  1.00  0.00    -0.028 C 
ATOM     13  C   UNL     1     -14.859 -19.331 -39.172  1.00  0.00    -0.080 C 
ATOM     14  C   UNL     1     -14.408 -18.015 -39.755  1.00  0.00     0.039 C 
ATOM     15  C   UNL     1     -14.341 -19.762 -37.821  1.00  0.00     0.039 C 
ENDBRANCH  11  12
ENDBRANCH   1  11
TORSDOF 4
ENDMDL
MODEL 6
REMARK VINA RESULT:    -5.544      1.557      6.129
REMARK INTER + INTRA:          -7.457
REMARK INTER:                  -6.710
REMARK INTRA:                  -0.747
REMARK UNBOUND:                -0.616
REMARK SMILES CC(C)=CCC[C@H](C)c1ccc(C)cc1
REMARK SMILES IDX 6 1 7 2 8 3 9 4 13 5 12 6 11 7 14 8 10 9 15 10 5 11 4 12
REMARK SMILES IDX 2 13 1 14 3 15
REMARK H PARENT
REMARK Flexibility Score: inf
ROOT
ATOM      1  C   UNL     1     -15.263 -21.950 -41.737  1.00  0.00     0.012 C 
ENDROOT
BRANCH   1   2
ATOM      2  C   UNL     1     -14.601 -22.529 -40.469  1.00  0.00     0.016 C 
ATOM      3  C   UNL     1     -15.075 -23.966 -40.215  1.00  0.00     0.013 C 
BRANCH   2   4
ATOM      4  C   UNL     1     -14.850 -21.661 -39.248  1.00  0.00    -0.045 A 
ATOM      5  C   UNL     1     -15.584 -19.223 -35.757  1.00  0.00     0.044 C 
ATOM      6  C   UNL     1     -15.309 -20.086 -36.954  1.00  0.00    -0.051 A 
ATOM      7  C   UNL     1     -14.330 -19.710 -37.886  1.00  0.00     0.004 A 
ATOM      8  C   UNL     1     -16.073 -21.237 -37.186  1.00  0.00     0.004 A 
ATOM      9  C   UNL     1     -14.097 -20.494 -39.019  1.00  0.00     0.004 A 
ATOM     10  C   UNL     1     -15.842 -22.023 -38.320  1.00  0.00     0.004 A 
ENDBRANCH   2   4
ENDBRANCH   1   2
BRANCH   1  11
ATOM     11  C   UNL     1     -14.880 -22.736 -43.000  1.00  0.00     0.028 C 
BRANCH  11  12
ATOM     12  C   UNL     1     -13.382 -22.864 -43.115  1.00  0.00    -0.028 C 
ATOM     13  C   UNL     1     -12.726 -24.034 -43.283  1.00  0.00    -0.080 C 
ATOM     14  C   UNL     1     -11.225 -24.003 -43.424  1.00  0.00     0.039 C 
ATOM     15  C   UNL     1     -13.449 -25.359 -43.316  1.00  0.00     0.039 C 
ENDBRANCH  11  12
ENDBRANCH   1  11
TORSDOF 4
ENDMDL
MODEL 7
REMARK VINA RESULT:    -5.500      1.122      5.744
REMARK INTER + INTRA:          -7.403
REMARK INTER:                  -6.641
REMARK INTRA:                  -0.762
REMARK UNBOUND:                -0.616
REMARK SMILES CC(C)=CCC[C@H](C)c1ccc(C)cc1
REMARK SMILES IDX 6 1 7 2 8 3 9 4 13 5 12 6 11 7 14 8 10 9 15 10 5 11 4 12
REMARK SMILES IDX 2 13 1 14 3 15
REMARK H PARENT
REMARK Flexibility Score: inf
ROOT
ATOM      1  C   UNL     1     -15.372 -22.373 -42.991  1.00  0.00     0.012 C 
ENDROOT
BRANCH   1   2
ATOM      2  C   UNL     1     -15.692 -22.763 -41.532  1.00  0.00     0.016 C 
ATOM      3  C   UNL     1     -17.102 -23.359 -41.424  1.00  0.00     0.013 C 
BRANCH   2   4
ATOM      4  C   UNL     1     -15.534 -21.589 -40.581  1.00  0.00    -0.045 A 
ATOM      5  C   UNL     1     -15.044 -18.263 -37.867  1.00  0.00     0.044 C 
ATOM      6  C   UNL     1     -15.199 -19.404 -38.830  1.00  0.00    -0.051 A 
ATOM      7  C   UNL     1     -16.312 -19.464 -39.681  1.00  0.00     0.004 A 
ATOM      8  C   UNL     1     -14.267 -20.451 -38.841  1.00  0.00     0.004 A 
ATOM      9  C   UNL     1     -16.476 -20.543 -40.554  1.00  0.00     0.004 A 
ATOM     10  C   UNL     1     -14.429 -21.532 -39.713  1.00  0.00     0.004 A 
ENDBRANCH   2   4
ENDBRANCH   1   2
BRANCH   1  11
ATOM     11  C   UNL     1     -14.042 -22.973 -43.471  1.00  0.00     0.028 C 
BRANCH  11  12
ATOM     12  C   UNL     1     -13.367 -23.735 -42.358  1.00  0.00    -0.028 C 
ATOM     13  C   UNL     1     -12.065 -24.097 -42.361  1.00  0.00    -0.080 C 
ATOM     14  C   UNL     1     -11.518 -24.822 -41.158  1.00  0.00     0.039 C 
ATOM     15  C   UNL     1     -11.157 -23.811 -43.534  1.00  0.00     0.039 C 
ENDBRANCH  11  12
ENDBRANCH   1  11
TORSDOF 4
ENDMDL
MODEL 8
REMARK VINA RESULT:    -5.443      1.569      5.727
REMARK INTER + INTRA:          -7.333
REMARK INTER:                  -6.596
REMARK INTRA:                  -0.737
REMARK UNBOUND:                -0.616
REMARK SMILES CC(C)=CCC[C@H](C)c1ccc(C)cc1
REMARK SMILES IDX 6 1 7 2 8 3 9 4 13 5 12 6 11 7 14 8 10 9 15 10 5 11 4 12
REMARK SMILES IDX 2 13 1 14 3 15
REMARK H PARENT
REMARK Flexibility Score: inf
ROOT
ATOM      1  C   UNL     1     -11.409 -23.781 -43.415  1.00  0.00     0.012 C 
ENDROOT
BRANCH   1   2
ATOM      2  C   UNL     1     -12.703 -24.462 -42.922  1.00  0.00     0.016 C 
ATOM      3  C   UNL     1     -13.402 -25.199 -44.073  1.00  0.00     0.013 C 
BRANCH   2   4
ATOM      4  C   UNL     1     -13.652 -23.475 -42.265  1.00  0.00    -0.045 A 
ATOM      5  C   UNL     1     -16.324 -20.664 -40.360  1.00  0.00     0.044 C 
ATOM      6  C   UNL     1     -15.378 -21.618 -41.030  1.00  0.00    -0.051 A 
ATOM      7  C   UNL     1     -15.574 -21.983 -42.370  1.00  0.00     0.004 A 
ATOM      8  C   UNL     1     -14.331 -22.202 -40.304  1.00  0.00     0.004 A 
ATOM      9  C   UNL     1     -14.715 -22.898 -42.985  1.00  0.00     0.004 A 
ATOM     10  C   UNL     1     -13.471 -23.119 -40.917  1.00  0.00     0.004 A 
ENDBRANCH   2   4
ENDBRANCH   1   2
BRANCH   1  11
ATOM     11  C   UNL     1     -10.149 -24.466 -42.864  1.00  0.00     0.028 C 
BRANCH  11  12
ATOM     12  C   UNL     1     -10.412 -25.047 -41.497  1.00  0.00    -0.028 C 
ATOM     13  C   UNL     1      -9.448 -25.480 -40.654  1.00  0.00    -0.080 C 
ATOM     14  C   UNL     1      -9.860 -26.000 -39.300  1.00  0.00     0.039 C 
ATOM     15  C   UNL     1      -7.987 -25.471 -41.035  1.00  0.00     0.039 C 
ENDBRANCH  11  12
ENDBRANCH   1  11
TORSDOF 4
ENDMDL
MODEL 9
REMARK VINA RESULT:    -5.383      4.796      6.926
REMARK INTER + INTRA:          -7.258
REMARK INTER:                  -6.752
REMARK INTRA:                  -0.506
REMARK UNBOUND:                -0.616
REMARK SMILES CC(C)=CCC[C@H](C)c1ccc(C)cc1
REMARK SMILES IDX 6 1 7 2 8 3 9 4 13 5 12 6 11 7 14 8 10 9 15 10 5 11 4 12
REMARK SMILES IDX 2 13 1 14 3 15
REMARK H PARENT
REMARK Flexibility Score: inf
ROOT
ATOM      1  C   UNL     1     -10.153 -26.140 -36.554  1.00  0.00     0.012 C 
ENDROOT
BRANCH   1   2
ATOM      2  C   UNL     1      -9.066 -26.462 -37.601  1.00  0.00     0.016 C 
ATOM      3  C   UNL     1      -7.718 -25.853 -37.193  1.00  0.00     0.013 C 
BRANCH   2   4
ATOM      4  C   UNL     1      -9.461 -26.001 -38.993  1.00  0.00    -0.045 A 
ATOM      5  C   UNL     1     -10.628 -24.689 -42.941  1.00  0.00     0.044 C 
ATOM      6  C   UNL     1     -10.228 -25.117 -41.559  1.00  0.00    -0.051 A 
ATOM      7  C   UNL     1      -8.888 -25.036 -41.155  1.00  0.00     0.004 A 
ATOM      8  C   UNL     1     -11.179 -25.662 -40.685  1.00  0.00     0.004 A 
ATOM      9  C   UNL     1      -8.507 -25.468 -39.881  1.00  0.00     0.004 A 
ATOM     10  C   UNL     1     -10.801 -26.095 -39.410  1.00  0.00     0.004 A 
ENDBRANCH   2   4
ENDBRANCH   1   2
BRANCH   1  11
ATOM     11  C   UNL     1      -9.562 -25.946 -35.149  1.00  0.00     0.028 C 
BRANCH  11  12
ATOM     12  C   UNL     1     -10.023 -24.640 -34.551  1.00  0.00    -0.028 C 
ATOM     13  C   UNL     1     -10.186 -24.422 -33.227  1.00  0.00    -0.080 C 
ATOM     14  C   UNL     1     -10.614 -23.049 -32.773  1.00  0.00     0.039 C 
ATOM     15  C   UNL     1      -9.968 -25.510 -32.203  1.00  0.00     0.039 C 
ENDBRANCH  11  12
ENDBRANCH   1  11
TORSDOF 4
ENDMDL
