MODEL 1
REMARK VINA RESULT:    12.461      0.000      0.000
REMARK INTER + INTRA:          26.963
REMARK INTER:                  28.487
REMARK INTRA:                  -1.524
REMARK UNBOUND:                -1.524
REMARK SMILES CCCCCCCCCCCCCCCCCCCCCCCC(=O)[O-]
REMARK SMILES IDX 13 1 14 2 15 3 16 4 17 5 18 6 19 7 20 8 21 9 22 10 23 11
REMARK SMILES IDX 24 12 25 13 26 14 12 15 11 16 10 17 9 18 8 19 7 20 6 21 5 22
REMARK SMILES IDX 4 23 3 24 2 25 1 26
REMARK H PARENT
REMARK Flexibility Score: inf
ROOT
ATOM      1  C   UNL     1     -33.401  11.386  19.652  1.00  0.00     0.000 C 
ENDROOT
BRANCH   1   2
ATOM      2  C   UNL     1     -33.914  11.366  21.104  1.00  0.00     0.000 C 
BRANCH   2   3
ATOM      3  C   UNL     1     -34.240  12.766  21.646  1.00  0.00     0.000 C 
BRANCH   3   4
ATOM      4  C   UNL     1     -34.413  12.794  23.175  1.00  0.00     0.000 C 
BRANCH   4   5
ATOM      5  C   UNL     1     -33.610  11.704  23.916  1.00  0.00     0.000 C 
BRANCH   5   6
ATOM      6  C   UNL     1     -34.186  11.391  25.310  1.00  0.00     0.000 C 
BRANCH   6   7
ATOM      7  C   UNL     1     -33.095  10.999  26.321  1.00  0.00     0.000 C 
BRANCH   7   8
ATOM      8  C   UNL     1     -33.296   9.582  26.878  1.00  0.00     0.000 C 
BRANCH   8   9
ATOM      9  C   UNL     1     -34.408   8.845  26.119  1.00  0.00     0.000 C 
BRANCH   9  10
ATOM     10  C   UNL     1     -33.833   7.673  25.307  1.00  0.00     0.006 C 
BRANCH  10  11
ATOM     11  C   UNL     1     -34.869   7.061  24.355  1.00  0.00     0.053 C 
BRANCH  11  12
ATOM     12  C   UNL     1     -34.464   7.198  22.919  1.00  0.00     0.041 C 
ATOM     13  O   UNL     1     -33.746   8.166  22.553  1.00  0.00    -0.550 OA
ATOM     14  O   UNL     1     -34.872   6.251  21.986  1.00  0.00    -0.550 OA
ENDBRANCH  11  12
ENDBRANCH  10  11
ENDBRANCH   9  10
ENDBRANCH   8   9
ENDBRANCH   7   8
ENDBRANCH   6   7
ENDBRANCH   5   6
ENDBRANCH   4   5
ENDBRANCH   3   4
ENDBRANCH   2   3
ENDBRANCH   1   2
BRANCH   1  15
ATOM     15  C   UNL     1     -32.449  12.558  19.338  1.00  0.00     0.000 C 
BRANCH  15  16
ATOM     16  C   UNL     1     -32.261  12.783  17.830  1.00  0.00     0.000 C 
BRANCH  16  17
ATOM     17  C   UNL     1     -33.603  12.678  17.085  1.00  0.00     0.000 C 
BRANCH  17  18
ATOM     18  C   UNL     1     -33.989  13.976  16.356  1.00  0.00    -0.000 C 
BRANCH  18  19
ATOM     19  C   UNL     1     -34.354  15.118  17.321  1.00  0.00    -0.000 C 
BRANCH  19  20
ATOM     20  C   UNL     1     -34.920  16.356  16.598  1.00  0.00    -0.000 C 
BRANCH  20  21
ATOM     21  C   UNL     1     -35.176  17.582  17.495  1.00  0.00    -0.000 C 
BRANCH  21  22
ATOM     22  C   UNL     1     -36.650  17.719  17.918  1.00  0.00    -0.000 C 
BRANCH  22  23
ATOM     23  C   UNL     1     -37.521  16.560  17.408  1.00  0.00    -0.000 C 
BRANCH  23  24
ATOM     24  C   UNL     1     -38.459  15.998  18.489  1.00  0.00    -0.000 C 
BRANCH  24  25
ATOM     25  C   UNL     1     -39.879  16.550  18.322  1.00  0.00    -0.003 C 
ATOM     26  C   UNL     1     -40.031  17.294  16.997  1.00  0.00     0.004 C 
ENDBRANCH  24  25
ENDBRANCH  23  24
ENDBRANCH  22  23
ENDBRANCH  21  22
ENDBRANCH  20  21
ENDBRANCH  19  20
ENDBRANCH  18  19
ENDBRANCH  17  18
ENDBRANCH  16  17
ENDBRANCH  15  16
ENDBRANCH   1  15
TORSDOF 22
ENDMDL
MODEL 2
REMARK VINA RESULT:    12.757      3.024      9.897
REMARK INTER + INTRA:          27.640
REMARK INTER:                  28.532
REMARK INTRA:                  -0.892
REMARK UNBOUND:                -1.524
REMARK SMILES CCCCCCCCCCCCCCCCCCCCCCCC(=O)[O-]
REMARK SMILES IDX 13 1 14 2 15 3 16 4 17 5 18 6 19 7 20 8 21 9 22 10 23 11
REMARK SMILES IDX 24 12 25 13 26 14 12 15 11 16 10 17 9 18 8 19 7 20 6 21 5 22
REMARK SMILES IDX 4 23 3 24 2 25 1 26
REMARK H PARENT
REMARK Flexibility Score: inf
ROOT
ATOM      1  C   UNL     1     -33.213  11.213  19.995  1.00  0.00     0.000 C 
ENDROOT
BRANCH   1   2
ATOM      2  C   UNL     1     -33.093  12.567  19.272  1.00  0.00     0.000 C 
BRANCH   2   3
ATOM      3  C   UNL     1     -31.807  12.694  18.441  1.00  0.00     0.000 C 
BRANCH   3   4
ATOM      4  C   UNL     1     -32.075  13.059  16.970  1.00  0.00     0.000 C 
BRANCH   4   5
ATOM      5  C   UNL     1     -33.572  13.120  16.603  1.00  0.00     0.000 C 
BRANCH   5   6
ATOM      6  C   UNL     1     -33.970  14.466  15.968  1.00  0.00     0.000 C 
BRANCH   6   7
ATOM      7  C   UNL     1     -34.767  15.358  16.936  1.00  0.00     0.000 C 
BRANCH   7   8
ATOM      8  C   UNL     1     -34.894  16.803  16.429  1.00  0.00     0.000 C 
BRANCH   8   9
ATOM      9  C   UNL     1     -35.124  17.777  17.591  1.00  0.00     0.000 C 
BRANCH   9  10
ATOM     10  C   UNL     1     -36.586  17.726  18.065  1.00  0.00     0.006 C 
BRANCH  10  11
ATOM     11  C   UNL     1     -37.363  16.564  17.433  1.00  0.00     0.053 C 
BRANCH  11  12
ATOM     12  C   UNL     1     -38.716  16.387  18.054  1.00  0.00     0.041 C 
ATOM     13  O   UNL     1     -39.726  16.935  17.539  1.00  0.00    -0.550 OA
ATOM     14  O   UNL     1     -38.861  15.607  19.196  1.00  0.00    -0.550 OA
ENDBRANCH  11  12
ENDBRANCH  10  11
ENDBRANCH   9  10
ENDBRANCH   8   9
ENDBRANCH   7   8
ENDBRANCH   6   7
ENDBRANCH   5   6
ENDBRANCH   4   5
ENDBRANCH   3   4
ENDBRANCH   2   3
ENDBRANCH   1   2
BRANCH   1  15
ATOM     15  C   UNL     1     -34.020  11.271  21.308  1.00  0.00     0.000 C 
BRANCH  15  16
ATOM     16  C   UNL     1     -34.169  12.701  21.850  1.00  0.00     0.000 C 
BRANCH  16  17
ATOM     17  C   UNL     1     -34.419  12.694  23.367  1.00  0.00     0.000 C 
BRANCH  17  18
ATOM     18  C   UNL     1     -33.739  11.517  24.084  1.00  0.00    -0.000 C 
BRANCH  18  19
ATOM     19  C   UNL     1     -34.172  11.379  25.554  1.00  0.00    -0.000 C 
BRANCH  19  20
ATOM     20  C   UNL     1     -33.115  10.674  26.427  1.00  0.00    -0.000 C 
BRANCH  20  21
ATOM     21  C   UNL     1     -33.402   9.193  26.739  1.00  0.00    -0.000 C 
BRANCH  21  22
ATOM     22  C   UNL     1     -34.567   8.619  25.912  1.00  0.00    -0.000 C 
BRANCH  22  23
ATOM     23  C   UNL     1     -34.144   7.420  25.048  1.00  0.00    -0.000 C 
BRANCH  23  24
ATOM     24  C   UNL     1     -35.211   7.024  24.015  1.00  0.00    -0.000 C 
BRANCH  24  25
ATOM     25  C   UNL     1     -34.602   6.920  22.612  1.00  0.00    -0.003 C 
ATOM     26  C   UNL     1     -33.819   8.180  22.255  1.00  0.00     0.004 C 
ENDBRANCH  24  25
ENDBRANCH  23  24
ENDBRANCH  22  23
ENDBRANCH  21  22
ENDBRANCH  20  21
ENDBRANCH  19  20
ENDBRANCH  18  19
ENDBRANCH  17  18
ENDBRANCH  16  17
ENDBRANCH  15  16
ENDBRANCH   1  15
TORSDOF 22
ENDMDL
MODEL 3
REMARK VINA RESULT:    12.763      1.796      3.045
REMARK INTER + INTRA:          27.653
REMARK INTER:                  28.573
REMARK INTRA:                  -0.920
REMARK UNBOUND:                -1.524
REMARK SMILES CCCCCCCCCCCCCCCCCCCCCCCC(=O)[O-]
REMARK SMILES IDX 13 1 14 2 15 3 16 4 17 5 18 6 19 7 20 8 21 9 22 10 23 11
REMARK SMILES IDX 24 12 25 13 26 14 12 15 11 16 10 17 9 18 8 19 7 20 6 21 5 22
REMARK SMILES IDX 4 23 3 24 2 25 1 26
REMARK H PARENT
REMARK Flexibility Score: inf
ROOT
ATOM      1  C   UNL     1     -32.443  12.250  19.100  1.00  0.00     0.000 C 
ENDROOT
BRANCH   1   2
ATOM      2  C   UNL     1     -33.602  12.802  19.951  1.00  0.00     0.000 C 
BRANCH   2   3
ATOM      3  C   UNL     1     -33.965  11.893  21.135  1.00  0.00     0.000 C 
BRANCH   3   4
ATOM      4  C   UNL     1     -33.861  10.395  20.797  1.00  0.00     0.000 C 
BRANCH   4   5
ATOM      5  C   UNL     1     -34.081   9.464  22.008  1.00  0.00     0.000 C 
BRANCH   5   6
ATOM      6  C   UNL     1     -33.291   8.147  21.891  1.00  0.00     0.000 C 
BRANCH   6   7
ATOM      7  C   UNL     1     -34.156   6.914  22.202  1.00  0.00     0.000 C 
BRANCH   7   8
ATOM      8  C   UNL     1     -35.250   7.214  23.238  1.00  0.00     0.000 C 
BRANCH   8   9
ATOM      9  C   UNL     1     -34.770   6.884  24.657  1.00  0.00     0.000 C 
BRANCH   9  10
ATOM     10  C   UNL     1     -33.827   7.979  25.184  1.00  0.00     0.006 C 
BRANCH  10  11
ATOM     11  C   UNL     1     -34.591   9.187  25.740  1.00  0.00     0.053 C 
BRANCH  11  12
ATOM     12  C   UNL     1     -33.671  10.298  26.146  1.00  0.00     0.041 C 
ATOM     13  O   UNL     1     -33.716  11.407  25.551  1.00  0.00    -0.550 OA
ATOM     14  O   UNL     1     -32.769  10.111  27.188  1.00  0.00    -0.550 OA
ENDBRANCH  11  12
ENDBRANCH  10  11
ENDBRANCH   9  10
ENDBRANCH   8   9
ENDBRANCH   7   8
ENDBRANCH   6   7
ENDBRANCH   5   6
ENDBRANCH   4   5
ENDBRANCH   3   4
ENDBRANCH   2   3
ENDBRANCH   1   2
BRANCH   1  15
ATOM     15  C   UNL     1     -32.353  12.864  17.688  1.00  0.00     0.000 C 
BRANCH  15  16
ATOM     16  C   UNL     1     -33.726  13.001  17.012  1.00  0.00     0.000 C 
BRANCH  16  17
ATOM     17  C   UNL     1     -33.910  14.406  16.413  1.00  0.00     0.000 C 
BRANCH  17  18
ATOM     18  C   UNL     1     -34.513  15.410  17.409  1.00  0.00    -0.000 C 
BRANCH  18  19
ATOM     19  C   UNL     1     -34.714  16.809  16.801  1.00  0.00    -0.000 C 
BRANCH  19  20
ATOM     20  C   UNL     1     -35.515  17.753  17.719  1.00  0.00    -0.000 C 
BRANCH  20  21
ATOM     21  C   UNL     1     -37.032  17.491  17.769  1.00  0.00    -0.000 C 
BRANCH  21  22
ATOM     22  C   UNL     1     -37.391  16.003  17.604  1.00  0.00    -0.000 C 
BRANCH  22  23
ATOM     23  C   UNL     1     -38.595  15.587  18.464  1.00  0.00    -0.000 C 
BRANCH  23  24
ATOM     24  C   UNL     1     -39.675  16.678  18.544  1.00  0.00    -0.000 C 
BRANCH  24  25
ATOM     25  C   UNL     1     -40.573  16.652  17.301  1.00  0.00    -0.003 C 
ATOM     26  C   UNL     1     -40.527  17.985  16.559  1.00  0.00     0.004 C 
ENDBRANCH  24  25
ENDBRANCH  23  24
ENDBRANCH  22  23
ENDBRANCH  21  22
ENDBRANCH  20  21
ENDBRANCH  19  20
ENDBRANCH  18  19
ENDBRANCH  17  18
ENDBRANCH  16  17
ENDBRANCH  15  16
ENDBRANCH   1  15
TORSDOF 22
ENDMDL
MODEL 4
REMARK VINA RESULT:    13.012      2.932      9.674
REMARK INTER + INTRA:          28.223
REMARK INTER:                  29.728
REMARK INTRA:                  -1.505
REMARK UNBOUND:                -1.524
REMARK SMILES CCCCCCCCCCCCCCCCCCCCCCCC(=O)[O-]
REMARK SMILES IDX 13 1 14 2 15 3 16 4 17 5 18 6 19 7 20 8 21 9 22 10 23 11
REMARK SMILES IDX 24 12 25 13 26 14 12 15 11 16 10 17 9 18 8 19 7 20 6 21 5 22
REMARK SMILES IDX 4 23 3 24 2 25 1 26
REMARK H PARENT
REMARK Flexibility Score: inf
ROOT
ATOM      1  C   UNL     1     -32.859  12.721  19.232  1.00  0.00     0.000 C 
ENDROOT
BRANCH   1   2
ATOM      2  C   UNL     1     -31.871  12.805  18.054  1.00  0.00     0.000 C 
BRANCH   2   3
ATOM      3  C   UNL     1     -32.541  13.217  16.735  1.00  0.00     0.000 C 
BRANCH   3   4
ATOM      4  C   UNL     1     -34.059  13.432  16.872  1.00  0.00     0.000 C 
BRANCH   4   5
ATOM      5  C   UNL     1     -34.462  14.898  17.133  1.00  0.00     0.000 C 
BRANCH   5   6
ATOM      6  C   UNL     1     -34.772  15.665  15.834  1.00  0.00     0.000 C 
BRANCH   6   7
ATOM      7  C   UNL     1     -34.863  17.184  16.057  1.00  0.00     0.000 C 
BRANCH   7   8
ATOM      8  C   UNL     1     -34.804  17.561  17.545  1.00  0.00     0.000 C 
BRANCH   8   9
ATOM      9  C   UNL     1     -36.114  18.218  18.000  1.00  0.00     0.000 C 
BRANCH   9  10
ATOM     10  C   UNL     1     -37.329  17.457  17.446  1.00  0.00     0.006 C 
BRANCH  10  11
ATOM     11  C   UNL     1     -37.513  16.089  18.117  1.00  0.00     0.053 C 
BRANCH  11  12
ATOM     12  C   UNL     1     -38.936  15.847  18.522  1.00  0.00     0.041 C 
ATOM     13  O   UNL     1     -39.841  16.646  18.163  1.00  0.00    -0.550 OA
ATOM     14  O   UNL     1     -39.262  14.734  19.289  1.00  0.00    -0.550 OA
ENDBRANCH  11  12
ENDBRANCH  10  11
ENDBRANCH   9  10
ENDBRANCH   8   9
ENDBRANCH   7   8
ENDBRANCH   6   7
ENDBRANCH   5   6
ENDBRANCH   4   5
ENDBRANCH   3   4
ENDBRANCH   2   3
ENDBRANCH   1   2
BRANCH   1  15
ATOM     15  C   UNL     1     -33.258  11.281  19.615  1.00  0.00     0.000 C 
BRANCH  15  16
ATOM     16  C   UNL     1     -34.042  11.213  20.935  1.00  0.00     0.000 C 
BRANCH  16  17
ATOM     17  C   UNL     1     -34.047  12.577  21.645  1.00  0.00     0.000 C 
BRANCH  17  18
ATOM     18  C   UNL     1     -34.567  12.502  23.090  1.00  0.00    -0.000 C 
BRANCH  18  19
ATOM     19  C   UNL     1     -33.634  11.707  24.022  1.00  0.00    -0.000 C 
BRANCH  19  20
ATOM     20  C   UNL     1     -34.308  11.311  25.349  1.00  0.00    -0.000 C 
BRANCH  20  21
ATOM     21  C   UNL     1     -33.423  10.507  26.322  1.00  0.00    -0.000 C 
BRANCH  21  22
ATOM     22  C   UNL     1     -33.824   9.024  26.412  1.00  0.00    -0.000 C 
BRANCH  22  23
ATOM     23  C   UNL     1     -34.760   8.594  25.271  1.00  0.00    -0.000 C 
BRANCH  23  24
ATOM     24  C   UNL     1     -34.449   7.184  24.744  1.00  0.00    -0.000 C 
BRANCH  24  25
ATOM     25  C   UNL     1     -34.702   7.096  23.234  1.00  0.00    -0.003 C 
ATOM     26  C   UNL     1     -33.976   8.211  22.487  1.00  0.00     0.004 C 
ENDBRANCH  24  25
ENDBRANCH  23  24
ENDBRANCH  22  23
ENDBRANCH  21  22
ENDBRANCH  20  21
ENDBRANCH  19  20
ENDBRANCH  18  19
ENDBRANCH  17  18
ENDBRANCH  16  17
ENDBRANCH  15  16
ENDBRANCH   1  15
TORSDOF 22
ENDMDL
MODEL 5
REMARK VINA RESULT:    13.258      3.049      9.852
REMARK INTER + INTRA:          28.785
REMARK INTER:                  29.832
REMARK INTRA:                  -1.047
REMARK UNBOUND:                -1.524
REMARK SMILES CCCCCCCCCCCCCCCCCCCCCCCC(=O)[O-]
REMARK SMILES IDX 13 1 14 2 15 3 16 4 17 5 18 6 19 7 20 8 21 9 22 10 23 11
REMARK SMILES IDX 24 12 25 13 26 14 12 15 11 16 10 17 9 18 8 19 7 20 6 21 5 22
REMARK SMILES IDX 4 23 3 24 2 25 1 26
REMARK H PARENT
REMARK Flexibility Score: inf
ROOT
ATOM      1  C   UNL     1     -33.391  12.868  20.034  1.00  0.00     0.000 C 
ENDROOT
BRANCH   1   2
ATOM      2  C   UNL     1     -32.826  12.091  18.831  1.00  0.00     0.000 C 
BRANCH   2   3
ATOM      3  C   UNL     1     -31.874  12.931  17.966  1.00  0.00     0.000 C 
BRANCH   3   4
ATOM      4  C   UNL     1     -32.493  13.347  16.620  1.00  0.00     0.000 C 
BRANCH   4   5
ATOM      5  C   UNL     1     -34.010  13.618  16.687  1.00  0.00     0.000 C 
BRANCH   5   6
ATOM      6  C   UNL     1     -34.338  14.993  17.300  1.00  0.00     0.000 C 
BRANCH   6   7
ATOM      7  C   UNL     1     -34.936  15.967  16.270  1.00  0.00     0.000 C 
BRANCH   7   8
ATOM      8  C   UNL     1     -34.726  17.437  16.665  1.00  0.00     0.000 C 
BRANCH   8   9
ATOM      9  C   UNL     1     -35.518  17.786  17.932  1.00  0.00     0.000 C 
BRANCH   9  10
ATOM     10  C   UNL     1     -37.020  17.531  17.726  1.00  0.00     0.006 C 
BRANCH  10  11
ATOM     11  C   UNL     1     -37.421  16.094  18.086  1.00  0.00     0.053 C 
BRANCH  11  12
ATOM     12  C   UNL     1     -38.874  15.986  18.438  1.00  0.00     0.041 C 
ATOM     13  O   UNL     1     -39.258  15.142  19.289  1.00  0.00    -0.550 OA
ATOM     14  O   UNL     1     -39.801  16.827  17.832  1.00  0.00    -0.550 OA
ENDBRANCH  11  12
ENDBRANCH  10  11
ENDBRANCH   9  10
ENDBRANCH   8   9
ENDBRANCH   7   8
ENDBRANCH   6   7
ENDBRANCH   5   6
ENDBRANCH   4   5
ENDBRANCH   3   4
ENDBRANCH   2   3
ENDBRANCH   1   2
BRANCH   1  15
ATOM     15  C   UNL     1     -33.977  11.970  21.143  1.00  0.00     0.000 C 
BRANCH  15  16
ATOM     16  C   UNL     1     -33.981  10.482  20.761  1.00  0.00     0.000 C 
BRANCH  16  17
ATOM     17  C   UNL     1     -34.014   9.590  22.014  1.00  0.00     0.000 C 
BRANCH  17  18
ATOM     18  C   UNL     1     -33.179   8.308  21.862  1.00  0.00    -0.000 C 
BRANCH  18  19
ATOM     19  C   UNL     1     -33.954   7.039  22.259  1.00  0.00    -0.000 C 
BRANCH  19  20
ATOM     20  C   UNL     1     -35.276   7.346  22.988  1.00  0.00    -0.000 C 
BRANCH  20  21
ATOM     21  C   UNL     1     -35.260   7.104  24.509  1.00  0.00    -0.000 C 
BRANCH  21  22
ATOM     22  C   UNL     1     -34.011   7.685  25.196  1.00  0.00    -0.000 C 
BRANCH  22  23
ATOM     23  C   UNL     1     -34.347   8.842  26.151  1.00  0.00    -0.000 C 
BRANCH  23  24
ATOM     24  C   UNL     1     -33.095   9.523  26.726  1.00  0.00    -0.000 C 
BRANCH  24  25
ATOM     25  C   UNL     1     -33.097  11.025  26.418  1.00  0.00    -0.003 C 
ATOM     26  C   UNL     1     -33.941  11.334  25.184  1.00  0.00     0.004 C 
ENDBRANCH  24  25
ENDBRANCH  23  24
ENDBRANCH  22  23
ENDBRANCH  21  22
ENDBRANCH  20  21
ENDBRANCH  19  20
ENDBRANCH  18  19
ENDBRANCH  17  18
ENDBRANCH  16  17
ENDBRANCH  15  16
ENDBRANCH   1  15
TORSDOF 22
ENDMDL
MODEL 6
REMARK VINA RESULT:    13.348      0.762      1.825
REMARK INTER + INTRA:          28.991
REMARK INTER:                  29.869
REMARK INTRA:                  -0.878
REMARK UNBOUND:                -1.524
REMARK SMILES CCCCCCCCCCCCCCCCCCCCCCCC(=O)[O-]
REMARK SMILES IDX 13 1 14 2 15 3 16 4 17 5 18 6 19 7 20 8 21 9 22 10 23 11
REMARK SMILES IDX 24 12 25 13 26 14 12 15 11 16 10 17 9 18 8 19 7 20 6 21 5 22
REMARK SMILES IDX 4 23 3 24 2 25 1 26
REMARK H PARENT
REMARK Flexibility Score: inf
ROOT
ATOM      1  C   UNL     1     -31.951  12.380  18.850  1.00  0.00     0.000 C 
ENDROOT
BRANCH   1   2
ATOM      2  C   UNL     1     -33.298  12.419  19.595  1.00  0.00     0.000 C 
BRANCH   2   3
ATOM      3  C   UNL     1     -33.731  11.045  20.128  1.00  0.00     0.000 C 
BRANCH   3   4
ATOM      4  C   UNL     1     -34.114  11.071  21.618  1.00  0.00     0.000 C 
BRANCH   4   5
ATOM      5  C   UNL     1     -34.212  12.491  22.214  1.00  0.00     0.000 C 
BRANCH   5   6
ATOM      6  C   UNL     1     -34.456  12.476  23.735  1.00  0.00     0.000 C 
BRANCH   6   7
ATOM      7  C   UNL     1     -33.557  11.464  24.465  1.00  0.00     0.000 C 
BRANCH   7   8
ATOM      8  C   UNL     1     -33.951  11.287  25.939  1.00  0.00     0.000 C 
BRANCH   8   9
ATOM      9  C   UNL     1     -33.619   9.873  26.433  1.00  0.00     0.000 C 
BRANCH   9  10
ATOM     10  C   UNL     1     -34.634   8.852  25.892  1.00  0.00     0.006 C 
BRANCH  10  11
ATOM     11  C   UNL     1     -33.954   7.702  25.138  1.00  0.00     0.053 C 
BRANCH  11  12
ATOM     12  C   UNL     1     -34.767   7.239  23.966  1.00  0.00     0.041 C 
ATOM     13  O   UNL     1     -35.962   6.875  24.129  1.00  0.00    -0.550 OA
ATOM     14  O   UNL     1     -34.207   7.221  22.693  1.00  0.00    -0.550 OA
ENDBRANCH  11  12
ENDBRANCH  10  11
ENDBRANCH   9  10
ENDBRANCH   8   9
ENDBRANCH   7   8
ENDBRANCH   6   7
ENDBRANCH   5   6
ENDBRANCH   4   5
ENDBRANCH   3   4
ENDBRANCH   2   3
ENDBRANCH   1   2
BRANCH   1  15
ATOM     15  C   UNL     1     -31.976  13.071  17.472  1.00  0.00     0.000 C 
BRANCH  15  16
ATOM     16  C   UNL     1     -33.339  12.955  16.773  1.00  0.00     0.000 C 
BRANCH  16  17
ATOM     17  C   UNL     1     -33.742  14.289  16.122  1.00  0.00     0.000 C 
BRANCH  17  18
ATOM     18  C   UNL     1     -34.326  15.297  17.127  1.00  0.00    -0.000 C 
BRANCH  18  19
ATOM     19  C   UNL     1     -35.033  16.481  16.445  1.00  0.00    -0.000 C 
BRANCH  19  20
ATOM     20  C   UNL     1     -35.433  17.592  17.435  1.00  0.00    -0.000 C 
BRANCH  20  21
ATOM     21  C   UNL     1     -36.872  17.501  17.979  1.00  0.00    -0.000 C 
BRANCH  21  22
ATOM     22  C   UNL     1     -37.499  16.108  17.789  1.00  0.00    -0.000 C 
BRANCH  22  23
ATOM     23  C   UNL     1     -38.657  15.844  18.765  1.00  0.00    -0.000 C 
BRANCH  23  24
ATOM     24  C   UNL     1     -39.997  16.409  18.269  1.00  0.00    -0.000 C 
BRANCH  24  25
ATOM     25  C   UNL     1     -39.776  17.458  17.173  1.00  0.00    -0.003 C 
ATOM     26  C   UNL     1     -41.016  17.611  16.297  1.00  0.00     0.004 C 
ENDBRANCH  24  25
ENDBRANCH  23  24
ENDBRANCH  22  23
ENDBRANCH  21  22
ENDBRANCH  20  21
ENDBRANCH  19  20
ENDBRANCH  18  19
ENDBRANCH  17  18
ENDBRANCH  16  17
ENDBRANCH  15  16
ENDBRANCH   1  15
TORSDOF 22
ENDMDL
MODEL 7
REMARK VINA RESULT:    13.682      1.810      3.011
REMARK INTER + INTRA:          29.756
REMARK INTER:                  31.031
REMARK INTRA:                  -1.276
REMARK UNBOUND:                -1.524
REMARK SMILES CCCCCCCCCCCCCCCCCCCCCCCC(=O)[O-]
REMARK SMILES IDX 13 1 14 2 15 3 16 4 17 5 18 6 19 7 20 8 21 9 22 10 23 11
REMARK SMILES IDX 24 12 25 13 26 14 12 15 11 16 10 17 9 18 8 19 7 20 6 21 5 22
REMARK SMILES IDX 4 23 3 24 2 25 1 26
REMARK H PARENT
REMARK Flexibility Score: inf
ROOT
ATOM      1  C   UNL     1     -33.609  12.564  20.017  1.00  0.00     0.000 C 
ENDROOT
BRANCH   1   2
ATOM      2  C   UNL     1     -33.988  11.679  21.218  1.00  0.00     0.000 C 
BRANCH   2   3
ATOM      3  C   UNL     1     -33.563  10.213  21.044  1.00  0.00     0.000 C 
BRANCH   3   4
ATOM      4  C   UNL     1     -33.918   9.335  22.257  1.00  0.00     0.000 C 
BRANCH   4   5
ATOM      5  C   UNL     1     -33.524   7.852  22.093  1.00  0.00     0.000 C 
BRANCH   5   6
ATOM      6  C   UNL     1     -34.721   6.900  22.275  1.00  0.00     0.000 C 
BRANCH   6   7
ATOM      7  C   UNL     1     -35.385   7.048  23.655  1.00  0.00     0.000 C 
BRANCH   7   8
ATOM      8  C   UNL     1     -34.550   6.409  24.776  1.00  0.00     0.000 C 
BRANCH   8   9
ATOM      9  C   UNL     1     -33.660   7.453  25.463  1.00  0.00     0.000 C 
BRANCH   9  10
ATOM     10  C   UNL     1     -34.427   8.767  25.683  1.00  0.00     0.006 C 
BRANCH  10  11
ATOM     11  C   UNL     1     -33.924   9.536  26.911  1.00  0.00     0.053 C 
BRANCH  11  12
ATOM     12  C   UNL     1     -33.201  10.793  26.531  1.00  0.00     0.041 C 
ATOM     13  O   UNL     1     -32.135  11.113  27.120  1.00  0.00    -0.550 OA
ATOM     14  O   UNL     1     -33.701  11.605  25.520  1.00  0.00    -0.550 OA
ENDBRANCH  11  12
ENDBRANCH  10  11
ENDBRANCH   9  10
ENDBRANCH   8   9
ENDBRANCH   7   8
ENDBRANCH   6   7
ENDBRANCH   5   6
ENDBRANCH   4   5
ENDBRANCH   3   4
ENDBRANCH   2   3
ENDBRANCH   1   2
BRANCH   1  15
ATOM     15  C   UNL     1     -32.466  11.994  19.153  1.00  0.00     0.000 C 
BRANCH  15  16
ATOM     16  C   UNL     1     -32.212  12.821  17.883  1.00  0.00     0.000 C 
BRANCH  16  17
ATOM     17  C   UNL     1     -33.453  12.832  16.974  1.00  0.00     0.000 C 
BRANCH  17  18
ATOM     18  C   UNL     1     -33.665  14.177  16.261  1.00  0.00    -0.000 C 
BRANCH  18  19
ATOM     19  C   UNL     1     -34.683  15.082  16.978  1.00  0.00    -0.000 C 
BRANCH  19  20
ATOM     20  C   UNL     1     -34.952  16.397  16.223  1.00  0.00    -0.000 C 
BRANCH  20  21
ATOM     21  C   UNL     1     -35.136  17.642  17.113  1.00  0.00    -0.000 C 
BRANCH  21  22
ATOM     22  C   UNL     1     -36.322  17.515  18.085  1.00  0.00    -0.000 C 
BRANCH  22  23
ATOM     23  C   UNL     1     -37.544  16.840  17.441  1.00  0.00    -0.000 C 
BRANCH  23  24
ATOM     24  C   UNL     1     -38.422  16.097  18.461  1.00  0.00    -0.000 C 
BRANCH  24  25
ATOM     25  C   UNL     1     -39.910  16.328  18.173  1.00  0.00    -0.003 C 
ATOM     26  C   UNL     1     -40.104  17.302  17.015  1.00  0.00     0.004 C 
ENDBRANCH  24  25
ENDBRANCH  23  24
ENDBRANCH  22  23
ENDBRANCH  21  22
ENDBRANCH  20  21
ENDBRANCH  19  20
ENDBRANCH  18  19
ENDBRANCH  17  18
ENDBRANCH  16  17
ENDBRANCH  15  16
ENDBRANCH   1  15
TORSDOF 22
ENDMDL
