MODEL 1
REMARK VINA RESULT:    -5.060      0.000      0.000
REMARK INTER + INTRA:         -14.130
REMARK INTER:                 -10.976
REMARK INTRA:                  -3.154
REMARK UNBOUND:                -3.154
REMARK SMILES CCCCCCCCCCCCCCCCCCCCCC(=O)[O-]
REMARK SMILES IDX 12 1 11 2 10 3 9 4 8 5 7 6 6 7 5 8 4 9 3 10 2 11 1 12 13 13
REMARK SMILES IDX 14 14 15 15 16 16 17 17 18 18 19 19 20 20 21 21 22 22 23 23
REMARK SMILES IDX 24 24
REMARK H PARENT
REMARK Flexibility Score: inf
ROOT
ATOM      1  C   UNL     1      23.640  12.258  32.915  1.00  0.00     0.000 C 
ENDROOT
BRANCH   1   2
ATOM      2  C   UNL     1      22.586  12.263  31.789  1.00  0.00     0.000 C 
BRANCH   2   3
ATOM      3  C   UNL     1      21.236  11.626  32.188  1.00  0.00     0.000 C 
BRANCH   3   4
ATOM      4  C   UNL     1      20.060  12.612  32.082  1.00  0.00    -0.000 C 
BRANCH   4   5
ATOM      5  C   UNL     1      20.377  13.985  32.698  1.00  0.00    -0.000 C 
BRANCH   5   6
ATOM      6  C   UNL     1      20.409  13.976  34.241  1.00  0.00    -0.000 C 
BRANCH   6   7
ATOM      7  C   UNL     1      19.002  13.871  34.850  1.00  0.00    -0.000 C 
BRANCH   7   8
ATOM      8  C   UNL     1      19.004  12.977  36.095  1.00  0.00    -0.000 C 
BRANCH   8   9
ATOM      9  C   UNL     1      19.771  11.671  35.832  1.00  0.00    -0.000 C 
BRANCH   9  10
ATOM     10  C   UNL     1      18.967  10.670  34.986  1.00  0.00    -0.000 C 
BRANCH  10  11
ATOM     11  C   UNL     1      19.586   9.264  34.983  1.00  0.00    -0.003 C 
ATOM     12  C   UNL     1      20.934   9.257  35.701  1.00  0.00     0.004 C 
ENDBRANCH  10  11
ENDBRANCH   9  10
ENDBRANCH   8   9
ENDBRANCH   7   8
ENDBRANCH   6   7
ENDBRANCH   5   6
ENDBRANCH   4   5
ENDBRANCH   3   4
ENDBRANCH   2   3
ENDBRANCH   1   2
BRANCH   1  13
ATOM     13  C   UNL     1      23.217  11.537  34.210  1.00  0.00     0.000 C 
BRANCH  13  14
ATOM     14  C   UNL     1      23.386  12.361  35.501  1.00  0.00     0.000 C 
BRANCH  14  15
ATOM     15  C   UNL     1      24.780  12.275  36.150  1.00  0.00     0.000 C 
BRANCH  15  16
ATOM     16  C   UNL     1      25.667  11.149  35.574  1.00  0.00     0.000 C 
BRANCH  16  17
ATOM     17  C   UNL     1      27.044  11.663  35.119  1.00  0.00     0.000 C 
BRANCH  17  18
ATOM     18  C   UNL     1      27.054  13.182  34.863  1.00  0.00     0.000 C 
BRANCH  18  19
ATOM     19  C   UNL     1      27.382  13.577  33.410  1.00  0.00     0.000 C 
BRANCH  19  20
ATOM     20  C   UNL     1      28.277  12.545  32.702  1.00  0.00     0.006 C 
BRANCH  20  21
ATOM     21  C   UNL     1      28.152  12.621  31.174  1.00  0.00     0.053 C 
BRANCH  21  22
ATOM     22  C   UNL     1      27.206  11.585  30.645  1.00  0.00     0.041 C 
ATOM     23  O   UNL     1      27.542  10.372  30.616  1.00  0.00    -0.550 OA
ATOM     24  O   UNL     1      25.934  11.958  30.221  1.00  0.00    -0.550 OA
ENDBRANCH  21  22
ENDBRANCH  20  21
ENDBRANCH  19  20
ENDBRANCH  18  19
ENDBRANCH  17  18
ENDBRANCH  16  17
ENDBRANCH  15  16
ENDBRANCH  14  15
ENDBRANCH  13  14
ENDBRANCH   1  13
TORSDOF 20
ENDMDL
MODEL 2
REMARK VINA RESULT:    -5.025      1.241      3.173
REMARK INTER + INTRA:         -14.054
REMARK INTER:                 -10.874
REMARK INTRA:                  -3.180
REMARK UNBOUND:                -3.154
REMARK SMILES CCCCCCCCCCCCCCCCCCCCCC(=O)[O-]
REMARK SMILES IDX 12 1 11 2 10 3 9 4 8 5 7 6 6 7 5 8 4 9 3 10 2 11 1 12 13 13
REMARK SMILES IDX 14 14 15 15 16 16 17 17 18 18 19 19 20 20 21 21 22 22 23 23
REMARK SMILES IDX 24 24
REMARK H PARENT
REMARK Flexibility Score: inf
ROOT
ATOM      1  C   UNL     1      21.076   9.448  35.653  1.00  0.00     0.000 C 
ENDROOT
BRANCH   1   2
ATOM      2  C   UNL     1      19.668   9.502  35.026  1.00  0.00     0.000 C 
BRANCH   2   3
ATOM      3  C   UNL     1      19.638   9.169  33.517  1.00  0.00     0.000 C 
BRANCH   3   4
ATOM      4  C   UNL     1      18.836  10.196  32.699  1.00  0.00    -0.000 C 
BRANCH   4   5
ATOM      5  C   UNL     1      19.699  10.942  31.668  1.00  0.00    -0.000 C 
BRANCH   5   6
ATOM      6  C   UNL     1      21.181  11.065  32.078  1.00  0.00    -0.000 C 
BRANCH   6   7
ATOM      7  C   UNL     1      21.638  12.530  32.172  1.00  0.00    -0.000 C 
BRANCH   7   8
ATOM      8  C   UNL     1      20.436  13.480  32.220  1.00  0.00    -0.000 C 
BRANCH   8   9
ATOM      9  C   UNL     1      20.611  14.530  33.329  1.00  0.00    -0.000 C 
BRANCH   9  10
ATOM     10  C   UNL     1      20.420  13.944  34.737  1.00  0.00    -0.000 C 
BRANCH  10  11
ATOM     11  C   UNL     1      19.071  13.229  34.906  1.00  0.00    -0.003 C 
ATOM     12  C   UNL     1      18.731  13.042  36.382  1.00  0.00     0.004 C 
ENDBRANCH  10  11
ENDBRANCH   9  10
ENDBRANCH   8   9
ENDBRANCH   7   8
ENDBRANCH   6   7
ENDBRANCH   5   6
ENDBRANCH   4   5
ENDBRANCH   3   4
ENDBRANCH   2   3
ENDBRANCH   1   2
BRANCH   1  13
ATOM     13  C   UNL     1      21.752  10.816  35.872  1.00  0.00     0.000 C 
BRANCH  13  14
ATOM     14  C   UNL     1      23.197  10.920  35.345  1.00  0.00     0.000 C 
BRANCH  14  15
ATOM     15  C   UNL     1      23.727  12.357  35.182  1.00  0.00     0.000 C 
BRANCH  15  16
ATOM     16  C   UNL     1      24.857  12.721  36.171  1.00  0.00     0.000 C 
BRANCH  16  17
ATOM     17  C   UNL     1      26.044  13.410  35.476  1.00  0.00     0.000 C 
BRANCH  17  18
ATOM     18  C   UNL     1      27.304  12.523  35.437  1.00  0.00     0.000 C 
BRANCH  18  19
ATOM     19  C   UNL     1      27.086  11.141  34.792  1.00  0.00     0.000 C 
BRANCH  19  20
ATOM     20  C   UNL     1      27.276  11.162  33.265  1.00  0.00     0.006 C 
BRANCH  20  21
ATOM     21  C   UNL     1      28.355  12.162  32.829  1.00  0.00     0.053 C 
BRANCH  21  22
ATOM     22  C   UNL     1      28.120  12.654  31.432  1.00  0.00     0.041 C 
ATOM     23  O   UNL     1      26.960  12.966  31.055  1.00  0.00    -0.550 OA
ATOM     24  O   UNL     1      29.193  12.805  30.559  1.00  0.00    -0.550 OA
ENDBRANCH  21  22
ENDBRANCH  20  21
ENDBRANCH  19  20
ENDBRANCH  18  19
ENDBRANCH  17  18
ENDBRANCH  16  17
ENDBRANCH  15  16
ENDBRANCH  14  15
ENDBRANCH  13  14
ENDBRANCH   1  13
TORSDOF 20
ENDMDL
MODEL 3
REMARK VINA RESULT:    -4.959      1.370      2.781
REMARK INTER + INTRA:         -13.912
REMARK INTER:                 -10.966
REMARK INTRA:                  -2.946
REMARK UNBOUND:                -3.154
REMARK SMILES CCCCCCCCCCCCCCCCCCCCCC(=O)[O-]
REMARK SMILES IDX 12 1 11 2 10 3 9 4 8 5 7 6 6 7 5 8 4 9 3 10 2 11 1 12 13 13
REMARK SMILES IDX 14 14 15 15 16 16 17 17 18 18 19 19 20 20 21 21 22 22 23 23
REMARK SMILES IDX 24 24
REMARK H PARENT
REMARK Flexibility Score: inf
ROOT
ATOM      1  C   UNL     1      20.592  13.878  34.686  1.00  0.00     0.000 C 
ENDROOT
BRANCH   1   2
ATOM      2  C   UNL     1      19.501  13.305  35.614  1.00  0.00     0.000 C 
BRANCH   2   3
ATOM      3  C   UNL     1      18.154  13.034  34.908  1.00  0.00     0.000 C 
BRANCH   3   4
ATOM      4  C   UNL     1      18.200  13.345  33.402  1.00  0.00    -0.000 C 
BRANCH   4   5
ATOM      5  C   UNL     1      18.192  12.077  32.531  1.00  0.00    -0.000 C 
BRANCH   5   6
ATOM      6  C   UNL     1      19.341  12.029  31.503  1.00  0.00    -0.000 C 
BRANCH   6   7
ATOM      7  C   UNL     1      20.483  11.104  31.951  1.00  0.00    -0.000 C 
BRANCH   7   8
ATOM      8  C   UNL     1      19.953   9.717  32.333  1.00  0.00    -0.000 C 
BRANCH   8   9
ATOM      9  C   UNL     1      20.406   9.326  33.748  1.00  0.00    -0.000 C 
BRANCH   9  10
ATOM     10  C   UNL     1      19.291   9.487  34.794  1.00  0.00    -0.000 C 
BRANCH  10  11
ATOM     11  C   UNL     1      19.824   9.491  36.235  1.00  0.00    -0.003 C 
ATOM     12  C   UNL     1      19.456   8.197  36.959  1.00  0.00     0.004 C 
ENDBRANCH  10  11
ENDBRANCH   9  10
ENDBRANCH   8   9
ENDBRANCH   7   8
ENDBRANCH   6   7
ENDBRANCH   5   6
ENDBRANCH   4   5
ENDBRANCH   3   4
ENDBRANCH   2   3
ENDBRANCH   1   2
BRANCH   1  13
ATOM     13  C   UNL     1      21.808  12.959  34.454  1.00  0.00     0.000 C 
BRANCH  13  14
ATOM     14  C   UNL     1      22.334  12.242  35.714  1.00  0.00     0.000 C 
BRANCH  14  15
ATOM     15  C   UNL     1      23.165  10.974  35.440  1.00  0.00     0.000 C 
BRANCH  15  16
ATOM     16  C   UNL     1      24.655  11.111  35.825  1.00  0.00     0.000 C 
BRANCH  16  17
ATOM     17  C   UNL     1      25.036  12.557  36.186  1.00  0.00     0.000 C 
BRANCH  17  18
ATOM     18  C   UNL     1      26.216  13.085  35.348  1.00  0.00     0.000 C 
BRANCH  18  19
ATOM     19  C   UNL     1      27.307  12.036  35.058  1.00  0.00     0.000 C 
BRANCH  19  20
ATOM     20  C   UNL     1      27.980  12.242  33.689  1.00  0.00     0.006 C 
BRANCH  20  21
ATOM     21  C   UNL     1      27.124  11.702  32.535  1.00  0.00     0.053 C 
BRANCH  21  22
ATOM     22  C   UNL     1      27.901  11.640  31.254  1.00  0.00     0.041 C 
ATOM     23  O   UNL     1      27.833  10.621  30.518  1.00  0.00    -0.550 OA
ATOM     24  O   UNL     1      28.671  12.728  30.855  1.00  0.00    -0.550 OA
ENDBRANCH  21  22
ENDBRANCH  20  21
ENDBRANCH  19  20
ENDBRANCH  18  19
ENDBRANCH  17  18
ENDBRANCH  16  17
ENDBRANCH  15  16
ENDBRANCH  14  15
ENDBRANCH  13  14
ENDBRANCH   1  13
TORSDOF 20
ENDMDL
MODEL 4
REMARK VINA RESULT:    -4.891      1.950      3.963
REMARK INTER + INTRA:         -13.763
REMARK INTER:                 -10.351
REMARK INTRA:                  -3.413
REMARK UNBOUND:                -3.154
REMARK SMILES CCCCCCCCCCCCCCCCCCCCCC(=O)[O-]
REMARK SMILES IDX 12 1 11 2 10 3 9 4 8 5 7 6 6 7 5 8 4 9 3 10 2 11 1 12 13 13
REMARK SMILES IDX 14 14 15 15 16 16 17 17 18 18 19 19 20 20 21 21 22 22 23 23
REMARK SMILES IDX 24 24
REMARK H PARENT
REMARK Flexibility Score: inf
ROOT
ATOM      1  C   UNL     1      23.071  11.121  35.109  1.00  0.00     0.000 C 
ENDROOT
BRANCH   1   2
ATOM      2  C   UNL     1      21.943  10.286  35.749  1.00  0.00     0.000 C 
BRANCH   2   3
ATOM      3  C   UNL     1      20.970   9.656  34.728  1.00  0.00     0.000 C 
BRANCH   3   4
ATOM      4  C   UNL     1      19.554  10.252  34.812  1.00  0.00    -0.000 C 
BRANCH   4   5
ATOM      5  C   UNL     1      19.408  11.283  35.943  1.00  0.00    -0.000 C 
BRANCH   5   6
ATOM      6  C   UNL     1      19.106  12.711  35.441  1.00  0.00    -0.000 C 
BRANCH   6   7
ATOM      7  C   UNL     1      20.330  13.635  35.549  1.00  0.00    -0.000 C 
BRANCH   7   8
ATOM      8  C   UNL     1      20.532  14.435  34.258  1.00  0.00    -0.000 C 
BRANCH   8   9
ATOM      9  C   UNL     1      19.707  13.839  33.106  1.00  0.00    -0.000 C 
BRANCH   9  10
ATOM     10  C   UNL     1      20.353  14.070  31.731  1.00  0.00    -0.000 C 
BRANCH  10  11
ATOM     11  C   UNL     1      20.025  12.957  30.725  1.00  0.00    -0.003 C 
ATOM     12  C   UNL     1      19.867  11.611  31.430  1.00  0.00     0.004 C 
ENDBRANCH  10  11
ENDBRANCH   9  10
ENDBRANCH   8   9
ENDBRANCH   7   8
ENDBRANCH   6   7
ENDBRANCH   5   6
ENDBRANCH   4   5
ENDBRANCH   3   4
ENDBRANCH   2   3
ENDBRANCH   1   2
BRANCH   1  13
ATOM     13  C   UNL     1      22.752  11.701  33.717  1.00  0.00     0.000 C 
BRANCH  13  14
ATOM     14  C   UNL     1      23.974  12.208  32.926  1.00  0.00     0.000 C 
BRANCH  14  15
ATOM     15  C   UNL     1      23.733  12.416  31.419  1.00  0.00     0.000 C 
BRANCH  15  16
ATOM     16  C   UNL     1      25.029  12.456  30.580  1.00  0.00     0.000 C 
BRANCH  16  17
ATOM     17  C   UNL     1      26.117  13.332  31.224  1.00  0.00     0.000 C 
BRANCH  17  18
ATOM     18  C   UNL     1      27.477  12.614  31.320  1.00  0.00     0.000 C 
BRANCH  18  19
ATOM     19  C   UNL     1      27.543  11.527  32.410  1.00  0.00     0.000 C 
BRANCH  19  20
ATOM     20  C   UNL     1      28.336  11.977  33.650  1.00  0.00     0.006 C 
BRANCH  20  21
ATOM     21  C   UNL     1      27.478  11.968  34.922  1.00  0.00     0.053 C 
BRANCH  21  22
ATOM     22  C   UNL     1      26.754  13.268  35.110  1.00  0.00     0.041 C 
ATOM     23  O   UNL     1      25.653  13.300  35.720  1.00  0.00    -0.550 OA
ATOM     24  O   UNL     1      27.318  14.450  34.643  1.00  0.00    -0.550 OA
ENDBRANCH  21  22
ENDBRANCH  20  21
ENDBRANCH  19  20
ENDBRANCH  18  19
ENDBRANCH  17  18
ENDBRANCH  16  17
ENDBRANCH  15  16
ENDBRANCH  14  15
ENDBRANCH  13  14
ENDBRANCH   1  13
TORSDOF 20
ENDMDL
MODEL 5
REMARK VINA RESULT:    -4.891      2.433      6.906
REMARK INTER + INTRA:         -13.763
REMARK INTER:                 -10.603
REMARK INTRA:                  -3.161
REMARK UNBOUND:                -3.154
REMARK SMILES CCCCCCCCCCCCCCCCCCCCCC(=O)[O-]
REMARK SMILES IDX 12 1 11 2 10 3 9 4 8 5 7 6 6 7 5 8 4 9 3 10 2 11 1 12 13 13
REMARK SMILES IDX 14 14 15 15 16 16 17 17 18 18 19 19 20 20 21 21 22 22 23 23
REMARK SMILES IDX 24 24
REMARK H PARENT
REMARK Flexibility Score: inf
ROOT
ATOM      1  C   UNL     1      21.160   9.586  35.315  1.00  0.00     0.000 C 
ENDROOT
BRANCH   1   2
ATOM      2  C   UNL     1      22.341  10.403  35.877  1.00  0.00     0.000 C 
BRANCH   2   3
ATOM      3  C   UNL     1      23.039  11.302  34.832  1.00  0.00     0.000 C 
BRANCH   3   4
ATOM      4  C   UNL     1      23.491  12.651  35.418  1.00  0.00    -0.000 C 
BRANCH   4   5
ATOM      5  C   UNL     1      24.806  12.546  36.209  1.00  0.00    -0.000 C 
BRANCH   5   6
ATOM      6  C   UNL     1      25.839  11.598  35.565  1.00  0.00    -0.000 C 
BRANCH   6   7
ATOM      7  C   UNL     1      27.161  12.312  35.243  1.00  0.00    -0.000 C 
BRANCH   7   8
ATOM      8  C   UNL     1      27.933  11.573  34.144  1.00  0.00    -0.000 C 
BRANCH   8   9
ATOM      9  C   UNL     1      27.923  12.373  32.832  1.00  0.00    -0.000 C 
BRANCH   9  10
ATOM     10  C   UNL     1      26.671  13.252  32.682  1.00  0.00    -0.000 C 
BRANCH  10  11
ATOM     11  C   UNL     1      25.744  12.778  31.552  1.00  0.00    -0.003 C 
ATOM     12  C   UNL     1      26.141  13.406  30.218  1.00  0.00     0.004 C 
ENDBRANCH  10  11
ENDBRANCH   9  10
ENDBRANCH   8   9
ENDBRANCH   7   8
ENDBRANCH   6   7
ENDBRANCH   5   6
ENDBRANCH   4   5
ENDBRANCH   3   4
ENDBRANCH   2   3
ENDBRANCH   1   2
BRANCH   1  13
ATOM     13  C   UNL     1      19.784   9.911  35.929  1.00  0.00     0.000 C 
BRANCH  13  14
ATOM     14  C   UNL     1      19.118  11.194  35.395  1.00  0.00     0.000 C 
BRANCH  14  15
ATOM     15  C   UNL     1      19.298  12.438  36.284  1.00  0.00     0.000 C 
BRANCH  15  16
ATOM     16  C   UNL     1      19.900  13.653  35.543  1.00  0.00     0.000 C 
BRANCH  16  17
ATOM     17  C   UNL     1      19.581  13.637  34.038  1.00  0.00     0.000 C 
BRANCH  17  18
ATOM     18  C   UNL     1      20.797  14.012  33.170  1.00  0.00     0.000 C 
BRANCH  18  19
ATOM     19  C   UNL     1      21.125  12.991  32.063  1.00  0.00     0.000 C 
BRANCH  19  20
ATOM     20  C   UNL     1      20.135  11.813  32.030  1.00  0.00     0.006 C 
BRANCH  20  21
ATOM     21  C   UNL     1      20.845  10.463  31.863  1.00  0.00     0.053 C 
BRANCH  21  22
ATOM     22  C   UNL     1      19.867   9.347  31.646  1.00  0.00     0.041 C 
ATOM     23  O   UNL     1      19.016   9.068  32.530  1.00  0.00    -0.550 OA
ATOM     24  O   UNL     1      19.872   8.643  30.446  1.00  0.00    -0.550 OA
ENDBRANCH  21  22
ENDBRANCH  20  21
ENDBRANCH  19  20
ENDBRANCH  18  19
ENDBRANCH  17  18
ENDBRANCH  16  17
ENDBRANCH  15  16
ENDBRANCH  14  15
ENDBRANCH  13  14
ENDBRANCH   1  13
TORSDOF 20
ENDMDL
MODEL 6
REMARK VINA RESULT:    -4.824      1.213      3.471
REMARK INTER + INTRA:         -13.618
REMARK INTER:                 -10.358
REMARK INTRA:                  -3.259
REMARK UNBOUND:                -3.154
REMARK SMILES CCCCCCCCCCCCCCCCCCCCCC(=O)[O-]
REMARK SMILES IDX 12 1 11 2 10 3 9 4 8 5 7 6 6 7 5 8 4 9 3 10 2 11 1 12 13 13
REMARK SMILES IDX 14 14 15 15 16 16 17 17 18 18 19 19 20 20 21 21 22 22 23 23
REMARK SMILES IDX 24 24
REMARK H PARENT
REMARK Flexibility Score: inf
ROOT
ATOM      1  C   UNL     1      19.797  10.768  35.418  1.00  0.00     0.000 C 
ENDROOT
BRANCH   1   2
ATOM      2  C   UNL     1      19.901  12.176  36.038  1.00  0.00     0.000 C 
BRANCH   2   3
ATOM      3  C   UNL     1      19.541  13.321  35.064  1.00  0.00     0.000 C 
BRANCH   3   4
ATOM      4  C   UNL     1      20.753  13.813  34.254  1.00  0.00    -0.000 C 
BRANCH   4   5
ATOM      5  C   UNL     1      20.363  14.361  32.871  1.00  0.00    -0.000 C 
BRANCH   5   6
ATOM      6  C   UNL     1      19.080  13.727  32.296  1.00  0.00    -0.000 C 
BRANCH   6   7
ATOM      7  C   UNL     1      19.386  12.624  31.272  1.00  0.00    -0.000 C 
BRANCH   7   8
ATOM      8  C   UNL     1      19.402  11.243  31.937  1.00  0.00    -0.000 C 
BRANCH   8   9
ATOM      9  C   UNL     1      20.696  10.485  31.600  1.00  0.00    -0.000 C 
BRANCH   9  10
ATOM     10  C   UNL     1      21.555  11.212  30.553  1.00  0.00    -0.000 C 
BRANCH  10  11
ATOM     11  C   UNL     1      22.736  11.970  31.177  1.00  0.00    -0.003 C 
ATOM     12  C   UNL     1      23.171  13.133  30.288  1.00  0.00     0.004 C 
ENDBRANCH  10  11
ENDBRANCH   9  10
ENDBRANCH   8   9
ENDBRANCH   7   8
ENDBRANCH   6   7
ENDBRANCH   5   6
ENDBRANCH   4   5
ENDBRANCH   3   4
ENDBRANCH   2   3
ENDBRANCH   1   2
BRANCH   1  13
ATOM     13  C   UNL     1      21.141  10.050  35.188  1.00  0.00     0.000 C 
BRANCH  13  14
ATOM     14  C   UNL     1      22.354  10.693  35.889  1.00  0.00     0.000 C 
BRANCH  14  15
ATOM     15  C   UNL     1      23.375  11.356  34.945  1.00  0.00     0.000 C 
BRANCH  15  16
ATOM     16  C   UNL     1      24.053  12.609  35.542  1.00  0.00     0.000 C 
BRANCH  16  17
ATOM     17  C   UNL     1      25.571  12.428  35.712  1.00  0.00     0.000 C 
BRANCH  17  18
ATOM     18  C   UNL     1      26.096  11.153  35.025  1.00  0.00     0.000 C 
BRANCH  18  19
ATOM     19  C   UNL     1      27.615  11.154  34.763  1.00  0.00     0.000 C 
BRANCH  19  20
ATOM     20  C   UNL     1      28.095  12.437  34.061  1.00  0.00     0.006 C 
BRANCH  20  21
ATOM     21  C   UNL     1      28.275  12.238  32.550  1.00  0.00     0.053 C 
BRANCH  21  22
ATOM     22  C   UNL     1      26.988  12.444  31.808  1.00  0.00     0.041 C 
ATOM     23  O   UNL     1      26.706  11.726  30.814  1.00  0.00    -0.550 OA
ATOM     24  O   UNL     1      26.082  13.405  32.245  1.00  0.00    -0.550 OA
ENDBRANCH  21  22
ENDBRANCH  20  21
ENDBRANCH  19  20
ENDBRANCH  18  19
ENDBRANCH  17  18
ENDBRANCH  16  17
ENDBRANCH  15  16
ENDBRANCH  14  15
ENDBRANCH  13  14
ENDBRANCH   1  13
TORSDOF 20
ENDMDL
MODEL 7
REMARK VINA RESULT:    -4.794      1.346      3.822
REMARK INTER + INTRA:         -13.554
REMARK INTER:                 -10.122
REMARK INTRA:                  -3.432
REMARK UNBOUND:                -3.154
REMARK SMILES CCCCCCCCCCCCCCCCCCCCCC(=O)[O-]
REMARK SMILES IDX 12 1 11 2 10 3 9 4 8 5 7 6 6 7 5 8 4 9 3 10 2 11 1 12 13 13
REMARK SMILES IDX 14 14 15 15 16 16 17 17 18 18 19 19 20 20 21 21 22 22 23 23
REMARK SMILES IDX 24 24
REMARK H PARENT
REMARK Flexibility Score: inf
ROOT
ATOM      1  C   UNL     1      21.374  12.508  35.637  1.00  0.00     0.000 C 
ENDROOT
BRANCH   1   2
ATOM      2  C   UNL     1      19.837  12.489  35.523  1.00  0.00     0.000 C 
BRANCH   2   3
ATOM      3  C   UNL     1      19.234  11.075  35.364  1.00  0.00     0.000 C 
BRANCH   3   4
ATOM      4  C   UNL     1      20.227   9.962  35.741  1.00  0.00    -0.000 C 
BRANCH   4   5
ATOM      5  C   UNL     1      20.856   9.283  34.513  1.00  0.00    -0.000 C 
BRANCH   5   6
ATOM      6  C   UNL     1      20.047   9.486  33.215  1.00  0.00    -0.000 C 
BRANCH   6   7
ATOM      7  C   UNL     1      20.777  10.391  32.211  1.00  0.00    -0.000 C 
BRANCH   7   8
ATOM      8  C   UNL     1      19.910  11.593  31.820  1.00  0.00    -0.000 C 
BRANCH   8   9
ATOM      9  C   UNL     1      20.641  12.493  30.811  1.00  0.00    -0.000 C 
BRANCH   9  10
ATOM     10  C   UNL     1      21.986  11.905  30.355  1.00  0.00    -0.000 C 
BRANCH  10  11
ATOM     11  C   UNL     1      23.003  12.985  29.959  1.00  0.00    -0.003 C 
ATOM     12  C   UNL     1      24.406  12.620  30.440  1.00  0.00     0.004 C 
ENDBRANCH  10  11
ENDBRANCH   9  10
ENDBRANCH   8   9
ENDBRANCH   7   8
ENDBRANCH   6   7
ENDBRANCH   5   6
ENDBRANCH   4   5
ENDBRANCH   3   4
ENDBRANCH   2   3
ENDBRANCH   1   2
BRANCH   1  13
ATOM     13  C   UNL     1      22.123  12.976  34.374  1.00  0.00     0.000 C 
BRANCH  13  14
ATOM     14  C   UNL     1      23.419  12.202  34.059  1.00  0.00     0.000 C 
BRANCH  14  15
ATOM     15  C   UNL     1      23.761  11.076  35.053  1.00  0.00     0.000 C 
BRANCH  15  16
ATOM     16  C   UNL     1      24.892  11.439  36.042  1.00  0.00     0.000 C 
BRANCH  16  17
ATOM     17  C   UNL     1      25.454  12.850  35.795  1.00  0.00     0.000 C 
BRANCH  17  18
ATOM     18  C   UNL     1      26.937  12.832  35.378  1.00  0.00     0.000 C 
BRANCH  18  19
ATOM     19  C   UNL     1      27.289  13.816  34.246  1.00  0.00     0.000 C 
BRANCH  19  20
ATOM     20  C   UNL     1      26.954  13.260  32.850  1.00  0.00     0.006 C 
BRANCH  20  21
ATOM     21  C   UNL     1      27.434  11.813  32.672  1.00  0.00     0.053 C 
BRANCH  21  22
ATOM     22  C   UNL     1      27.928  11.563  31.278  1.00  0.00     0.041 C 
ATOM     23  O   UNL     1      27.527  10.559  30.633  1.00  0.00    -0.550 OA
ATOM     24  O   UNL     1      28.801  12.464  30.679  1.00  0.00    -0.550 OA
ENDBRANCH  21  22
ENDBRANCH  20  21
ENDBRANCH  19  20
ENDBRANCH  18  19
ENDBRANCH  17  18
ENDBRANCH  16  17
ENDBRANCH  15  16
ENDBRANCH  14  15
ENDBRANCH  13  14
ENDBRANCH   1  13
TORSDOF 20
ENDMDL
MODEL 8
REMARK VINA RESULT:    -4.786      2.667      7.046
REMARK INTER + INTRA:         -13.537
REMARK INTER:                 -10.529
REMARK INTRA:                  -3.008
REMARK UNBOUND:                -3.154
REMARK SMILES CCCCCCCCCCCCCCCCCCCCCC(=O)[O-]
REMARK SMILES IDX 12 1 11 2 10 3 9 4 8 5 7 6 6 7 5 8 4 9 3 10 2 11 1 12 13 13
REMARK SMILES IDX 14 14 15 15 16 16 17 17 18 18 19 19 20 20 21 21 22 22 23 23
REMARK SMILES IDX 24 24
REMARK H PARENT
REMARK Flexibility Score: inf
ROOT
ATOM      1  C   UNL     1      23.845  12.558  31.720  1.00  0.00     0.000 C 
ENDROOT
BRANCH   1   2
ATOM      2  C   UNL     1      24.692  12.875  30.471  1.00  0.00     0.000 C 
BRANCH   2   3
ATOM      3  C   UNL     1      26.168  13.210  30.780  1.00  0.00     0.000 C 
BRANCH   3   4
ATOM      4  C   UNL     1      26.976  11.977  31.221  1.00  0.00    -0.000 C 
BRANCH   4   5
ATOM      5  C   UNL     1      28.038  12.309  32.283  1.00  0.00    -0.000 C 
BRANCH   5   6
ATOM      6  C   UNL     1      27.562  13.337  33.330  1.00  0.00    -0.000 C 
BRANCH   6   7
ATOM      7  C   UNL     1      27.686  12.804  34.766  1.00  0.00    -0.000 C 
BRANCH   7   8
ATOM      8  C   UNL     1      27.229  11.344  34.853  1.00  0.00    -0.000 C 
BRANCH   8   9
ATOM      9  C   UNL     1      25.695  11.248  34.864  1.00  0.00    -0.000 C 
BRANCH   9  10
ATOM     10  C   UNL     1      25.045  12.234  35.848  1.00  0.00    -0.000 C 
BRANCH  10  11
ATOM     11  C   UNL     1      23.515  12.276  35.724  1.00  0.00    -0.003 C 
ATOM     12  C   UNL     1      22.938  10.869  35.581  1.00  0.00     0.004 C 
ENDBRANCH  10  11
ENDBRANCH   9  10
ENDBRANCH   8   9
ENDBRANCH   7   8
ENDBRANCH   6   7
ENDBRANCH   5   6
ENDBRANCH   4   5
ENDBRANCH   3   4
ENDBRANCH   2   3
ENDBRANCH   1   2
BRANCH   1  13
ATOM     13  C   UNL     1      22.560  11.748  31.456  1.00  0.00     0.000 C 
BRANCH  13  14
ATOM     14  C   UNL     1      21.349  12.146  32.323  1.00  0.00     0.000 C 
BRANCH  14  15
ATOM     15  C   UNL     1      20.559  13.368  31.816  1.00  0.00     0.000 C 
BRANCH  15  16
ATOM     16  C   UNL     1      19.990  14.254  32.945  1.00  0.00     0.000 C 
BRANCH  16  17
ATOM     17  C   UNL     1      20.814  14.154  34.240  1.00  0.00     0.000 C 
BRANCH  17  18
ATOM     18  C   UNL     1      19.978  13.664  35.438  1.00  0.00     0.000 C 
BRANCH  18  19
ATOM     19  C   UNL     1      18.529  13.278  35.083  1.00  0.00     0.000 C 
BRANCH  19  20
ATOM     20  C   UNL     1      18.344  11.760  34.910  1.00  0.00     0.006 C 
BRANCH  20  21
ATOM     21  C   UNL     1      19.357  10.955  35.736  1.00  0.00     0.053 C 
BRANCH  21  22
ATOM     22  C   UNL     1      19.485   9.548  35.234  1.00  0.00     0.041 C 
ATOM     23  O   UNL     1      19.409   8.578  36.033  1.00  0.00    -0.550 OA
ATOM     24  O   UNL     1      19.650   9.309  33.873  1.00  0.00    -0.550 OA
ENDBRANCH  21  22
ENDBRANCH  20  21
ENDBRANCH  19  20
ENDBRANCH  18  19
ENDBRANCH  17  18
ENDBRANCH  16  17
ENDBRANCH  15  16
ENDBRANCH  14  15
ENDBRANCH  13  14
ENDBRANCH   1  13
TORSDOF 20
ENDMDL
MODEL 9
REMARK VINA RESULT:    -4.766      2.165      3.721
REMARK INTER + INTRA:         -13.492
REMARK INTER:                 -10.083
REMARK INTRA:                  -3.409
REMARK UNBOUND:                -3.154
REMARK SMILES CCCCCCCCCCCCCCCCCCCCCC(=O)[O-]
REMARK SMILES IDX 12 1 11 2 10 3 9 4 8 5 7 6 6 7 5 8 4 9 3 10 2 11 1 12 13 13
REMARK SMILES IDX 14 14 15 15 16 16 17 17 18 18 19 19 20 20 21 21 22 22 23 23
REMARK SMILES IDX 24 24
REMARK H PARENT
REMARK Flexibility Score: inf
ROOT
ATOM      1  C   UNL     1      21.981  11.537  31.461  1.00  0.00     0.000 C 
ENDROOT
BRANCH   1   2
ATOM      2  C   UNL     1      20.698  12.387  31.553  1.00  0.00     0.000 C 
BRANCH   2   3
ATOM      3  C   UNL     1      20.754  13.498  32.625  1.00  0.00     0.000 C 
BRANCH   3   4
ATOM      4  C   UNL     1      19.789  13.241  33.796  1.00  0.00    -0.000 C 
BRANCH   4   5
ATOM      5  C   UNL     1      20.495  13.251  35.162  1.00  0.00    -0.000 C 
BRANCH   5   6
ATOM      6  C   UNL     1      21.971  12.808  35.097  1.00  0.00    -0.000 C 
BRANCH   6   7
ATOM      7  C   UNL     1      22.213  11.485  35.841  1.00  0.00    -0.000 C 
BRANCH   7   8
ATOM      8  C   UNL     1      21.904  10.282  34.943  1.00  0.00    -0.000 C 
BRANCH   8   9
ATOM      9  C   UNL     1      20.813   9.397  35.566  1.00  0.00    -0.000 C 
BRANCH   9  10
ATOM     10  C   UNL     1      19.453   9.549  34.866  1.00  0.00    -0.000 C 
BRANCH  10  11
ATOM     11  C   UNL     1      19.551   9.408  33.340  1.00  0.00    -0.003 C 
ATOM     12  C   UNL     1      18.235   9.792  32.668  1.00  0.00     0.004 C 
ENDBRANCH  10  11
ENDBRANCH   9  10
ENDBRANCH   8   9
ENDBRANCH   7   8
ENDBRANCH   6   7
ENDBRANCH   5   6
ENDBRANCH   4   5
ENDBRANCH   3   4
ENDBRANCH   2   3
ENDBRANCH   1   2
BRANCH   1  13
ATOM     13  C   UNL     1      23.288  12.277  31.807  1.00  0.00     0.000 C 
BRANCH  13  14
ATOM     14  C   UNL     1      24.165  12.653  30.597  1.00  0.00     0.000 C 
BRANCH  14  15
ATOM     15  C   UNL     1      25.647  12.917  30.924  1.00  0.00     0.000 C 
BRANCH  15  16
ATOM     16  C   UNL     1      26.584  11.745  30.555  1.00  0.00     0.000 C 
BRANCH  16  17
ATOM     17  C   UNL     1      27.959  11.860  31.235  1.00  0.00     0.000 C 
BRANCH  17  18
ATOM     18  C   UNL     1      27.899  12.633  32.567  1.00  0.00     0.000 C 
BRANCH  18  19
ATOM     19  C   UNL     1      28.329  11.811  33.797  1.00  0.00     0.000 C 
BRANCH  19  20
ATOM     20  C   UNL     1      27.139  11.149  34.514  1.00  0.00     0.006 C 
BRANCH  20  21
ATOM     21  C   UNL     1      25.871  12.012  34.450  1.00  0.00     0.053 C 
BRANCH  21  22
ATOM     22  C   UNL     1      25.836  13.024  35.556  1.00  0.00     0.041 C 
ATOM     23  O   UNL     1      25.159  12.808  36.595  1.00  0.00    -0.550 OA
ATOM     24  O   UNL     1      26.588  14.190  35.453  1.00  0.00    -0.550 OA
ENDBRANCH  21  22
ENDBRANCH  20  21
ENDBRANCH  19  20
ENDBRANCH  18  19
ENDBRANCH  17  18
ENDBRANCH  16  17
ENDBRANCH  15  16
ENDBRANCH  14  15
ENDBRANCH  13  14
ENDBRANCH   1  13
TORSDOF 20
ENDMDL
