MODEL 1
REMARK VINA RESULT:    -5.039      0.000      0.000
REMARK INTER + INTRA:          -5.186
REMARK INTER:                  -5.186
REMARK INTRA:                   0.000
REMARK UNBOUND:                 0.000
REMARK SMILES Nc1ncnc2nc[nH]c12
REMARK SMILES IDX 8 1 7 2 6 3 5 4 4 5 3 6 2 7 10 8 9 9 1 11
REMARK H PARENT 9 10 1 12 1 13
REMARK Flexibility Score: inf
ROOT
ATOM      1  C   UNL     1      26.200  71.385  18.137  1.00  0.00     0.199 A 
ATOM      2  N   UNL     1      26.766  72.579  18.464  1.00  0.00    -0.217 NA
ATOM      3  C   UNL     1      27.448  72.276  19.580  1.00  0.00     0.182 A 
ATOM      4  N   UNL     1      28.201  73.122  20.323  1.00  0.00    -0.215 NA
ATOM      5  C   UNL     1      28.824  72.627  21.435  1.00  0.00     0.226 A 
ATOM      6  N   UNL     1      28.684  71.306  21.780  1.00  0.00    -0.217 NA
ATOM      7  C   UNL     1      27.924  70.451  21.032  1.00  0.00     0.152 A 
ATOM      8  C   UNL     1      27.297  70.971  19.904  1.00  0.00     0.127 A 
ATOM      9  N   UNL     1      26.506  70.383  18.999  1.00  0.00    -0.340 N 
ATOM     10  H   UNL     1      26.191  69.388  18.954  1.00  0.00     0.168 HD
ENDROOT
BRANCH   7  11
ATOM     11  N   UNL     1      27.793  69.080  21.411  1.00  0.00    -0.382 N 
ATOM     12  H   UNL     1      27.880  68.311  20.711  1.00  0.00     0.158 HD
ATOM     13  H   UNL     1      27.605  68.829  22.407  1.00  0.00     0.158 HD
ENDBRANCH   7  11
TORSDOF 1
ENDMDL
MODEL 2
REMARK VINA RESULT:    -5.012      1.022      2.427
REMARK INTER + INTRA:          -5.158
REMARK INTER:                  -5.158
REMARK INTRA:                   0.000
REMARK UNBOUND:                 0.000
REMARK SMILES Nc1ncnc2nc[nH]c12
REMARK SMILES IDX 8 1 7 2 6 3 5 4 4 5 3 6 2 7 10 8 9 9 1 11
REMARK H PARENT 9 10 1 12 1 13
REMARK Flexibility Score: inf
ROOT
ATOM      1  C   UNL     1      26.517  72.309  18.523  1.00  0.00     0.199 A 
ATOM      2  N   UNL     1      26.601  70.954  18.618  1.00  0.00    -0.217 NA
ATOM      3  C   UNL     1      27.398  70.792  19.687  1.00  0.00     0.182 A 
ATOM      4  N   UNL     1      27.806  69.616  20.220  1.00  0.00    -0.215 NA
ATOM      5  C   UNL     1      28.623  69.652  21.316  1.00  0.00     0.226 A 
ATOM      6  N   UNL     1      29.013  70.853  21.854  1.00  0.00    -0.217 NA
ATOM      7  C   UNL     1      28.602  72.040  21.317  1.00  0.00     0.152 A 
ATOM      8  C   UNL     1      27.771  71.986  20.202  1.00  0.00     0.127 A 
ATOM      9  N   UNL     1      27.222  72.968  19.477  1.00  0.00    -0.340 N 
ATOM     10  H   UNL     1      27.308  74.001  19.605  1.00  0.00     0.168 HD
ENDROOT
BRANCH   7  11
ATOM     11  N   UNL     1      29.020  73.279  21.894  1.00  0.00    -0.382 N 
ATOM     12  H   UNL     1      29.310  73.342  22.895  1.00  0.00     0.158 HD
ATOM     13  H   UNL     1      29.040  74.145  21.313  1.00  0.00     0.158 HD
ENDBRANCH   7  11
TORSDOF 1
ENDMDL
MODEL 3
REMARK VINA RESULT:    -4.688      1.905      3.219
REMARK INTER + INTRA:          -4.825
REMARK INTER:                  -4.825
REMARK INTRA:                   0.000
REMARK UNBOUND:                 0.000
REMARK SMILES Nc1ncnc2nc[nH]c12
REMARK SMILES IDX 8 1 7 2 6 3 5 4 4 5 3 6 2 7 10 8 9 9 1 11
REMARK H PARENT 9 10 1 12 1 13
REMARK Flexibility Score: inf
ROOT
ATOM      1  C   UNL     1      31.463  71.370  20.909  1.00  0.00     0.199 A 
ATOM      2  N   UNL     1      30.819  72.464  21.401  1.00  0.00    -0.217 NA
ATOM      3  C   UNL     1      29.532  72.175  21.149  1.00  0.00     0.182 A 
ATOM      4  N   UNL     1      28.458  72.946  21.445  1.00  0.00    -0.215 NA
ATOM      5  C   UNL     1      27.217  72.480  21.109  1.00  0.00     0.226 A 
ATOM      6  N   UNL     1      27.074  71.263  20.491  1.00  0.00    -0.217 NA
ATOM      7  C   UNL     1      28.156  70.485  20.193  1.00  0.00     0.152 A 
ATOM      8  C   UNL     1      29.412  70.973  20.541  1.00  0.00     0.127 A 
ATOM      9  N   UNL     1      30.629  70.441  20.376  1.00  0.00    -0.340 N 
ATOM     10  H   UNL     1      30.890  69.527  19.942  1.00  0.00     0.168 HD
ENDROOT
BRANCH   7  11
ATOM     11  N   UNL     1      27.983  69.221  19.549  1.00  0.00    -0.382 N 
ATOM     12  H   UNL     1      28.684  68.456  19.654  1.00  0.00     0.158 HD
ATOM     13  H   UNL     1      27.141  69.048  18.956  1.00  0.00     0.158 HD
ENDBRANCH   7  11
TORSDOF 1
ENDMDL
MODEL 4
REMARK VINA RESULT:    -4.578      8.263     10.060
REMARK INTER + INTRA:          -4.712
REMARK INTER:                  -4.712
REMARK INTRA:                   0.000
REMARK UNBOUND:                 0.000
REMARK SMILES Nc1ncnc2nc[nH]c12
REMARK SMILES IDX 8 1 7 2 6 3 5 4 4 5 3 6 2 7 10 8 9 9 1 11
REMARK H PARENT 9 10 1 12 1 13
REMARK Flexibility Score: inf
ROOT
ATOM      1  C   UNL     1      22.411  80.649  17.245  1.00  0.00     0.199 A 
ATOM      2  N   UNL     1      21.382  80.348  16.406  1.00  0.00    -0.217 NA
ATOM      3  C   UNL     1      21.776  79.176  15.881  1.00  0.00     0.182 A 
ATOM      4  N   UNL     1      21.103  78.430  14.972  1.00  0.00    -0.215 NA
ATOM      5  C   UNL     1      21.668  77.258  14.552  1.00  0.00     0.226 A 
ATOM      6  N   UNL     1      22.884  76.856  15.045  1.00  0.00    -0.217 NA
ATOM      7  C   UNL     1      23.564  77.607  15.962  1.00  0.00     0.152 A 
ATOM      8  C   UNL     1      22.976  78.798  16.378  1.00  0.00     0.127 A 
ATOM      9  N   UNL     1      23.401  79.721  17.249  1.00  0.00    -0.340 N 
ATOM     10  H   UNL     1      24.283  79.735  17.807  1.00  0.00     0.168 HD
ENDROOT
BRANCH   7  11
ATOM     11  N   UNL     1      24.829  77.169  16.460  1.00  0.00    -0.382 N 
ATOM     12  H   UNL     1      25.670  77.787  16.430  1.00  0.00     0.158 HD
ATOM     13  H   UNL     1      24.928  76.212  16.866  1.00  0.00     0.158 HD
ENDBRANCH   7  11
TORSDOF 1
ENDMDL
MODEL 5
REMARK VINA RESULT:    -4.549      6.362      8.230
REMARK INTER + INTRA:          -4.682
REMARK INTER:                  -4.682
REMARK INTRA:                   0.000
REMARK UNBOUND:                 0.000
REMARK SMILES Nc1ncnc2nc[nH]c12
REMARK SMILES IDX 8 1 7 2 6 3 5 4 4 5 3 6 2 7 10 8 9 9 1 11
REMARK H PARENT 9 10 1 12 1 13
REMARK Flexibility Score: inf
ROOT
ATOM      1  C   UNL     1      24.594  78.562  14.940  1.00  0.00     0.199 A 
ATOM      2  N   UNL     1      23.267  78.426  14.669  1.00  0.00    -0.217 NA
ATOM      3  C   UNL     1      22.973  77.258  15.263  1.00  0.00     0.182 A 
ATOM      4  N   UNL     1      21.764  76.649  15.295  1.00  0.00    -0.215 NA
ATOM      5  C   UNL     1      21.658  75.455  15.953  1.00  0.00     0.226 A 
ATOM      6  N   UNL     1      22.754  74.897  16.563  1.00  0.00    -0.217 NA
ATOM      7  C   UNL     1      23.975  75.510  16.532  1.00  0.00     0.152 A 
ATOM      8  C   UNL     1      24.065  76.724  15.857  1.00  0.00     0.127 A 
ATOM      9  N   UNL     1      25.111  77.538  15.665  1.00  0.00    -0.340 N 
ATOM     10  H   UNL     1      26.096  77.423  15.991  1.00  0.00     0.168 HD
ENDROOT
BRANCH   7  11
ATOM     11  N   UNL     1      25.102  74.911  17.173  1.00  0.00    -0.382 N 
ATOM     12  H   UNL     1      26.064  75.002  16.781  1.00  0.00     0.158 HD
ATOM     13  H   UNL     1      24.972  74.367  18.055  1.00  0.00     0.158 HD
ENDBRANCH   7  11
TORSDOF 1
ENDMDL
MODEL 6
REMARK VINA RESULT:    -4.548      1.867      3.167
REMARK INTER + INTRA:          -4.681
REMARK INTER:                  -4.681
REMARK INTRA:                   0.000
REMARK UNBOUND:                 0.000
REMARK SMILES Nc1ncnc2nc[nH]c12
REMARK SMILES IDX 8 1 7 2 6 3 5 4 4 5 3 6 2 7 10 8 9 9 1 11
REMARK H PARENT 9 10 1 12 1 13
REMARK Flexibility Score: inf
ROOT
ATOM      1  C   UNL     1      27.161  71.760  18.994  1.00  0.00     0.199 A 
ATOM      2  N   UNL     1      27.756  70.724  19.647  1.00  0.00    -0.217 NA
ATOM      3  C   UNL     1      28.857  71.302  20.154  1.00  0.00     0.182 A 
ATOM      4  N   UNL     1      29.812  70.702  20.905  1.00  0.00    -0.215 NA
ATOM      5  C   UNL     1      30.867  71.460  21.333  1.00  0.00     0.226 A 
ATOM      6  N   UNL     1      30.946  72.790  21.008  1.00  0.00    -0.217 NA
ATOM      7  C   UNL     1      29.983  73.397  20.251  1.00  0.00     0.152 A 
ATOM      8  C   UNL     1      28.917  72.612  19.823  1.00  0.00     0.127 A 
ATOM      9  N   UNL     1      27.847  72.927  19.083  1.00  0.00    -0.340 N 
ATOM     10  H   UNL     1      27.589  73.850  18.667  1.00  0.00     0.168 HD
ENDROOT
BRANCH   7  11
ATOM     11  N   UNL     1      30.087  74.784  19.925  1.00  0.00    -0.382 N 
ATOM     12  H   UNL     1      29.277  75.313  19.535  1.00  0.00     0.158 HD
ATOM     13  H   UNL     1      30.988  75.290  20.074  1.00  0.00     0.158 HD
ENDBRANCH   7  11
TORSDOF 1
ENDMDL
MODEL 7
REMARK VINA RESULT:    -4.504      9.755     10.181
REMARK INTER + INTRA:          -4.635
REMARK INTER:                  -4.635
REMARK INTRA:                   0.000
REMARK UNBOUND:                 0.000
REMARK SMILES Nc1ncnc2nc[nH]c12
REMARK SMILES IDX 8 1 7 2 6 3 5 4 4 5 3 6 2 7 10 8 9 9 1 11
REMARK H PARENT 9 10 1 12 1 13
REMARK Flexibility Score: inf
ROOT
ATOM      1  C   UNL     1      25.064  78.545  14.158  1.00  0.00     0.199 A 
ATOM      2  N   UNL     1      23.989  77.831  13.724  1.00  0.00    -0.217 NA
ATOM      3  C   UNL     1      23.060  78.124  14.649  1.00  0.00     0.182 A 
ATOM      4  N   UNL     1      21.785  77.667  14.687  1.00  0.00    -0.215 NA
ATOM      5  C   UNL     1      20.982  78.079  15.714  1.00  0.00     0.226 A 
ATOM      6  N   UNL     1      21.462  78.934  16.673  1.00  0.00    -0.217 NA
ATOM      7  C   UNL     1      22.747  79.397  16.635  1.00  0.00     0.152 A 
ATOM      8  C   UNL     1      23.552  78.968  15.585  1.00  0.00     0.127 A 
ATOM      9  N   UNL     1      24.828  79.250  15.294  1.00  0.00    -0.340 N 
ATOM     10  H   UNL     1      25.495  79.866  15.810  1.00  0.00     0.168 HD
ENDROOT
BRANCH   7  11
ATOM     11  N   UNL     1      23.226  80.287  17.646  1.00  0.00    -0.382 N 
ATOM     12  H   UNL     1      23.539  81.255  17.414  1.00  0.00     0.158 HD
ATOM     13  H   UNL     1      23.268  79.973  18.641  1.00  0.00     0.158 HD
ENDBRANCH   7  11
TORSDOF 1
ENDMDL
MODEL 8
REMARK VINA RESULT:    -4.472      1.303      3.677
REMARK INTER + INTRA:          -4.602
REMARK INTER:                  -4.602
REMARK INTRA:                   0.000
REMARK UNBOUND:                 0.000
REMARK SMILES Nc1ncnc2nc[nH]c12
REMARK SMILES IDX 8 1 7 2 6 3 5 4 4 5 3 6 2 7 10 8 9 9 1 11
REMARK H PARENT 9 10 1 12 1 13
REMARK Flexibility Score: inf
ROOT
ATOM      1  C   UNL     1      30.531  73.541  20.634  1.00  0.00     0.199 A 
ATOM      2  N   UNL     1      30.508  72.359  21.309  1.00  0.00    -0.217 NA
ATOM      3  C   UNL     1      29.327  71.839  20.935  1.00  0.00     0.182 A 
ATOM      4  N   UNL     1      28.806  70.652  21.327  1.00  0.00    -0.215 NA
ATOM      5  C   UNL     1      27.582  70.290  20.837  1.00  0.00     0.226 A 
ATOM      6  N   UNL     1      26.908  71.114  19.971  1.00  0.00    -0.217 NA
ATOM      7  C   UNL     1      27.433  72.312  19.574  1.00  0.00     0.152 A 
ATOM      8  C   UNL     1      28.679  72.666  20.083  1.00  0.00     0.127 A 
ATOM      9  N   UNL     1      29.426  73.757  19.875  1.00  0.00    -0.340 N 
ATOM     10  H   UNL     1      29.220  74.585  19.275  1.00  0.00     0.168 HD
ENDROOT
BRANCH   7  11
ATOM     11  N   UNL     1      26.713  73.154  18.671  1.00  0.00    -0.382 N 
ATOM     12  H   UNL     1      26.979  73.227  17.665  1.00  0.00     0.158 HD
ATOM     13  H   UNL     1      25.901  73.714  19.015  1.00  0.00     0.158 HD
ENDBRANCH   7  11
TORSDOF 1
ENDMDL
MODEL 9
REMARK VINA RESULT:    -4.321      6.421      8.655
REMARK INTER + INTRA:          -4.447
REMARK INTER:                  -4.447
REMARK INTRA:                   0.000
REMARK UNBOUND:                 0.000
REMARK SMILES Nc1ncnc2nc[nH]c12
REMARK SMILES IDX 8 1 7 2 6 3 5 4 4 5 3 6 2 7 10 8 9 9 1 11
REMARK H PARENT 9 10 1 12 1 13
REMARK Flexibility Score: inf
ROOT
ATOM      1  C   UNL     1      24.629  74.867  16.879  1.00  0.00     0.199 A 
ATOM      2  N   UNL     1      23.305  74.634  16.672  1.00  0.00    -0.217 NA
ATOM      3  C   UNL     1      22.892  75.792  16.132  1.00  0.00     0.182 A 
ATOM      4  N   UNL     1      21.633  76.094  15.732  1.00  0.00    -0.215 NA
ATOM      5  C   UNL     1      21.403  77.334  15.203  1.00  0.00     0.226 A 
ATOM      6  N   UNL     1      22.427  78.240  15.083  1.00  0.00    -0.217 NA
ATOM      7  C   UNL     1      23.697  77.936  15.486  1.00  0.00     0.152 A 
ATOM      8  C   UNL     1      23.914  76.671  16.022  1.00  0.00     0.127 A 
ATOM      9  N   UNL     1      25.032  76.105  16.492  1.00  0.00    -0.340 N 
ATOM     10  H   UNL     1      25.993  76.508  16.553  1.00  0.00     0.168 HD
ENDROOT
BRANCH   7  11
ATOM     11  N   UNL     1      24.747  78.896  15.351  1.00  0.00    -0.382 N 
ATOM     12  H   UNL     1      24.544  79.906  15.190  1.00  0.00     0.158 HD
ATOM     13  H   UNL     1      25.744  78.591  15.414  1.00  0.00     0.158 HD
ENDBRANCH   7  11
TORSDOF 1
ENDMDL
