MODEL 1
REMARK VINA RESULT:    -4.739      0.000      0.000
REMARK INTER + INTRA:          -7.383
REMARK INTER:                  -6.678
REMARK INTRA:                  -0.705
REMARK UNBOUND:                -0.705
REMARK SMILES COc1ccc(-c2cc(=O)c3c(OC)c(OC)c(OC)c(OC)c3o2)cc1OC
REMARK SMILES IDX 7 1 8 2 9 3 10 4 11 5 24 6 25 7 21 8 18 9 15 10 12 11 6 12
REMARK SMILES IDX 3 13 27 14 4 15 26 16 5 17 2 18 1 19 28 20 29 21 22 22 23 23
REMARK SMILES IDX 13 24 14 25 19 26 20 27 16 28 17 29
REMARK H PARENT
REMARK Flexibility Score: inf
ROOT
ATOM      1  C   UNL     1      27.104  -6.806 -27.837  1.00  0.00     0.138 A 
ATOM      2  C   UNL     1      26.953  -6.826 -29.228  1.00  0.00     0.100 A 
ATOM      3  C   UNL     1      28.080  -6.952 -30.032  1.00  0.00     0.197 A 
ATOM      4  O   UNL     1      27.929  -6.976 -31.283  1.00  0.00    -0.289 OA
ATOM      5  C   UNL     1      29.360  -7.053 -29.437  1.00  0.00     0.115 A 
ATOM      6  C   UNL     1      29.437  -7.033 -28.025  1.00  0.00     0.188 A 
ATOM      7  O   UNL     1      28.320  -6.919 -27.309  1.00  0.00    -0.452 OA
ATOM      8  C   UNL     1      30.692  -7.119 -27.373  1.00  0.00     0.209 A 
ATOM      9  C   UNL     1      31.877  -7.233 -28.149  1.00  0.00     0.211 A 
ATOM     10  C   UNL     1      31.792  -7.270 -29.565  1.00  0.00     0.208 A 
ATOM     11  C   UNL     1      30.542  -7.149 -30.200  1.00  0.00     0.179 A 
ENDROOT
BRANCH   1  12
ATOM     12  C   UNL     1      25.938  -6.662 -26.934  1.00  0.00     0.021 A 
ATOM     13  C   UNL     1      23.767  -6.392 -25.149  1.00  0.00     0.160 A 
ATOM     14  C   UNL     1      24.602  -7.517 -25.071  1.00  0.00     0.161 A 
ATOM     15  C   UNL     1      24.022  -5.406 -26.120  1.00  0.00     0.051 A 
ATOM     16  C   UNL     1      25.684  -7.645 -25.963  1.00  0.00     0.062 A 
ATOM     17  C   UNL     1      25.097  -5.539 -27.000  1.00  0.00     0.016 A 
BRANCH  13  18
ATOM     18  O   UNL     1      22.700  -6.289 -24.244  1.00  0.00    -0.493 OA
ATOM     19  C   UNL     1      21.346  -6.606 -24.554  1.00  0.00     0.278 C 
ENDBRANCH  13  18
BRANCH  14  20
ATOM     20  O   UNL     1      24.325  -8.485 -24.093  1.00  0.00    -0.493 OA
ATOM     21  C   UNL     1      23.580  -9.677 -24.324  1.00  0.00     0.278 C 
ENDBRANCH  14  20
ENDBRANCH   1  12
BRANCH   8  22
ATOM     22  O   UNL     1      30.811  -7.095 -25.970  1.00  0.00    -0.490 OA
ATOM     23  C   UNL     1      30.760  -8.200 -25.075  1.00  0.00     0.278 C 
ENDBRANCH   8  22
BRANCH  11  24
ATOM     24  O   UNL     1      30.461  -7.148 -31.601  1.00  0.00    -0.492 OA
ATOM     25  C   UNL     1      30.766  -6.007 -32.401  1.00  0.00     0.278 C 
ENDBRANCH  11  24
BRANCH   9  26
ATOM     26  O   UNL     1      33.157  -7.317 -27.566  1.00  0.00    -0.490 OA
ATOM     27  C   UNL     1      33.887  -8.490 -27.219  1.00  0.00     0.279 C 
ENDBRANCH   9  26
BRANCH  10  28
ATOM     28  O   UNL     1      32.909  -7.453 -30.404  1.00  0.00    -0.490 OA
ATOM     29  C   UNL     1      33.920  -6.503 -30.723  1.00  0.00     0.278 C 
ENDBRANCH  10  28
TORSDOF 7
ENDMDL
MODEL 2
REMARK VINA RESULT:    -4.645      0.808      1.821
REMARK INTER + INTRA:          -7.250
REMARK INTER:                  -6.522
REMARK INTRA:                  -0.728
REMARK UNBOUND:                -0.705
REMARK SMILES COc1ccc(-c2cc(=O)c3c(OC)c(OC)c(OC)c(OC)c3o2)cc1OC
REMARK SMILES IDX 7 1 8 2 9 3 10 4 11 5 24 6 25 7 21 8 18 9 15 10 12 11 6 12
REMARK SMILES IDX 3 13 27 14 4 15 26 16 5 17 2 18 1 19 28 20 29 21 22 22 23 23
REMARK SMILES IDX 13 24 14 25 19 26 20 27 16 28 17 29
REMARK H PARENT
REMARK Flexibility Score: inf
ROOT
ATOM      1  C   UNL     1      27.271  -6.739 -27.807  1.00  0.00     0.138 A 
ATOM      2  C   UNL     1      27.113  -6.724 -29.197  1.00  0.00     0.100 A 
ATOM      3  C   UNL     1      28.242  -6.748 -30.008  1.00  0.00     0.197 A 
ATOM      4  O   UNL     1      28.086  -6.741 -31.259  1.00  0.00    -0.289 OA
ATOM      5  C   UNL     1      29.529  -6.783 -29.422  1.00  0.00     0.115 A 
ATOM      6  C   UNL     1      29.612  -6.805 -28.010  1.00  0.00     0.188 A 
ATOM      7  O   UNL     1      28.494  -6.789 -27.287  1.00  0.00    -0.452 OA
ATOM      8  C   UNL     1      30.873  -6.829 -27.365  1.00  0.00     0.209 A 
ATOM      9  C   UNL     1      32.060  -6.838 -28.149  1.00  0.00     0.211 A 
ATOM     10  C   UNL     1      31.969  -6.835 -29.565  1.00  0.00     0.208 A 
ATOM     11  C   UNL     1      30.711  -6.776 -30.192  1.00  0.00     0.179 A 
ENDROOT
BRANCH   1  12
ATOM     12  C   UNL     1      26.102  -6.702 -26.895  1.00  0.00     0.021 A 
ATOM     13  C   UNL     1      23.828  -6.630 -25.225  1.00  0.00     0.160 A 
ATOM     14  C   UNL     1      24.057  -5.593 -26.142  1.00  0.00     0.161 A 
ATOM     15  C   UNL     1      24.738  -7.699 -25.147  1.00  0.00     0.051 A 
ATOM     16  C   UNL     1      25.192  -5.636 -26.974  1.00  0.00     0.062 A 
ATOM     17  C   UNL     1      25.861  -7.736 -25.975  1.00  0.00     0.016 A 
BRANCH  13  18
ATOM     18  O   UNL     1      22.685  -6.562 -24.413  1.00  0.00    -0.493 OA
ATOM     19  C   UNL     1      21.547  -7.407 -24.550  1.00  0.00     0.278 C 
ENDBRANCH  13  18
BRANCH  14  20
ATOM     20  O   UNL     1      23.132  -4.538 -26.200  1.00  0.00    -0.493 OA
ATOM     21  C   UNL     1      22.903  -3.726 -27.348  1.00  0.00     0.278 C 
ENDBRANCH  14  20
ENDBRANCH   1  12
BRANCH   8  22
ATOM     22  O   UNL     1      30.998  -6.843 -25.963  1.00  0.00    -0.490 OA
ATOM     23  C   UNL     1      31.005  -7.976 -25.103  1.00  0.00     0.278 C 
ENDBRANCH   8  22
BRANCH  11  24
ATOM     24  O   UNL     1      30.622  -6.734 -31.591  1.00  0.00    -0.492 OA
ATOM     25  C   UNL     1      30.928  -5.573 -32.360  1.00  0.00     0.278 C 
ENDBRANCH  11  24
BRANCH   9  26
ATOM     26  O   UNL     1      33.345  -6.857 -27.573  1.00  0.00    -0.490 OA
ATOM     27  C   UNL     1      34.125  -7.990 -27.205  1.00  0.00     0.279 C 
ENDBRANCH   9  26
BRANCH  10  28
ATOM     28  O   UNL     1      33.091  -6.916 -30.413  1.00  0.00    -0.490 OA
ATOM     29  C   UNL     1      33.721  -8.092 -30.911  1.00  0.00     0.278 C 
ENDBRANCH  10  28
TORSDOF 7
ENDMDL
MODEL 3
REMARK VINA RESULT:    -4.573      2.623      3.249
REMARK INTER + INTRA:          -7.149
REMARK INTER:                  -6.505
REMARK INTRA:                  -0.644
REMARK UNBOUND:                -0.705
REMARK SMILES COc1ccc(-c2cc(=O)c3c(OC)c(OC)c(OC)c(OC)c3o2)cc1OC
REMARK SMILES IDX 7 1 8 2 9 3 10 4 11 5 24 6 25 7 21 8 18 9 15 10 12 11 6 12
REMARK SMILES IDX 3 13 27 14 4 15 26 16 5 17 2 18 1 19 28 20 29 21 22 22 23 23
REMARK SMILES IDX 13 24 14 25 19 26 20 27 16 28 17 29
REMARK H PARENT
REMARK Flexibility Score: inf
ROOT
ATOM      1  C   UNL     1      26.684  -5.496 -28.511  1.00  0.00     0.138 A 
ATOM      2  C   UNL     1      26.753  -6.659 -29.285  1.00  0.00     0.100 A 
ATOM      3  C   UNL     1      27.857  -6.865 -30.106  1.00  0.00     0.197 A 
ATOM      4  O   UNL     1      27.909  -7.920 -30.793  1.00  0.00    -0.289 OA
ATOM      5  C   UNL     1      28.888  -5.898 -30.152  1.00  0.00     0.115 A 
ATOM      6  C   UNL     1      28.756  -4.750 -29.336  1.00  0.00     0.188 A 
ATOM      7  O   UNL     1      27.679  -4.615 -28.565  1.00  0.00    -0.452 OA
ATOM      8  C   UNL     1      29.751  -3.742 -29.348  1.00  0.00     0.209 A 
ATOM      9  C   UNL     1      30.892  -3.895 -30.182  1.00  0.00     0.211 A 
ATOM     10  C   UNL     1      31.028  -5.058 -30.984  1.00  0.00     0.208 A 
ATOM     11  C   UNL     1      30.015  -6.034 -30.988  1.00  0.00     0.179 A 
ENDROOT
BRANCH   1  12
ATOM     12  C   UNL     1      25.526  -5.222 -27.628  1.00  0.00     0.021 A 
ATOM     13  C   UNL     1      23.368  -4.710 -25.881  1.00  0.00     0.160 A 
ATOM     14  C   UNL     1      24.054  -5.932 -25.808  1.00  0.00     0.161 A 
ATOM     15  C   UNL     1      23.765  -3.748 -26.828  1.00  0.00     0.051 A 
ATOM     16  C   UNL     1      25.130  -6.181 -26.681  1.00  0.00     0.062 A 
ATOM     17  C   UNL     1      24.834  -4.001 -27.690  1.00  0.00     0.016 A 
BRANCH  13  18
ATOM     18  O   UNL     1      22.302  -4.488 -24.995  1.00  0.00    -0.493 OA
ATOM     19  C   UNL     1      20.965  -4.207 -25.397  1.00  0.00     0.278 C 
ENDBRANCH  13  18
BRANCH  14  20
ATOM     20  O   UNL     1      23.637  -6.873 -24.854  1.00  0.00    -0.493 OA
ATOM     21  C   UNL     1      24.211  -8.167 -24.691  1.00  0.00     0.278 C 
ENDBRANCH  14  20
ENDBRANCH   1  12
BRANCH   8  22
ATOM     22  O   UNL     1      29.652  -2.581 -28.557  1.00  0.00    -0.490 OA
ATOM     23  C   UNL     1      28.970  -1.372 -28.871  1.00  0.00     0.278 C 
ENDBRANCH   8  22
BRANCH  11  24
ATOM     24  O   UNL     1      30.131  -7.166 -31.811  1.00  0.00    -0.492 OA
ATOM     25  C   UNL     1      30.999  -8.258 -31.520  1.00  0.00     0.278 C 
ENDBRANCH  11  24
BRANCH   9  26
ATOM     26  O   UNL     1      31.916  -2.930 -30.246  1.00  0.00    -0.490 OA
ATOM     27  C   UNL     1      31.990  -1.783 -31.088  1.00  0.00     0.279 C 
ENDBRANCH   9  26
BRANCH  10  28
ATOM     28  O   UNL     1      32.159  -5.320 -31.782  1.00  0.00    -0.490 OA
ATOM     29  C   UNL     1      32.391  -4.903 -33.124  1.00  0.00     0.278 C 
ENDBRANCH  10  28
TORSDOF 7
ENDMDL
MODEL 4
REMARK VINA RESULT:    -4.491      1.564      1.962
REMARK INTER + INTRA:          -7.033
REMARK INTER:                  -6.359
REMARK INTRA:                  -0.674
REMARK UNBOUND:                -0.705
REMARK SMILES COc1ccc(-c2cc(=O)c3c(OC)c(OC)c(OC)c(OC)c3o2)cc1OC
REMARK SMILES IDX 7 1 8 2 9 3 10 4 11 5 24 6 25 7 21 8 18 9 15 10 12 11 6 12
REMARK SMILES IDX 3 13 27 14 4 15 26 16 5 17 2 18 1 19 28 20 29 21 22 22 23 23
REMARK SMILES IDX 13 24 14 25 19 26 20 27 16 28 17 29
REMARK H PARENT
REMARK Flexibility Score: inf
ROOT
ATOM      1  C   UNL     1      26.730  -5.974 -28.002  1.00  0.00     0.138 A 
ATOM      2  C   UNL     1      26.837  -6.249 -29.370  1.00  0.00     0.100 A 
ATOM      3  C   UNL     1      27.991  -6.856 -29.853  1.00  0.00     0.197 A 
ATOM      4  O   UNL     1      28.071  -7.104 -31.086  1.00  0.00    -0.289 OA
ATOM      5  C   UNL     1      29.039  -7.183 -28.961  1.00  0.00     0.115 A 
ATOM      6  C   UNL     1      28.859  -6.884 -27.590  1.00  0.00     0.188 A 
ATOM      7  O   UNL     1      27.727  -6.309 -27.188  1.00  0.00    -0.452 OA
ATOM      8  C   UNL     1      29.878  -7.177 -26.651  1.00  0.00     0.209 A 
ATOM      9  C   UNL     1      31.085  -7.783 -27.095  1.00  0.00     0.211 A 
ATOM     10  C   UNL     1      31.252  -8.098 -28.468  1.00  0.00     0.208 A 
ATOM     11  C   UNL     1      30.246  -7.770 -29.395  1.00  0.00     0.179 A 
ENDROOT
BRANCH   1  12
ATOM     12  C   UNL     1      25.527  -5.318 -27.437  1.00  0.00     0.021 A 
ATOM     13  C   UNL     1      23.273  -4.069 -26.286  1.00  0.00     0.160 A 
ATOM     14  C   UNL     1      23.694  -5.323 -25.817  1.00  0.00     0.161 A 
ATOM     15  C   UNL     1      23.981  -3.445 -27.328  1.00  0.00     0.051 A 
ATOM     16  C   UNL     1      24.821  -5.940 -26.395  1.00  0.00     0.062 A 
ATOM     17  C   UNL     1      25.098  -4.061 -27.895  1.00  0.00     0.016 A 
BRANCH  13  18
ATOM     18  O   UNL     1      22.150  -3.476 -25.687  1.00  0.00    -0.493 OA
ATOM     19  C   UNL     1      22.117  -2.148 -25.174  1.00  0.00     0.278 C 
ENDBRANCH  13  18
BRANCH  14  20
ATOM     20  O   UNL     1      22.969  -5.923 -24.775  1.00  0.00    -0.493 OA
ATOM     21  C   UNL     1      22.609  -7.300 -24.732  1.00  0.00     0.278 C 
ENDBRANCH  14  20
ENDBRANCH   1  12
BRANCH   8  22
ATOM     22  O   UNL     1      29.740  -6.887 -25.280  1.00  0.00    -0.490 OA
ATOM     23  C   UNL     1      29.144  -7.700 -24.276  1.00  0.00     0.278 C 
ENDBRANCH   8  22
BRANCH  11  24
ATOM     24  O   UNL     1      30.427  -8.046 -30.759  1.00  0.00    -0.492 OA
ATOM     25  C   UNL     1      31.210  -7.228 -31.625  1.00  0.00     0.278 C 
ENDBRANCH  11  24
BRANCH   9  26
ATOM     26  O   UNL     1      32.140  -8.098 -26.215  1.00  0.00    -0.490 OA
ATOM     27  C   UNL     1      32.334  -9.296 -25.471  1.00  0.00     0.279 C 
ENDBRANCH   9  26
BRANCH  10  28
ATOM     28  O   UNL     1      32.385  -8.763 -28.978  1.00  0.00    -0.490 OA
ATOM     29  C   UNL     1      33.678  -8.218 -29.217  1.00  0.00     0.278 C 
ENDBRANCH  10  28
TORSDOF 7
ENDMDL
MODEL 5
REMARK VINA RESULT:    -4.482     12.521     14.116
REMARK INTER + INTRA:          -7.021
REMARK INTER:                  -6.321
REMARK INTRA:                  -0.700
REMARK UNBOUND:                -0.705
REMARK SMILES COc1ccc(-c2cc(=O)c3c(OC)c(OC)c(OC)c(OC)c3o2)cc1OC
REMARK SMILES IDX 7 1 8 2 9 3 10 4 11 5 24 6 25 7 21 8 18 9 15 10 12 11 6 12
REMARK SMILES IDX 3 13 27 14 4 15 26 16 5 17 2 18 1 19 28 20 29 21 22 22 23 23
REMARK SMILES IDX 13 24 14 25 19 26 20 27 16 28 17 29
REMARK H PARENT
REMARK Flexibility Score: inf
ROOT
ATOM      1  C   UNL     1      29.196  -3.844 -15.271  1.00  0.00     0.138 A 
ATOM      2  C   UNL     1      27.799  -3.914 -15.274  1.00  0.00     0.100 A 
ATOM      3  C   UNL     1      27.066  -2.846 -15.781  1.00  0.00     0.197 A 
ATOM      4  O   UNL     1      25.808  -2.926 -15.784  1.00  0.00    -0.289 OA
ATOM      5  C   UNL     1      27.739  -1.706 -16.279  1.00  0.00     0.115 A 
ATOM      6  C   UNL     1      29.152  -1.707 -16.252  1.00  0.00     0.188 A 
ATOM      7  O   UNL     1      29.798  -2.764 -15.762  1.00  0.00    -0.452 OA
ATOM      8  C   UNL     1      29.881  -0.589 -16.727  1.00  0.00     0.209 A 
ATOM      9  C   UNL     1      29.180   0.536 -17.241  1.00  0.00     0.211 A 
ATOM     10  C   UNL     1      27.762   0.523 -17.282  1.00  0.00     0.208 A 
ATOM     11  C   UNL     1      27.050  -0.580 -16.775  1.00  0.00     0.179 A 
ENDROOT
BRANCH   1  12
ATOM     12  C   UNL     1      30.025  -4.948 -14.732  1.00  0.00     0.021 A 
ATOM     13  C   UNL     1      31.610  -7.081 -13.781  1.00  0.00     0.160 A 
ATOM     14  C   UNL     1      30.408  -7.348 -14.453  1.00  0.00     0.161 A 
ATOM     15  C   UNL     1      32.015  -5.748 -13.588  1.00  0.00     0.051 A 
ATOM     16  C   UNL     1      29.622  -6.279 -14.927  1.00  0.00     0.062 A 
ATOM     17  C   UNL     1      31.232  -4.693 -14.060  1.00  0.00     0.016 A 
BRANCH  13  18
ATOM     18  O   UNL     1      32.375  -8.167 -13.325  1.00  0.00    -0.493 OA
ATOM     19  C   UNL     1      33.759  -8.097 -12.999  1.00  0.00     0.278 C 
ENDBRANCH  13  18
BRANCH  14  20
ATOM     20  O   UNL     1      30.028  -8.687 -14.633  1.00  0.00    -0.493 OA
ATOM     21  C   UNL     1      28.701  -9.119 -14.920  1.00  0.00     0.278 C 
ENDBRANCH  14  20
ENDBRANCH   1  12
BRANCH   8  22
ATOM     22  O   UNL     1      31.288  -0.548 -16.709  1.00  0.00    -0.490 OA
ATOM     23  C   UNL     1      32.182  -0.941 -17.745  1.00  0.00     0.278 C 
ENDBRANCH   8  22
BRANCH  11  24
ATOM     24  O   UNL     1      25.647  -0.576 -16.781  1.00  0.00    -0.492 OA
ATOM     25  C   UNL     1      24.863   0.217 -15.892  1.00  0.00     0.278 C 
ENDBRANCH  11  24
BRANCH   9  26
ATOM     26  O   UNL     1      29.841   1.682 -17.725  1.00  0.00    -0.490 OA
ATOM     27  C   UNL     1      30.297   1.937 -19.050  1.00  0.00     0.279 C 
ENDBRANCH   9  26
BRANCH  10  28
ATOM     28  O   UNL     1      26.994   1.565 -17.841  1.00  0.00    -0.490 OA
ATOM     29  C   UNL     1      26.588   1.714 -19.197  1.00  0.00     0.278 C 
ENDBRANCH  10  28
TORSDOF 7
ENDMDL
MODEL 6
REMARK VINA RESULT:    -4.481      2.663      5.633
REMARK INTER + INTRA:          -7.019
REMARK INTER:                  -6.329
REMARK INTRA:                  -0.690
REMARK UNBOUND:                -0.705
REMARK SMILES COc1ccc(-c2cc(=O)c3c(OC)c(OC)c(OC)c(OC)c3o2)cc1OC
REMARK SMILES IDX 7 1 8 2 9 3 10 4 11 5 24 6 25 7 21 8 18 9 15 10 12 11 6 12
REMARK SMILES IDX 3 13 27 14 4 15 26 16 5 17 2 18 1 19 28 20 29 21 22 22 23 23
REMARK SMILES IDX 13 24 14 25 19 26 20 27 16 28 17 29
REMARK H PARENT
REMARK Flexibility Score: inf
ROOT
ATOM      1  C   UNL     1      31.148  -8.591 -25.867  1.00  0.00     0.138 A 
ATOM      2  C   UNL     1      32.284  -8.860 -26.637  1.00  0.00     0.100 A 
ATOM      3  C   UNL     1      32.392  -8.303 -27.907  1.00  0.00     0.197 A 
ATOM      4  O   UNL     1      33.424  -8.548 -28.587  1.00  0.00    -0.289 OA
ATOM      5  C   UNL     1      31.354  -7.480 -28.403  1.00  0.00     0.115 A 
ATOM      6  C   UNL     1      30.238  -7.245 -27.567  1.00  0.00     0.188 A 
ATOM      7  O   UNL     1      30.197  -7.800 -26.357  1.00  0.00    -0.452 OA
ATOM      8  C   UNL     1      29.163  -6.438 -28.014  1.00  0.00     0.209 A 
ATOM      9  C   UNL     1      29.216  -5.858 -29.311  1.00  0.00     0.211 A 
ATOM     10  C   UNL     1      30.346  -6.083 -30.138  1.00  0.00     0.208 A 
ATOM     11  C   UNL     1      31.391  -6.915 -29.695  1.00  0.00     0.179 A 
ENDROOT
BRANCH   1  12
ATOM     12  C   UNL     1      30.976  -9.168 -24.512  1.00  0.00     0.021 A 
ATOM     13  C   UNL     1      30.600 -10.323 -21.965  1.00  0.00     0.160 A 
ATOM     14  C   UNL     1      29.495  -9.853 -22.690  1.00  0.00     0.161 A 
ATOM     15  C   UNL     1      31.889 -10.214 -22.517  1.00  0.00     0.051 A 
ATOM     16  C   UNL     1      29.689  -9.279 -23.962  1.00  0.00     0.062 A 
ATOM     17  C   UNL     1      32.074  -9.645 -23.778  1.00  0.00     0.016 A 
BRANCH  13  18
ATOM     18  O   UNL     1      30.375 -10.895 -20.702  1.00  0.00    -0.493 OA
ATOM     19  C   UNL     1      30.479 -10.191 -19.469  1.00  0.00     0.278 C 
ENDBRANCH  13  18
BRANCH  14  20
ATOM     20  O   UNL     1      28.220  -9.976 -22.116  1.00  0.00    -0.493 OA
ATOM     21  C   UNL     1      27.191 -10.829 -22.608  1.00  0.00     0.278 C 
ENDBRANCH  14  20
ENDBRANCH   1  12
BRANCH   8  22
ATOM     22  O   UNL     1      28.031  -6.187 -27.215  1.00  0.00    -0.490 OA
ATOM     23  C   UNL     1      26.814  -6.923 -27.177  1.00  0.00     0.278 C 
ENDBRANCH   8  22
BRANCH  11  24
ATOM     24  O   UNL     1      32.491  -7.168 -30.528  1.00  0.00    -0.492 OA
ATOM     25  C   UNL     1      32.412  -7.966 -31.707  1.00  0.00     0.278 C 
ENDBRANCH  11  24
BRANCH   9  26
ATOM     26  O   UNL     1      28.179  -5.050 -29.820  1.00  0.00    -0.490 OA
ATOM     27  C   UNL     1      27.812  -3.736 -29.413  1.00  0.00     0.279 C 
ENDBRANCH   9  26
BRANCH  10  28
ATOM     28  O   UNL     1      30.509  -5.488 -31.405  1.00  0.00    -0.490 OA
ATOM     29  C   UNL     1      31.122  -4.239 -31.706  1.00  0.00     0.278 C 
ENDBRANCH  10  28
TORSDOF 7
ENDMDL
MODEL 7
REMARK VINA RESULT:    -4.455      1.990      8.088
REMARK INTER + INTRA:          -6.983
REMARK INTER:                  -6.296
REMARK INTRA:                  -0.687
REMARK UNBOUND:                -0.705
REMARK SMILES COc1ccc(-c2cc(=O)c3c(OC)c(OC)c(OC)c(OC)c3o2)cc1OC
REMARK SMILES IDX 7 1 8 2 9 3 10 4 11 5 24 6 25 7 21 8 18 9 15 10 12 11 6 12
REMARK SMILES IDX 3 13 27 14 4 15 26 16 5 17 2 18 1 19 28 20 29 21 22 22 23 23
REMARK SMILES IDX 13 24 14 25 19 26 20 27 16 28 17 29
REMARK H PARENT
REMARK Flexibility Score: inf
ROOT
ATOM      1  C   UNL     1      27.183  -6.057 -28.585  1.00  0.00     0.138 A 
ATOM      2  C   UNL     1      26.615  -4.841 -28.979  1.00  0.00     0.100 A 
ATOM      3  C   UNL     1      25.550  -4.321 -28.250  1.00  0.00     0.197 A 
ATOM      4  O   UNL     1      25.052  -3.221 -28.612  1.00  0.00    -0.289 OA
ATOM      5  C   UNL     1      25.054  -5.027 -27.129  1.00  0.00     0.115 A 
ATOM      6  C   UNL     1      25.682  -6.247 -26.785  1.00  0.00     0.188 A 
ATOM      7  O   UNL     1      26.703  -6.688 -27.517  1.00  0.00    -0.452 OA
ATOM      8  C   UNL     1      25.223  -7.004 -25.679  1.00  0.00     0.209 A 
ATOM      9  C   UNL     1      24.127  -6.525 -24.911  1.00  0.00     0.211 A 
ATOM     10  C   UNL     1      23.513  -5.292 -25.250  1.00  0.00     0.208 A 
ATOM     11  C   UNL     1      23.957  -4.567 -26.371  1.00  0.00     0.179 A 
ENDROOT
BRANCH   1  12
ATOM     12  C   UNL     1      28.311  -6.662 -29.333  1.00  0.00     0.021 A 
ATOM     13  C   UNL     1      30.448  -7.884 -30.714  1.00  0.00     0.160 A 
ATOM     14  C   UNL     1      30.483  -7.786 -29.315  1.00  0.00     0.161 A 
ATOM     15  C   UNL     1      29.343  -7.370 -31.417  1.00  0.00     0.051 A 
ATOM     16  C   UNL     1      29.413  -7.177 -28.631  1.00  0.00     0.062 A 
ATOM     17  C   UNL     1      28.285  -6.768 -30.733  1.00  0.00     0.016 A 
BRANCH  13  18
ATOM     18  O   UNL     1      31.526  -8.500 -31.368  1.00  0.00    -0.493 OA
ATOM     19  C   UNL     1      32.619  -7.801 -31.955  1.00  0.00     0.278 C 
ENDBRANCH  13  18
BRANCH  14  20
ATOM     20  O   UNL     1      31.598  -8.308 -28.638  1.00  0.00    -0.493 OA
ATOM     21  C   UNL     1      31.542  -8.956 -27.372  1.00  0.00     0.278 C 
ENDBRANCH  14  20
ENDBRANCH   1  12
BRANCH   8  22
ATOM     22  O   UNL     1      25.816  -8.226 -25.309  1.00  0.00    -0.490 OA
ATOM     23  C   UNL     1      26.712  -8.465 -24.230  1.00  0.00     0.278 C 
ENDBRANCH   8  22
BRANCH  11  24
ATOM     24  O   UNL     1      23.325  -3.367 -26.730  1.00  0.00    -0.492 OA
ATOM     25  C   UNL     1      22.050  -3.314 -27.366  1.00  0.00     0.278 C 
ENDBRANCH  11  24
BRANCH   9  26
ATOM     26  O   UNL     1      23.617  -7.230 -23.802  1.00  0.00    -0.490 OA
ATOM     27  C   UNL     1      22.601  -8.228 -23.790  1.00  0.00     0.279 C 
ENDBRANCH   9  26
BRANCH  10  28
ATOM     28  O   UNL     1      22.471  -4.713 -24.499  1.00  0.00    -0.490 OA
ATOM     29  C   UNL     1      22.587  -3.891 -23.342  1.00  0.00     0.278 C 
ENDBRANCH  10  28
TORSDOF 7
ENDMDL
MODEL 8
REMARK VINA RESULT:    -4.382      2.638      8.439
REMARK INTER + INTRA:          -6.880
REMARK INTER:                  -6.112
REMARK INTRA:                  -0.768
REMARK UNBOUND:                -0.705
REMARK SMILES COc1ccc(-c2cc(=O)c3c(OC)c(OC)c(OC)c(OC)c3o2)cc1OC
REMARK SMILES IDX 7 1 8 2 9 3 10 4 11 5 24 6 25 7 21 8 18 9 15 10 12 11 6 12
REMARK SMILES IDX 3 13 27 14 4 15 26 16 5 17 2 18 1 19 28 20 29 21 22 22 23 23
REMARK SMILES IDX 13 24 14 25 19 26 20 27 16 28 17 29
REMARK H PARENT
REMARK Flexibility Score: inf
ROOT
ATOM      1  C   UNL     1      31.285  -8.452 -26.989  1.00  0.00     0.138 A 
ATOM      2  C   UNL     1      31.834  -9.407 -26.128  1.00  0.00     0.100 A 
ATOM      3  C   UNL     1      31.366  -9.493 -24.821  1.00  0.00     0.197 A 
ATOM      4  O   UNL     1      31.864 -10.364 -24.058  1.00  0.00    -0.289 OA
ATOM      5  C   UNL     1      30.349  -8.614 -24.380  1.00  0.00     0.115 A 
ATOM      6  C   UNL     1      29.835  -7.679 -25.307  1.00  0.00     0.188 A 
ATOM      7  O   UNL     1      30.318  -7.651 -26.547  1.00  0.00    -0.452 OA
ATOM      8  C   UNL     1      28.823  -6.765 -24.920  1.00  0.00     0.209 A 
ATOM      9  C   UNL     1      28.321  -6.800 -23.590  1.00  0.00     0.211 A 
ATOM     10  C   UNL     1      28.828  -7.753 -22.670  1.00  0.00     0.208 A 
ATOM     11  C   UNL     1      29.857  -8.632 -23.058  1.00  0.00     0.179 A 
ENDROOT
BRANCH   1  12
ATOM     12  C   UNL     1      31.755  -8.309 -28.387  1.00  0.00     0.021 A 
ATOM     13  C   UNL     1      32.613  -7.965 -31.054  1.00  0.00     0.160 A 
ATOM     14  C   UNL     1      31.243  -7.940 -30.751  1.00  0.00     0.161 A 
ATOM     15  C   UNL     1      33.548  -8.162 -30.022  1.00  0.00     0.051 A 
ATOM     16  C   UNL     1      30.821  -8.111 -29.418  1.00  0.00     0.062 A 
ATOM     17  C   UNL     1      33.123  -8.329 -28.703  1.00  0.00     0.016 A 
BRANCH  13  18
ATOM     18  O   UNL     1      33.003  -7.787 -32.391  1.00  0.00    -0.493 OA
ATOM     19  C   UNL     1      33.540  -6.579 -32.920  1.00  0.00     0.278 C 
ENDBRANCH  13  18
BRANCH  14  20
ATOM     20  O   UNL     1      30.331  -7.741 -31.800  1.00  0.00    -0.493 OA
ATOM     21  C   UNL     1      28.936  -8.018 -31.721  1.00  0.00     0.278 C 
ENDBRANCH  14  20
ENDBRANCH   1  12
BRANCH   8  22
ATOM     22  O   UNL     1      28.291  -5.814 -25.811  1.00  0.00    -0.490 OA
ATOM     23  C   UNL     1      27.220  -5.989 -26.731  1.00  0.00     0.278 C 
ENDBRANCH   8  22
BRANCH  11  24
ATOM     24  O   UNL     1      30.385  -9.549 -22.137  1.00  0.00    -0.492 OA
ATOM     25  C   UNL     1      31.258  -9.174 -21.074  1.00  0.00     0.278 C 
ENDBRANCH  11  24
BRANCH   9  26
ATOM     26  O   UNL     1      27.320  -5.918 -23.138  1.00  0.00    -0.490 OA
ATOM     27  C   UNL     1      25.907  -6.082 -23.215  1.00  0.00     0.279 C 
ENDBRANCH   9  26
BRANCH  10  28
ATOM     28  O   UNL     1      28.335  -7.902 -21.358  1.00  0.00    -0.490 OA
ATOM     29  C   UNL     1      27.251  -8.716 -20.925  1.00  0.00     0.278 C 
ENDBRANCH  10  28
TORSDOF 7
ENDMDL
