MODEL 1
REMARK VINA RESULT:    -3.257      0.000      0.000
REMARK INTER + INTRA:         -11.403
REMARK INTER:                  -7.066
REMARK INTRA:                  -4.338
REMARK UNBOUND:                -4.338
REMARK SMILES CCCCCCCCCCCCCCCCCCCCCC(=O)[O-]
REMARK SMILES IDX 12 1 11 2 10 3 9 4 8 5 7 6 6 7 5 8 4 9 3 10 2 11 1 12 13 13
REMARK SMILES IDX 14 14 15 15 16 16 17 17 18 18 19 19 20 20 21 21 22 22 23 23
REMARK SMILES IDX 24 24
REMARK H PARENT
REMARK Flexibility Score: inf
ROOT
ATOM      1  C   UNL     1      10.802 -14.356  21.811  1.00  0.00     0.000 C 
ENDROOT
BRANCH   1   2
ATOM      2  C   UNL     1      10.084 -13.266  21.002  1.00  0.00     0.000 C 
BRANCH   2   3
ATOM      3  C   UNL     1      10.897 -11.965  21.005  1.00  0.00     0.000 C 
BRANCH   3   4
ATOM      4  C   UNL     1      10.433 -11.012  19.893  1.00  0.00    -0.000 C 
BRANCH   4   5
ATOM      5  C   UNL     1       9.899 -11.759  18.656  1.00  0.00    -0.000 C 
BRANCH   5   6
ATOM      6  C   UNL     1      10.767 -11.634  17.386  1.00  0.00    -0.000 C 
BRANCH   6   7
ATOM      7  C   UNL     1      11.941 -12.623  17.303  1.00  0.00    -0.000 C 
BRANCH   7   8
ATOM      8  C   UNL     1      13.234 -11.969  16.788  1.00  0.00    -0.000 C 
BRANCH   8   9
ATOM      9  C   UNL     1      13.269 -10.456  17.064  1.00  0.00    -0.000 C 
BRANCH   9  10
ATOM     10  C   UNL     1      14.143 -10.105  18.278  1.00  0.00    -0.000 C 
BRANCH  10  11
ATOM     11  C   UNL     1      13.422  -9.117  19.202  1.00  0.00    -0.003 C 
ATOM     12  C   UNL     1      13.749  -9.395  20.667  1.00  0.00     0.004 C 
ENDBRANCH  10  11
ENDBRANCH   9  10
ENDBRANCH   8   9
ENDBRANCH   7   8
ENDBRANCH   6   7
ENDBRANCH   5   6
ENDBRANCH   4   5
ENDBRANCH   3   4
ENDBRANCH   2   3
ENDBRANCH   1   2
BRANCH   1  13
ATOM     13  C   UNL     1      11.492 -13.769  23.050  1.00  0.00     0.000 C 
BRANCH  13  14
ATOM     14  C   UNL     1      12.524 -14.756  23.620  1.00  0.00     0.000 C 
BRANCH  14  15
ATOM     15  C   UNL     1      13.969 -14.239  23.522  1.00  0.00     0.000 C 
BRANCH  15  16
ATOM     16  C   UNL     1      14.061 -12.854  22.856  1.00  0.00     0.000 C 
BRANCH  16  17
ATOM     17  C   UNL     1      14.944 -12.860  21.593  1.00  0.00     0.000 C 
BRANCH  17  18
ATOM     18  C   UNL     1      14.192 -13.097  20.269  1.00  0.00     0.000 C 
BRANCH  18  19
ATOM     19  C   UNL     1      14.586 -14.414  19.582  1.00  0.00     0.000 C 
BRANCH  19  20
ATOM     20  C   UNL     1      13.368 -15.338  19.426  1.00  0.00     0.006 C 
BRANCH  20  21
ATOM     21  C   UNL     1      13.421 -16.534  20.388  1.00  0.00     0.053 C 
BRANCH  21  22
ATOM     22  C   UNL     1      13.411 -17.840  19.654  1.00  0.00     0.041 C 
ATOM     23  O   UNL     1      13.853 -17.907  18.477  1.00  0.00    -0.550 OA
ATOM     24  O   UNL     1      12.894 -18.978  20.260  1.00  0.00    -0.550 OA
ENDBRANCH  21  22
ENDBRANCH  20  21
ENDBRANCH  19  20
ENDBRANCH  18  19
ENDBRANCH  17  18
ENDBRANCH  16  17
ENDBRANCH  15  16
ENDBRANCH  14  15
ENDBRANCH  13  14
ENDBRANCH   1  13
TORSDOF 20
ENDMDL
MODEL 2
REMARK VINA RESULT:    -3.180      3.051      6.132
REMARK INTER + INTRA:         -11.236
REMARK INTER:                  -7.022
REMARK INTRA:                  -4.214
REMARK UNBOUND:                -4.338
REMARK SMILES CCCCCCCCCCCCCCCCCCCCCC(=O)[O-]
REMARK SMILES IDX 12 1 11 2 10 3 9 4 8 5 7 6 6 7 5 8 4 9 3 10 2 11 1 12 13 13
REMARK SMILES IDX 14 14 15 15 16 16 17 17 18 18 19 19 20 20 21 21 22 22 23 23
REMARK SMILES IDX 24 24
REMARK H PARENT
REMARK Flexibility Score: inf
ROOT
ATOM      1  C   UNL     1      11.855 -12.516  17.409  1.00  0.00     0.000 C 
ENDROOT
BRANCH   1   2
ATOM      2  C   UNL     1      10.732 -11.724  18.093  1.00  0.00     0.000 C 
BRANCH   2   3
ATOM      3  C   UNL     1      10.303 -12.409  19.397  1.00  0.00     0.000 C 
BRANCH   3   4
ATOM      4  C   UNL     1      11.142 -13.666  19.671  1.00  0.00    -0.000 C 
BRANCH   4   5
ATOM      5  C   UNL     1      10.581 -14.515  20.829  1.00  0.00    -0.000 C 
BRANCH   5   6
ATOM      6  C   UNL     1      10.868 -13.970  22.243  1.00  0.00    -0.000 C 
BRANCH   6   7
ATOM      7  C   UNL     1      12.236 -14.363  22.825  1.00  0.00    -0.000 C 
BRANCH   7   8
ATOM      8  C   UNL     1      13.214 -13.178  22.898  1.00  0.00    -0.000 C 
BRANCH   8   9
ATOM      9  C   UNL     1      14.580 -13.513  22.276  1.00  0.00    -0.000 C 
BRANCH   9  10
ATOM     10  C   UNL     1      14.604 -13.273  20.759  1.00  0.00    -0.000 C 
BRANCH  10  11
ATOM     11  C   UNL     1      14.818 -14.589  20.002  1.00  0.00    -0.003 C 
ATOM     12  C   UNL     1      14.671 -14.388  18.496  1.00  0.00     0.004 C 
ENDBRANCH  10  11
ENDBRANCH   9  10
ENDBRANCH   8   9
ENDBRANCH   7   8
ENDBRANCH   6   7
ENDBRANCH   5   6
ENDBRANCH   4   5
ENDBRANCH   3   4
ENDBRANCH   2   3
ENDBRANCH   1   2
BRANCH   1  13
ATOM     13  C   UNL     1      12.658 -11.630  16.447  1.00  0.00     0.000 C 
BRANCH  13  14
ATOM     14  C   UNL     1      13.008 -10.285  17.105  1.00  0.00     0.000 C 
BRANCH  14  15
ATOM     15  C   UNL     1      14.205 -10.378  18.065  1.00  0.00     0.000 C 
BRANCH  15  16
ATOM     16  C   UNL     1      13.879  -9.852  19.474  1.00  0.00     0.000 C 
BRANCH  16  17
ATOM     17  C   UNL     1      12.725  -8.831  19.477  1.00  0.00     0.000 C 
BRANCH  17  18
ATOM     18  C   UNL     1      11.617  -9.097  20.514  1.00  0.00     0.000 C 
BRANCH  18  19
ATOM     19  C   UNL     1      12.082  -9.989  21.675  1.00  0.00     0.000 C 
BRANCH  19  20
ATOM     20  C   UNL     1      10.920 -10.298  22.631  1.00  0.00     0.006 C 
BRANCH  20  21
ATOM     21  C   UNL     1       9.560  -9.903  22.037  1.00  0.00     0.053 C 
BRANCH  21  22
ATOM     22  C   UNL     1       8.476 -10.851  22.450  1.00  0.00     0.041 C 
ATOM     23  O   UNL     1       7.434 -10.962  21.752  1.00  0.00    -0.550 OA
ATOM     24  O   UNL     1       8.605 -11.594  23.616  1.00  0.00    -0.550 OA
ENDBRANCH  21  22
ENDBRANCH  20  21
ENDBRANCH  19  20
ENDBRANCH  18  19
ENDBRANCH  17  18
ENDBRANCH  16  17
ENDBRANCH  15  16
ENDBRANCH  14  15
ENDBRANCH  13  14
ENDBRANCH   1  13
TORSDOF 20
ENDMDL
MODEL 3
REMARK VINA RESULT:    -3.169      2.217      5.362
REMARK INTER + INTRA:         -11.212
REMARK INTER:                  -6.578
REMARK INTRA:                  -4.633
REMARK UNBOUND:                -4.338
REMARK SMILES CCCCCCCCCCCCCCCCCCCCCC(=O)[O-]
REMARK SMILES IDX 12 1 11 2 10 3 9 4 8 5 7 6 6 7 5 8 4 9 3 10 2 11 1 12 13 13
REMARK SMILES IDX 14 14 15 15 16 16 17 17 18 18 19 19 20 20 21 21 22 22 23 23
REMARK SMILES IDX 24 24
REMARK H PARENT
REMARK Flexibility Score: inf
ROOT
ATOM      1  C   UNL     1      10.536 -14.059  20.764  1.00  0.00     0.000 C 
ENDROOT
BRANCH   1   2
ATOM      2  C   UNL     1      10.966 -13.989  22.236  1.00  0.00     0.000 C 
BRANCH   2   3
ATOM      3  C   UNL     1      10.307 -12.793  22.936  1.00  0.00     0.000 C 
BRANCH   3   4
ATOM      4  C   UNL     1      11.358 -11.811  23.474  1.00  0.00    -0.000 C 
BRANCH   4   5
ATOM      5  C   UNL     1      12.797 -12.340  23.324  1.00  0.00    -0.000 C 
BRANCH   5   6
ATOM      6  C   UNL     1      13.672 -11.586  22.301  1.00  0.00    -0.000 C 
BRANCH   6   7
ATOM      7  C   UNL     1      14.558 -12.483  21.420  1.00  0.00    -0.000 C 
BRANCH   7   8
ATOM      8  C   UNL     1      14.684 -13.915  21.967  1.00  0.00    -0.000 C 
BRANCH   8   9
ATOM      9  C   UNL     1      14.392 -14.975  20.891  1.00  0.00    -0.000 C 
BRANCH   9  10
ATOM     10  C   UNL     1      14.670 -14.458  19.472  1.00  0.00    -0.000 C 
BRANCH  10  11
ATOM     11  C   UNL     1      14.089 -15.410  18.420  1.00  0.00    -0.003 C 
ATOM     12  C   UNL     1      12.874 -16.156  18.965  1.00  0.00     0.004 C 
ENDBRANCH  10  11
ENDBRANCH   9  10
ENDBRANCH   8   9
ENDBRANCH   7   8
ENDBRANCH   6   7
ENDBRANCH   5   6
ENDBRANCH   4   5
ENDBRANCH   3   4
ENDBRANCH   2   3
ENDBRANCH   1   2
BRANCH   1  13
ATOM     13  C   UNL     1      11.114 -12.889  19.957  1.00  0.00     0.000 C 
BRANCH  13  14
ATOM     14  C   UNL     1      10.013 -12.188  19.144  1.00  0.00     0.000 C 
BRANCH  14  15
ATOM     15  C   UNL     1      10.201 -10.665  19.065  1.00  0.00     0.000 C 
BRANCH  15  16
ATOM     16  C   UNL     1      10.504 -10.031  20.434  1.00  0.00     0.000 C 
BRANCH  16  17
ATOM     17  C   UNL     1      11.725  -9.090  20.397  1.00  0.00     0.000 C 
BRANCH  17  18
ATOM     18  C   UNL     1      12.460  -9.022  19.045  1.00  0.00     0.000 C 
BRANCH  18  19
ATOM     19  C   UNL     1      13.874  -9.622  19.099  1.00  0.00     0.000 C 
BRANCH  19  20
ATOM     20  C   UNL     1      14.253 -10.256  17.751  1.00  0.00     0.006 C 
BRANCH  20  21
ATOM     21  C   UNL     1      13.790 -11.716  17.647  1.00  0.00     0.053 C 
BRANCH  21  22
ATOM     22  C   UNL     1      12.739 -11.892  16.594  1.00  0.00     0.041 C 
ATOM     23  O   UNL     1      12.427 -10.930  15.845  1.00  0.00    -0.550 OA
ATOM     24  O   UNL     1      12.087 -13.110  16.455  1.00  0.00    -0.550 OA
ENDBRANCH  21  22
ENDBRANCH  20  21
ENDBRANCH  19  20
ENDBRANCH  18  19
ENDBRANCH  17  18
ENDBRANCH  16  17
ENDBRANCH  15  16
ENDBRANCH  14  15
ENDBRANCH  13  14
ENDBRANCH   1  13
TORSDOF 20
ENDMDL
MODEL 4
REMARK VINA RESULT:    -3.162      2.280      5.630
REMARK INTER + INTRA:         -11.197
REMARK INTER:                  -7.167
REMARK INTRA:                  -4.030
REMARK UNBOUND:                -4.338
REMARK SMILES CCCCCCCCCCCCCCCCCCCCCC(=O)[O-]
REMARK SMILES IDX 12 1 11 2 10 3 9 4 8 5 7 6 6 7 5 8 4 9 3 10 2 11 1 12 13 13
REMARK SMILES IDX 14 14 15 15 16 16 17 17 18 18 19 19 20 20 21 21 22 22 23 23
REMARK SMILES IDX 24 24
REMARK H PARENT
REMARK Flexibility Score: inf
ROOT
ATOM      1  C   UNL     1      10.543 -11.106  18.647  1.00  0.00     0.000 C 
ENDROOT
BRANCH   1   2
ATOM      2  C   UNL     1      10.337 -12.351  19.522  1.00  0.00     0.000 C 
BRANCH   2   3
ATOM      3  C   UNL     1      11.465 -13.366  19.292  1.00  0.00     0.000 C 
BRANCH   3   4
ATOM      4  C   UNL     1      11.359 -14.550  20.265  1.00  0.00    -0.000 C 
BRANCH   4   5
ATOM      5  C   UNL     1      10.497 -14.227  21.502  1.00  0.00    -0.000 C 
BRANCH   5   6
ATOM      6  C   UNL     1      11.276 -14.079  22.825  1.00  0.00    -0.000 C 
BRANCH   6   7
ATOM      7  C   UNL     1      10.642 -13.119  23.846  1.00  0.00    -0.000 C 
BRANCH   7   8
ATOM      8  C   UNL     1      10.965 -11.644  23.556  1.00  0.00    -0.000 C 
BRANCH   8   9
ATOM      9  C   UNL     1       9.762 -10.895  22.956  1.00  0.00    -0.000 C 
BRANCH   9  10
ATOM     10  C   UNL     1       8.426 -11.574  23.290  1.00  0.00    -0.000 C 
BRANCH  10  11
ATOM     11  C   UNL     1       7.589 -11.784  22.023  1.00  0.00    -0.003 C 
ATOM     12  C   UNL     1       7.603 -10.539  21.141  1.00  0.00     0.004 C 
ENDBRANCH  10  11
ENDBRANCH   9  10
ENDBRANCH   8   9
ENDBRANCH   7   8
ENDBRANCH   6   7
ENDBRANCH   5   6
ENDBRANCH   4   5
ENDBRANCH   3   4
ENDBRANCH   2   3
ENDBRANCH   1   2
BRANCH   1  13
ATOM     13  C   UNL     1      10.549 -11.465  17.156  1.00  0.00     0.000 C 
BRANCH  13  14
ATOM     14  C   UNL     1      11.666 -10.711  16.416  1.00  0.00     0.000 C 
BRANCH  14  15
ATOM     15  C   UNL     1      13.073 -11.210  16.783  1.00  0.00     0.000 C 
BRANCH  15  16
ATOM     16  C   UNL     1      13.923 -10.133  17.481  1.00  0.00     0.000 C 
BRANCH  16  17
ATOM     17  C   UNL     1      14.273 -10.503  18.936  1.00  0.00     0.000 C 
BRANCH  17  18
ATOM     18  C   UNL     1      13.545  -9.679  20.015  1.00  0.00     0.000 C 
BRANCH  18  19
ATOM     19  C   UNL     1      13.532 -10.368  21.389  1.00  0.00     0.000 C 
BRANCH  19  20
ATOM     20  C   UNL     1      14.094 -11.795  21.293  1.00  0.00     0.006 C 
BRANCH  20  21
ATOM     21  C   UNL     1      14.600 -12.311  22.648  1.00  0.00     0.053 C 
BRANCH  21  22
ATOM     22  C   UNL     1      14.869 -13.784  22.617  1.00  0.00     0.041 C 
ATOM     23  O   UNL     1      14.707 -14.435  21.551  1.00  0.00    -0.550 OA
ATOM     24  O   UNL     1      15.275 -14.445  23.769  1.00  0.00    -0.550 OA
ENDBRANCH  21  22
ENDBRANCH  20  21
ENDBRANCH  19  20
ENDBRANCH  18  19
ENDBRANCH  17  18
ENDBRANCH  16  17
ENDBRANCH  15  16
ENDBRANCH  14  15
ENDBRANCH  13  14
ENDBRANCH   1  13
TORSDOF 20
ENDMDL
MODEL 5
REMARK VINA RESULT:    -3.160      3.192      6.590
REMARK INTER + INTRA:         -11.192
REMARK INTER:                  -7.124
REMARK INTRA:                  -4.067
REMARK UNBOUND:                -4.338
REMARK SMILES CCCCCCCCCCCCCCCCCCCCCC(=O)[O-]
REMARK SMILES IDX 12 1 11 2 10 3 9 4 8 5 7 6 6 7 5 8 4 9 3 10 2 11 1 12 13 13
REMARK SMILES IDX 14 14 15 15 16 16 17 17 18 18 19 19 20 20 21 21 22 22 23 23
REMARK SMILES IDX 24 24
REMARK H PARENT
REMARK Flexibility Score: inf
ROOT
ATOM      1  C   UNL     1      14.216 -10.380  18.489  1.00  0.00     0.000 C 
ENDROOT
BRANCH   1   2
ATOM      2  C   UNL     1      13.387  -9.308  19.211  1.00  0.00     0.000 C 
BRANCH   2   3
ATOM      3  C   UNL     1      13.139  -9.708  20.671  1.00  0.00     0.000 C 
BRANCH   3   4
ATOM      4  C   UNL     1      13.120 -11.235  20.837  1.00  0.00    -0.000 C 
BRANCH   4   5
ATOM      5  C   UNL     1      14.075 -11.724  21.944  1.00  0.00    -0.000 C 
BRANCH   5   6
ATOM      6  C   UNL     1      14.828 -13.033  21.632  1.00  0.00    -0.000 C 
BRANCH   6   7
ATOM      7  C   UNL     1      14.621 -13.577  20.209  1.00  0.00    -0.000 C 
BRANCH   7   8
ATOM      8  C   UNL     1      13.878 -14.924  20.189  1.00  0.00    -0.000 C 
BRANCH   8   9
ATOM      9  C   UNL     1      12.418 -14.774  19.731  1.00  0.00    -0.000 C 
BRANCH   9  10
ATOM     10  C   UNL     1      11.424 -15.349  20.752  1.00  0.00    -0.000 C 
BRANCH  10  11
ATOM     11  C   UNL     1      10.877 -14.243  21.662  1.00  0.00    -0.003 C 
ATOM     12  C   UNL     1      11.580 -14.248  23.018  1.00  0.00     0.004 C 
ENDBRANCH  10  11
ENDBRANCH   9  10
ENDBRANCH   8   9
ENDBRANCH   7   8
ENDBRANCH   6   7
ENDBRANCH   5   6
ENDBRANCH   4   5
ENDBRANCH   3   4
ENDBRANCH   2   3
ENDBRANCH   1   2
BRANCH   1  13
ATOM     13  C   UNL     1      13.521 -10.853  17.205  1.00  0.00     0.000 C 
BRANCH  13  14
ATOM     14  C   UNL     1      12.245 -10.037  16.941  1.00  0.00     0.000 C 
BRANCH  14  15
ATOM     15  C   UNL     1      10.978 -10.906  16.875  1.00  0.00     0.000 C 
BRANCH  15  16
ATOM     16  C   UNL     1      11.040 -12.120  17.818  1.00  0.00     0.000 C 
BRANCH  16  17
ATOM     17  C   UNL     1      10.078 -11.992  19.016  1.00  0.00     0.000 C 
BRANCH  17  18
ATOM     18  C   UNL     1       9.444 -10.600  19.202  1.00  0.00     0.000 C 
BRANCH  18  19
ATOM     19  C   UNL     1       8.238 -10.612  20.154  1.00  0.00     0.000 C 
BRANCH  19  20
ATOM     20  C   UNL     1       8.225 -11.890  21.008  1.00  0.00     0.006 C 
BRANCH  20  21
ATOM     21  C   UNL     1       8.066 -11.586  22.504  1.00  0.00     0.053 C 
BRANCH  21  22
ATOM     22  C   UNL     1       9.045 -10.551  22.969  1.00  0.00     0.041 C 
ATOM     23  O   UNL     1       8.640  -9.414  23.329  1.00  0.00    -0.550 OA
ATOM     24  O   UNL     1      10.405 -10.832  22.984  1.00  0.00    -0.550 OA
ENDBRANCH  21  22
ENDBRANCH  20  21
ENDBRANCH  19  20
ENDBRANCH  18  19
ENDBRANCH  17  18
ENDBRANCH  16  17
ENDBRANCH  15  16
ENDBRANCH  14  15
ENDBRANCH  13  14
ENDBRANCH   1  13
TORSDOF 20
ENDMDL
MODEL 6
REMARK VINA RESULT:    -3.105      2.366      4.592
REMARK INTER + INTRA:         -11.074
REMARK INTER:                  -6.781
REMARK INTRA:                  -4.292
REMARK UNBOUND:                -4.338
REMARK SMILES CCCCCCCCCCCCCCCCCCCCCC(=O)[O-]
REMARK SMILES IDX 12 1 11 2 10 3 9 4 8 5 7 6 6 7 5 8 4 9 3 10 2 11 1 12 13 13
REMARK SMILES IDX 14 14 15 15 16 16 17 17 18 18 19 19 20 20 21 21 22 22 23 23
REMARK SMILES IDX 24 24
REMARK H PARENT
REMARK Flexibility Score: inf
ROOT
ATOM      1  C   UNL     1      10.541 -12.676  19.943  1.00  0.00     0.000 C 
ENDROOT
BRANCH   1   2
ATOM      2  C   UNL     1       9.737 -11.498  19.375  1.00  0.00     0.000 C 
BRANCH   2   3
ATOM      3  C   UNL     1       8.391 -11.361  20.100  1.00  0.00     0.000 C 
BRANCH   3   4
ATOM      4  C   UNL     1       8.348 -12.228  21.367  1.00  0.00    -0.000 C 
BRANCH   4   5
ATOM      5  C   UNL     1       8.393 -11.392  22.661  1.00  0.00    -0.000 C 
BRANCH   5   6
ATOM      6  C   UNL     1       9.765 -11.345  23.366  1.00  0.00    -0.000 C 
BRANCH   6   7
ATOM      7  C   UNL     1      10.553 -10.040  23.166  1.00  0.00    -0.000 C 
BRANCH   7   8
ATOM      8  C   UNL     1       9.730  -8.951  22.458  1.00  0.00    -0.000 C 
BRANCH   8   9
ATOM      9  C   UNL     1      10.609  -8.027  21.597  1.00  0.00    -0.000 C 
BRANCH   9  10
ATOM     10  C   UNL     1       9.945  -7.673  20.258  1.00  0.00    -0.000 C 
BRANCH  10  11
ATOM     11  C   UNL     1      10.986  -7.602  19.135  1.00  0.00    -0.003 C 
ATOM     12  C   UNL     1      10.618  -6.533  18.109  1.00  0.00     0.004 C 
ENDBRANCH  10  11
ENDBRANCH   9  10
ENDBRANCH   8   9
ENDBRANCH   7   8
ENDBRANCH   6   7
ENDBRANCH   5   6
ENDBRANCH   4   5
ENDBRANCH   3   4
ENDBRANCH   2   3
ENDBRANCH   1   2
BRANCH   1  13
ATOM     13  C   UNL     1      11.943 -12.235  20.383  1.00  0.00     0.000 C 
BRANCH  13  14
ATOM     14  C   UNL     1      12.240 -10.802  19.910  1.00  0.00     0.000 C 
BRANCH  14  15
ATOM     15  C   UNL     1      13.734 -10.552  19.649  1.00  0.00     0.000 C 
BRANCH  15  16
ATOM     16  C   UNL     1      14.024 -10.141  18.194  1.00  0.00     0.000 C 
BRANCH  16  17
ATOM     17  C   UNL     1      12.785 -10.259  17.285  1.00  0.00     0.000 C 
BRANCH  17  18
ATOM     18  C   UNL     1      12.847 -11.388  16.237  1.00  0.00     0.000 C 
BRANCH  18  19
ATOM     19  C   UNL     1      11.969 -12.595  16.604  1.00  0.00     0.000 C 
BRANCH  19  20
ATOM     20  C   UNL     1      12.805 -13.883  16.666  1.00  0.00     0.006 C 
BRANCH  20  21
ATOM     21  C   UNL     1      14.080 -13.707  17.503  1.00  0.00     0.053 C 
BRANCH  21  22
ATOM     22  C   UNL     1      14.090 -14.610  18.698  1.00  0.00     0.041 C 
ATOM     23  O   UNL     1      15.115 -14.683  19.427  1.00  0.00    -0.550 OA
ATOM     24  O   UNL     1      12.979 -15.388  18.995  1.00  0.00    -0.550 OA
ENDBRANCH  21  22
ENDBRANCH  20  21
ENDBRANCH  19  20
ENDBRANCH  18  19
ENDBRANCH  17  18
ENDBRANCH  16  17
ENDBRANCH  15  16
ENDBRANCH  14  15
ENDBRANCH  13  14
ENDBRANCH   1  13
TORSDOF 20
ENDMDL
MODEL 7
REMARK VINA RESULT:    -3.101      1.693      3.372
REMARK INTER + INTRA:         -11.064
REMARK INTER:                  -7.056
REMARK INTRA:                  -4.007
REMARK UNBOUND:                -4.338
REMARK SMILES CCCCCCCCCCCCCCCCCCCCCC(=O)[O-]
REMARK SMILES IDX 12 1 11 2 10 3 9 4 8 5 7 6 6 7 5 8 4 9 3 10 2 11 1 12 13 13
REMARK SMILES IDX 14 14 15 15 16 16 17 17 18 18 19 19 20 20 21 21 22 22 23 23
REMARK SMILES IDX 24 24
REMARK H PARENT
REMARK Flexibility Score: inf
ROOT
ATOM      1  C   UNL     1      11.127 -12.573  19.632  1.00  0.00     0.000 C 
ENDROOT
BRANCH   1   2
ATOM      2  C   UNL     1       9.791 -11.939  19.221  1.00  0.00     0.000 C 
BRANCH   2   3
ATOM      3  C   UNL     1       9.743 -10.461  19.631  1.00  0.00     0.000 C 
BRANCH   3   4
ATOM      4  C   UNL     1      10.440 -10.232  20.980  1.00  0.00    -0.000 C 
BRANCH   4   5
ATOM      5  C   UNL     1      11.308  -8.959  20.992  1.00  0.00    -0.000 C 
BRANCH   5   6
ATOM      6  C   UNL     1      12.809  -9.185  20.717  1.00  0.00    -0.000 C 
BRANCH   6   7
ATOM      7  C   UNL     1      13.229  -9.037  19.245  1.00  0.00    -0.000 C 
BRANCH   7   8
ATOM      8  C   UNL     1      14.150 -10.174  18.772  1.00  0.00    -0.000 C 
BRANCH   8   9
ATOM      9  C   UNL     1      13.663 -10.807  17.457  1.00  0.00    -0.000 C 
BRANCH   9  10
ATOM     10  C   UNL     1      12.366 -10.163  16.945  1.00  0.00    -0.000 C 
BRANCH  10  11
ATOM     11  C   UNL     1      11.575 -11.146  16.075  1.00  0.00    -0.003 C 
ATOM     12  C   UNL     1      11.258 -10.542  14.709  1.00  0.00     0.004 C 
ENDBRANCH  10  11
ENDBRANCH   9  10
ENDBRANCH   8   9
ENDBRANCH   7   8
ENDBRANCH   6   7
ENDBRANCH   5   6
ENDBRANCH   4   5
ENDBRANCH   3   4
ENDBRANCH   2   3
ENDBRANCH   1   2
BRANCH   1  13
ATOM     13  C   UNL     1      10.919 -13.955  20.266  1.00  0.00     0.000 C 
BRANCH  13  14
ATOM     14  C   UNL     1       9.908 -13.880  21.422  1.00  0.00     0.000 C 
BRANCH  14  15
ATOM     15  C   UNL     1      10.542 -13.429  22.748  1.00  0.00     0.000 C 
BRANCH  15  16
ATOM     16  C   UNL     1      11.891 -14.115  23.026  1.00  0.00     0.000 C 
BRANCH  16  17
ATOM     17  C   UNL     1      13.001 -13.114  23.404  1.00  0.00     0.000 C 
BRANCH  17  18
ATOM     18  C   UNL     1      13.791 -12.531  22.217  1.00  0.00     0.000 C 
BRANCH  18  19
ATOM     19  C   UNL     1      14.695 -13.567  21.531  1.00  0.00     0.000 C 
BRANCH  19  20
ATOM     20  C   UNL     1      14.582 -13.469  20.001  1.00  0.00     0.006 C 
BRANCH  20  21
ATOM     21  C   UNL     1      14.650 -14.846  19.326  1.00  0.00     0.053 C 
BRANCH  21  22
ATOM     22  C   UNL     1      14.063 -14.819  17.948  1.00  0.00     0.041 C 
ATOM     23  O   UNL     1      12.861 -15.147  17.766  1.00  0.00    -0.550 OA
ATOM     24  O   UNL     1      14.847 -14.455  16.861  1.00  0.00    -0.550 OA
ENDBRANCH  21  22
ENDBRANCH  20  21
ENDBRANCH  19  20
ENDBRANCH  18  19
ENDBRANCH  17  18
ENDBRANCH  16  17
ENDBRANCH  15  16
ENDBRANCH  14  15
ENDBRANCH  13  14
ENDBRANCH   1  13
TORSDOF 20
ENDMDL
MODEL 8
REMARK VINA RESULT:    -3.075      2.988      5.765
REMARK INTER + INTRA:         -11.009
REMARK INTER:                  -6.816
REMARK INTRA:                  -4.193
REMARK UNBOUND:                -4.338
REMARK SMILES CCCCCCCCCCCCCCCCCCCCCC(=O)[O-]
REMARK SMILES IDX 12 1 11 2 10 3 9 4 8 5 7 6 6 7 5 8 4 9 3 10 2 11 1 12 13 13
REMARK SMILES IDX 14 14 15 15 16 16 17 17 18 18 19 19 20 20 21 21 22 22 23 23
REMARK SMILES IDX 24 24
REMARK H PARENT
REMARK Flexibility Score: inf
ROOT
ATOM      1  C   UNL     1      11.955 -12.179  17.034  1.00  0.00     0.000 C 
ENDROOT
BRANCH   1   2
ATOM      2  C   UNL     1      10.664 -11.706  17.717  1.00  0.00     0.000 C 
BRANCH   2   3
ATOM      3  C   UNL     1      10.519 -12.347  19.104  1.00  0.00     0.000 C 
BRANCH   3   4
ATOM      4  C   UNL     1      11.526 -13.489  19.301  1.00  0.00    -0.000 C 
BRANCH   4   5
ATOM      5  C   UNL     1      11.040 -14.542  20.315  1.00  0.00    -0.000 C 
BRANCH   5   6
ATOM      6  C   UNL     1      12.116 -15.059  21.293  1.00  0.00    -0.000 C 
BRANCH   6   7
ATOM      7  C   UNL     1      13.182 -15.970  20.661  1.00  0.00    -0.000 C 
BRANCH   7   8
ATOM      8  C   UNL     1      14.595 -15.367  20.730  1.00  0.00    -0.000 C 
BRANCH   8   9
ATOM      9  C   UNL     1      15.018 -14.727  19.397  1.00  0.00    -0.000 C 
BRANCH   9  10
ATOM     10  C   UNL     1      14.893 -15.702  18.216  1.00  0.00    -0.000 C 
BRANCH  10  11
ATOM     11  C   UNL     1      14.108 -15.066  17.064  1.00  0.00    -0.003 C 
ATOM     12  C   UNL     1      12.893 -15.912  16.692  1.00  0.00     0.004 C 
ENDBRANCH  10  11
ENDBRANCH   9  10
ENDBRANCH   8   9
ENDBRANCH   7   8
ENDBRANCH   6   7
ENDBRANCH   5   6
ENDBRANCH   4   5
ENDBRANCH   3   4
ENDBRANCH   2   3
ENDBRANCH   1   2
BRANCH   1  13
ATOM     13  C   UNL     1      12.792 -10.993  16.537  1.00  0.00     0.000 C 
BRANCH  13  14
ATOM     14  C   UNL     1      12.835  -9.874  17.592  1.00  0.00     0.000 C 
BRANCH  14  15
ATOM     15  C   UNL     1      14.006 -10.021  18.577  1.00  0.00     0.000 C 
BRANCH  15  16
ATOM     16  C   UNL     1      13.540 -10.241  20.027  1.00  0.00     0.000 C 
BRANCH  16  17
ATOM     17  C   UNL     1      14.247 -11.431  20.704  1.00  0.00     0.000 C 
BRANCH  17  18
ATOM     18  C   UNL     1      13.717 -11.797  22.104  1.00  0.00     0.000 C 
BRANCH  18  19
ATOM     19  C   UNL     1      12.229 -11.461  22.290  1.00  0.00     0.000 C 
BRANCH  19  20
ATOM     20  C   UNL     1      11.730 -11.923  23.668  1.00  0.00     0.006 C 
BRANCH  20  21
ATOM     21  C   UNL     1      10.439 -12.748  23.570  1.00  0.00     0.053 C 
BRANCH  21  22
ATOM     22  C   UNL     1       9.312 -11.951  22.989  1.00  0.00     0.041 C 
ATOM     23  O   UNL     1       8.657 -12.401  22.012  1.00  0.00    -0.550 OA
ATOM     24  O   UNL     1       8.998 -10.702  23.510  1.00  0.00    -0.550 OA
ENDBRANCH  21  22
ENDBRANCH  20  21
ENDBRANCH  19  20
ENDBRANCH  18  19
ENDBRANCH  17  18
ENDBRANCH  16  17
ENDBRANCH  15  16
ENDBRANCH  14  15
ENDBRANCH  13  14
ENDBRANCH   1  13
TORSDOF 20
ENDMDL
MODEL 9
REMARK VINA RESULT:    -3.071      2.230      4.593
REMARK INTER + INTRA:         -10.999
REMARK INTER:                  -7.081
REMARK INTRA:                  -3.918
REMARK UNBOUND:                -4.338
REMARK SMILES CCCCCCCCCCCCCCCCCCCCCC(=O)[O-]
REMARK SMILES IDX 12 1 11 2 10 3 9 4 8 5 7 6 6 7 5 8 4 9 3 10 2 11 1 12 13 13
REMARK SMILES IDX 14 14 15 15 16 16 17 17 18 18 19 19 20 20 21 21 22 22 23 23
REMARK SMILES IDX 24 24
REMARK H PARENT
REMARK Flexibility Score: inf
ROOT
ATOM      1  C   UNL     1      11.261 -12.692  24.125  1.00  0.00     0.000 C 
ENDROOT
BRANCH   1   2
ATOM      2  C   UNL     1      11.337 -11.182  23.861  1.00  0.00     0.000 C 
BRANCH   2   3
ATOM      3  C   UNL     1       9.997 -10.658  23.326  1.00  0.00     0.000 C 
BRANCH   3   4
ATOM      4  C   UNL     1       8.840 -11.595  23.700  1.00  0.00    -0.000 C 
BRANCH   4   5
ATOM      5  C   UNL     1       7.808 -11.749  22.565  1.00  0.00    -0.000 C 
BRANCH   5   6
ATOM      6  C   UNL     1       7.992 -10.786  21.375  1.00  0.00    -0.000 C 
BRANCH   6   7
ATOM      7  C   UNL     1       8.410 -11.457  20.056  1.00  0.00    -0.000 C 
BRANCH   7   8
ATOM      8  C   UNL     1       9.933 -11.449  19.841  1.00  0.00    -0.000 C 
BRANCH   8   9
ATOM      9  C   UNL     1      10.501 -12.867  19.662  1.00  0.00    -0.000 C 
BRANCH   9  10
ATOM     10  C   UNL     1      10.303 -13.737  20.912  1.00  0.00    -0.000 C 
BRANCH  10  11
ATOM     11  C   UNL     1      10.992 -15.097  20.745  1.00  0.00    -0.003 C 
ATOM     12  C   UNL     1      12.195 -14.994  19.812  1.00  0.00     0.004 C 
ENDBRANCH  10  11
ENDBRANCH   9  10
ENDBRANCH   8   9
ENDBRANCH   7   8
ENDBRANCH   6   7
ENDBRANCH   5   6
ENDBRANCH   4   5
ENDBRANCH   3   4
ENDBRANCH   2   3
ENDBRANCH   1   2
BRANCH   1  13
ATOM     13  C   UNL     1      12.633 -13.358  23.957  1.00  0.00     0.000 C 
BRANCH  13  14
ATOM     14  C   UNL     1      13.637 -12.390  23.310  1.00  0.00     0.000 C 
BRANCH  14  15
ATOM     15  C   UNL     1      14.346 -12.989  22.084  1.00  0.00     0.000 C 
BRANCH  15  16
ATOM     16  C   UNL     1      14.583 -11.955  20.970  1.00  0.00     0.000 C 
BRANCH  16  17
ATOM     17  C   UNL     1      13.400 -10.983  20.798  1.00  0.00     0.000 C 
BRANCH  17  18
ATOM     18  C   UNL     1      13.700  -9.726  19.959  1.00  0.00     0.000 C 
BRANCH  18  19
ATOM     19  C   UNL     1      12.970  -9.717  18.607  1.00  0.00     0.000 C 
BRANCH  19  20
ATOM     20  C   UNL     1      13.879 -10.251  17.488  1.00  0.00     0.006 C 
BRANCH  20  21
ATOM     21  C   UNL     1      13.122 -11.165  16.514  1.00  0.00     0.053 C 
BRANCH  21  22
ATOM     22  C   UNL     1      13.162 -12.597  16.950  1.00  0.00     0.041 C 
ATOM     23  O   UNL     1      14.148 -13.034  17.598  1.00  0.00    -0.550 OA
ATOM     24  O   UNL     1      12.121 -13.457  16.621  1.00  0.00    -0.550 OA
ENDBRANCH  21  22
ENDBRANCH  20  21
ENDBRANCH  19  20
ENDBRANCH  18  19
ENDBRANCH  17  18
ENDBRANCH  16  17
ENDBRANCH  15  16
ENDBRANCH  14  15
ENDBRANCH  13  14
ENDBRANCH   1  13
TORSDOF 20
ENDMDL
