MODEL 1
REMARK VINA RESULT:    -4.262      0.000      0.000
REMARK INTER + INTRA:          -6.777
REMARK INTER:                  -6.504
REMARK INTRA:                  -0.272
REMARK UNBOUND:                -0.272
REMARK SMILES O=C([O-])CCCCCCCCC(=O)[O-]
REMARK SMILES IDX 7 1 6 2 5 3 4 4 2 5 1 6 3 7 8 8 9 9 10 10 11 11 12 12 13 13
REMARK SMILES IDX 14 14
REMARK H PARENT
REMARK Flexibility Score: inf
ROOT
ATOM      1  C   UNL     1     -33.656  -7.866  33.270  1.00  0.00     0.000 C 
ENDROOT
BRANCH   1   2
ATOM      2  C   UNL     1     -34.162  -7.376  31.905  1.00  0.00     0.000 C 
BRANCH   2   3
ATOM      3  C   UNL     1     -35.697  -7.323  31.875  1.00  0.00     0.006 C 
BRANCH   3   4
ATOM      4  C   UNL     1     -36.300  -7.150  33.275  1.00  0.00     0.053 C 
BRANCH   4   5
ATOM      5  C   UNL     1     -37.748  -6.769  33.214  1.00  0.00     0.041 C 
ATOM      6  O   UNL     1     -38.196  -6.139  32.221  1.00  0.00    -0.550 OA
ATOM      7  O   UNL     1     -38.609  -7.141  34.239  1.00  0.00    -0.550 OA
ENDBRANCH   4   5
ENDBRANCH   3   4
ENDBRANCH   2   3
ENDBRANCH   1   2
BRANCH   1   8
ATOM      8  C   UNL     1     -32.323  -7.217  33.675  1.00  0.00     0.000 C 
BRANCH   8   9
ATOM      9  C   UNL     1     -31.112  -7.881  33.004  1.00  0.00     0.000 C 
BRANCH   9  10
ATOM     10  C   UNL     1     -30.380  -8.808  33.986  1.00  0.00     0.006 C 
BRANCH  10  11
ATOM     11  C   UNL     1     -28.863  -8.825  33.749  1.00  0.00     0.053 C 
BRANCH  11  12
ATOM     12  C   UNL     1     -28.232 -10.076  34.278  1.00  0.00     0.041 C 
ATOM     13  O   UNL     1     -28.160 -10.273  35.520  1.00  0.00    -0.550 OA
ATOM     14  O   UNL     1     -27.694 -11.010  33.402  1.00  0.00    -0.550 OA
ENDBRANCH  11  12
ENDBRANCH  10  11
ENDBRANCH   9  10
ENDBRANCH   8   9
ENDBRANCH   1   8
TORSDOF 9
ENDMDL
MODEL 2
REMARK VINA RESULT:    -4.106      2.763      8.947
REMARK INTER + INTRA:          -6.539
REMARK INTER:                  -6.374
REMARK INTRA:                  -0.165
REMARK UNBOUND:                -0.272
REMARK SMILES O=C([O-])CCCCCCCCC(=O)[O-]
REMARK SMILES IDX 7 1 6 2 5 3 4 4 2 5 1 6 3 7 8 8 9 9 10 10 11 11 12 12 13 13
REMARK SMILES IDX 14 14
REMARK H PARENT
REMARK Flexibility Score: inf
ROOT
ATOM      1  C   UNL     1     -28.224  -9.714  35.076  1.00  0.00     0.000 C 
ENDROOT
BRANCH   1   2
ATOM      2  C   UNL     1     -27.874 -11.209  35.083  1.00  0.00     0.000 C 
BRANCH   2   3
ATOM      3  C   UNL     1     -27.334 -11.653  33.715  1.00  0.00     0.006 C 
BRANCH   3   4
ATOM      4  C   UNL     1     -26.115 -10.830  33.276  1.00  0.00     0.053 C 
BRANCH   4   5
ATOM      5  C   UNL     1     -24.838 -11.596  33.435  1.00  0.00     0.041 C 
ATOM      6  O   UNL     1     -24.273 -11.658  34.558  1.00  0.00    -0.550 OA
ATOM      7  O   UNL     1     -24.291 -12.271  32.351  1.00  0.00    -0.550 OA
ENDBRANCH   4   5
ENDBRANCH   3   4
ENDBRANCH   2   3
ENDBRANCH   1   2
BRANCH   1   8
ATOM      8  C   UNL     1     -29.015  -9.297  33.826  1.00  0.00     0.000 C 
BRANCH   8   9
ATOM      9  C   UNL     1     -30.400  -8.727  34.163  1.00  0.00     0.000 C 
BRANCH   9  10
ATOM     10  C   UNL     1     -30.935  -7.865  33.010  1.00  0.00     0.006 C 
BRANCH  10  11
ATOM     11  C   UNL     1     -32.153  -7.029  33.424  1.00  0.00     0.053 C 
BRANCH  11  12
ATOM     12  C   UNL     1     -33.430  -7.798  33.285  1.00  0.00     0.041 C 
ATOM     13  O   UNL     1     -34.461  -7.432  33.907  1.00  0.00    -0.550 OA
ATOM     14  O   UNL     1     -33.473  -8.939  32.493  1.00  0.00    -0.550 OA
ENDBRANCH  11  12
ENDBRANCH  10  11
ENDBRANCH   9  10
ENDBRANCH   8   9
ENDBRANCH   1   8
TORSDOF 9
ENDMDL
MODEL 3
REMARK VINA RESULT:    -4.042      0.515      8.132
REMARK INTER + INTRA:          -6.441
REMARK INTER:                  -6.167
REMARK INTRA:                  -0.274
REMARK UNBOUND:                -0.272
REMARK SMILES O=C([O-])CCCCCCCCC(=O)[O-]
REMARK SMILES IDX 7 1 6 2 5 3 4 4 2 5 1 6 3 7 8 8 9 9 10 10 11 11 12 12 13 13
REMARK SMILES IDX 14 14
REMARK H PARENT
REMARK Flexibility Score: inf
ROOT
ATOM      1  C   UNL     1     -31.696  -7.034  33.692  1.00  0.00     0.000 C 
ENDROOT
BRANCH   1   2
ATOM      2  C   UNL     1     -30.661  -7.878  32.933  1.00  0.00     0.000 C 
BRANCH   2   3
ATOM      3  C   UNL     1     -30.136  -9.024  33.812  1.00  0.00     0.006 C 
BRANCH   3   4
ATOM      4  C   UNL     1     -28.618  -8.948  34.020  1.00  0.00     0.053 C 
BRANCH   4   5
ATOM      5  C   UNL     1     -28.032 -10.289  34.340  1.00  0.00     0.041 C 
ATOM      6  O   UNL     1     -27.990 -10.694  35.531  1.00  0.00    -0.550 OA
ATOM      7  O   UNL     1     -27.564 -11.107  33.319  1.00  0.00    -0.550 OA
ENDBRANCH   4   5
ENDBRANCH   3   4
ENDBRANCH   2   3
ENDBRANCH   1   2
BRANCH   1   8
ATOM      8  C   UNL     1     -33.132  -7.549  33.504  1.00  0.00     0.000 C 
BRANCH   8   9
ATOM      9  C   UNL     1     -33.727  -7.160  32.143  1.00  0.00     0.000 C 
BRANCH   9  10
ATOM     10  C   UNL     1     -35.221  -7.512  32.076  1.00  0.00     0.006 C 
BRANCH  10  11
ATOM     11  C   UNL     1     -35.948  -7.218  33.395  1.00  0.00     0.053 C 
BRANCH  11  12
ATOM     12  C   UNL     1     -37.383  -6.857  33.171  1.00  0.00     0.041 C 
ATOM     13  O   UNL     1     -38.138  -6.622  34.152  1.00  0.00    -0.550 OA
ATOM     14  O   UNL     1     -37.898  -6.812  31.882  1.00  0.00    -0.550 OA
ENDBRANCH  11  12
ENDBRANCH  10  11
ENDBRANCH   9  10
ENDBRANCH   8   9
ENDBRANCH   1   8
TORSDOF 9
ENDMDL
MODEL 4
REMARK VINA RESULT:    -4.022      1.969      2.853
REMARK INTER + INTRA:          -6.410
REMARK INTER:                  -6.221
REMARK INTRA:                  -0.189
REMARK UNBOUND:                -0.272
REMARK SMILES O=C([O-])CCCCCCCCC(=O)[O-]
REMARK SMILES IDX 7 1 6 2 5 3 4 4 2 5 1 6 3 7 8 8 9 9 10 10 11 11 12 12 13 13
REMARK SMILES IDX 14 14
REMARK H PARENT
REMARK Flexibility Score: inf
ROOT
ATOM      1  C   UNL     1     -31.611  -8.522  34.241  1.00  0.00     0.000 C 
ENDROOT
BRANCH   1   2
ATOM      2  C   UNL     1     -32.791  -7.540  34.298  1.00  0.00     0.000 C 
BRANCH   2   3
ATOM      3  C   UNL     1     -32.622  -6.418  33.262  1.00  0.00     0.006 C 
BRANCH   3   4
ATOM      4  C   UNL     1     -33.183  -6.807  31.887  1.00  0.00     0.053 C 
BRANCH   4   5
ATOM      5  C   UNL     1     -34.388  -7.689  32.006  1.00  0.00     0.041 C 
ATOM      6  O   UNL     1     -34.275  -8.935  31.876  1.00  0.00    -0.550 OA
ATOM      7  O   UNL     1     -35.629  -7.136  32.295  1.00  0.00    -0.550 OA
ENDBRANCH   4   5
ENDBRANCH   3   4
ENDBRANCH   2   3
ENDBRANCH   1   2
BRANCH   1   8
ATOM      8  C   UNL     1     -30.433  -7.984  33.414  1.00  0.00     0.000 C 
BRANCH   8   9
ATOM      9  C   UNL     1     -29.215  -8.918  33.441  1.00  0.00     0.000 C 
BRANCH   9  10
ATOM     10  C   UNL     1     -29.245  -9.823  34.682  1.00  0.00     0.006 C 
BRANCH  10  11
ATOM     11  C   UNL     1     -27.839 -10.243  35.130  1.00  0.00     0.053 C 
BRANCH  11  12
ATOM     12  C   UNL     1     -27.463 -11.589  34.591  1.00  0.00     0.041 C 
ATOM     13  O   UNL     1     -27.887 -12.635  35.149  1.00  0.00    -0.550 OA
ATOM     14  O   UNL     1     -26.618 -11.690  33.494  1.00  0.00    -0.550 OA
ENDBRANCH  11  12
ENDBRANCH  10  11
ENDBRANCH   9  10
ENDBRANCH   8   9
ENDBRANCH   1   8
TORSDOF 9
ENDMDL
MODEL 5
REMARK VINA RESULT:    -3.941     11.942     14.015
REMARK INTER + INTRA:          -6.287
REMARK INTER:                  -5.392
REMARK INTRA:                  -0.895
REMARK UNBOUND:                -0.272
REMARK SMILES O=C([O-])CCCCCCCCC(=O)[O-]
REMARK SMILES IDX 7 1 6 2 5 3 4 4 2 5 1 6 3 7 8 8 9 9 10 10 11 11 12 12 13 13
REMARK SMILES IDX 14 14
REMARK H PARENT
REMARK Flexibility Score: inf
ROOT
ATOM      1  C   UNL     1     -21.222 -11.407  39.377  1.00  0.00     0.000 C 
ENDROOT
BRANCH   1   2
ATOM      2  C   UNL     1     -22.700 -11.123  39.069  1.00  0.00     0.000 C 
BRANCH   2   3
ATOM      3  C   UNL     1     -23.302 -12.233  38.193  1.00  0.00     0.006 C 
BRANCH   3   4
ATOM      4  C   UNL     1     -22.261 -12.866  37.260  1.00  0.00     0.053 C 
BRANCH   4   5
ATOM      5  C   UNL     1     -22.495 -12.490  35.828  1.00  0.00     0.041 C 
ATOM      6  O   UNL     1     -23.430 -11.704  35.525  1.00  0.00    -0.550 OA
ATOM      7  O   UNL     1     -21.657 -12.979  34.834  1.00  0.00    -0.550 OA
ENDBRANCH   4   5
ENDBRANCH   3   4
ENDBRANCH   2   3
ENDBRANCH   1   2
BRANCH   1   8
ATOM      8  C   UNL     1     -21.021 -12.081  40.744  1.00  0.00     0.000 C 
BRANCH   8   9
ATOM      9  C   UNL     1     -20.719 -13.581  40.626  1.00  0.00     0.000 C 
BRANCH   9  10
ATOM     10  C   UNL     1     -21.969 -14.418  40.938  1.00  0.00     0.006 C 
BRANCH  10  11
ATOM     11  C   UNL     1     -22.960 -13.671  41.840  1.00  0.00     0.053 C 
BRANCH  11  12
ATOM     12  C   UNL     1     -23.447 -14.531  42.964  1.00  0.00     0.041 C 
ATOM     13  O   UNL     1     -24.459 -14.189  43.631  1.00  0.00    -0.550 OA
ATOM     14  O   UNL     1     -22.765 -15.694  43.298  1.00  0.00    -0.550 OA
ENDBRANCH  11  12
ENDBRANCH  10  11
ENDBRANCH   9  10
ENDBRANCH   8   9
ENDBRANCH   1   8
TORSDOF 9
ENDMDL
MODEL 6
REMARK VINA RESULT:    -3.825     12.096     14.396
REMARK INTER + INTRA:          -6.109
REMARK INTER:                  -5.331
REMARK INTRA:                  -0.778
REMARK UNBOUND:                -0.272
REMARK SMILES O=C([O-])CCCCCCCCC(=O)[O-]
REMARK SMILES IDX 7 1 6 2 5 3 4 4 2 5 1 6 3 7 8 8 9 9 10 10 11 11 12 12 13 13
REMARK SMILES IDX 14 14
REMARK H PARENT
REMARK Flexibility Score: inf
ROOT
ATOM      1  C   UNL     1     -22.514 -14.851  38.396  1.00  0.00     0.000 C 
ENDROOT
BRANCH   1   2
ATOM      2  C   UNL     1     -23.493 -13.915  39.121  1.00  0.00     0.000 C 
BRANCH   2   3
ATOM      3  C   UNL     1     -23.895 -12.738  38.220  1.00  0.00     0.006 C 
BRANCH   3   4
ATOM      4  C   UNL     1     -22.802 -11.664  38.142  1.00  0.00     0.053 C 
BRANCH   4   5
ATOM      5  C   UNL     1     -22.646 -10.933  39.440  1.00  0.00     0.041 C 
ATOM      6  O   UNL     1     -23.639 -10.382  39.981  1.00  0.00    -0.550 OA
ATOM      7  O   UNL     1     -21.408 -10.892  40.071  1.00  0.00    -0.550 OA
ENDBRANCH   4   5
ENDBRANCH   3   4
ENDBRANCH   2   3
ENDBRANCH   1   2
BRANCH   1   8
ATOM      8  C   UNL     1     -21.128 -14.888  39.061  1.00  0.00     0.000 C 
BRANCH   8   9
ATOM      9  C   UNL     1     -21.146 -15.584  40.430  1.00  0.00     0.000 C 
BRANCH   9  10
ATOM     10  C   UNL     1     -20.520 -14.688  41.509  1.00  0.00     0.006 C 
BRANCH  10  11
ATOM     11  C   UNL     1     -21.577 -13.903  42.299  1.00  0.00     0.053 C 
BRANCH  11  12
ATOM     12  C   UNL     1     -22.634 -14.803  42.859  1.00  0.00     0.041 C 
ATOM     13  O   UNL     1     -23.852 -14.528  42.695  1.00  0.00    -0.550 OA
ATOM     14  O   UNL     1     -22.276 -15.928  43.592  1.00  0.00    -0.550 OA
ENDBRANCH  11  12
ENDBRANCH  10  11
ENDBRANCH   9  10
ENDBRANCH   8   9
ENDBRANCH   1   8
TORSDOF 9
ENDMDL
MODEL 7
REMARK VINA RESULT:    -3.825     18.307     19.715
REMARK INTER + INTRA:          -6.109
REMARK INTER:                  -5.220
REMARK INTRA:                  -0.889
REMARK UNBOUND:                -0.272
REMARK SMILES O=C([O-])CCCCCCCCC(=O)[O-]
REMARK SMILES IDX 7 1 6 2 5 3 4 4 2 5 1 6 3 7 8 8 9 9 10 10 11 11 12 12 13 13
REMARK SMILES IDX 14 14
REMARK H PARENT
REMARK Flexibility Score: inf
ROOT
ATOM      1  C   UNL     1     -34.850  -2.348  50.479  1.00  0.00     0.000 C 
ENDROOT
BRANCH   1   2
ATOM      2  C   UNL     1     -35.289  -2.944  51.826  1.00  0.00     0.000 C 
BRANCH   2   3
ATOM      3  C   UNL     1     -36.732  -3.463  51.752  1.00  0.00     0.006 C 
BRANCH   3   4
ATOM      4  C   UNL     1     -36.967  -4.357  50.528  1.00  0.00     0.053 C 
BRANCH   4   5
ATOM      5  C   UNL     1     -38.201  -3.960  49.776  1.00  0.00     0.041 C 
ATOM      6  O   UNL     1     -38.673  -4.717  48.889  1.00  0.00    -0.550 OA
ATOM      7  O   UNL     1     -38.849  -2.769  50.081  1.00  0.00    -0.550 OA
ENDBRANCH   4   5
ENDBRANCH   3   4
ENDBRANCH   2   3
ENDBRANCH   1   2
BRANCH   1   8
ATOM      8  C   UNL     1     -34.941  -0.814  50.453  1.00  0.00     0.000 C 
BRANCH   8   9
ATOM      9  C   UNL     1     -36.210  -0.308  49.753  1.00  0.00     0.000 C 
BRANCH   9  10
ATOM     10  C   UNL     1     -37.216   0.247  50.773  1.00  0.00     0.006 C 
BRANCH  10  11
ATOM     11  C   UNL     1     -36.581   1.283  51.712  1.00  0.00     0.053 C 
BRANCH  11  12
ATOM     12  C   UNL     1     -36.367   2.597  51.027  1.00  0.00     0.041 C 
ATOM     13  O   UNL     1     -37.353   3.312  50.707  1.00  0.00    -0.550 OA
ATOM     14  O   UNL     1     -35.081   3.017  50.712  1.00  0.00    -0.550 OA
ENDBRANCH  11  12
ENDBRANCH  10  11
ENDBRANCH   9  10
ENDBRANCH   8   9
ENDBRANCH   1   8
TORSDOF 9
ENDMDL
MODEL 8
REMARK VINA RESULT:    -3.622      2.367      3.917
REMARK INTER + INTRA:          -5.801
REMARK INTER:                  -5.460
REMARK INTRA:                  -0.341
REMARK UNBOUND:                -0.272
REMARK SMILES O=C([O-])CCCCCCCCC(=O)[O-]
REMARK SMILES IDX 7 1 6 2 5 3 4 4 2 5 1 6 3 7 8 8 9 9 10 10 11 11 12 12 13 13
REMARK SMILES IDX 14 14
REMARK H PARENT
REMARK Flexibility Score: inf
ROOT
ATOM      1  C   UNL     1     -30.223  -8.995  34.126  1.00  0.00     0.000 C 
ENDROOT
BRANCH   1   2
ATOM      2  C   UNL     1     -30.691  -7.894  33.162  1.00  0.00     0.000 C 
BRANCH   2   3
ATOM      3  C   UNL     1     -31.990  -7.244  33.661  1.00  0.00     0.006 C 
BRANCH   3   4
ATOM      4  C   UNL     1     -32.875  -6.753  32.507  1.00  0.00     0.053 C 
BRANCH   4   5
ATOM      5  C   UNL     1     -33.979  -7.718  32.202  1.00  0.00     0.041 C 
ATOM      6  O   UNL     1     -35.118  -7.294  31.875  1.00  0.00    -0.550 OA
ATOM      7  O   UNL     1     -33.740  -9.086  32.245  1.00  0.00    -0.550 OA
ENDBRANCH   4   5
ENDBRANCH   3   4
ENDBRANCH   2   3
ENDBRANCH   1   2
BRANCH   1   8
ATOM      8  C   UNL     1     -28.708  -9.246  34.047  1.00  0.00     0.000 C 
BRANCH   8   9
ATOM      9  C   UNL     1     -28.171 -10.016  35.262  1.00  0.00     0.000 C 
BRANCH   9  10
ATOM     10  C   UNL     1     -27.788 -11.453  34.876  1.00  0.00     0.006 C 
BRANCH  10  11
ATOM     11  C   UNL     1     -27.492 -11.593  33.377  1.00  0.00     0.053 C 
BRANCH  11  12
ATOM     12  C   UNL     1     -26.035 -11.822  33.117  1.00  0.00     0.041 C 
ATOM     13  O   UNL     1     -25.661 -12.373  32.048  1.00  0.00    -0.550 OA
ATOM     14  O   UNL     1     -25.091 -11.458  34.069  1.00  0.00    -0.550 OA
ENDBRANCH  11  12
ENDBRANCH  10  11
ENDBRANCH   9  10
ENDBRANCH   8   9
ENDBRANCH   1   8
TORSDOF 9
ENDMDL
