MODEL 1
REMARK VINA RESULT:    -2.436      0.000      0.000
REMARK INTER + INTRA:          -2.880
REMARK INTER:                  -2.863
REMARK INTRA:                  -0.017
REMARK UNBOUND:                -0.017
REMARK SMILES CCCCC(=O)[O-]
REMARK SMILES IDX 4 1 5 2 6 3 7 4 3 5 2 6 1 7
REMARK H PARENT
REMARK Flexibility Score: inf
ROOT
ATOM      1  C   UNL     1       0.875  -0.508 -15.886  1.00  0.00     0.053 C 
ENDROOT
BRANCH   1   2
ATOM      2  C   UNL     1       0.234   0.536 -15.025  1.00  0.00     0.041 C 
ATOM      3  O   UNL     1      -0.125   1.636 -15.523  1.00  0.00    -0.550 OA
ATOM      4  O   UNL     1       0.003   0.283 -13.679  1.00  0.00    -0.550 OA
ENDBRANCH   1   2
BRANCH   1   5
ATOM      5  C   UNL     1       0.042  -0.802 -17.140  1.00  0.00     0.006 C 
BRANCH   5   6
ATOM      6  C   UNL     1       0.250  -2.236 -17.652  1.00  0.00    -0.003 C 
ATOM      7  C   UNL     1      -0.118  -2.351 -19.128  1.00  0.00     0.004 C 
ENDBRANCH   5   6
ENDBRANCH   1   5
TORSDOF 3
ENDMDL
MODEL 2
REMARK VINA RESULT:    -2.388      2.514      4.165
REMARK INTER + INTRA:          -2.824
REMARK INTER:                  -2.795
REMARK INTRA:                  -0.029
REMARK UNBOUND:                -0.017
REMARK SMILES CCCCC(=O)[O-]
REMARK SMILES IDX 4 1 5 2 6 3 7 4 3 5 2 6 1 7
REMARK H PARENT
REMARK Flexibility Score: inf
ROOT
ATOM      1  C   UNL     1       0.240  -0.244 -16.708  1.00  0.00     0.053 C 
ENDROOT
BRANCH   1   2
ATOM      2  C   UNL     1       0.479  -1.611 -17.270  1.00  0.00     0.041 C 
ATOM      3  O   UNL     1       1.007  -2.506 -16.557  1.00  0.00    -0.550 OA
ATOM      4  O   UNL     1       0.088  -1.909 -18.569  1.00  0.00    -0.550 OA
ENDBRANCH   1   2
BRANCH   1   5
ATOM      5  C   UNL     1       0.741  -0.126 -15.263  1.00  0.00     0.006 C 
BRANCH   5   6
ATOM      6  C   UNL     1      -0.125   0.827 -14.425  1.00  0.00    -0.003 C 
ATOM      7  C   UNL     1      -0.123   2.234 -15.015  1.00  0.00     0.004 C 
ENDBRANCH   5   6
ENDBRANCH   1   5
TORSDOF 3
ENDMDL
MODEL 3
REMARK VINA RESULT:     0.346      1.401      1.930
REMARK INTER + INTRA:           0.390
REMARK INTER:                   0.419
REMARK INTRA:                  -0.028
REMARK UNBOUND:                -0.017
REMARK SMILES CCCCC(=O)[O-]
REMARK SMILES IDX 4 1 5 2 6 3 7 4 3 5 2 6 1 7
REMARK H PARENT
REMARK Flexibility Score: inf
ROOT
ATOM      1  C   UNL     1       1.027  -0.281 -15.063  1.00  0.00     0.053 C 
ENDROOT
BRANCH   1   2
ATOM      2  C   UNL     1       1.214   0.598 -13.866  1.00  0.00     0.041 C 
ATOM      3  O   UNL     1       0.224   0.921 -13.157  1.00  0.00    -0.550 OA
ATOM      4  O   UNL     1       2.484   1.035 -13.513  1.00  0.00    -0.550 OA
ENDBRANCH   1   2
BRANCH   1   5
ATOM      5  C   UNL     1       0.408   0.482 -16.241  1.00  0.00     0.006 C 
BRANCH   5   6
ATOM      6  C   UNL     1      -0.124  -0.462 -17.330  1.00  0.00    -0.003 C 
ATOM      7  C   UNL     1       0.690  -1.751 -17.384  1.00  0.00     0.004 C 
ENDBRANCH   5   6
ENDBRANCH   1   5
TORSDOF 3
ENDMDL
MODEL 4
REMARK VINA RESULT:     0.503     14.072     14.547
REMARK INTER + INTRA:           0.575
REMARK INTER:                   0.594
REMARK INTRA:                  -0.019
REMARK UNBOUND:                -0.017
REMARK SMILES CCCCC(=O)[O-]
REMARK SMILES IDX 4 1 5 2 6 3 7 4 3 5 2 6 1 7
REMARK H PARENT
REMARK Flexibility Score: inf
ROOT
ATOM      1  C   UNL     1      12.922  -6.079 -18.968  1.00  0.00     0.053 C 
ENDROOT
BRANCH   1   2
ATOM      2  C   UNL     1      14.324  -6.510 -18.669  1.00  0.00     0.041 C 
ATOM      3  O   UNL     1      15.287  -6.042 -19.333  1.00  0.00    -0.550 OA
ATOM      4  O   UNL     1      14.573  -7.403 -17.634  1.00  0.00    -0.550 OA
ENDBRANCH   1   2
BRANCH   1   5
ATOM      5  C   UNL     1      12.126  -5.796 -17.688  1.00  0.00     0.006 C 
BRANCH   5   6
ATOM      6  C   UNL     1      11.444  -4.420 -17.720  1.00  0.00    -0.003 C 
ATOM      7  C   UNL     1      11.032  -3.978 -16.319  1.00  0.00     0.004 C 
ENDBRANCH   5   6
ENDBRANCH   1   5
TORSDOF 3
ENDMDL
