MODEL 1
REMARK VINA RESULT:    -7.255      0.000      0.000
REMARK INTER + INTRA:         -12.042
REMARK INTER:                 -10.648
REMARK INTRA:                  -1.394
REMARK UNBOUND:                -1.394
REMARK SMILES Cc1cc2c(C(C)C)c(O)c(O)c(C=O)c2c(O)c1-c1c(C)cc2c(C(C)C)c(O)c(O)c(C=O)c2c1O
REMARK SMILES IDX 1 1 2 2 3 3 4 4 16 5 13 6 11 7 9 8 5 9 17 10 19 11 20 12
REMARK SMILES IDX 37 13 21 14 36 15 23 16 22 17 24 18 33 19 25 20 31 21 29 22
REMARK SMILES IDX 38 23 34 25 35 26 26 27 27 28 28 29 32 30 30 32 18 34 6 36
REMARK SMILES IDX 7 37 8 38 14 39 15 40 10 41 12 43
REMARK H PARENT 38 24 32 31 30 33 18 35 10 42 12 44
REMARK Flexibility Score: inf
ROOT
ATOM      1  C   UNL     1       8.284   9.494  53.072  1.00  0.00     0.045 C 
ATOM      2  C   UNL     1       8.383   9.166  51.602  1.00  0.00    -0.039 A 
ATOM      3  C   UNL     1       7.746   9.988  50.671  1.00  0.00     0.013 A 
ATOM      4  C   UNL     1       7.777   9.712  49.285  1.00  0.00    -0.006 A 
ATOM      5  C   UNL     1       8.536   8.594  48.825  1.00  0.00     0.039 A 
ATOM      6  C   UNL     1       8.589   8.328  47.424  1.00  0.00     0.072 A 
ATOM      7  C   UNL     1       8.060   9.260  46.513  1.00  0.00     0.169 A 
ATOM      8  C   UNL     1       7.396  10.408  46.976  1.00  0.00     0.162 A 
ATOM      9  C   UNL     1       7.103  10.557  48.349  1.00  0.00     0.008 A 
ATOM     10  C   UNL     1       9.250   7.803  49.775  1.00  0.00     0.132 A 
ATOM     11  C   UNL     1       9.142   8.073  51.156  1.00  0.00     0.031 A 
ENDROOT
BRANCH  11  12
ATOM     12  C   UNL     1       9.863   7.228  52.144  1.00  0.00     0.031 A 
ATOM     13  C   UNL     1       9.244   6.076  52.675  1.00  0.00     0.132 A 
ATOM     14  C   UNL     1      11.177   7.555  52.518  1.00  0.00    -0.039 A 
ATOM     15  C   UNL     1       9.910   5.287  53.659  1.00  0.00     0.039 A 
ATOM     16  C   UNL     1      11.869   6.725  53.400  1.00  0.00     0.013 A 
ATOM     17  C   UNL     1      11.891   8.738  51.908  1.00  0.00     0.045 C 
ATOM     18  C   UNL     1      11.254   5.611  54.016  1.00  0.00    -0.006 A 
ATOM     19  C   UNL     1       9.292   4.153  54.264  1.00  0.00     0.072 A 
ATOM     20  C   UNL     1      11.968   4.790  54.943  1.00  0.00     0.008 A 
ATOM     21  C   UNL     1      10.059   3.270  55.047  1.00  0.00     0.169 A 
ATOM     22  C   UNL     1      11.412   3.546  55.310  1.00  0.00     0.162 A 
BRANCH  13  23
ATOM     23  O   UNL     1       7.989   5.691  52.190  1.00  0.00    -0.507 OA
ATOM     24  H   UNL     1       7.719   5.744  51.216  1.00  0.00     0.293 HD
ENDBRANCH  13  23
BRANCH  19  25
ATOM     25  C   UNL     1       7.831   3.913  54.176  1.00  0.00     0.264 C 
ATOM     26  O   UNL     1       7.367   2.945  53.516  1.00  0.00    -0.298 OA
ENDBRANCH  19  25
BRANCH  20  27
ATOM     27  C   UNL     1      13.341   5.205  55.502  1.00  0.00     0.017 C 
ATOM     28  C   UNL     1      13.281   6.604  56.124  1.00  0.00     0.012 C 
ATOM     29  C   UNL     1      14.488   5.096  54.479  1.00  0.00     0.012 C 
ENDBRANCH  20  27
BRANCH  21  30
ATOM     30  O   UNL     1       9.436   2.145  55.600  1.00  0.00    -0.504 OA
ATOM     31  H   UNL     1       9.366   1.966  56.591  1.00  0.00     0.293 HD
ENDBRANCH  21  30
BRANCH  22  32
ATOM     32  O   UNL     1      12.224   2.592  55.927  1.00  0.00    -0.504 OA
ATOM     33  H   UNL     1      11.947   1.633  56.091  1.00  0.00     0.293 HD
ENDBRANCH  22  32
ENDBRANCH  11  12
BRANCH  10  34
ATOM     34  O   UNL     1      10.098   6.776  49.344  1.00  0.00    -0.507 OA
ATOM     35  H   UNL     1      10.052   5.824  49.682  1.00  0.00     0.293 HD
ENDBRANCH  10  34
BRANCH   9  36
ATOM     36  C   UNL     1       6.115  11.646  48.804  1.00  0.00     0.017 C 
ATOM     37  C   UNL     1       6.623  13.041  48.422  1.00  0.00     0.012 C 
ATOM     38  C   UNL     1       4.672  11.423  48.312  1.00  0.00     0.012 C 
ENDBRANCH   9  36
BRANCH   6  39
ATOM     39  C   UNL     1       9.114   7.052  46.882  1.00  0.00     0.264 C 
ATOM     40  O   UNL     1      10.247   6.994  46.333  1.00  0.00    -0.298 OA
ENDBRANCH   6  39
BRANCH   8  41
ATOM     41  O   UNL     1       7.027  11.422  46.088  1.00  0.00    -0.504 OA
ATOM     42  H   UNL     1       7.135  12.409  46.278  1.00  0.00     0.293 HD
ENDBRANCH   8  41
BRANCH   7  43
ATOM     43  O   UNL     1       8.160   8.993  45.142  1.00  0.00    -0.504 OA
ATOM     44  H   UNL     1       7.631   8.278  44.664  1.00  0.00     0.293 HD
ENDBRANCH   7  43
TORSDOF 11
ENDMDL
MODEL 2
REMARK VINA RESULT:    -7.246      1.514      1.789
REMARK INTER + INTRA:         -12.029
REMARK INTER:                 -10.835
REMARK INTRA:                  -1.193
REMARK UNBOUND:                -1.394
REMARK SMILES Cc1cc2c(C(C)C)c(O)c(O)c(C=O)c2c(O)c1-c1c(C)cc2c(C(C)C)c(O)c(O)c(C=O)c2c1O
REMARK SMILES IDX 1 1 2 2 3 3 4 4 16 5 13 6 11 7 9 8 5 9 17 10 19 11 20 12
REMARK SMILES IDX 37 13 21 14 36 15 23 16 22 17 24 18 33 19 25 20 31 21 29 22
REMARK SMILES IDX 38 23 34 25 35 26 26 27 27 28 28 29 32 30 30 32 18 34 6 36
REMARK SMILES IDX 7 37 8 38 14 39 15 40 10 41 12 43
REMARK H PARENT 38 24 32 31 30 33 18 35 10 42 12 44
REMARK Flexibility Score: inf
ROOT
ATOM      1  C   UNL     1       8.836   9.173  52.562  1.00  0.00     0.045 C 
ATOM      2  C   UNL     1       8.626   9.088  51.070  1.00  0.00    -0.039 A 
ATOM      3  C   UNL     1       7.728   9.961  50.453  1.00  0.00     0.013 A 
ATOM      4  C   UNL     1       7.468   9.906  49.065  1.00  0.00    -0.006 A 
ATOM      5  C   UNL     1       8.194   8.972  48.266  1.00  0.00     0.039 A 
ATOM      6  C   UNL     1       7.951   8.933  46.861  1.00  0.00     0.072 A 
ATOM      7  C   UNL     1       7.152   9.921  46.259  1.00  0.00     0.169 A 
ATOM      8  C   UNL     1       6.516  10.897  47.046  1.00  0.00     0.162 A 
ATOM      9  C   UNL     1       6.530  10.797  48.454  1.00  0.00     0.008 A 
ATOM     10  C   UNL     1       9.169   8.137  48.891  1.00  0.00     0.132 A 
ATOM     11  C   UNL     1       9.354   8.177  50.289  1.00  0.00     0.031 A 
ENDROOT
BRANCH  11  12
ATOM     12  C   UNL     1      10.349   7.284  50.940  1.00  0.00     0.031 A 
ATOM     13  C   UNL     1       9.943   6.042  51.473  1.00  0.00     0.132 A 
ATOM     14  C   UNL     1      11.701   7.661  50.988  1.00  0.00    -0.039 A 
ATOM     15  C   UNL     1      10.881   5.201  52.142  1.00  0.00     0.039 A 
ATOM     16  C   UNL     1      12.638   6.791  51.547  1.00  0.00     0.013 A 
ATOM     17  C   UNL     1      12.177   8.948  50.358  1.00  0.00     0.045 C 
ATOM     18  C   UNL     1      12.258   5.579  52.165  1.00  0.00    -0.006 A 
ATOM     19  C   UNL     1      10.495   3.969  52.747  1.00  0.00     0.072 A 
ATOM     20  C   UNL     1      13.229   4.715  52.762  1.00  0.00     0.008 A 
ATOM     21  C   UNL     1      11.479   3.064  53.185  1.00  0.00     0.169 A 
ATOM     22  C   UNL     1      12.842   3.404  53.110  1.00  0.00     0.162 A 
BRANCH  13  23
ATOM     23  O   UNL     1       8.618   5.624  51.296  1.00  0.00    -0.507 OA
ATOM     24  H   UNL     1       8.074   5.808  50.463  1.00  0.00     0.293 HD
ENDBRANCH  13  23
BRANCH  19  25
ATOM     25  C   UNL     1       9.075   3.638  53.023  1.00  0.00     0.264 C 
ATOM     26  O   UNL     1       8.649   3.524  54.203  1.00  0.00    -0.298 OA
ENDBRANCH  19  25
BRANCH  20  27
ATOM     27  C   UNL     1      14.685   5.163  52.981  1.00  0.00     0.017 C 
ATOM     28  C   UNL     1      15.617   4.525  51.946  1.00  0.00     0.012 C 
ATOM     29  C   UNL     1      15.199   4.929  54.415  1.00  0.00     0.012 C 
ENDBRANCH  20  27
BRANCH  21  30
ATOM     30  O   UNL     1      11.075   1.845  53.743  1.00  0.00    -0.504 OA
ATOM     31  H   UNL     1      10.110   1.567  53.855  1.00  0.00     0.293 HD
ENDBRANCH  21  30
BRANCH  22  32
ATOM     32  O   UNL     1      13.827   2.448  53.368  1.00  0.00    -0.504 OA
ATOM     33  H   UNL     1      14.676   2.635  53.885  1.00  0.00     0.293 HD
ENDBRANCH  22  32
ENDBRANCH  11  12
BRANCH  10  34
ATOM     34  O   UNL     1       9.981   7.299  48.119  1.00  0.00    -0.507 OA
ATOM     35  H   UNL     1      10.158   7.434  47.132  1.00  0.00     0.293 HD
ENDBRANCH  10  34
BRANCH   9  36
ATOM     36  C   UNL     1       5.583  11.675  49.291  1.00  0.00     0.017 C 
ATOM     37  C   UNL     1       5.786  13.160  48.970  1.00  0.00     0.012 C 
ATOM     38  C   UNL     1       4.099  11.277  49.174  1.00  0.00     0.012 C 
ENDBRANCH   9  36
BRANCH   6  39
ATOM     39  C   UNL     1       8.444   7.827  46.005  1.00  0.00     0.264 C 
ATOM     40  O   UNL     1       9.409   7.998  45.211  1.00  0.00    -0.298 OA
ENDBRANCH   6  39
BRANCH   8  41
ATOM     41  O   UNL     1       5.871  11.983  46.448  1.00  0.00    -0.504 OA
ATOM     42  H   UNL     1       5.809  12.125  45.449  1.00  0.00     0.293 HD
ENDBRANCH   8  41
BRANCH   7  43
ATOM     43  O   UNL     1       6.961   9.882  44.873  1.00  0.00    -0.504 OA
ATOM     44  H   UNL     1       6.445   9.159  44.392  1.00  0.00     0.293 HD
ENDBRANCH   7  43
TORSDOF 11
ENDMDL
MODEL 3
REMARK VINA RESULT:    -7.094      0.715      9.105
REMARK INTER + INTRA:         -11.806
REMARK INTER:                 -10.331
REMARK INTRA:                  -1.475
REMARK UNBOUND:                -1.394
REMARK SMILES Cc1cc2c(C(C)C)c(O)c(O)c(C=O)c2c(O)c1-c1c(C)cc2c(C(C)C)c(O)c(O)c(C=O)c2c1O
REMARK SMILES IDX 1 1 2 2 3 3 4 4 16 5 13 6 11 7 9 8 5 9 17 10 19 11 20 12
REMARK SMILES IDX 37 13 21 14 36 15 23 16 22 17 24 18 33 19 25 20 31 21 29 22
REMARK SMILES IDX 38 23 34 25 35 26 26 27 27 28 28 29 32 30 30 32 18 34 6 36
REMARK SMILES IDX 7 37 8 38 14 39 15 40 10 41 12 43
REMARK H PARENT 38 24 32 31 30 33 18 35 10 42 12 44
REMARK Flexibility Score: inf
ROOT
ATOM      1  C   UNL     1      11.952   9.064  51.506  1.00  0.00     0.045 C 
ATOM      2  C   UNL     1      11.354   7.796  52.065  1.00  0.00    -0.039 A 
ATOM      3  C   UNL     1      12.114   6.999  52.922  1.00  0.00     0.013 A 
ATOM      4  C   UNL     1      11.618   5.786  53.451  1.00  0.00    -0.006 A 
ATOM      5  C   UNL     1      10.277   5.402  53.146  1.00  0.00     0.039 A 
ATOM      6  C   UNL     1       9.766   4.190  53.699  1.00  0.00     0.072 A 
ATOM      7  C   UNL     1      10.508   3.494  54.671  1.00  0.00     0.169 A 
ATOM      8  C   UNL     1      11.792   3.935  55.035  1.00  0.00     0.162 A 
ATOM      9  C   UNL     1      12.420   4.974  54.313  1.00  0.00     0.008 A 
ATOM     10  C   UNL     1       9.478   6.261  52.334  1.00  0.00     0.132 A 
ATOM     11  C   UNL     1      10.031   7.432  51.772  1.00  0.00     0.031 A 
ENDROOT
BRANCH  11  12
ATOM     12  C   UNL     1       9.204   8.309  50.902  1.00  0.00     0.031 A 
ATOM     13  C   UNL     1       9.238   8.150  49.500  1.00  0.00     0.132 A 
ATOM     14  C   UNL     1       8.358   9.271  51.478  1.00  0.00    -0.039 A 
ATOM     15  C   UNL     1       8.485   9.017  48.655  1.00  0.00     0.039 A 
ATOM     16  C   UNL     1       7.540  10.049  50.658  1.00  0.00     0.013 A 
ATOM     17  C   UNL     1       8.242   9.412  52.978  1.00  0.00     0.045 C 
ATOM     18  C   UNL     1       7.609   9.975  49.249  1.00  0.00    -0.006 A 
ATOM     19  C   UNL     1       8.544   8.927  47.233  1.00  0.00     0.072 A 
ATOM     20  C   UNL     1       6.787  10.805  48.423  1.00  0.00     0.008 A 
ATOM     21  C   UNL     1       7.617   9.635  46.446  1.00  0.00     0.169 A 
ATOM     22  C   UNL     1       6.688  10.501  47.049  1.00  0.00     0.162 A 
BRANCH  13  23
ATOM     23  O   UNL     1       9.983   7.099  48.951  1.00  0.00    -0.507 OA
ATOM     24  H   UNL     1      10.740   6.630  49.433  1.00  0.00     0.293 HD
ENDBRANCH  13  23
BRANCH  19  25
ATOM     25  C   UNL     1       9.618   8.177  46.536  1.00  0.00     0.264 C 
ATOM     26  O   UNL     1       9.370   7.112  45.910  1.00  0.00    -0.298 OA
ENDBRANCH  19  25
BRANCH  20  27
ATOM     27  C   UNL     1       5.975  11.976  49.004  1.00  0.00     0.017 C 
ATOM     28  C   UNL     1       4.495  11.603  49.143  1.00  0.00     0.012 C 
ATOM     29  C   UNL     1       6.148  13.297  48.231  1.00  0.00     0.012 C 
ENDBRANCH  20  27
BRANCH  21  30
ATOM     30  O   UNL     1       7.673   9.500  45.054  1.00  0.00    -0.504 OA
ATOM     31  H   UNL     1       7.731  10.277  44.411  1.00  0.00     0.293 HD
ENDBRANCH  21  30
BRANCH  22  32
ATOM     32  O   UNL     1       5.651  11.063  46.300  1.00  0.00    -0.504 OA
ATOM     33  H   UNL     1       5.117  11.871  46.589  1.00  0.00     0.293 HD
ENDBRANCH  22  32
ENDBRANCH  11  12
BRANCH  10  34
ATOM     34  O   UNL     1       8.125   5.974  52.118  1.00  0.00    -0.507 OA
ATOM     35  H   UNL     1       7.428   5.944  52.851  1.00  0.00     0.293 HD
ENDBRANCH  10  34
BRANCH   9  36
ATOM     36  C   UNL     1      13.923   5.236  54.508  1.00  0.00     0.017 C 
ATOM     37  C   UNL     1      14.200   5.836  55.891  1.00  0.00     0.012 C 
ATOM     38  C   UNL     1      14.810   4.004  54.246  1.00  0.00     0.012 C 
ENDBRANCH   9  36
BRANCH   6  39
ATOM     39  C   UNL     1       8.501   3.578  53.226  1.00  0.00     0.264 C 
ATOM     40  O   UNL     1       7.459   3.602  53.935  1.00  0.00    -0.298 OA
ENDBRANCH   6  39
BRANCH   8  41
ATOM     41  O   UNL     1      12.459   3.361  56.120  1.00  0.00    -0.504 OA
ATOM     42  H   UNL     1      13.462   3.247  56.172  1.00  0.00     0.293 HD
ENDBRANCH   8  41
BRANCH   7  43
ATOM     43  O   UNL     1       9.966   2.329  55.226  1.00  0.00    -0.504 OA
ATOM     44  H   UNL     1       9.297   2.321  55.984  1.00  0.00     0.293 HD
ENDBRANCH   7  43
TORSDOF 11
ENDMDL
MODEL 4
REMARK VINA RESULT:    -6.824      4.297      8.241
REMARK INTER + INTRA:         -11.409
REMARK INTER:                 -10.979
REMARK INTRA:                  -0.430
REMARK UNBOUND:                -1.394
REMARK SMILES Cc1cc2c(C(C)C)c(O)c(O)c(C=O)c2c(O)c1-c1c(C)cc2c(C(C)C)c(O)c(O)c(C=O)c2c1O
REMARK SMILES IDX 1 1 2 2 3 3 4 4 16 5 13 6 11 7 9 8 5 9 17 10 19 11 20 12
REMARK SMILES IDX 37 13 21 14 36 15 23 16 22 17 24 18 33 19 25 20 31 21 29 22
REMARK SMILES IDX 38 23 34 25 35 26 26 27 27 28 28 29 32 30 30 32 18 34 6 36
REMARK SMILES IDX 7 37 8 38 14 39 15 40 10 41 12 43
REMARK H PARENT 38 24 32 31 30 33 18 35 10 42 12 44
REMARK Flexibility Score: inf
ROOT
ATOM      1  C   UNL     1       9.862   6.108  49.136  1.00  0.00     0.045 C 
ATOM      2  C   UNL     1      10.068   5.385  50.445  1.00  0.00    -0.039 A 
ATOM      3  C   UNL     1       8.958   4.976  51.185  1.00  0.00     0.013 A 
ATOM      4  C   UNL     1       9.091   4.324  52.433  1.00  0.00    -0.006 A 
ATOM      5  C   UNL     1      10.401   4.023  52.914  1.00  0.00     0.039 A 
ATOM      6  C   UNL     1      10.535   3.342  54.161  1.00  0.00     0.072 A 
ATOM      7  C   UNL     1       9.398   2.819  54.801  1.00  0.00     0.169 A 
ATOM      8  C   UNL     1       8.117   3.041  54.268  1.00  0.00     0.162 A 
ATOM      9  C   UNL     1       7.940   3.929  53.185  1.00  0.00     0.008 A 
ATOM     10  C   UNL     1      11.530   4.373  52.115  1.00  0.00     0.132 A 
ATOM     11  C   UNL     1      11.359   5.080  50.905  1.00  0.00     0.031 A 
ENDROOT
BRANCH  11  12
ATOM     12  C   UNL     1      12.540   5.469  50.090  1.00  0.00     0.031 A 
ATOM     13  C   UNL     1      13.054   4.582  49.121  1.00  0.00     0.132 A 
ATOM     14  C   UNL     1      13.119   6.737  50.258  1.00  0.00    -0.039 A 
ATOM     15  C   UNL     1      14.215   4.927  48.368  1.00  0.00     0.039 A 
ATOM     16  C   UNL     1      14.190   7.119  49.449  1.00  0.00     0.013 A 
ATOM     17  C   UNL     1      12.543   7.737  51.234  1.00  0.00     0.045 C 
ATOM     18  C   UNL     1      14.783   6.227  48.527  1.00  0.00    -0.006 A 
ATOM     19  C   UNL     1      14.799   4.031  47.425  1.00  0.00     0.072 A 
ATOM     20  C   UNL     1      15.901   6.624  47.728  1.00  0.00     0.008 A 
ATOM     21  C   UNL     1      15.791   4.492  46.540  1.00  0.00     0.169 A 
ATOM     22  C   UNL     1      16.274   5.809  46.638  1.00  0.00     0.162 A 
BRANCH  13  23
ATOM     23  O   UNL     1      12.382   3.379  48.873  1.00  0.00    -0.507 OA
ATOM     24  H   UNL     1      11.389   3.313  48.689  1.00  0.00     0.293 HD
ENDBRANCH  13  23
BRANCH  19  25
ATOM     25  C   UNL     1      14.464   2.586  47.400  1.00  0.00     0.264 C 
ATOM     26  O   UNL     1      15.363   1.706  47.479  1.00  0.00    -0.298 OA
ENDBRANCH  19  25
BRANCH  20  27
ATOM     27  C   UNL     1      16.664   7.934  47.996  1.00  0.00     0.017 C 
ATOM     28  C   UNL     1      17.123   8.013  49.456  1.00  0.00     0.012 C 
ATOM     29  C   UNL     1      15.889   9.201  47.584  1.00  0.00     0.012 C 
ENDBRANCH  20  27
BRANCH  21  30
ATOM     30  O   UNL     1      16.323   3.602  45.600  1.00  0.00    -0.504 OA
ATOM     31  H   UNL     1      15.978   2.665  45.449  1.00  0.00     0.293 HD
ENDBRANCH  21  30
BRANCH  22  32
ATOM     32  O   UNL     1      17.120   6.330  45.656  1.00  0.00    -0.504 OA
ATOM     33  H   UNL     1      17.717   7.135  45.791  1.00  0.00     0.293 HD
ENDBRANCH  22  32
ENDBRANCH  11  12
BRANCH  10  34
ATOM     34  O   UNL     1      12.817   3.983  52.501  1.00  0.00    -0.507 OA
ATOM     35  H   UNL     1      13.035   3.091  52.926  1.00  0.00     0.293 HD
ENDBRANCH  10  34
BRANCH   9  36
ATOM     36  C   UNL     1       6.525   4.405  52.812  1.00  0.00     0.017 C 
ATOM     37  C   UNL     1       5.484   3.324  53.122  1.00  0.00     0.012 C 
ATOM     38  C   UNL     1       6.135   5.754  53.446  1.00  0.00     0.012 C 
ENDBRANCH   9  36
BRANCH   6  39
ATOM     39  C   UNL     1      11.836   3.234  54.864  1.00  0.00     0.264 C 
ATOM     40  O   UNL     1      12.397   4.249  55.358  1.00  0.00    -0.298 OA
ENDBRANCH   6  39
BRANCH   8  41
ATOM     41  O   UNL     1       7.004   2.379  54.793  1.00  0.00    -0.504 OA
ATOM     42  H   UNL     1       6.058   2.730  54.738  1.00  0.00     0.293 HD
ENDBRANCH   8  41
BRANCH   7  43
ATOM     43  O   UNL     1       9.563   2.122  56.004  1.00  0.00    -0.504 OA
ATOM     44  H   UNL     1      10.044   1.237  56.084  1.00  0.00     0.293 HD
ENDBRANCH   7  43
TORSDOF 11
ENDMDL
MODEL 5
REMARK VINA RESULT:    -6.475      2.273      9.064
REMARK INTER + INTRA:         -10.897
REMARK INTER:                  -9.696
REMARK INTRA:                  -1.201
REMARK UNBOUND:                -1.394
REMARK SMILES Cc1cc2c(C(C)C)c(O)c(O)c(C=O)c2c(O)c1-c1c(C)cc2c(C(C)C)c(O)c(O)c(C=O)c2c1O
REMARK SMILES IDX 1 1 2 2 3 3 4 4 16 5 13 6 11 7 9 8 5 9 17 10 19 11 20 12
REMARK SMILES IDX 37 13 21 14 36 15 23 16 22 17 24 18 33 19 25 20 31 21 29 22
REMARK SMILES IDX 38 23 34 25 35 26 26 27 27 28 28 29 32 30 30 32 18 34 6 36
REMARK SMILES IDX 7 37 8 38 14 39 15 40 10 41 12 43
REMARK H PARENT 38 24 32 31 30 33 18 35 10 42 12 44
REMARK Flexibility Score: inf
ROOT
ATOM      1  C   UNL     1      11.559  10.703  49.762  1.00  0.00     0.045 C 
ATOM      2  C   UNL     1      11.489   9.272  50.236  1.00  0.00    -0.039 A 
ATOM      3  C   UNL     1      12.630   8.669  50.767  1.00  0.00     0.013 A 
ATOM      4  C   UNL     1      12.631   7.322  51.197  1.00  0.00    -0.006 A 
ATOM      5  C   UNL     1      11.412   6.583  51.143  1.00  0.00     0.039 A 
ATOM      6  C   UNL     1      11.405   5.232  51.601  1.00  0.00     0.072 A 
ATOM      7  C   UNL     1      12.532   4.709  52.261  1.00  0.00     0.169 A 
ATOM      8  C   UNL     1      13.699   5.481  52.394  1.00  0.00     0.162 A 
ATOM      9  C   UNL     1      13.816   6.717  51.721  1.00  0.00     0.008 A 
ATOM     10  C   UNL     1      10.229   7.230  50.674  1.00  0.00     0.132 A 
ATOM     11  C   UNL     1      10.283   8.556  50.193  1.00  0.00     0.031 A 
ENDROOT
BRANCH  11  12
ATOM     12  C   UNL     1       9.055   9.217  49.677  1.00  0.00     0.031 A 
ATOM     13  C   UNL     1       8.782   9.219  48.292  1.00  0.00     0.132 A 
ATOM     14  C   UNL     1       8.147   9.804  50.572  1.00  0.00    -0.039 A 
ATOM     15  C   UNL     1       7.632   9.892  47.783  1.00  0.00     0.039 A 
ATOM     16  C   UNL     1       6.968  10.370  50.086  1.00  0.00     0.013 A 
ATOM     17  C   UNL     1       8.374   9.750  52.064  1.00  0.00     0.045 C 
ATOM     18  C   UNL     1       6.701  10.465  48.701  1.00  0.00    -0.006 A 
ATOM     19  C   UNL     1       7.357   9.969  46.386  1.00  0.00     0.072 A 
ATOM     20  C   UNL     1       5.502  11.077  48.219  1.00  0.00     0.008 A 
ATOM     21  C   UNL     1       6.104  10.430  45.942  1.00  0.00     0.169 A 
ATOM     22  C   UNL     1       5.152  10.900  46.864  1.00  0.00     0.162 A 
BRANCH  13  23
ATOM     23  O   UNL     1       9.628   8.513  47.429  1.00  0.00    -0.507 OA
ATOM     24  H   UNL     1      10.578   8.790  47.216  1.00  0.00     0.293 HD
ENDBRANCH  13  23
BRANCH  19  25
ATOM     25  C   UNL     1       8.388   9.665  45.363  1.00  0.00     0.264 C 
ATOM     26  O   UNL     1       9.293  10.496  45.081  1.00  0.00    -0.298 OA
ENDBRANCH  19  25
BRANCH  20  27
ATOM     27  C   UNL     1       4.568  11.874  49.148  1.00  0.00     0.017 C 
ATOM     28  C   UNL     1       3.281  11.092  49.433  1.00  0.00     0.012 C 
ATOM     29  C   UNL     1       4.258  13.298  48.648  1.00  0.00     0.012 C 
ENDBRANCH  20  27
BRANCH  21  30
ATOM     30  O   UNL     1       5.846  10.462  44.566  1.00  0.00    -0.504 OA
ATOM     31  H   UNL     1       6.524  10.734  43.869  1.00  0.00     0.293 HD
ENDBRANCH  21  30
BRANCH  22  32
ATOM     32  O   UNL     1       3.847  11.185  46.454  1.00  0.00    -0.504 OA
ATOM     33  H   UNL     1       3.079  11.358  47.088  1.00  0.00     0.293 HD
ENDBRANCH  22  32
ENDBRANCH  11  12
BRANCH  10  34
ATOM     34  O   UNL     1       8.996   6.572  50.723  1.00  0.00    -0.507 OA
ATOM     35  H   UNL     1       8.779   5.822  51.368  1.00  0.00     0.293 HD
ENDBRANCH  10  34
BRANCH   9  36
ATOM     36  C   UNL     1      15.192   7.399  51.614  1.00  0.00     0.017 C 
ATOM     37  C   UNL     1      15.574   7.634  50.149  1.00  0.00     0.012 C 
ATOM     38  C   UNL     1      15.310   8.696  52.437  1.00  0.00     0.012 C 
ENDBRANCH   9  36
BRANCH   6  39
ATOM     39  C   UNL     1      10.274   4.312  51.332  1.00  0.00     0.264 C 
ATOM     40  O   UNL     1       9.449   4.011  52.236  1.00  0.00    -0.298 OA
ENDBRANCH   6  39
BRANCH   8  41
ATOM     41  O   UNL     1      14.753   5.042  53.199  1.00  0.00    -0.504 OA
ATOM     42  H   UNL     1      15.206   4.144  53.100  1.00  0.00     0.293 HD
ENDBRANCH   8  41
BRANCH   7  43
ATOM     43  O   UNL     1      12.485   3.393  52.735  1.00  0.00    -0.504 OA
ATOM     44  H   UNL     1      12.997   3.062  53.541  1.00  0.00     0.293 HD
ENDBRANCH   7  43
TORSDOF 11
ENDMDL
MODEL 6
REMARK VINA RESULT:    -6.308      1.760      9.132
REMARK INTER + INTRA:         -10.653
REMARK INTER:                  -9.262
REMARK INTRA:                  -1.391
REMARK UNBOUND:                -1.394
REMARK SMILES Cc1cc2c(C(C)C)c(O)c(O)c(C=O)c2c(O)c1-c1c(C)cc2c(C(C)C)c(O)c(O)c(C=O)c2c1O
REMARK SMILES IDX 1 1 2 2 3 3 4 4 16 5 13 6 11 7 9 8 5 9 17 10 19 11 20 12
REMARK SMILES IDX 37 13 21 14 36 15 23 16 22 17 24 18 33 19 25 20 31 21 29 22
REMARK SMILES IDX 38 23 34 25 35 26 26 27 27 28 28 29 32 30 30 32 18 34 6 36
REMARK SMILES IDX 7 37 8 38 14 39 15 40 10 41 12 43
REMARK H PARENT 38 24 32 31 30 33 18 35 10 42 12 44
REMARK Flexibility Score: inf
ROOT
ATOM      1  C   UNL     1       8.357   5.285  51.619  1.00  0.00     0.045 C 
ATOM      2  C   UNL     1       9.574   5.774  52.367  1.00  0.00    -0.039 A 
ATOM      3  C   UNL     1      10.238   4.908  53.238  1.00  0.00     0.013 A 
ATOM      4  C   UNL     1      11.363   5.321  53.988  1.00  0.00    -0.006 A 
ATOM      5  C   UNL     1      11.869   6.642  53.796  1.00  0.00     0.039 A 
ATOM      6  C   UNL     1      13.019   7.051  54.534  1.00  0.00     0.072 A 
ATOM      7  C   UNL     1      13.742   6.108  55.286  1.00  0.00     0.169 A 
ATOM      8  C   UNL     1      13.287   4.783  55.391  1.00  0.00     0.162 A 
ATOM      9  C   UNL     1      12.017   4.424  54.889  1.00  0.00     0.008 A 
ATOM     10  C   UNL     1      11.234   7.496  52.845  1.00  0.00     0.132 A 
ATOM     11  C   UNL     1      10.074   7.069  52.163  1.00  0.00     0.031 A 
ENDROOT
BRANCH  11  12
ATOM     12  C   UNL     1       9.398   7.973  51.195  1.00  0.00     0.031 A 
ATOM     13  C   UNL     1       9.727   7.913  49.824  1.00  0.00     0.132 A 
ATOM     14  C   UNL     1       8.404   8.859  51.641  1.00  0.00    -0.039 A 
ATOM     15  C   UNL     1       9.118   8.808  48.895  1.00  0.00     0.039 A 
ATOM     16  C   UNL     1       7.733   9.662  50.717  1.00  0.00     0.013 A 
ATOM     17  C   UNL     1       7.978   8.891  53.089  1.00  0.00     0.045 C 
ATOM     18  C   UNL     1       8.091   9.689  49.351  1.00  0.00    -0.006 A 
ATOM     19  C   UNL     1       9.471   8.819  47.513  1.00  0.00     0.072 A 
ATOM     20  C   UNL     1       7.414  10.542  48.425  1.00  0.00     0.008 A 
ATOM     21  C   UNL     1       8.689   9.545  46.595  1.00  0.00     0.169 A 
ATOM     22  C   UNL     1       7.613  10.331  47.044  1.00  0.00     0.162 A 
BRANCH  13  23
ATOM     23  O   UNL     1      10.620   6.931  49.378  1.00  0.00    -0.507 OA
ATOM     24  H   UNL     1      11.270   6.444  49.982  1.00  0.00     0.293 HD
ENDBRANCH  13  23
BRANCH  19  25
ATOM     25  C   UNL     1      10.701   8.161  47.010  1.00  0.00     0.264 C 
ATOM     26  O   UNL     1      10.644   7.098  46.335  1.00  0.00    -0.298 OA
ENDBRANCH  19  25
BRANCH  20  27
ATOM     27  C   UNL     1       6.441  11.639  48.895  1.00  0.00     0.017 C 
ATOM     28  C   UNL     1       4.986  11.218  48.663  1.00  0.00     0.012 C 
ATOM     29  C   UNL     1       6.726  13.025  48.287  1.00  0.00     0.012 C 
ENDBRANCH  20  27
BRANCH  21  30
ATOM     30  O   UNL     1       9.034   9.509  45.239  1.00  0.00    -0.504 OA
ATOM     31  H   UNL     1       9.231   8.661  44.727  1.00  0.00     0.293 HD
ENDBRANCH  21  30
BRANCH  22  32
ATOM     32  O   UNL     1       6.724  10.904  46.132  1.00  0.00    -0.504 OA
ATOM     33  H   UNL     1       6.970  11.159  45.184  1.00  0.00     0.293 HD
ENDBRANCH  22  32
ENDBRANCH  11  12
BRANCH  10  34
ATOM     34  O   UNL     1      11.778   8.750  52.547  1.00  0.00    -0.507 OA
ATOM     35  H   UNL     1      11.269   9.621  52.622  1.00  0.00     0.293 HD
ENDBRANCH  10  34
BRANCH   9  36
ATOM     36  C   UNL     1      11.398   3.070  55.279  1.00  0.00     0.017 C 
ATOM     37  C   UNL     1      10.120   3.268  56.102  1.00  0.00     0.012 C 
ATOM     38  C   UNL     1      11.153   2.130  54.083  1.00  0.00     0.012 C 
ENDBRANCH   9  36
BRANCH   6  39
ATOM     39  C   UNL     1      13.446   8.469  54.609  1.00  0.00     0.264 C 
ATOM     40  O   UNL     1      14.357   8.916  53.862  1.00  0.00    -0.298 OA
ENDBRANCH   6  39
BRANCH   8  41
ATOM     41  O   UNL     1      14.087   3.802  55.984  1.00  0.00    -0.504 OA
ATOM     42  H   UNL     1      15.062   3.930  56.217  1.00  0.00     0.293 HD
ENDBRANCH   8  41
BRANCH   7  43
ATOM     43  O   UNL     1      14.890   6.528  55.968  1.00  0.00    -0.504 OA
ATOM     44  H   UNL     1      15.160   7.496  56.082  1.00  0.00     0.293 HD
ENDBRANCH   7  43
TORSDOF 11
ENDMDL
MODEL 7
REMARK VINA RESULT:    -6.233      2.423      4.395
REMARK INTER + INTRA:         -10.542
REMARK INTER:                  -9.282
REMARK INTRA:                  -1.261
REMARK UNBOUND:                -1.394
REMARK SMILES Cc1cc2c(C(C)C)c(O)c(O)c(C=O)c2c(O)c1-c1c(C)cc2c(C(C)C)c(O)c(O)c(C=O)c2c1O
REMARK SMILES IDX 1 1 2 2 3 3 4 4 16 5 13 6 11 7 9 8 5 9 17 10 19 11 20 12
REMARK SMILES IDX 37 13 21 14 36 15 23 16 22 17 24 18 33 19 25 20 31 21 29 22
REMARK SMILES IDX 38 23 34 25 35 26 26 27 27 28 28 29 32 30 30 32 18 34 6 36
REMARK SMILES IDX 7 37 8 38 14 39 15 40 10 41 12 43
REMARK H PARENT 38 24 32 31 30 33 18 35 10 42 12 44
REMARK Flexibility Score: inf
ROOT
ATOM      1  C   UNL     1      12.184   6.776  48.218  1.00  0.00     0.045 C 
ATOM      2  C   UNL     1      11.075   7.797  48.137  1.00  0.00    -0.039 A 
ATOM      3  C   UNL     1      10.987   8.627  47.019  1.00  0.00     0.013 A 
ATOM      4  C   UNL     1       9.989   9.622  46.904  1.00  0.00    -0.006 A 
ATOM      5  C   UNL     1       9.009   9.734  47.935  1.00  0.00     0.039 A 
ATOM      6  C   UNL     1       7.986  10.720  47.808  1.00  0.00     0.072 A 
ATOM      7  C   UNL     1       7.845  11.434  46.605  1.00  0.00     0.169 A 
ATOM      8  C   UNL     1       8.762  11.247  45.556  1.00  0.00     0.162 A 
ATOM      9  C   UNL     1       9.927  10.475  45.758  1.00  0.00     0.008 A 
ATOM     10  C   UNL     1       9.057   8.829  49.039  1.00  0.00     0.132 A 
ATOM     11  C   UNL     1      10.107   7.892  49.149  1.00  0.00     0.031 A 
ENDROOT
BRANCH  11  12
ATOM     12  C   UNL     1      10.170   6.971  50.315  1.00  0.00     0.031 A 
ATOM     13  C   UNL     1      10.826   7.373  51.498  1.00  0.00     0.132 A 
ATOM     14  C   UNL     1       9.543   5.716  50.251  1.00  0.00    -0.039 A 
ATOM     15  C   UNL     1      10.934   6.479  52.604  1.00  0.00     0.039 A 
ATOM     16  C   UNL     1       9.556   4.882  51.370  1.00  0.00     0.013 A 
ATOM     17  C   UNL     1       8.769   5.291  49.026  1.00  0.00     0.045 C 
ATOM     18  C   UNL     1      10.272   5.215  52.541  1.00  0.00    -0.006 A 
ATOM     19  C   UNL     1      11.642   6.826  53.791  1.00  0.00     0.072 A 
ATOM     20  C   UNL     1      10.302   4.333  53.666  1.00  0.00     0.008 A 
ATOM     21  C   UNL     1      11.527   6.020  54.939  1.00  0.00     0.169 A 
ATOM     22  C   UNL     1      10.787   4.825  54.896  1.00  0.00     0.162 A 
BRANCH  13  23
ATOM     23  O   UNL     1      11.328   8.677  51.591  1.00  0.00    -0.507 OA
ATOM     24  H   UNL     1      11.685   9.203  50.803  1.00  0.00     0.293 HD
ENDBRANCH  13  23
BRANCH  19  25
ATOM     25  C   UNL     1      12.585   7.971  53.839  1.00  0.00     0.264 C 
ATOM     26  O   UNL     1      12.303   9.023  54.475  1.00  0.00    -0.298 OA
ENDBRANCH  19  25
BRANCH  20  27
ATOM     27  C   UNL     1       9.772   2.890  53.579  1.00  0.00     0.017 C 
ATOM     28  C   UNL     1       8.382   2.777  54.215  1.00  0.00     0.012 C 
ATOM     29  C   UNL     1      10.738   1.837  54.155  1.00  0.00     0.012 C 
ENDBRANCH  20  27
BRANCH  21  30
ATOM     30  O   UNL     1      12.203   6.403  56.103  1.00  0.00    -0.504 OA
ATOM     31  H   UNL     1      12.347   5.799  56.900  1.00  0.00     0.293 HD
ENDBRANCH  21  30
BRANCH  22  32
ATOM     32  O   UNL     1      10.515   4.117  56.069  1.00  0.00    -0.504 OA
ATOM     33  H   UNL     1      11.216   3.635  56.616  1.00  0.00     0.293 HD
ENDBRANCH  22  32
ENDBRANCH  11  12
BRANCH  10  34
ATOM     34  O   UNL     1       8.042   8.834  50.002  1.00  0.00    -0.507 OA
ATOM     35  H   UNL     1       7.689   9.670  50.448  1.00  0.00     0.293 HD
ENDBRANCH  10  34
BRANCH   9  36
ATOM     36  C   UNL     1      11.067  10.531  44.725  1.00  0.00     0.017 C 
ATOM     37  C   UNL     1      12.162  11.506  45.170  1.00  0.00     0.012 C 
ATOM     38  C   UNL     1      11.655   9.152  44.372  1.00  0.00     0.012 C 
ENDBRANCH   9  36
BRANCH   6  39
ATOM     39  C   UNL     1       7.102  11.092  48.940  1.00  0.00     0.264 C 
ATOM     40  O   UNL     1       5.877  10.796  48.934  1.00  0.00    -0.298 OA
ENDBRANCH   6  39
BRANCH   8  41
ATOM     41  O   UNL     1       8.530  11.813  44.300  1.00  0.00    -0.504 OA
ATOM     42  H   UNL     1       7.761  11.556  43.696  1.00  0.00     0.293 HD
ENDBRANCH   8  41
BRANCH   7  43
ATOM     43  O   UNL     1       6.809  12.369  46.493  1.00  0.00    -0.504 OA
ATOM     44  H   UNL     1       5.832  12.149  46.626  1.00  0.00     0.293 HD
ENDBRANCH   7  43
TORSDOF 11
ENDMDL
MODEL 8
REMARK VINA RESULT:    -6.197      1.968      3.451
REMARK INTER + INTRA:         -10.489
REMARK INTER:                  -9.488
REMARK INTRA:                  -1.001
REMARK UNBOUND:                -1.394
REMARK SMILES Cc1cc2c(C(C)C)c(O)c(O)c(C=O)c2c(O)c1-c1c(C)cc2c(C(C)C)c(O)c(O)c(C=O)c2c1O
REMARK SMILES IDX 1 1 2 2 3 3 4 4 16 5 13 6 11 7 9 8 5 9 17 10 19 11 20 12
REMARK SMILES IDX 37 13 21 14 36 15 23 16 22 17 24 18 33 19 25 20 31 21 29 22
REMARK SMILES IDX 38 23 34 25 35 26 26 27 27 28 28 29 32 30 30 32 18 34 6 36
REMARK SMILES IDX 7 37 8 38 14 39 15 40 10 41 12 43
REMARK H PARENT 38 24 32 31 30 33 18 35 10 42 12 44
REMARK Flexibility Score: inf
ROOT
ATOM      1  C   UNL     1      12.466   5.498  48.469  1.00  0.00     0.045 C 
ATOM      2  C   UNL     1      11.399   6.533  48.724  1.00  0.00    -0.039 A 
ATOM      3  C   UNL     1      10.711   7.090  47.645  1.00  0.00     0.013 A 
ATOM      4  C   UNL     1       9.724   8.087  47.821  1.00  0.00    -0.006 A 
ATOM      5  C   UNL     1       9.380   8.485  49.148  1.00  0.00     0.039 A 
ATOM      6  C   UNL     1       8.366   9.472  49.329  1.00  0.00     0.072 A 
ATOM      7  C   UNL     1       7.599   9.899  48.231  1.00  0.00     0.169 A 
ATOM      8  C   UNL     1       7.885   9.428  46.938  1.00  0.00     0.162 A 
ATOM      9  C   UNL     1       9.045   8.658  46.700  1.00  0.00     0.008 A 
ATOM     10  C   UNL     1      10.030   7.854  50.252  1.00  0.00     0.132 A 
ATOM     11  C   UNL     1      11.056   6.910  50.032  1.00  0.00     0.031 A 
ENDROOT
BRANCH  11  12
ATOM     12  C   UNL     1      11.752   6.277  51.184  1.00  0.00     0.031 A 
ATOM     13  C   UNL     1      11.182   5.156  51.825  1.00  0.00     0.132 A 
ATOM     14  C   UNL     1      12.996   6.772  51.608  1.00  0.00    -0.039 A 
ATOM     15  C   UNL     1      11.818   4.572  52.961  1.00  0.00     0.039 A 
ATOM     16  C   UNL     1      13.671   6.136  52.651  1.00  0.00     0.013 A 
ATOM     17  C   UNL     1      13.665   7.921  50.892  1.00  0.00     0.045 C 
ATOM     18  C   UNL     1      13.095   5.065  53.370  1.00  0.00    -0.006 A 
ATOM     19  C   UNL     1      11.242   3.480  53.672  1.00  0.00     0.072 A 
ATOM     20  C   UNL     1      13.787   4.447  54.458  1.00  0.00     0.008 A 
ATOM     21  C   UNL     1      12.004   2.786  54.630  1.00  0.00     0.169 A 
ATOM     22  C   UNL     1      13.301   3.218  54.955  1.00  0.00     0.162 A 
BRANCH  13  23
ATOM     23  O   UNL     1      10.010   4.595  51.304  1.00  0.00    -0.507 OA
ATOM     24  H   UNL     1       9.612   3.721  51.624  1.00  0.00     0.293 HD
ENDBRANCH  13  23
BRANCH  19  25
ATOM     25  C   UNL     1       9.818   3.096  53.506  1.00  0.00     0.264 C 
ATOM     26  O   UNL     1       8.970   3.327  54.410  1.00  0.00    -0.298 OA
ENDBRANCH  19  25
BRANCH  20  27
ATOM     27  C   UNL     1      15.066   5.058  55.057  1.00  0.00     0.017 C 
ATOM     28  C   UNL     1      14.801   6.467  55.596  1.00  0.00     0.012 C 
ATOM     29  C   UNL     1      16.271   5.045  54.096  1.00  0.00     0.012 C 
ENDBRANCH  20  27
BRANCH  21  30
ATOM     30  O   UNL     1      11.426   1.693  55.288  1.00  0.00    -0.504 OA
ATOM     31  H   UNL     1      10.544   1.729  55.779  1.00  0.00     0.293 HD
ENDBRANCH  21  30
BRANCH  22  32
ATOM     32  O   UNL     1      14.129   2.435  55.763  1.00  0.00    -0.504 OA
ATOM     33  H   UNL     1      15.118   2.603  55.892  1.00  0.00     0.293 HD
ENDBRANCH  22  32
ENDBRANCH  11  12
BRANCH  10  34
ATOM     34  O   UNL     1       9.630   8.135  51.563  1.00  0.00    -0.507 OA
ATOM     35  H   UNL     1       8.693   8.418  51.820  1.00  0.00     0.293 HD
ENDBRANCH  10  34
BRANCH   9  36
ATOM     36  C   UNL     1       9.514   8.414  45.255  1.00  0.00     0.017 C 
ATOM     37  C   UNL     1      10.979   8.826  45.078  1.00  0.00     0.012 C 
ATOM     38  C   UNL     1       9.274   6.975  44.758  1.00  0.00     0.012 C 
ENDBRANCH   9  36
BRANCH   6  39
ATOM     39  C   UNL     1       8.138  10.140  50.633  1.00  0.00     0.264 C 
ATOM     40  O   UNL     1       7.329   9.666  51.475  1.00  0.00    -0.298 OA
ENDBRANCH   6  39
BRANCH   8  41
ATOM     41  O   UNL     1       7.022   9.704  45.874  1.00  0.00    -0.504 OA
ATOM     42  H   UNL     1       6.465  10.544  45.800  1.00  0.00     0.293 HD
ENDBRANCH   8  41
BRANCH   7  43
ATOM     43  O   UNL     1       6.584  10.840  48.443  1.00  0.00    -0.504 OA
ATOM     44  H   UNL     1       6.041  11.264  47.704  1.00  0.00     0.293 HD
ENDBRANCH   7  43
TORSDOF 11
ENDMDL
MODEL 9
REMARK VINA RESULT:    -5.170      2.044      3.280
REMARK INTER + INTRA:          -8.983
REMARK INTER:                  -7.962
REMARK INTRA:                  -1.020
REMARK UNBOUND:                -1.394
REMARK SMILES Cc1cc2c(C(C)C)c(O)c(O)c(C=O)c2c(O)c1-c1c(C)cc2c(C(C)C)c(O)c(O)c(C=O)c2c1O
REMARK SMILES IDX 1 1 2 2 3 3 4 4 16 5 13 6 11 7 9 8 5 9 17 10 19 11 20 12
REMARK SMILES IDX 37 13 21 14 36 15 23 16 22 17 24 18 33 19 25 20 31 21 29 22
REMARK SMILES IDX 38 23 34 25 35 26 26 27 27 28 28 29 32 30 30 32 18 34 6 36
REMARK SMILES IDX 7 37 8 38 14 39 15 40 10 41 12 43
REMARK H PARENT 38 24 32 31 30 33 18 35 10 42 12 44
REMARK Flexibility Score: inf
ROOT
ATOM      1  C   UNL     1      10.320   4.682  48.735  1.00  0.00     0.045 C 
ATOM      2  C   UNL     1      10.123   6.162  48.954  1.00  0.00    -0.039 A 
ATOM      3  C   UNL     1       9.770   6.974  47.874  1.00  0.00     0.013 A 
ATOM      4  C   UNL     1       9.604   8.370  48.013  1.00  0.00    -0.006 A 
ATOM      5  C   UNL     1       9.739   8.953  49.310  1.00  0.00     0.039 A 
ATOM      6  C   UNL     1       9.546  10.358  49.456  1.00  0.00     0.072 A 
ATOM      7  C   UNL     1       9.050  11.115  48.379  1.00  0.00     0.169 A 
ATOM      8  C   UNL     1       8.830  10.511  47.129  1.00  0.00     0.162 A 
ATOM      9  C   UNL     1       9.261   9.187  46.891  1.00  0.00     0.008 A 
ATOM     10  C   UNL     1      10.021   8.105  50.424  1.00  0.00     0.132 A 
ATOM     11  C   UNL     1      10.243   6.725  50.234  1.00  0.00     0.031 A 
ENDROOT
BRANCH  11  12
ATOM     12  C   UNL     1      10.566   5.851  51.392  1.00  0.00     0.031 A 
ATOM     13  C   UNL     1       9.539   5.144  52.053  1.00  0.00     0.132 A 
ATOM     14  C   UNL     1      11.900   5.698  51.804  1.00  0.00    -0.039 A 
ATOM     15  C   UNL     1       9.833   4.341  53.195  1.00  0.00     0.039 A 
ATOM     16  C   UNL     1      12.202   4.830  52.854  1.00  0.00     0.013 A 
ATOM     17  C   UNL     1      13.028   6.382  51.068  1.00  0.00     0.045 C 
ATOM     18  C   UNL     1      11.193   4.171  53.592  1.00  0.00    -0.006 A 
ATOM     19  C   UNL     1       8.813   3.663  53.925  1.00  0.00     0.072 A 
ATOM     20  C   UNL     1      11.520   3.310  54.686  1.00  0.00     0.008 A 
ATOM     21  C   UNL     1       9.163   2.701  54.891  1.00  0.00     0.169 A 
ATOM     22  C   UNL     1      10.513   2.467  55.204  1.00  0.00     0.162 A 
BRANCH  13  23
ATOM     23  O   UNL     1       8.235   5.202  51.545  1.00  0.00    -0.507 OA
ATOM     24  H   UNL     1       7.440   5.547  52.068  1.00  0.00     0.293 HD
ENDBRANCH  13  23
BRANCH  19  25
ATOM     25  C   UNL     1       7.377   4.002  53.771  1.00  0.00     0.264 C 
ATOM     26  O   UNL     1       6.585   3.228  53.168  1.00  0.00    -0.298 OA
ENDBRANCH  19  25
BRANCH  20  27
ATOM     27  C   UNL     1      12.942   3.246  55.270  1.00  0.00     0.017 C 
ATOM     28  C   UNL     1      13.241   4.482  56.125  1.00  0.00     0.012 C 
ATOM     29  C   UNL     1      14.039   3.018  54.213  1.00  0.00     0.012 C 
ENDBRANCH  20  27
BRANCH  21  30
ATOM     30  O   UNL     1       8.142   2.023  55.568  1.00  0.00    -0.504 OA
ATOM     31  H   UNL     1       8.047   1.018  55.589  1.00  0.00     0.293 HD
ENDBRANCH  21  30
BRANCH  22  32
ATOM     32  O   UNL     1      10.877   1.394  56.021  1.00  0.00    -0.504 OA
ATOM     33  H   UNL     1      10.321   0.558  56.138  1.00  0.00     0.293 HD
ENDBRANCH  22  32
ENDBRANCH  11  12
BRANCH  10  34
ATOM     34  O   UNL     1      10.038   8.627  51.722  1.00  0.00    -0.507 OA
ATOM     35  H   UNL     1       9.871   9.600  51.944  1.00  0.00     0.293 HD
ENDBRANCH  10  34
BRANCH   9  36
ATOM     36  C   UNL     1       9.302   8.647  45.451  1.00  0.00     0.017 C 
ATOM     37  C   UNL     1      10.744   8.550  44.943  1.00  0.00     0.012 C 
ATOM     38  C   UNL     1       8.553   7.313  45.265  1.00  0.00     0.012 C 
ENDBRANCH   9  36
BRANCH   6  39
ATOM     39  C   UNL     1       9.930  11.084  50.691  1.00  0.00     0.264 C 
ATOM     40  O   UNL     1      10.756  12.036  50.657  1.00  0.00    -0.298 OA
ENDBRANCH   6  39
BRANCH   8  41
ATOM     41  O   UNL     1       8.173  11.206  46.110  1.00  0.00    -0.504 OA
ATOM     42  H   UNL     1       8.077  10.866  45.163  1.00  0.00     0.293 HD
ENDBRANCH   8  41
BRANCH   7  43
ATOM     43  O   UNL     1       8.833  12.485  48.561  1.00  0.00    -0.504 OA
ATOM     44  H   UNL     1       9.267  13.036  49.289  1.00  0.00     0.293 HD
ENDBRANCH   7  43
TORSDOF 11
ENDMDL
