MODEL 1
REMARK VINA RESULT:    -3.359      0.000      0.000
REMARK INTER + INTRA:          -5.173
REMARK INTER:                  -5.127
REMARK INTRA:                  -0.046
REMARK UNBOUND:                -0.046
REMARK SMILES CC1=CCC[C@H](C)C(=O)C[C@H](C(C)C)C(=O)C1
REMARK SMILES IDX 8 1 9 2 6 3 7 4 5 5 4 6 3 7 2 8 1 9 10 11 11 12 15 13 16 14
REMARK SMILES IDX 17 15 12 17 13 18 14 19
REMARK H PARENT
REMARK Flexibility Score: 70.00
ROOT
ATOM      1  C   UNL     1       2.586  78.748 -29.612  1.00  0.00     0.136 C 
ATOM      2  O   UNL     1       3.740  78.758 -29.208  1.00  0.00    -0.299 OA
ENDROOT
BRANCH   1   3
ATOM      3  C   UNL     1       1.994  80.032 -30.161  1.00  0.00     0.053 C 
ATOM      4  C   UNL     1       0.698  79.749 -30.930  1.00  0.00     0.016 C 
BRANCH   3   5
ATOM      5  C   UNL     1       1.762  81.073 -29.049  1.00  0.00     0.015 C 
BRANCH   5   6
ATOM      6  C   UNL     1       0.698  80.611 -28.039  1.00  0.00     0.028 C 
BRANCH   6   7
ATOM      7  C   UNL     1       1.346  80.094 -26.781  1.00  0.00    -0.028 C 
ATOM      8  C   UNL     1       1.148  78.857 -26.267  1.00  0.00    -0.070 CG0
ATOM      9  C   UNL     1       1.818  78.518 -24.960  1.00  0.00     0.039 C 
ATOM     10  G   UNL     1       0.299  77.800 -26.959  1.00  0.00     0.000 G0
ENDBRANCH   6   7
ENDBRANCH   5   6
ENDBRANCH   3   5
ENDBRANCH   1   3
BRANCH   1  11
ATOM     11  C   UNL     1       1.816  77.447 -29.574  1.00  0.00     0.087 C 
BRANCH  11  12
ATOM     12  C   UNL     1       2.189  76.576 -28.344  1.00  0.00     0.066 C 
BRANCH  12  13
ATOM     13  C   UNL     1       1.059  76.539 -27.323  1.00  0.00     0.140 C 
ATOM     14  O   UNL     1       0.800  75.496 -26.740  1.00  0.00    -0.299 OA
BRANCH  13  15
ATOM     15  C   UNL     1       0.291  77.789 -26.968  1.00  0.00     0.106 CG0
ATOM     16  G   UNL     1       1.169  78.832 -26.292  1.00  0.00     0.000 G0
ENDBRANCH  13  15
ENDBRANCH  12  13
BRANCH  12  17
ATOM     17  C   UNL     1       2.656  75.148 -28.763  1.00  0.00    -0.006 C 
ATOM     18  C   UNL     1       1.839  74.615 -29.951  1.00  0.00     0.008 C 
ATOM     19  C   UNL     1       4.161  75.043 -29.067  1.00  0.00     0.008 C 
ENDBRANCH  12  17
ENDBRANCH  11  12
ENDBRANCH   1  11
TORSDOF 1
ENDMDL
MODEL 2
REMARK VINA RESULT:    -3.206      6.649      8.882
REMARK INTER + INTRA:          -4.939
REMARK INTER:                  -4.638
REMARK INTRA:                  -0.301
REMARK UNBOUND:                -0.046
REMARK SMILES CC1=CCC[C@H](C)C(=O)C[C@H](C(C)C)C(=O)C1
REMARK SMILES IDX 8 1 9 2 6 3 7 4 5 5 4 6 3 7 2 8 1 9 10 11 11 12 15 13 16 14
REMARK SMILES IDX 17 15 12 17 13 18 14 19
REMARK H PARENT
REMARK Flexibility Score: 70.00
ROOT
ATOM      1  C   UNL     1       2.306  76.003 -20.478  1.00  0.00     0.136 C 
ATOM      2  O   UNL     1       3.216  75.299 -20.891  1.00  0.00    -0.299 OA
ENDROOT
BRANCH   1   3
ATOM      3  C   UNL     1       1.984  75.986 -18.996  1.00  0.00     0.053 C 
ATOM      4  C   UNL     1       2.041  74.557 -18.443  1.00  0.00     0.016 C 
BRANCH   3   5
ATOM      5  C   UNL     1       2.912  76.925 -18.202  1.00  0.00     0.015 C 
BRANCH   5   6
ATOM      6  C   UNL     1       2.156  78.140 -17.636  1.00  0.00     0.028 C 
BRANCH   6   7
ATOM      7  C   UNL     1       2.499  79.387 -18.408  1.00  0.00    -0.028 C 
ATOM      8  C   UNL     1       1.667  80.002 -19.282  1.00  0.00    -0.070 CG0
ATOM      9  C   UNL     1       2.187  81.203 -20.029  1.00  0.00     0.039 C 
ATOM     10  G   UNL     1       0.236  79.543 -19.525  1.00  0.00     0.000 G0
ENDBRANCH   6   7
ENDBRANCH   5   6
ENDBRANCH   3   5
ENDBRANCH   1   3
BRANCH   1  11
ATOM     11  C   UNL     1       1.566  76.882 -21.463  1.00  0.00     0.087 C 
BRANCH  11  12
ATOM     12  C   UNL     1       0.172  77.317 -20.933  1.00  0.00     0.066 C 
BRANCH  12  13
ATOM     13  C   UNL     1       0.058  78.833 -20.845  1.00  0.00     0.140 C 
ATOM     14  O   UNL     1      -0.229  79.480 -21.842  1.00  0.00    -0.299 OA
BRANCH  13  15
ATOM     15  C   UNL     1       0.229  79.551 -19.529  1.00  0.00     0.106 CG0
ATOM     16  G   UNL     1       1.667  79.988 -19.293  1.00  0.00     0.000 G0
ENDBRANCH  13  15
ENDBRANCH  12  13
BRANCH  12  17
ATOM     17  C   UNL     1      -0.987  76.682 -21.761  1.00  0.00    -0.006 C 
ATOM     18  C   UNL     1      -0.640  76.614 -23.257  1.00  0.00     0.008 C 
ATOM     19  C   UNL     1      -1.434  75.298 -21.258  1.00  0.00     0.008 C 
ENDBRANCH  12  17
ENDBRANCH  11  12
ENDBRANCH   1  11
TORSDOF 1
ENDMDL
MODEL 3
REMARK VINA RESULT:    -3.162      6.453      8.805
REMARK INTER + INTRA:          -4.871
REMARK INTER:                  -4.712
REMARK INTRA:                  -0.159
REMARK UNBOUND:                -0.046
REMARK SMILES CC1=CCC[C@H](C)C(=O)C[C@H](C(C)C)C(=O)C1
REMARK SMILES IDX 8 1 9 2 6 3 7 4 5 5 4 6 3 7 2 8 1 9 10 11 11 12 15 13 16 14
REMARK SMILES IDX 17 15 12 17 13 18 14 19
REMARK H PARENT
REMARK Flexibility Score: 70.00
ROOT
ATOM      1  C   UNL     1      10.150  77.466 -28.340  1.00  0.00     0.136 C 
ATOM      2  O   UNL     1       9.784  76.803 -27.381  1.00  0.00    -0.299 OA
ENDROOT
BRANCH   1   3
ATOM      3  C   UNL     1      11.369  77.011 -29.120  1.00  0.00     0.053 C 
ATOM      4  C   UNL     1      12.636  77.123 -28.264  1.00  0.00     0.016 C 
BRANCH   3   5
ATOM      5  C   UNL     1      11.194  75.580 -29.664  1.00  0.00     0.015 C 
BRANCH   5   6
ATOM      6  C   UNL     1      10.192  75.524 -30.830  1.00  0.00     0.028 C 
BRANCH   6   7
ATOM      7  C   UNL     1       8.968  74.734 -30.443  1.00  0.00    -0.028 C 
ATOM      8  C   UNL     1       7.698  75.194 -30.532  1.00  0.00    -0.070 CG0
ATOM      9  C   UNL     1       6.587  74.303 -30.037  1.00  0.00     0.039 C 
ATOM     10  G   UNL     1       7.349  76.553 -31.120  1.00  0.00     0.000 G0
ENDBRANCH   6   7
ENDBRANCH   5   6
ENDBRANCH   3   5
ENDBRANCH   1   3
BRANCH   1  11
ATOM     11  C   UNL     1       9.349  78.692 -28.722  1.00  0.00     0.087 C 
BRANCH  11  12
ATOM     12  C   UNL     1       8.735  78.575 -30.144  1.00  0.00     0.066 C 
BRANCH  12  13
ATOM     13  C   UNL     1       7.499  77.684 -30.145  1.00  0.00     0.140 C 
ATOM     14  O   UNL     1       6.583  77.914 -29.368  1.00  0.00    -0.299 OA
BRANCH  13  15
ATOM     15  C   UNL     1       7.354  76.557 -31.137  1.00  0.00     0.106 CG0
ATOM     16  G   UNL     1       7.711  75.207 -30.532  1.00  0.00     0.000 G0
ENDBRANCH  13  15
ENDBRANCH  12  13
BRANCH  12  17
ATOM     17  C   UNL     1       8.457  79.975 -30.773  1.00  0.00    -0.006 C 
ATOM     18  C   UNL     1       8.804  81.110 -29.796  1.00  0.00     0.008 C 
ATOM     19  C   UNL     1       9.156  80.206 -32.124  1.00  0.00     0.008 C 
ENDBRANCH  12  17
ENDBRANCH  11  12
ENDBRANCH   1  11
TORSDOF 1
ENDMDL
MODEL 4
REMARK VINA RESULT:    -3.136     10.953     12.370
REMARK INTER + INTRA:          -4.832
REMARK INTER:                  -4.550
REMARK INTRA:                  -0.282
REMARK UNBOUND:                -0.046
REMARK SMILES CC1=CCC[C@H](C)C(=O)C[C@H](C(C)C)C(=O)C1
REMARK SMILES IDX 8 1 9 2 6 3 7 4 5 5 4 6 3 7 2 8 1 9 10 11 11 12 15 13 16 14
REMARK SMILES IDX 17 15 12 17 13 18 14 19
REMARK H PARENT
REMARK Flexibility Score: 70.00
ROOT
ATOM      1  C   UNL     1       6.905  77.392 -18.640  1.00  0.00     0.136 C 
ATOM      2  O   UNL     1       7.303  77.408 -19.795  1.00  0.00    -0.299 OA
ENDROOT
BRANCH   1   3
ATOM      3  C   UNL     1       7.892  77.079 -17.532  1.00  0.00     0.053 C 
ATOM      4  C   UNL     1       8.235  75.585 -17.514  1.00  0.00     0.016 C 
BRANCH   3   5
ATOM      5  C   UNL     1       9.166  77.938 -17.646  1.00  0.00     0.015 C 
BRANCH   5   6
ATOM      6  C   UNL     1       9.041  79.263 -16.874  1.00  0.00     0.028 C 
BRANCH   6   7
ATOM      7  C   UNL     1       8.378  80.315 -17.725  1.00  0.00    -0.028 C 
ATOM      8  C   UNL     1       7.138  80.811 -17.504  1.00  0.00    -0.070 CG0
ATOM      9  C   UNL     1       6.589  81.811 -18.491  1.00  0.00     0.039 C 
ATOM     10  G   UNL     1       6.291  80.419 -16.302  1.00  0.00     0.000 G0
ENDBRANCH   6   7
ENDBRANCH   5   6
ENDBRANCH   3   5
ENDBRANCH   1   3
BRANCH   1  11
ATOM     11  C   UNL     1       5.452  77.716 -18.369  1.00  0.00     0.087 C 
BRANCH  11  12
ATOM     12  C   UNL     1       5.196  78.073 -16.879  1.00  0.00     0.066 C 
BRANCH  12  13
ATOM     13  C   UNL     1       5.087  79.579 -16.678  1.00  0.00     0.140 C 
ATOM     14  O   UNL     1       3.999  80.128 -16.771  1.00  0.00    -0.299 OA
BRANCH  13  15
ATOM     15  C   UNL     1       6.294  80.402 -16.298  1.00  0.00     0.106 CG0
ATOM     16  G   UNL     1       7.125  80.798 -17.509  1.00  0.00     0.000 G0
ENDBRANCH  13  15
ENDBRANCH  12  13
BRANCH  12  17
ATOM     17  C   UNL     1       3.964  77.308 -16.303  1.00  0.00    -0.006 C 
ATOM     18  C   UNL     1       2.960  76.943 -17.408  1.00  0.00     0.008 C 
ATOM     19  C   UNL     1       4.329  76.057 -15.485  1.00  0.00     0.008 C 
ENDBRANCH  12  17
ENDBRANCH  11  12
ENDBRANCH   1  11
TORSDOF 1
ENDMDL
MODEL 5
REMARK VINA RESULT:    -3.105      9.765     11.726
REMARK INTER + INTRA:          -4.784
REMARK INTER:                  -4.431
REMARK INTRA:                  -0.353
REMARK UNBOUND:                -0.046
REMARK SMILES CC1=CCC[C@H](C)C(=O)C[C@H](C(C)C)C(=O)C1
REMARK SMILES IDX 8 1 9 2 6 3 7 4 5 5 4 6 3 7 2 8 1 9 10 11 11 12 15 13 16 14
REMARK SMILES IDX 17 15 12 17 13 18 14 19
REMARK H PARENT
REMARK Flexibility Score: 70.00
ROOT
ATOM      1  C   UNL     1      11.157  75.910 -25.926  1.00  0.00     0.136 C 
ATOM      2  O   UNL     1      10.112  75.524 -25.423  1.00  0.00    -0.299 OA
ENDROOT
BRANCH   1   3
ATOM      3  C   UNL     1      11.584  75.325 -27.259  1.00  0.00     0.053 C 
ATOM      4  C   UNL     1      11.380  73.806 -27.278  1.00  0.00     0.016 C 
BRANCH   3   5
ATOM      5  C   UNL     1      10.851  75.997 -28.436  1.00  0.00     0.015 C 
BRANCH   5   6
ATOM      6  C   UNL     1      11.716  77.070 -29.119  1.00  0.00     0.028 C 
BRANCH   6   7
ATOM      7  C   UNL     1      11.349  78.444 -28.624  1.00  0.00    -0.028 C 
ATOM      8  C   UNL     1      12.171  79.247 -27.907  1.00  0.00    -0.070 CG0
ATOM      9  C   UNL     1      11.626  80.568 -27.425  1.00  0.00     0.039 C 
ATOM     10  G   UNL     1      13.612  78.880 -27.585  1.00  0.00     0.000 G0
ENDBRANCH   6   7
ENDBRANCH   5   6
ENDBRANCH   3   5
ENDBRANCH   1   3
BRANCH   1  11
ATOM     11  C   UNL     1      11.957  76.975 -25.210  1.00  0.00     0.087 C 
BRANCH  11  12
ATOM     12  C   UNL     1      13.426  77.046 -25.711  1.00  0.00     0.066 C 
BRANCH  12  13
ATOM     13  C   UNL     1      13.799  78.457 -26.145  1.00  0.00     0.140 C 
ATOM     14  O   UNL     1      14.302  79.228 -25.341  1.00  0.00    -0.299 OA
BRANCH  13  15
ATOM     15  C   UNL     1      13.620  78.904 -27.575  1.00  0.00     0.106 CG0
ATOM     16  G   UNL     1      12.172  79.246 -27.895  1.00  0.00     0.000 G0
ENDBRANCH  13  15
ENDBRANCH  12  13
BRANCH  12  17
ATOM     17  C   UNL     1      14.424  76.465 -24.663  1.00  0.00    -0.006 C 
ATOM     18  C   UNL     1      13.951  76.732 -23.225  1.00  0.00     0.008 C 
ATOM     19  C   UNL     1      14.731  74.968 -24.850  1.00  0.00     0.008 C 
ENDBRANCH  12  17
ENDBRANCH  11  12
ENDBRANCH   1  11
TORSDOF 1
ENDMDL
MODEL 6
REMARK VINA RESULT:    -3.103      3.181      5.196
REMARK INTER + INTRA:          -4.782
REMARK INTER:                  -4.433
REMARK INTRA:                  -0.349
REMARK UNBOUND:                -0.046
REMARK SMILES CC1=CCC[C@H](C)C(=O)C[C@H](C(C)C)C(=O)C1
REMARK SMILES IDX 8 1 9 2 6 3 7 4 5 5 4 6 3 7 2 8 1 9 10 11 11 12 15 13 16 14
REMARK SMILES IDX 17 15 12 17 13 18 14 19
REMARK H PARENT
REMARK Flexibility Score: 70.00
ROOT
ATOM      1  C   UNL     1       0.935  76.327 -23.105  1.00  0.00     0.136 C 
ATOM      2  O   UNL     1       1.676  77.141 -22.575  1.00  0.00    -0.299 OA
ENDROOT
BRANCH   1   3
ATOM      3  C   UNL     1      -0.484  76.744 -23.442  1.00  0.00     0.053 C 
ATOM      4  C   UNL     1      -1.346  76.814 -22.177  1.00  0.00     0.016 C 
BRANCH   3   5
ATOM      5  C   UNL     1      -0.518  78.080 -24.209  1.00  0.00     0.015 C 
BRANCH   5   6
ATOM      6  C   UNL     1      -0.513  77.872 -25.733  1.00  0.00     0.028 C 
BRANCH   6   7
ATOM      7  C   UNL     1       0.829  78.231 -26.316  1.00  0.00    -0.028 C 
ATOM      8  C   UNL     1       1.686  77.344 -26.874  1.00  0.00    -0.070 CG0
ATOM      9  C   UNL     1       3.024  77.854 -27.348  1.00  0.00     0.039 C 
ATOM     10  G   UNL     1       1.350  75.871 -27.055  1.00  0.00     0.000 G0
ENDBRANCH   6   7
ENDBRANCH   5   6
ENDBRANCH   3   5
ENDBRANCH   1   3
BRANCH   1  11
ATOM     11  C   UNL     1       1.479  74.953 -23.429  1.00  0.00     0.087 C 
BRANCH  11  12
ATOM     12  C   UNL     1       1.030  74.456 -24.831  1.00  0.00     0.066 C 
BRANCH  12  13
ATOM     13  C   UNL     1       1.926  75.010 -25.931  1.00  0.00     0.140 C 
ATOM     14  O   UNL     1       3.116  74.729 -25.945  1.00  0.00    -0.299 OA
BRANCH  13  15
ATOM     15  C   UNL     1       1.358  75.849 -27.048  1.00  0.00     0.106 CG0
ATOM     16  G   UNL     1       1.680  77.327 -26.880  1.00  0.00     0.000 G0
ENDBRANCH  13  15
ENDBRANCH  12  13
BRANCH  12  17
ATOM     17  C   UNL     1       0.915  72.902 -24.886  1.00  0.00    -0.006 C 
ATOM     18  C   UNL     1       0.624  72.308 -23.498  1.00  0.00     0.008 C 
ATOM     19  C   UNL     1      -0.112  72.384 -25.909  1.00  0.00     0.008 C 
ENDBRANCH  12  17
ENDBRANCH  11  12
ENDBRANCH   1  11
TORSDOF 1
ENDMDL
MODEL 7
REMARK VINA RESULT:    -3.079      3.635      5.941
REMARK INTER + INTRA:          -4.745
REMARK INTER:                  -4.442
REMARK INTRA:                  -0.303
REMARK UNBOUND:                -0.046
REMARK SMILES CC1=CCC[C@H](C)C(=O)C[C@H](C(C)C)C(=O)C1
REMARK SMILES IDX 8 1 9 2 6 3 7 4 5 5 4 6 3 7 2 8 1 9 10 11 11 12 15 13 16 14
REMARK SMILES IDX 17 15 12 17 13 18 14 19
REMARK H PARENT
REMARK Flexibility Score: 70.00
ROOT
ATOM      1  C   UNL     1       1.474  74.973 -22.634  1.00  0.00     0.136 C 
ATOM      2  O   UNL     1       2.385  74.749 -21.850  1.00  0.00    -0.299 OA
ENDROOT
BRANCH   1   3
ATOM      3  C   UNL     1       0.047  74.729 -22.183  1.00  0.00     0.053 C 
ATOM      4  C   UNL     1      -0.048  73.451 -21.341  1.00  0.00     0.016 C 
BRANCH   3   5
ATOM      5  C   UNL     1      -0.523  75.939 -21.417  1.00  0.00     0.015 C 
BRANCH   5   6
ATOM      6  C   UNL     1      -1.387  76.838 -22.318  1.00  0.00     0.028 C 
BRANCH   6   7
ATOM      7  C   UNL     1      -0.652  78.105 -22.669  1.00  0.00    -0.028 C 
ATOM      8  C   UNL     1      -0.323  78.478 -23.928  1.00  0.00    -0.070 CG0
ATOM      9  C   UNL     1       0.477  79.744 -24.106  1.00  0.00     0.039 C 
ATOM     10  G   UNL     1      -0.739  77.688 -25.161  1.00  0.00     0.000 G0
ENDBRANCH   6   7
ENDBRANCH   5   6
ENDBRANCH   3   5
ENDBRANCH   1   3
BRANCH   1  11
ATOM     11  C   UNL     1       1.814  75.515 -24.005  1.00  0.00     0.087 C 
BRANCH  11  12
ATOM     12  C   UNL     1       0.616  75.420 -24.989  1.00  0.00     0.066 C 
BRANCH  12  13
ATOM     13  C   UNL     1       0.341  76.759 -25.662  1.00  0.00     0.140 C 
ATOM     14  O   UNL     1       0.972  77.079 -26.660  1.00  0.00    -0.299 OA
BRANCH  13  15
ATOM     15  C   UNL     1      -0.746  77.675 -25.158  1.00  0.00     0.106 CG0
ATOM     16  G   UNL     1      -0.307  78.474 -23.939  1.00  0.00     0.000 G0
ENDBRANCH  13  15
ENDBRANCH  12  13
BRANCH  12  17
ATOM     17  C   UNL     1       0.802  74.266 -26.021  1.00  0.00    -0.006 C 
ATOM     18  C   UNL     1       2.273  74.119 -26.443  1.00  0.00     0.008 C 
ATOM     19  C   UNL     1       0.249  72.908 -25.552  1.00  0.00     0.008 C 
ENDBRANCH  12  17
ENDBRANCH  11  12
ENDBRANCH   1  11
TORSDOF 1
ENDMDL
MODEL 8
REMARK VINA RESULT:    -3.059      7.104      9.572
REMARK INTER + INTRA:          -4.714
REMARK INTER:                  -4.232
REMARK INTRA:                  -0.482
REMARK UNBOUND:                -0.046
REMARK SMILES CC1=CCC[C@H](C)C(=O)C[C@H](C(C)C)C(=O)C1
REMARK SMILES IDX 8 1 9 2 6 3 7 4 5 5 4 6 3 7 2 8 1 9 10 11 11 12 15 13 16 14
REMARK SMILES IDX 17 15 12 17 13 18 14 19
REMARK H PARENT
REMARK Flexibility Score: 70.00
ROOT
ATOM      1  C   UNL     1       3.852  76.783 -18.632  1.00  0.00     0.136 C 
ATOM      2  O   UNL     1       4.976  77.157 -18.932  1.00  0.00    -0.299 OA
ENDROOT
BRANCH   1   3
ATOM      3  C   UNL     1       3.199  77.358 -17.390  1.00  0.00     0.053 C 
ATOM      4  C   UNL     1       3.942  76.908 -16.127  1.00  0.00     0.016 C 
BRANCH   3   5
ATOM      5  C   UNL     1       3.101  78.894 -17.457  1.00  0.00     0.015 C 
BRANCH   5   6
ATOM      6  C   UNL     1       1.742  79.363 -18.004  1.00  0.00     0.028 C 
BRANCH   6   7
ATOM      7  C   UNL     1       1.846  79.704 -19.468  1.00  0.00    -0.028 C 
ATOM      8  C   UNL     1       1.215  79.032 -20.459  1.00  0.00    -0.070 CG0
ATOM      9  C   UNL     1       1.480  79.456 -21.882  1.00  0.00     0.039 C 
ATOM     10  G   UNL     1       0.247  77.887 -20.197  1.00  0.00     0.000 G0
ENDBRANCH   6   7
ENDBRANCH   5   6
ENDBRANCH   3   5
ENDBRANCH   1   3
BRANCH   1  11
ATOM     11  C   UNL     1       3.153  75.789 -19.534  1.00  0.00     0.087 C 
BRANCH  11  12
ATOM     12  C   UNL     1       1.614  75.785 -19.327  1.00  0.00     0.066 C 
BRANCH  12  13
ATOM     13  C   UNL     1       0.900  76.528 -20.448  1.00  0.00     0.140 C 
ATOM     14  O   UNL     1       0.801  76.013 -21.553  1.00  0.00    -0.299 OA
BRANCH  13  15
ATOM     15  C   UNL     1       0.250  77.868 -20.203  1.00  0.00     0.106 CG0
ATOM     16  G   UNL     1       1.203  79.026 -20.461  1.00  0.00     0.000 G0
ENDBRANCH  13  15
ENDBRANCH  12  13
BRANCH  12  17
ATOM     17  C   UNL     1       1.059  74.341 -19.125  1.00  0.00    -0.006 C 
ATOM     18  C   UNL     1       1.919  73.540 -18.134  1.00  0.00     0.008 C 
ATOM     19  C   UNL     1      -0.420  74.290 -18.704  1.00  0.00     0.008 C 
ENDBRANCH  12  17
ENDBRANCH  11  12
ENDBRANCH   1  11
TORSDOF 1
ENDMDL
MODEL 9
REMARK VINA RESULT:    -2.958     11.006     13.033
REMARK INTER + INTRA:          -4.561
REMARK INTER:                  -4.185
REMARK INTRA:                  -0.376
REMARK UNBOUND:                -0.046
REMARK SMILES CC1=CCC[C@H](C)C(=O)C[C@H](C(C)C)C(=O)C1
REMARK SMILES IDX 8 1 9 2 6 3 7 4 5 5 4 6 3 7 2 8 1 9 10 11 11 12 15 13 16 14
REMARK SMILES IDX 17 15 12 17 13 18 14 19
REMARK H PARENT
REMARK Flexibility Score: 70.00
ROOT
ATOM      1  C   UNL     1      12.417  81.258 -19.363  1.00  0.00     0.136 C 
ATOM      2  O   UNL     1      13.506  81.371 -19.904  1.00  0.00    -0.299 OA
ENDROOT
BRANCH   1   3
ATOM      3  C   UNL     1      11.812  82.471 -18.681  1.00  0.00     0.053 C 
ATOM      4  C   UNL     1      12.610  82.846 -17.427  1.00  0.00     0.016 C 
BRANCH   3   5
ATOM      5  C   UNL     1      11.700  83.668 -19.645  1.00  0.00     0.015 C 
BRANCH   5   6
ATOM      6  C   UNL     1      10.853  83.335 -20.885  1.00  0.00     0.028 C 
BRANCH   6   7
ATOM      7  C   UNL     1       9.390  83.283 -20.532  1.00  0.00    -0.028 C 
ATOM      8  C   UNL     1       8.609  82.184 -20.654  1.00  0.00    -0.070 CG0
ATOM      9  C   UNL     1       7.144  82.316 -20.324  1.00  0.00     0.039 C 
ATOM     10  G   UNL     1       9.150  80.829 -21.089  1.00  0.00     0.000 G0
ENDBRANCH   6   7
ENDBRANCH   5   6
ENDBRANCH   3   5
ENDBRANCH   1   3
BRANCH   1  11
ATOM     11  C   UNL     1      11.710  79.922 -19.425  1.00  0.00     0.087 C 
BRANCH  11  12
ATOM     12  C   UNL     1      10.271  79.989 -18.845  1.00  0.00     0.066 C 
BRANCH  12  13
ATOM     13  C   UNL     1       9.221  79.840 -19.939  1.00  0.00     0.140 C 
ATOM     14  O   UNL     1       8.390  78.946 -19.866  1.00  0.00    -0.299 OA
BRANCH  13  15
ATOM     15  C   UNL     1       9.147  80.820 -21.083  1.00  0.00     0.106 CG0
ATOM     16  G   UNL     1       8.608  82.175 -20.647  1.00  0.00     0.000 G0
ENDBRANCH  13  15
ENDBRANCH  12  13
BRANCH  12  17
ATOM     17  C   UNL     1      10.066  78.967 -17.684  1.00  0.00    -0.006 C 
ATOM     18  C   UNL     1      11.406  78.545 -17.061  1.00  0.00     0.008 C 
ATOM     19  C   UNL     1       9.101  79.450 -16.586  1.00  0.00     0.008 C 
ENDBRANCH  12  17
ENDBRANCH  11  12
ENDBRANCH   1  11
TORSDOF 1
ENDMDL
