MODEL 1
REMARK VINA RESULT:    -5.301      0.000      0.000
REMARK INTER + INTRA:          -8.317
REMARK INTER:                  -7.160
REMARK INTRA:                  -1.157
REMARK UNBOUND:                -1.157
REMARK SMILES CC(=O)CCC=C(C)CCC=C(C)C
REMARK SMILES IDX 7 1 6 2 8 3 9 4 10 5 11 6 13 7 12 8 14 9 5 10 4 11 2 12 3 13
REMARK SMILES IDX 1 14
REMARK H PARENT
REMARK Flexibility Score: inf
ROOT
ATOM      1  C   UNL     1      -1.382 -23.570 -10.531  1.00  0.00    -0.077 C 
ATOM      2  C   UNL     1      -1.221 -24.410 -11.580  1.00  0.00    -0.028 C 
ATOM      3  C   UNL     1      -0.312 -22.583 -10.126  1.00  0.00     0.039 C 
ENDROOT
BRANCH   1   4
ATOM      4  C   UNL     1      -2.661 -23.641  -9.726  1.00  0.00     0.034 C 
BRANCH   4   5
ATOM      5  C   UNL     1      -3.856 -23.164 -10.559  1.00  0.00     0.032 C 
BRANCH   5   6
ATOM      6  C   UNL     1      -3.668 -21.733 -10.997  1.00  0.00    -0.028 C 
ATOM      7  C   UNL     1      -3.660 -22.316 -13.433  1.00  0.00     0.039 C 
ATOM      8  C   UNL     1      -3.546 -21.343 -12.287  1.00  0.00    -0.080 C 
ATOM      9  C   UNL     1      -3.331 -19.887 -12.612  1.00  0.00     0.039 C 
ENDBRANCH   5   6
ENDBRANCH   4   5
ENDBRANCH   1   4
BRANCH   2  10
ATOM     10  C   UNL     1      -0.023 -24.411 -12.500  1.00  0.00     0.035 C 
BRANCH  10  11
ATOM     11  C   UNL     1       0.830 -25.675 -12.322  1.00  0.00     0.079 C 
BRANCH  11  12
ATOM     12  C   UNL     1       1.784 -25.548 -11.164  1.00  0.00     0.130 C 
ATOM     13  O   UNL     1       2.779 -24.848 -11.271  1.00  0.00    -0.300 OA
ATOM     14  C   UNL     1       1.533 -26.296  -9.889  1.00  0.00     0.087 C 
ENDBRANCH  11  12
ENDBRANCH  10  11
ENDBRANCH   2  10
TORSDOF 6
ENDMDL
MODEL 2
REMARK VINA RESULT:    -5.248      2.553      6.326
REMARK INTER + INTRA:          -8.245
REMARK INTER:                  -7.406
REMARK INTRA:                  -0.840
REMARK UNBOUND:                -1.157
REMARK SMILES CC(=O)CCC=C(C)CCC=C(C)C
REMARK SMILES IDX 7 1 6 2 8 3 9 4 10 5 11 6 13 7 12 8 14 9 5 10 4 11 2 12 3 13
REMARK SMILES IDX 1 14
REMARK H PARENT
REMARK Flexibility Score: inf
ROOT
ATOM      1  C   UNL     1       0.508 -24.256 -10.900  1.00  0.00    -0.077 C 
ATOM      2  C   UNL     1      -0.201 -23.198 -10.443  1.00  0.00    -0.028 C 
ATOM      3  C   UNL     1       0.327 -24.794 -12.301  1.00  0.00     0.039 C 
ENDROOT
BRANCH   1   4
ATOM      4  C   UNL     1       1.492 -24.934  -9.973  1.00  0.00     0.034 C 
BRANCH   4   5
ATOM      5  C   UNL     1       1.152 -26.420  -9.808  1.00  0.00     0.032 C 
BRANCH   5   6
ATOM      6  C   UNL     1       2.303 -27.287 -10.252  1.00  0.00    -0.028 C 
ATOM      7  C   UNL     1       0.927 -28.519 -11.945  1.00  0.00     0.039 C 
ATOM      8  C   UNL     1       2.207 -28.257 -11.190  1.00  0.00    -0.080 C 
ATOM      9  C   UNL     1       3.417 -29.085 -11.538  1.00  0.00     0.039 C 
ENDBRANCH   5   6
ENDBRANCH   4   5
ENDBRANCH   1   4
BRANCH   2  10
ATOM     10  C   UNL     1      -1.174 -22.395 -11.274  1.00  0.00     0.035 C 
BRANCH  10  11
ATOM     11  C   UNL     1      -2.486 -22.136 -10.522  1.00  0.00     0.079 C 
BRANCH  11  12
ATOM     12  C   UNL     1      -3.297 -23.395 -10.360  1.00  0.00     0.130 C 
ATOM     13  O   UNL     1      -3.821 -23.645  -9.285  1.00  0.00    -0.300 OA
ATOM     14  C   UNL     1      -3.444 -24.355 -11.501  1.00  0.00     0.087 C 
ENDBRANCH  11  12
ENDBRANCH  10  11
ENDBRANCH   2  10
TORSDOF 6
ENDMDL
MODEL 3
REMARK VINA RESULT:    -5.227      1.498      1.725
REMARK INTER + INTRA:          -8.218
REMARK INTER:                  -7.139
REMARK INTRA:                  -1.079
REMARK UNBOUND:                -1.157
REMARK SMILES CC(=O)CCC=C(C)CCC=C(C)C
REMARK SMILES IDX 7 1 6 2 8 3 9 4 10 5 11 6 13 7 12 8 14 9 5 10 4 11 2 12 3 13
REMARK SMILES IDX 1 14
REMARK H PARENT
REMARK Flexibility Score: inf
ROOT
ATOM      1  C   UNL     1      -1.552 -24.300 -10.664  1.00  0.00    -0.077 C 
ATOM      2  C   UNL     1      -0.756 -24.378 -11.756  1.00  0.00    -0.028 C 
ATOM      3  C   UNL     1      -0.990 -24.352  -9.263  1.00  0.00     0.039 C 
ENDROOT
BRANCH   1   4
ATOM      4  C   UNL     1      -3.048 -24.184 -10.854  1.00  0.00     0.034 C 
BRANCH   4   5
ATOM      5  C   UNL     1      -3.561 -22.838 -10.331  1.00  0.00     0.032 C 
BRANCH   5   6
ATOM      6  C   UNL     1      -3.666 -21.832 -11.450  1.00  0.00    -0.028 C 
ATOM      7  C   UNL     1      -1.463 -20.769 -10.913  1.00  0.00     0.039 C 
ATOM      8  C   UNL     1      -2.744 -20.875 -11.702  1.00  0.00    -0.080 C 
ATOM      9  C   UNL     1      -2.965 -19.901 -12.831  1.00  0.00     0.039 C 
ENDBRANCH   5   6
ENDBRANCH   4   5
ENDBRANCH   1   4
BRANCH   2  10
ATOM     10  C   UNL     1       0.752 -24.441 -11.716  1.00  0.00     0.035 C 
BRANCH  10  11
ATOM     11  C   UNL     1       1.295 -25.617 -12.540  1.00  0.00     0.079 C 
BRANCH  11  12
ATOM     12  C   UNL     1       1.202 -26.918 -11.788  1.00  0.00     0.130 C 
ATOM     13  O   UNL     1       0.784 -27.917 -12.353  1.00  0.00    -0.300 OA
ATOM     14  C   UNL     1       1.597 -26.989 -10.344  1.00  0.00     0.087 C 
ENDBRANCH  11  12
ENDBRANCH  10  11
ENDBRANCH   2  10
TORSDOF 6
ENDMDL
MODEL 4
REMARK VINA RESULT:    -5.206      2.370      5.637
REMARK INTER + INTRA:          -8.188
REMARK INTER:                  -7.217
REMARK INTRA:                  -0.971
REMARK UNBOUND:                -1.157
REMARK SMILES CC(=O)CCC=C(C)CCC=C(C)C
REMARK SMILES IDX 7 1 6 2 8 3 9 4 10 5 11 6 13 7 12 8 14 9 5 10 4 11 2 12 3 13
REMARK SMILES IDX 1 14
REMARK H PARENT
REMARK Flexibility Score: inf
ROOT
ATOM      1  C   UNL     1      -0.977 -23.976  -9.868  1.00  0.00    -0.077 C 
ATOM      2  C   UNL     1      -0.375 -23.171 -10.774  1.00  0.00    -0.028 C 
ATOM      3  C   UNL     1      -2.454 -23.875  -9.567  1.00  0.00     0.039 C 
ENDROOT
BRANCH   1   4
ATOM      4  C   UNL     1      -0.140 -24.988  -9.117  1.00  0.00     0.034 C 
BRANCH   4   5
ATOM      5  C   UNL     1       1.199 -25.222  -9.826  1.00  0.00     0.032 C 
BRANCH   5   6
ATOM      6  C   UNL     1       1.243 -26.595 -10.448  1.00  0.00    -0.028 C 
ATOM      7  C   UNL     1       1.011 -25.717 -12.783  1.00  0.00     0.039 C 
ATOM      8  C   UNL     1       1.127 -26.834 -11.775  1.00  0.00    -0.080 C 
ATOM      9  C   UNL     1       1.157 -28.251 -12.287  1.00  0.00     0.039 C 
ENDBRANCH   5   6
ENDBRANCH   4   5
ENDBRANCH   1   4
BRANCH   2  10
ATOM     10  C   UNL     1      -1.095 -22.158 -11.632  1.00  0.00     0.035 C 
BRANCH  10  11
ATOM     11  C   UNL     1      -1.548 -22.762 -12.968  1.00  0.00     0.079 C 
BRANCH  11  12
ATOM     12  C   UNL     1      -2.749 -22.045 -13.528  1.00  0.00     0.130 C 
ATOM     13  O   UNL     1      -2.872 -21.922 -14.737  1.00  0.00    -0.300 OA
ATOM     14  C   UNL     1      -3.779 -21.461 -12.611  1.00  0.00     0.087 C 
ENDBRANCH  11  12
ENDBRANCH  10  11
ENDBRANCH   2  10
TORSDOF 6
ENDMDL
MODEL 5
REMARK VINA RESULT:    -5.185      1.429      1.950
REMARK INTER + INTRA:          -8.160
REMARK INTER:                  -7.486
REMARK INTRA:                  -0.674
REMARK UNBOUND:                -1.157
REMARK SMILES CC(=O)CCC=C(C)CCC=C(C)C
REMARK SMILES IDX 7 1 6 2 8 3 9 4 10 5 11 6 13 7 12 8 14 9 5 10 4 11 2 12 3 13
REMARK SMILES IDX 1 14
REMARK H PARENT
REMARK Flexibility Score: inf
ROOT
ATOM      1  C   UNL     1      -1.550 -22.934  -9.801  1.00  0.00    -0.077 C 
ATOM      2  C   UNL     1      -0.958 -24.150  -9.821  1.00  0.00    -0.028 C 
ATOM      3  C   UNL     1      -0.777 -21.665 -10.077  1.00  0.00     0.039 C 
ENDROOT
BRANCH   1   4
ATOM      4  C   UNL     1      -3.023 -22.841  -9.469  1.00  0.00     0.034 C 
BRANCH   4   5
ATOM      5  C   UNL     1      -3.751 -21.936 -10.469  1.00  0.00     0.032 C 
BRANCH   5   6
ATOM      6  C   UNL     1      -3.546 -22.423 -11.881  1.00  0.00    -0.028 C 
ATOM      7  C   UNL     1      -2.956 -20.147 -12.747  1.00  0.00     0.039 C 
ATOM      8  C   UNL     1      -3.219 -21.622 -12.922  1.00  0.00    -0.080 C 
ATOM      9  C   UNL     1      -3.065 -22.211 -14.301  1.00  0.00     0.039 C 
ENDBRANCH   5   6
ENDBRANCH   4   5
ENDBRANCH   1   4
BRANCH   2  10
ATOM     10  C   UNL     1       0.486 -24.395 -10.189  1.00  0.00     0.035 C 
BRANCH  10  11
ATOM     11  C   UNL     1       1.072 -25.594  -9.431  1.00  0.00     0.079 C 
BRANCH  11  12
ATOM     12  C   UNL     1       1.535 -26.678 -10.368  1.00  0.00     0.130 C 
ATOM     13  O   UNL     1       2.185 -27.617  -9.937  1.00  0.00    -0.300 OA
ATOM     14  C   UNL     1       1.225 -26.597 -11.833  1.00  0.00     0.087 C 
ENDBRANCH  11  12
ENDBRANCH  10  11
ENDBRANCH   2  10
TORSDOF 6
ENDMDL
MODEL 6
REMARK VINA RESULT:    -5.181      1.730      2.426
REMARK INTER + INTRA:          -8.155
REMARK INTER:                  -7.319
REMARK INTRA:                  -0.836
REMARK UNBOUND:                -1.157
REMARK SMILES CC(=O)CCC=C(C)CCC=C(C)C
REMARK SMILES IDX 7 1 6 2 8 3 9 4 10 5 11 6 13 7 12 8 14 9 5 10 4 11 2 12 3 13
REMARK SMILES IDX 1 14
REMARK H PARENT
REMARK Flexibility Score: inf
ROOT
ATOM      1  C   UNL     1      -0.565 -24.387 -10.273  1.00  0.00    -0.077 C 
ATOM      2  C   UNL     1       0.412 -25.056  -9.619  1.00  0.00    -0.028 C 
ATOM      3  C   UNL     1      -0.433 -24.002 -11.728  1.00  0.00     0.039 C 
ENDROOT
BRANCH   1   4
ATOM      4  C   UNL     1      -1.815 -23.991  -9.517  1.00  0.00     0.034 C 
BRANCH   4   5
ATOM      5  C   UNL     1      -2.021 -22.473  -9.561  1.00  0.00     0.032 C 
BRANCH   5   6
ATOM      6  C   UNL     1      -3.205 -22.117 -10.424  1.00  0.00    -0.028 C 
ATOM      7  C   UNL     1      -1.882 -20.558 -11.871  1.00  0.00     0.039 C 
ATOM      8  C   UNL     1      -3.163 -21.232 -11.447  1.00  0.00    -0.080 C 
ATOM      9  C   UNL     1      -4.416 -20.929 -12.227  1.00  0.00     0.039 C 
ENDBRANCH   5   6
ENDBRANCH   4   5
ENDBRANCH   1   4
BRANCH   2  10
ATOM     10  C   UNL     1       1.684 -25.559 -10.260  1.00  0.00     0.035 C 
BRANCH  10  11
ATOM     11  C   UNL     1       1.816 -27.083 -10.143  1.00  0.00     0.079 C 
BRANCH  11  12
ATOM     12  C   UNL     1       1.326 -27.785 -11.383  1.00  0.00     0.130 C 
ATOM     13  O   UNL     1       0.874 -28.916 -11.301  1.00  0.00    -0.300 OA
ATOM     14  C   UNL     1       1.411 -27.112 -12.719  1.00  0.00     0.087 C 
ENDBRANCH  11  12
ENDBRANCH  10  11
ENDBRANCH   2  10
TORSDOF 6
ENDMDL
MODEL 7
REMARK VINA RESULT:    -5.154      2.464      6.026
REMARK INTER + INTRA:          -8.119
REMARK INTER:                  -7.122
REMARK INTRA:                  -0.997
REMARK UNBOUND:                -1.157
REMARK SMILES CC(=O)CCC=C(C)CCC=C(C)C
REMARK SMILES IDX 7 1 6 2 8 3 9 4 10 5 11 6 13 7 12 8 14 9 5 10 4 11 2 12 3 13
REMARK SMILES IDX 1 14
REMARK H PARENT
REMARK Flexibility Score: inf
ROOT
ATOM      1  C   UNL     1      -0.533 -24.018 -10.948  1.00  0.00    -0.077 C 
ATOM      2  C   UNL     1      -1.677 -24.015 -10.225  1.00  0.00    -0.028 C 
ATOM      3  C   UNL     1      -0.540 -23.881 -12.453  1.00  0.00     0.039 C 
ENDROOT
BRANCH   1   4
ATOM      4  C   UNL     1       0.787 -24.189 -10.230  1.00  0.00     0.034 C 
BRANCH   4   5
ATOM      5  C   UNL     1       1.755 -25.037 -11.063  1.00  0.00     0.032 C 
BRANCH   5   6
ATOM      6  C   UNL     1       1.447 -26.505 -10.914  1.00  0.00    -0.028 C 
ATOM      7  C   UNL     1       1.408 -26.908 -13.386  1.00  0.00     0.039 C 
ATOM      8  C   UNL     1       1.256 -27.352 -11.952  1.00  0.00    -0.080 C 
ATOM      9  C   UNL     1       0.924 -28.798 -11.688  1.00  0.00     0.039 C 
ENDBRANCH   5   6
ENDBRANCH   4   5
ENDBRANCH   1   4
BRANCH   2  10
ATOM     10  C   UNL     1      -3.056 -23.800 -10.803  1.00  0.00     0.035 C 
BRANCH  10  11
ATOM     11  C   UNL     1      -3.533 -22.353 -10.615  1.00  0.00     0.079 C 
BRANCH  11  12
ATOM     12  C   UNL     1      -3.276 -21.515 -11.839  1.00  0.00     0.130 C 
ATOM     13  O   UNL     1      -3.951 -21.684 -12.843  1.00  0.00    -0.300 OA
ATOM     14  C   UNL     1      -2.181 -20.491 -11.841  1.00  0.00     0.087 C 
ENDBRANCH  11  12
ENDBRANCH  10  11
ENDBRANCH   2  10
TORSDOF 6
ENDMDL
MODEL 8
REMARK VINA RESULT:    -5.017      3.019      4.271
REMARK INTER + INTRA:          -7.933
REMARK INTER:                  -7.383
REMARK INTRA:                  -0.550
REMARK UNBOUND:                -1.157
REMARK SMILES CC(=O)CCC=C(C)CCC=C(C)C
REMARK SMILES IDX 7 1 6 2 8 3 9 4 10 5 11 6 13 7 12 8 14 9 5 10 4 11 2 12 3 13
REMARK SMILES IDX 1 14
REMARK H PARENT
REMARK Flexibility Score: inf
ROOT
ATOM      1  C   UNL     1      -3.431 -21.185 -11.454  1.00  0.00    -0.077 C 
ATOM      2  C   UNL     1      -3.751 -21.924 -10.367  1.00  0.00    -0.028 C 
ATOM      3  C   UNL     1      -1.998 -20.850 -11.797  1.00  0.00     0.039 C 
ENDROOT
BRANCH   1   4
ATOM      4  C   UNL     1      -4.542 -20.660 -12.336  1.00  0.00     0.034 C 
BRANCH   4   5
ATOM      5  C   UNL     1      -5.755 -20.245 -11.495  1.00  0.00     0.032 C 
BRANCH   5   6
ATOM      6  C   UNL     1      -6.521 -19.135 -12.170  1.00  0.00    -0.028 C 
ATOM      7  C   UNL     1      -8.513 -19.387 -10.672  1.00  0.00     0.039 C 
ATOM      8  C   UNL     1      -7.776 -18.761 -11.830  1.00  0.00    -0.080 C 
ATOM      9  C   UNL     1      -8.461 -17.655 -12.592  1.00  0.00     0.039 C 
ENDBRANCH   5   6
ENDBRANCH   4   5
ENDBRANCH   1   4
BRANCH   2  10
ATOM     10  C   UNL     1      -2.745 -22.556  -9.433  1.00  0.00     0.035 C 
BRANCH  10  11
ATOM     11  C   UNL     1      -2.363 -23.972  -9.883  1.00  0.00     0.079 C 
BRANCH  11  12
ATOM     12  C   UNL     1      -0.906 -24.264  -9.635  1.00  0.00     0.130 C 
ATOM     13  O   UNL     1      -0.578 -24.946  -8.677  1.00  0.00    -0.300 OA
ATOM     14  C   UNL     1       0.145 -23.702 -10.544  1.00  0.00     0.087 C 
ENDBRANCH  11  12
ENDBRANCH  10  11
ENDBRANCH   2  10
TORSDOF 6
ENDMDL
MODEL 9
REMARK VINA RESULT:    -4.851      1.627      2.055
REMARK INTER + INTRA:          -7.710
REMARK INTER:                  -6.780
REMARK INTRA:                  -0.929
REMARK UNBOUND:                -1.157
REMARK SMILES CC(=O)CCC=C(C)CCC=C(C)C
REMARK SMILES IDX 7 1 6 2 8 3 9 4 10 5 11 6 13 7 12 8 14 9 5 10 4 11 2 12 3 13
REMARK SMILES IDX 1 14
REMARK H PARENT
REMARK Flexibility Score: inf
ROOT
ATOM      1  C   UNL     1       0.487 -24.387 -10.780  1.00  0.00    -0.077 C 
ATOM      2  C   UNL     1       0.395 -24.768 -12.076  1.00  0.00    -0.028 C 
ATOM      3  C   UNL     1       1.693 -24.722  -9.934  1.00  0.00     0.039 C 
ENDROOT
BRANCH   1   4
ATOM      4  C   UNL     1      -0.663 -23.627 -10.156  1.00  0.00     0.034 C 
BRANCH   4   5
ATOM      5  C   UNL     1      -1.998 -24.048 -10.781  1.00  0.00     0.032 C 
BRANCH   5   6
ATOM      6  C   UNL     1      -2.907 -22.858 -10.956  1.00  0.00    -0.028 C 
ATOM      7  C   UNL     1      -2.288 -22.541 -13.363  1.00  0.00     0.039 C 
ATOM      8  C   UNL     1      -3.023 -22.151 -12.104  1.00  0.00    -0.080 C 
ATOM      9  C   UNL     1      -3.942 -20.958 -12.160  1.00  0.00     0.039 C 
ENDBRANCH   5   6
ENDBRANCH   4   5
ENDBRANCH   1   4
BRANCH   2  10
ATOM     10  C   UNL     1       1.485 -25.482 -12.839  1.00  0.00     0.035 C 
BRANCH  10  11
ATOM     11  C   UNL     1       1.172 -26.975 -13.015  1.00  0.00     0.079 C 
BRANCH  11  12
ATOM     12  C   UNL     1       1.844 -27.816 -11.962  1.00  0.00     0.130 C 
ATOM     13  O   UNL     1       3.033 -27.663 -11.730  1.00  0.00    -0.300 OA
ATOM     14  C   UNL     1       1.066 -28.855 -11.212  1.00  0.00     0.087 C 
ENDBRANCH  11  12
ENDBRANCH  10  11
ENDBRANCH   2  10
TORSDOF 6
ENDMDL
