MODEL 1
REMARK VINA RESULT:    -4.281      0.000      0.000
REMARK INTER + INTRA:          -5.882
REMARK INTER:                  -5.533
REMARK INTRA:                  -0.349
REMARK UNBOUND:                -0.349
REMARK SMILES CCCCCCC(=O)[O-]
REMARK SMILES IDX 5 1 6 2 7 3 8 4 9 5 4 6 3 7 2 8 1 9
REMARK H PARENT
REMARK Flexibility Score: inf
ROOT
ATOM      1  C   UNL     1      11.713 -19.776 -28.056  1.00  0.00     0.006 C 
ENDROOT
BRANCH   1   2
ATOM      2  C   UNL     1      11.481 -18.291 -28.354  1.00  0.00     0.053 C 
BRANCH   2   3
ATOM      3  C   UNL     1      10.028 -17.955 -28.240  1.00  0.00     0.041 C 
ATOM      4  O   UNL     1       9.548 -17.582 -27.138  1.00  0.00    -0.550 OA
ATOM      5  O   UNL     1       9.193 -18.101 -29.341  1.00  0.00    -0.550 OA
ENDBRANCH   2   3
ENDBRANCH   1   2
BRANCH   1   6
ATOM      6  C   UNL     1      12.152 -19.982 -26.601  1.00  0.00     0.000 C 
BRANCH   6   7
ATOM      7  C   UNL     1      13.045 -18.825 -26.127  1.00  0.00    -0.000 C 
BRANCH   7   8
ATOM      8  C   UNL     1      12.876 -18.524 -24.630  1.00  0.00    -0.003 C 
ATOM      9  C   UNL     1      11.536 -17.862 -24.308  1.00  0.00     0.004 C 
ENDBRANCH   7   8
ENDBRANCH   6   7
ENDBRANCH   1   6
TORSDOF 5
ENDMDL
MODEL 2
REMARK VINA RESULT:    -4.264      1.549      2.352
REMARK INTER + INTRA:          -5.859
REMARK INTER:                  -5.679
REMARK INTRA:                  -0.180
REMARK UNBOUND:                -0.349
REMARK SMILES CCCCCCC(=O)[O-]
REMARK SMILES IDX 5 1 6 2 7 3 8 4 9 5 4 6 3 7 2 8 1 9
REMARK H PARENT
REMARK Flexibility Score: inf
ROOT
ATOM      1  C   UNL     1       9.474 -17.373 -27.032  1.00  0.00     0.006 C 
ENDROOT
BRANCH   1   2
ATOM      2  C   UNL     1       9.614 -17.864 -28.477  1.00  0.00     0.053 C 
BRANCH   2   3
ATOM      3  C   UNL     1       8.613 -17.187 -29.359  1.00  0.00     0.041 C 
ATOM      4  O   UNL     1       8.476 -17.550 -30.556  1.00  0.00    -0.550 OA
ATOM      5  O   UNL     1       7.865 -16.122 -28.872  1.00  0.00    -0.550 OA
ENDBRANCH   2   3
ENDBRANCH   1   2
BRANCH   1   6
ATOM      6  C   UNL     1      10.389 -18.168 -26.091  1.00  0.00     0.000 C 
BRANCH   6   7
ATOM      7  C   UNL     1      11.698 -18.557 -26.796  1.00  0.00    -0.000 C 
BRANCH   7   8
ATOM      8  C   UNL     1      12.842 -18.828 -25.808  1.00  0.00    -0.003 C 
ATOM      9  C   UNL     1      12.543 -18.313 -24.401  1.00  0.00     0.004 C 
ENDBRANCH   7   8
ENDBRANCH   6   7
ENDBRANCH   1   6
TORSDOF 5
ENDMDL
MODEL 3
REMARK VINA RESULT:    -4.239      1.525      2.573
REMARK INTER + INTRA:          -5.827
REMARK INTER:                  -5.657
REMARK INTRA:                  -0.170
REMARK UNBOUND:                -0.349
REMARK SMILES CCCCCCC(=O)[O-]
REMARK SMILES IDX 5 1 6 2 7 3 8 4 9 5 4 6 3 7 2 8 1 9
REMARK H PARENT
REMARK Flexibility Score: inf
ROOT
ATOM      1  C   UNL     1      11.955 -18.167 -27.683  1.00  0.00     0.006 C 
ENDROOT
BRANCH   1   2
ATOM      2  C   UNL     1      10.449 -18.051 -27.424  1.00  0.00     0.053 C 
BRANCH   2   3
ATOM      3  C   UNL     1       9.707 -17.893 -28.713  1.00  0.00     0.041 C 
ATOM      4  O   UNL     1       8.496 -18.230 -28.792  1.00  0.00    -0.550 OA
ATOM      5  O   UNL     1      10.365 -17.422 -29.842  1.00  0.00    -0.550 OA
ENDBRANCH   2   3
ENDBRANCH   1   2
BRANCH   1   6
ATOM      6  C   UNL     1      12.648 -18.945 -26.558  1.00  0.00     0.000 C 
BRANCH   6   7
ATOM      7  C   UNL     1      11.870 -20.225 -26.215  1.00  0.00    -0.000 C 
BRANCH   7   8
ATOM      8  C   UNL     1      12.290 -21.422 -27.082  1.00  0.00    -0.003 C 
ATOM      9  C   UNL     1      11.990 -22.766 -26.420  1.00  0.00     0.004 C 
ENDBRANCH   7   8
ENDBRANCH   6   7
ENDBRANCH   1   6
TORSDOF 5
ENDMDL
MODEL 4
REMARK VINA RESULT:    -4.227      0.881      1.626
REMARK INTER + INTRA:          -5.812
REMARK INTER:                  -5.587
REMARK INTRA:                  -0.225
REMARK UNBOUND:                -0.349
REMARK SMILES CCCCCCC(=O)[O-]
REMARK SMILES IDX 5 1 6 2 7 3 8 4 9 5 4 6 3 7 2 8 1 9
REMARK H PARENT
REMARK Flexibility Score: inf
ROOT
ATOM      1  C   UNL     1      11.412 -18.272 -28.323  1.00  0.00     0.006 C 
ENDROOT
BRANCH   1   2
ATOM      2  C   UNL     1      10.171 -17.789 -27.565  1.00  0.00     0.053 C 
BRANCH   2   3
ATOM      3  C   UNL     1       8.964 -17.845 -28.448  1.00  0.00     0.041 C 
ATOM      4  O   UNL     1       9.091 -17.786 -29.699  1.00  0.00    -0.550 OA
ATOM      5  O   UNL     1       7.695 -17.910 -27.886  1.00  0.00    -0.550 OA
ENDBRANCH   2   3
ENDBRANCH   1   2
BRANCH   1   6
ATOM      6  C   UNL     1      11.861 -19.650 -27.821  1.00  0.00     0.000 C 
BRANCH   6   7
ATOM      7  C   UNL     1      11.835 -19.710 -26.285  1.00  0.00    -0.000 C 
BRANCH   7   8
ATOM      8  C   UNL     1      12.966 -18.893 -25.643  1.00  0.00    -0.003 C 
ATOM      9  C   UNL     1      12.576 -18.305 -24.288  1.00  0.00     0.004 C 
ENDBRANCH   7   8
ENDBRANCH   6   7
ENDBRANCH   1   6
TORSDOF 5
ENDMDL
MODEL 5
REMARK VINA RESULT:    -4.187      1.832      3.215
REMARK INTER + INTRA:          -5.760
REMARK INTER:                  -5.594
REMARK INTRA:                  -0.166
REMARK UNBOUND:                -0.349
REMARK SMILES CCCCCCC(=O)[O-]
REMARK SMILES IDX 5 1 6 2 7 3 8 4 9 5 4 6 3 7 2 8 1 9
REMARK H PARENT
REMARK Flexibility Score: inf
ROOT
ATOM      1  C   UNL     1      12.619 -19.038 -26.625  1.00  0.00     0.006 C 
ENDROOT
BRANCH   1   2
ATOM      2  C   UNL     1      12.132 -18.448 -27.952  1.00  0.00     0.053 C 
BRANCH   2   3
ATOM      3  C   UNL     1      10.669 -18.145 -27.884  1.00  0.00     0.041 C 
ATOM      4  O   UNL     1       9.895 -18.552 -28.790  1.00  0.00    -0.550 OA
ATOM      5  O   UNL     1      10.166 -17.370 -26.846  1.00  0.00    -0.550 OA
ENDBRANCH   2   3
ENDBRANCH   1   2
BRANCH   1   6
ATOM      6  C   UNL     1      11.914 -20.367 -26.323  1.00  0.00     0.000 C 
BRANCH   6   7
ATOM      7  C   UNL     1      12.644 -21.541 -26.993  1.00  0.00    -0.000 C 
BRANCH   7   8
ATOM      8  C   UNL     1      12.132 -22.907 -26.509  1.00  0.00    -0.003 C 
ATOM      9  C   UNL     1      11.439 -23.704 -27.614  1.00  0.00     0.004 C 
ENDBRANCH   7   8
ENDBRANCH   6   7
ENDBRANCH   1   6
TORSDOF 5
ENDMDL
MODEL 6
REMARK VINA RESULT:    -4.178      2.715      4.356
REMARK INTER + INTRA:          -5.748
REMARK INTER:                  -5.567
REMARK INTRA:                  -0.182
REMARK UNBOUND:                -0.349
REMARK SMILES CCCCCCC(=O)[O-]
REMARK SMILES IDX 5 1 6 2 7 3 8 4 9 5 4 6 3 7 2 8 1 9
REMARK H PARENT
REMARK Flexibility Score: inf
ROOT
ATOM      1  C   UNL     1      12.061 -19.959 -27.226  1.00  0.00     0.006 C 
ENDROOT
BRANCH   1   2
ATOM      2  C   UNL     1      12.907 -19.014 -26.367  1.00  0.00     0.053 C 
BRANCH   2   3
ATOM      3  C   UNL     1      12.114 -18.515 -25.200  1.00  0.00     0.041 C 
ATOM      4  O   UNL     1      10.856 -18.494 -25.252  1.00  0.00    -0.550 OA
ATOM      5  O   UNL     1      12.765 -18.027 -24.074  1.00  0.00    -0.550 OA
ENDBRANCH   2   3
ENDBRANCH   1   2
BRANCH   1   6
ATOM      6  C   UNL     1      12.677 -21.362 -27.269  1.00  0.00     0.000 C 
BRANCH   6   7
ATOM      7  C   UNL     1      11.907 -22.329 -26.356  1.00  0.00    -0.000 C 
BRANCH   7   8
ATOM      8  C   UNL     1      11.330 -23.530 -27.120  1.00  0.00    -0.003 C 
ATOM      9  C   UNL     1      12.135 -23.878 -28.371  1.00  0.00     0.004 C 
ENDBRANCH   7   8
ENDBRANCH   6   7
ENDBRANCH   1   6
TORSDOF 5
ENDMDL
MODEL 7
REMARK VINA RESULT:    -4.152      3.633      4.251
REMARK INTER + INTRA:          -5.715
REMARK INTER:                  -5.588
REMARK INTRA:                  -0.127
REMARK UNBOUND:                -0.349
REMARK SMILES CCCCCCC(=O)[O-]
REMARK SMILES IDX 5 1 6 2 7 3 8 4 9 5 4 6 3 7 2 8 1 9
REMARK H PARENT
REMARK Flexibility Score: inf
ROOT
ATOM      1  C   UNL     1      12.827 -21.773 -27.259  1.00  0.00     0.006 C 
ENDROOT
BRANCH   1   2
ATOM      2  C   UNL     1      11.994 -22.929 -26.696  1.00  0.00     0.053 C 
BRANCH   2   3
ATOM      3  C   UNL     1      11.451 -23.772 -27.807  1.00  0.00     0.041 C 
ATOM      4  O   UNL     1      10.216 -23.776 -28.054  1.00  0.00    -0.550 OA
ATOM      5  O   UNL     1      12.302 -24.592 -28.537  1.00  0.00    -0.550 OA
ENDBRANCH   2   3
ENDBRANCH   1   2
BRANCH   1   6
ATOM      6  C   UNL     1      12.068 -20.445 -27.150  1.00  0.00     0.000 C 
BRANCH   6   7
ATOM      7  C   UNL     1      12.903 -19.394 -26.401  1.00  0.00    -0.000 C 
BRANCH   7   8
ATOM      8  C   UNL     1      12.071 -18.591 -25.390  1.00  0.00    -0.003 C 
ATOM      9  C   UNL     1      12.839 -18.278 -24.107  1.00  0.00     0.004 C 
ENDBRANCH   7   8
ENDBRANCH   6   7
ENDBRANCH   1   6
TORSDOF 5
ENDMDL
MODEL 8
REMARK VINA RESULT:    -3.859      2.245      3.270
REMARK INTER + INTRA:          -5.336
REMARK INTER:                  -5.015
REMARK INTRA:                  -0.322
REMARK UNBOUND:                -0.349
REMARK SMILES CCCCCCC(=O)[O-]
REMARK SMILES IDX 5 1 6 2 7 3 8 4 9 5 4 6 3 7 2 8 1 9
REMARK H PARENT
REMARK Flexibility Score: inf
ROOT
ATOM      1  C   UNL     1      12.796 -19.236 -26.685  1.00  0.00     0.006 C 
ENDROOT
BRANCH   1   2
ATOM      2  C   UNL     1      12.390 -20.684 -26.974  1.00  0.00     0.053 C 
BRANCH   2   3
ATOM      3  C   UNL     1      12.063 -20.857 -28.424  1.00  0.00     0.041 C 
ATOM      4  O   UNL     1      11.283 -20.052 -28.997  1.00  0.00    -0.550 OA
ATOM      5  O   UNL     1      12.579 -21.937 -29.130  1.00  0.00    -0.550 OA
ENDBRANCH   2   3
ENDBRANCH   1   2
BRANCH   1   6
ATOM      6  C   UNL     1      12.313 -18.796 -25.297  1.00  0.00     0.000 C 
BRANCH   6   7
ATOM      7  C   UNL     1      10.836 -18.373 -25.338  1.00  0.00    -0.000 C 
BRANCH   7   8
ATOM      8  C   UNL     1      10.486 -17.574 -26.602  1.00  0.00    -0.003 C 
ATOM      9  C   UNL     1       9.029 -17.749 -27.028  1.00  0.00     0.004 C 
ENDBRANCH   7   8
ENDBRANCH   6   7
ENDBRANCH   1   6
TORSDOF 5
ENDMDL
MODEL 9
REMARK VINA RESULT:    -3.696      3.307      4.061
REMARK INTER + INTRA:          -5.125
REMARK INTER:                  -4.979
REMARK INTRA:                  -0.146
REMARK UNBOUND:                -0.349
REMARK SMILES CCCCCCC(=O)[O-]
REMARK SMILES IDX 5 1 6 2 7 3 8 4 9 5 4 6 3 7 2 8 1 9
REMARK H PARENT
REMARK Flexibility Score: inf
ROOT
ATOM      1  C   UNL     1      12.966 -22.849 -27.669  1.00  0.00     0.006 C 
ENDROOT
BRANCH   1   2
ATOM      2  C   UNL     1      12.034 -23.741 -28.496  1.00  0.00     0.053 C 
BRANCH   2   3
ATOM      3  C   UNL     1      11.322 -22.933 -29.535  1.00  0.00     0.041 C 
ATOM      4  O   UNL     1      10.077 -23.048 -29.683  1.00  0.00    -0.550 OA
ATOM      5  O   UNL     1      12.040 -22.090 -30.373  1.00  0.00    -0.550 OA
ENDBRANCH   2   3
ENDBRANCH   1   2
BRANCH   1   6
ATOM      6  C   UNL     1      12.174 -22.035 -26.638  1.00  0.00     0.000 C 
BRANCH   6   7
ATOM      7  C   UNL     1      12.155 -20.545 -27.013  1.00  0.00    -0.000 C 
BRANCH   7   8
ATOM      8  C   UNL     1      11.753 -19.645 -25.834  1.00  0.00    -0.003 C 
ATOM      9  C   UNL     1      10.836 -18.496 -26.252  1.00  0.00     0.004 C 
ENDBRANCH   7   8
ENDBRANCH   6   7
ENDBRANCH   1   6
TORSDOF 5
ENDMDL
