MODEL 1
REMARK VINA RESULT:    -4.997      0.000      0.000
REMARK INTER + INTRA:         -12.258
REMARK INTER:                  -9.379
REMARK INTRA:                  -2.879
REMARK UNBOUND:                -2.879
REMARK SMILES CCCCCCCCC=CCCCCCCCC(=O)[O-]
REMARK SMILES IDX 10 1 9 2 11 3 12 4 13 5 14 6 15 7 16 8 17 9 18 10 19 11
REMARK SMILES IDX 20 12 8 13 7 14 6 15 5 16 4 17 3 18 2 19 1 20
REMARK H PARENT
REMARK Flexibility Score: inf
ROOT
ATOM      1  C   UNL     1       0.467  -5.473  -1.569  1.00  0.00    -0.031 C 
ATOM      2  C   UNL     1      -0.118  -6.665  -1.343  1.00  0.00    -0.031 C 
ENDROOT
BRANCH   1   3
ATOM      3  C   UNL     1      -0.224  -4.139  -1.417  1.00  0.00     0.027 C 
BRANCH   3   4
ATOM      4  C   UNL     1      -0.010  -3.245  -2.648  1.00  0.00     0.004 C 
BRANCH   4   5
ATOM      5  C   UNL     1       1.267  -3.617  -3.416  1.00  0.00     0.000 C 
BRANCH   5   6
ATOM      6  C   UNL     1       1.473  -2.691  -4.621  1.00  0.00     0.000 C 
BRANCH   6   7
ATOM      7  C   UNL     1       2.901  -2.819  -5.175  1.00  0.00     0.000 C 
BRANCH   7   8
ATOM      8  C   UNL     1       3.442  -4.256  -5.096  1.00  0.00     0.006 C 
BRANCH   8   9
ATOM      9  C   UNL     1       4.475  -4.560  -6.189  1.00  0.00     0.053 C 
BRANCH   9  10
ATOM     10  C   UNL     1       4.727  -6.033  -6.276  1.00  0.00     0.041 C 
ATOM     11  O   UNL     1       4.087  -6.830  -5.542  1.00  0.00    -0.550 OA
ATOM     12  O   UNL     1       5.697  -6.524  -7.142  1.00  0.00    -0.550 OA
ENDBRANCH   9  10
ENDBRANCH   8   9
ENDBRANCH   7   8
ENDBRANCH   6   7
ENDBRANCH   5   6
ENDBRANCH   4   5
ENDBRANCH   3   4
ENDBRANCH   1   3
BRANCH   2  13
ATOM     13  C   UNL     1      -1.517  -6.843  -0.812  1.00  0.00     0.027 C 
BRANCH  13  14
ATOM     14  C   UNL     1      -2.482  -7.206  -1.948  1.00  0.00     0.004 C 
BRANCH  14  15
ATOM     15  C   UNL     1      -3.279  -5.997  -2.467  1.00  0.00     0.000 C 
BRANCH  15  16
ATOM     16  C   UNL     1      -2.754  -5.444  -3.809  1.00  0.00     0.000 C 
BRANCH  16  17
ATOM     17  C   UNL     1      -2.003  -6.512  -4.624  1.00  0.00    -0.000 C 
BRANCH  17  18
ATOM     18  C   UNL     1      -0.641  -6.018  -5.138  1.00  0.00    -0.000 C 
BRANCH  18  19
ATOM     19  C   UNL     1       0.454  -7.090  -5.042  1.00  0.00    -0.003 C 
ATOM     20  C   UNL     1      -0.126  -8.430  -4.602  1.00  0.00     0.004 C 
ENDBRANCH  18  19
ENDBRANCH  17  18
ENDBRANCH  16  17
ENDBRANCH  15  16
ENDBRANCH  14  15
ENDBRANCH  13  14
ENDBRANCH   2  13
TORSDOF 15
ENDMDL
MODEL 2
REMARK VINA RESULT:    -4.794      2.761      6.229
REMARK INTER + INTRA:         -11.876
REMARK INTER:                  -9.333
REMARK INTRA:                  -2.544
REMARK UNBOUND:                -2.879
REMARK SMILES CCCCCCCCC=CCCCCCCCC(=O)[O-]
REMARK SMILES IDX 10 1 9 2 11 3 12 4 13 5 14 6 15 7 16 8 17 9 18 10 19 11
REMARK SMILES IDX 20 12 8 13 7 14 6 15 5 16 4 17 3 18 2 19 1 20
REMARK H PARENT
REMARK Flexibility Score: inf
ROOT
ATOM      1  C   UNL     1       1.492  -2.942  -4.790  1.00  0.00    -0.031 C 
ATOM      2  C   UNL     1       2.633  -2.817  -5.494  1.00  0.00    -0.031 C 
ENDROOT
BRANCH   1   3
ATOM      3  C   UNL     1       1.427  -3.137  -3.294  1.00  0.00     0.027 C 
BRANCH   3   4
ATOM      4  C   UNL     1      -0.004  -2.974  -2.761  1.00  0.00     0.004 C 
BRANCH   4   5
ATOM      5  C   UNL     1      -0.285  -3.900  -1.568  1.00  0.00     0.000 C 
BRANCH   5   6
ATOM      6  C   UNL     1      -1.148  -5.094  -1.990  1.00  0.00     0.000 C 
BRANCH   6   7
ATOM      7  C   UNL     1      -1.810  -4.840  -3.353  1.00  0.00     0.000 C 
BRANCH   7   8
ATOM      8  C   UNL     1      -3.029  -5.743  -3.600  1.00  0.00     0.006 C 
BRANCH   8   9
ATOM      9  C   UNL     1      -2.766  -6.814  -4.668  1.00  0.00     0.053 C 
BRANCH   9  10
ATOM     10  C   UNL     1      -2.749  -8.177  -4.050  1.00  0.00     0.041 C 
ATOM     11  O   UNL     1      -1.792  -8.526  -3.311  1.00  0.00    -0.550 OA
ATOM     12  O   UNL     1      -3.774  -9.077  -4.320  1.00  0.00    -0.550 OA
ENDBRANCH   9  10
ENDBRANCH   8   9
ENDBRANCH   7   8
ENDBRANCH   6   7
ENDBRANCH   5   6
ENDBRANCH   4   5
ENDBRANCH   3   4
ENDBRANCH   1   3
BRANCH   2  13
ATOM     13  C   UNL     1       4.010  -2.754  -4.885  1.00  0.00     0.027 C 
BRANCH  13  14
ATOM     14  C   UNL     1       5.023  -3.497  -5.766  1.00  0.00     0.004 C 
BRANCH  14  15
ATOM     15  C   UNL     1       4.546  -4.902  -6.173  1.00  0.00     0.000 C 
BRANCH  15  16
ATOM     16  C   UNL     1       4.821  -5.980  -5.103  1.00  0.00     0.000 C 
BRANCH  16  17
ATOM     17  C   UNL     1       3.716  -7.050  -5.060  1.00  0.00    -0.000 C 
BRANCH  17  18
ATOM     18  C   UNL     1       2.323  -6.479  -5.375  1.00  0.00    -0.000 C 
BRANCH  18  19
ATOM     19  C   UNL     1       1.306  -6.742  -4.254  1.00  0.00    -0.003 C 
ATOM     20  C   UNL     1       1.991  -6.789  -2.892  1.00  0.00     0.004 C 
ENDBRANCH  18  19
ENDBRANCH  17  18
ENDBRANCH  16  17
ENDBRANCH  15  16
ENDBRANCH  14  15
ENDBRANCH  13  14
ENDBRANCH   2  13
TORSDOF 15
ENDMDL
MODEL 3
REMARK VINA RESULT:    -4.794      1.927      3.952
REMARK INTER + INTRA:         -11.876
REMARK INTER:                  -9.436
REMARK INTRA:                  -2.440
REMARK UNBOUND:                -2.879
REMARK SMILES CCCCCCCCC=CCCCCCCCC(=O)[O-]
REMARK SMILES IDX 10 1 9 2 11 3 12 4 13 5 14 6 15 7 16 8 17 9 18 10 19 11
REMARK SMILES IDX 20 12 8 13 7 14 6 15 5 16 4 17 3 18 2 19 1 20
REMARK H PARENT
REMARK Flexibility Score: inf
ROOT
ATOM      1  C   UNL     1       1.252  -3.880  -5.111  1.00  0.00    -0.031 C 
ATOM      2  C   UNL     1       0.413  -4.108  -4.083  1.00  0.00    -0.031 C 
ENDROOT
BRANCH   1   3
ATOM      3  C   UNL     1       2.171  -2.686  -5.216  1.00  0.00     0.027 C 
BRANCH   3   4
ATOM      4  C   UNL     1       3.566  -2.992  -4.649  1.00  0.00     0.004 C 
BRANCH   4   5
ATOM      5  C   UNL     1       4.590  -3.277  -5.758  1.00  0.00     0.000 C 
BRANCH   5   6
ATOM      6  C   UNL     1       4.511  -4.738  -6.217  1.00  0.00     0.000 C 
BRANCH   6   7
ATOM      7  C   UNL     1       4.933  -5.692  -5.088  1.00  0.00     0.000 C 
BRANCH   7   8
ATOM      8  C   UNL     1       4.006  -6.912  -4.964  1.00  0.00     0.006 C 
BRANCH   8   9
ATOM      9  C   UNL     1       3.018  -6.788  -3.796  1.00  0.00     0.053 C 
BRANCH   9  10
ATOM     10  C   UNL     1       2.701  -8.137  -3.232  1.00  0.00     0.041 C 
ATOM     11  O   UNL     1       1.507  -8.530  -3.161  1.00  0.00    -0.550 OA
ATOM     12  O   UNL     1       3.722  -8.947  -2.749  1.00  0.00    -0.550 OA
ENDBRANCH   9  10
ENDBRANCH   8   9
ENDBRANCH   7   8
ENDBRANCH   6   7
ENDBRANCH   5   6
ENDBRANCH   4   5
ENDBRANCH   3   4
ENDBRANCH   1   3
BRANCH   2  13
ATOM     13  C   UNL     1       0.336  -3.262  -2.839  1.00  0.00     0.027 C 
BRANCH  13  14
ATOM     14  C   UNL     1      -0.239  -4.073  -1.670  1.00  0.00     0.004 C 
BRANCH  14  15
ATOM     15  C   UNL     1       0.548  -5.367  -1.395  1.00  0.00     0.000 C 
BRANCH  15  16
ATOM     16  C   UNL     1      -0.351  -6.569  -1.034  1.00  0.00     0.000 C 
BRANCH  16  17
ATOM     17  C   UNL     1      -1.740  -6.472  -1.689  1.00  0.00    -0.000 C 
BRANCH  17  18
ATOM     18  C   UNL     1      -1.759  -7.021  -3.125  1.00  0.00    -0.000 C 
BRANCH  18  19
ATOM     19  C   UNL     1      -2.716  -6.247  -4.044  1.00  0.00    -0.003 C 
ATOM     20  C   UNL     1      -3.179  -4.950  -3.387  1.00  0.00     0.004 C 
ENDBRANCH  18  19
ENDBRANCH  17  18
ENDBRANCH  16  17
ENDBRANCH  15  16
ENDBRANCH  14  15
ENDBRANCH  13  14
ENDBRANCH   2  13
TORSDOF 15
ENDMDL
MODEL 4
REMARK VINA RESULT:    -4.783      0.863      1.869
REMARK INTER + INTRA:         -11.857
REMARK INTER:                  -9.549
REMARK INTRA:                  -2.308
REMARK UNBOUND:                -2.879
REMARK SMILES CCCCCCCCC=CCCCCCCCC(=O)[O-]
REMARK SMILES IDX 10 1 9 2 11 3 12 4 13 5 14 6 15 7 16 8 17 9 18 10 19 11
REMARK SMILES IDX 20 12 8 13 7 14 6 15 5 16 4 17 3 18 2 19 1 20
REMARK H PARENT
REMARK Flexibility Score: inf
ROOT
ATOM      1  C   UNL     1      -0.237  -3.718  -1.415  1.00  0.00    -0.031 C 
ATOM      2  C   UNL     1       0.150  -4.895  -0.888  1.00  0.00    -0.031 C 
ENDROOT
BRANCH   1   3
ATOM      3  C   UNL     1      -0.309  -3.426  -2.895  1.00  0.00     0.027 C 
BRANCH   3   4
ATOM      4  C   UNL     1       1.077  -3.118  -3.481  1.00  0.00     0.004 C 
BRANCH   4   5
ATOM      5  C   UNL     1       1.328  -3.873  -4.795  1.00  0.00     0.000 C 
BRANCH   5   6
ATOM      6  C   UNL     1       2.406  -3.175  -5.634  1.00  0.00     0.000 C 
BRANCH   6   7
ATOM      7  C   UNL     1       3.711  -3.027  -4.837  1.00  0.00     0.000 C 
BRANCH   7   8
ATOM      8  C   UNL     1       4.878  -3.811  -5.457  1.00  0.00     0.006 C 
BRANCH   8   9
ATOM      9  C   UNL     1       4.841  -5.305  -5.104  1.00  0.00     0.053 C 
BRANCH   9  10
ATOM     10  C   UNL     1       4.602  -6.127  -6.331  1.00  0.00     0.041 C 
ATOM     11  O   UNL     1       5.574  -6.536  -7.020  1.00  0.00    -0.550 OA
ATOM     12  O   UNL     1       3.303  -6.412  -6.736  1.00  0.00    -0.550 OA
ENDBRANCH   9  10
ENDBRANCH   8   9
ENDBRANCH   7   8
ENDBRANCH   6   7
ENDBRANCH   5   6
ENDBRANCH   4   5
ENDBRANCH   3   4
ENDBRANCH   1   3
BRANCH   2  13
ATOM     13  C   UNL     1       0.474  -6.126  -1.694  1.00  0.00     0.027 C 
BRANCH  13  14
ATOM     14  C   UNL     1      -0.404  -7.305  -1.253  1.00  0.00     0.004 C 
BRANCH  14  15
ATOM     15  C   UNL     1      -1.795  -6.866  -0.763  1.00  0.00     0.000 C 
BRANCH  15  16
ATOM     16  C   UNL     1      -2.917  -7.108  -1.795  1.00  0.00     0.000 C 
BRANCH  16  17
ATOM     17  C   UNL     1      -3.034  -5.953  -2.806  1.00  0.00    -0.000 C 
BRANCH  17  18
ATOM     18  C   UNL     1      -2.891  -6.423  -4.263  1.00  0.00    -0.000 C 
BRANCH  18  19
ATOM     19  C   UNL     1      -1.441  -6.360  -4.768  1.00  0.00    -0.003 C 
ATOM     20  C   UNL     1      -0.840  -7.757  -4.886  1.00  0.00     0.004 C 
ENDBRANCH  18  19
ENDBRANCH  17  18
ENDBRANCH  16  17
ENDBRANCH  15  16
ENDBRANCH  14  15
ENDBRANCH  13  14
ENDBRANCH   2  13
TORSDOF 15
ENDMDL
MODEL 5
REMARK VINA RESULT:    -4.757      2.833      5.924
REMARK INTER + INTRA:         -11.806
REMARK INTER:                  -8.896
REMARK INTRA:                  -2.910
REMARK UNBOUND:                -2.879
REMARK SMILES CCCCCCCCC=CCCCCCCCC(=O)[O-]
REMARK SMILES IDX 10 1 9 2 11 3 12 4 13 5 14 6 15 7 16 8 17 9 18 10 19 11
REMARK SMILES IDX 20 12 8 13 7 14 6 15 5 16 4 17 3 18 2 19 1 20
REMARK H PARENT
REMARK Flexibility Score: inf
ROOT
ATOM      1  C   UNL     1       1.388  -3.262  -4.801  1.00  0.00    -0.031 C 
ATOM      2  C   UNL     1       0.819  -4.095  -5.691  1.00  0.00    -0.031 C 
ENDROOT
BRANCH   1   3
ATOM      3  C   UNL     1       1.367  -3.464  -3.304  1.00  0.00     0.027 C 
BRANCH   3   4
ATOM      4  C   UNL     1       0.056  -2.962  -2.681  1.00  0.00     0.004 C 
BRANCH   4   5
ATOM      5  C   UNL     1      -0.634  -4.044  -1.837  1.00  0.00     0.000 C 
BRANCH   5   6
ATOM      6  C   UNL     1       0.309  -5.226  -1.582  1.00  0.00     0.000 C 
BRANCH   6   7
ATOM      7  C   UNL     1      -0.465  -6.442  -1.051  1.00  0.00     0.000 C 
BRANCH   7   8
ATOM      8  C   UNL     1      -1.913  -6.494  -1.563  1.00  0.00     0.006 C 
BRANCH   8   9
ATOM      9  C   UNL     1      -2.066  -7.362  -2.820  1.00  0.00     0.053 C 
BRANCH   9  10
ATOM     10  C   UNL     1      -2.878  -6.648  -3.854  1.00  0.00     0.041 C 
ATOM     11  O   UNL     1      -3.284  -5.475  -3.643  1.00  0.00    -0.550 OA
ATOM     12  O   UNL     1      -3.218  -7.291  -5.039  1.00  0.00    -0.550 OA
ENDBRANCH   9  10
ENDBRANCH   8   9
ENDBRANCH   7   8
ENDBRANCH   6   7
ENDBRANCH   5   6
ENDBRANCH   4   5
ENDBRANCH   3   4
ENDBRANCH   1   3
BRANCH   2  13
ATOM     13  C   UNL     1       0.161  -5.404  -5.337  1.00  0.00     0.027 C 
BRANCH  13  14
ATOM     14  C   UNL     1       1.127  -6.573  -5.570  1.00  0.00     0.004 C 
BRANCH  14  15
ATOM     15  C   UNL     1       1.884  -6.988  -4.296  1.00  0.00     0.000 C 
BRANCH  15  16
ATOM     16  C   UNL     1       3.383  -6.621  -4.323  1.00  0.00     0.000 C 
BRANCH  16  17
ATOM     17  C   UNL     1       4.027  -6.909  -5.691  1.00  0.00    -0.000 C 
BRANCH  17  18
ATOM     18  C   UNL     1       4.817  -5.710  -6.240  1.00  0.00    -0.000 C 
BRANCH  18  19
ATOM     19  C   UNL     1       4.855  -4.526  -5.262  1.00  0.00    -0.003 C 
ATOM     20  C   UNL     1       4.871  -3.196  -6.010  1.00  0.00     0.004 C 
ENDBRANCH  18  19
ENDBRANCH  17  18
ENDBRANCH  16  17
ENDBRANCH  15  16
ENDBRANCH  14  15
ENDBRANCH  13  14
ENDBRANCH   2  13
TORSDOF 15
ENDMDL
MODEL 6
REMARK VINA RESULT:    -4.677      1.361      2.842
REMARK INTER + INTRA:         -11.656
REMARK INTER:                  -8.511
REMARK INTRA:                  -3.145
REMARK UNBOUND:                -2.879
REMARK SMILES CCCCCCCCC=CCCCCCCCC(=O)[O-]
REMARK SMILES IDX 10 1 9 2 11 3 12 4 13 5 14 6 15 7 16 8 17 9 18 10 19 11
REMARK SMILES IDX 20 12 8 13 7 14 6 15 5 16 4 17 3 18 2 19 1 20
REMARK H PARENT
REMARK Flexibility Score: inf
ROOT
ATOM      1  C   UNL     1       1.470  -6.159  -2.363  1.00  0.00    -0.031 C 
ATOM      2  C   UNL     1       1.294  -6.890  -3.480  1.00  0.00    -0.031 C 
ENDROOT
BRANCH   1   3
ATOM      3  C   UNL     1       0.363  -5.768  -1.413  1.00  0.00     0.027 C 
BRANCH   3   4
ATOM      4  C   UNL     1       0.192  -4.244  -1.334  1.00  0.00     0.004 C 
BRANCH   4   5
ATOM      5  C   UNL     1      -0.465  -3.671  -2.599  1.00  0.00     0.000 C 
BRANCH   5   6
ATOM      6  C   UNL     1       0.461  -2.665  -3.293  1.00  0.00     0.000 C 
BRANCH   6   7
ATOM      7  C   UNL     1       1.024  -3.245  -4.599  1.00  0.00     0.000 C 
BRANCH   7   8
ATOM      8  C   UNL     1       2.558  -3.330  -4.599  1.00  0.00     0.006 C 
BRANCH   8   9
ATOM      9  C   UNL     1       3.088  -4.473  -5.477  1.00  0.00     0.053 C 
BRANCH   9  10
ATOM     10  C   UNL     1       4.576  -4.578  -5.357  1.00  0.00     0.041 C 
ATOM     11  O   UNL     1       5.304  -3.584  -5.613  1.00  0.00    -0.550 OA
ATOM     12  O   UNL     1       5.162  -5.786  -4.998  1.00  0.00    -0.550 OA
ENDBRANCH   9  10
ENDBRANCH   8   9
ENDBRANCH   7   8
ENDBRANCH   6   7
ENDBRANCH   5   6
ENDBRANCH   4   5
ENDBRANCH   3   4
ENDBRANCH   1   3
BRANCH   2  13
ATOM     13  C   UNL     1      -0.015  -7.511  -3.896  1.00  0.00     0.027 C 
BRANCH  13  14
ATOM     14  C   UNL     1      -0.772  -6.581  -4.853  1.00  0.00     0.004 C 
BRANCH  14  15
ATOM     15  C   UNL     1      -2.219  -6.309  -4.404  1.00  0.00     0.000 C 
BRANCH  15  16
ATOM     16  C   UNL     1      -2.712  -7.268  -3.300  1.00  0.00     0.000 C 
BRANCH  16  17
ATOM     17  C   UNL     1      -3.066  -6.523  -2.001  1.00  0.00    -0.000 C 
BRANCH  17  18
ATOM     18  C   UNL     1      -2.885  -7.397  -0.748  1.00  0.00    -0.000 C 
BRANCH  18  19
ATOM     19  C   UNL     1      -2.260  -8.764  -1.063  1.00  0.00    -0.003 C 
ATOM     20  C   UNL     1      -0.924  -8.936  -0.348  1.00  0.00     0.004 C 
ENDBRANCH  18  19
ENDBRANCH  17  18
ENDBRANCH  16  17
ENDBRANCH  15  16
ENDBRANCH  14  15
ENDBRANCH  13  14
ENDBRANCH   2  13
TORSDOF 15
ENDMDL
MODEL 7
REMARK VINA RESULT:    -4.653      3.014      6.057
REMARK INTER + INTRA:         -11.612
REMARK INTER:                  -8.694
REMARK INTRA:                  -2.917
REMARK UNBOUND:                -2.879
REMARK SMILES CCCCCCCCC=CCCCCCCCC(=O)[O-]
REMARK SMILES IDX 10 1 9 2 11 3 12 4 13 5 14 6 15 7 16 8 17 9 18 10 19 11
REMARK SMILES IDX 20 12 8 13 7 14 6 15 5 16 4 17 3 18 2 19 1 20
REMARK H PARENT
REMARK Flexibility Score: inf
ROOT
ATOM      1  C   UNL     1       0.891  -7.485  -4.722  1.00  0.00    -0.031 C 
ATOM      2  C   UNL     1       0.864  -7.130  -6.020  1.00  0.00    -0.031 C 
ENDROOT
BRANCH   1   3
ATOM      3  C   UNL     1       2.112  -7.400  -3.837  1.00  0.00     0.027 C 
BRANCH   3   4
ATOM      4  C   UNL     1       1.928  -6.373  -2.710  1.00  0.00     0.004 C 
BRANCH   4   5
ATOM      5  C   UNL     1       0.456  -6.230  -2.295  1.00  0.00     0.000 C 
BRANCH   5   6
ATOM      6  C   UNL     1       0.180  -4.836  -1.718  1.00  0.00     0.000 C 
BRANCH   6   7
ATOM      7  C   UNL     1      -0.732  -4.025  -2.652  1.00  0.00     0.000 C 
BRANCH   7   8
ATOM      8  C   UNL     1      -1.494  -4.909  -3.653  1.00  0.00     0.006 C 
BRANCH   8   9
ATOM      9  C   UNL     1      -2.932  -5.205  -3.206  1.00  0.00     0.053 C 
BRANCH   9  10
ATOM     10  C   UNL     1      -3.062  -6.630  -2.767  1.00  0.00     0.041 C 
ATOM     11  O   UNL     1      -3.170  -7.548  -3.622  1.00  0.00    -0.550 OA
ATOM     12  O   UNL     1      -3.099  -6.941  -1.413  1.00  0.00    -0.550 OA
ENDBRANCH   9  10
ENDBRANCH   8   9
ENDBRANCH   7   8
ENDBRANCH   6   7
ENDBRANCH   5   6
ENDBRANCH   4   5
ENDBRANCH   3   4
ENDBRANCH   1   3
BRANCH   2  13
ATOM     13  C   UNL     1       2.019  -6.502  -6.758  1.00  0.00     0.027 C 
BRANCH  13  14
ATOM     14  C   UNL     1       1.667  -5.073  -7.191  1.00  0.00     0.004 C 
BRANCH  14  15
ATOM     15  C   UNL     1       0.751  -4.350  -6.188  1.00  0.00     0.000 C 
BRANCH  15  16
ATOM     16  C   UNL     1       1.391  -3.092  -5.565  1.00  0.00     0.000 C 
BRANCH  16  17
ATOM     17  C   UNL     1       2.593  -3.437  -4.667  1.00  0.00    -0.000 C 
BRANCH  17  18
ATOM     18  C   UNL     1       3.891  -2.750  -5.122  1.00  0.00    -0.000 C 
BRANCH  18  19
ATOM     19  C   UNL     1       4.887  -3.729  -5.764  1.00  0.00    -0.003 C 
ATOM     20  C   UNL     1       4.828  -5.095  -5.086  1.00  0.00     0.004 C 
ENDBRANCH  18  19
ENDBRANCH  17  18
ENDBRANCH  16  17
ENDBRANCH  15  16
ENDBRANCH  14  15
ENDBRANCH  13  14
ENDBRANCH   2  13
TORSDOF 15
ENDMDL
MODEL 8
REMARK VINA RESULT:    -4.646      2.941      6.136
REMARK INTER + INTRA:         -11.599
REMARK INTER:                  -8.974
REMARK INTRA:                  -2.624
REMARK UNBOUND:                -2.879
REMARK SMILES CCCCCCCCC=CCCCCCCCC(=O)[O-]
REMARK SMILES IDX 10 1 9 2 11 3 12 4 13 5 14 6 15 7 16 8 17 9 18 10 19 11
REMARK SMILES IDX 20 12 8 13 7 14 6 15 5 16 4 17 3 18 2 19 1 20
REMARK H PARENT
REMARK Flexibility Score: inf
ROOT
ATOM      1  C   UNL     1       1.546  -7.161  -3.827  1.00  0.00    -0.031 C 
ATOM      2  C   UNL     1       2.726  -7.518  -4.369  1.00  0.00    -0.031 C 
ENDROOT
BRANCH   1   3
ATOM      3  C   UNL     1       1.372  -6.062  -2.806  1.00  0.00     0.027 C 
BRANCH   3   4
ATOM      4  C   UNL     1       0.533  -6.527  -1.606  1.00  0.00     0.004 C 
BRANCH   4   5
ATOM      5  C   UNL     1      -0.741  -5.687  -1.432  1.00  0.00     0.000 C 
BRANCH   5   6
ATOM      6  C   UNL     1      -0.707  -4.445  -2.330  1.00  0.00     0.000 C 
BRANCH   6   7
ATOM      7  C   UNL     1      -1.982  -4.348  -3.183  1.00  0.00     0.000 C 
BRANCH   7   8
ATOM      8  C   UNL     1      -2.828  -5.631  -3.134  1.00  0.00     0.006 C 
BRANCH   8   9
ATOM      9  C   UNL     1      -2.682  -6.485  -4.401  1.00  0.00     0.053 C 
BRANCH   9  10
ATOM     10  C   UNL     1      -2.997  -7.917  -4.107  1.00  0.00     0.041 C 
ATOM     11  O   UNL     1      -3.753  -8.570  -4.873  1.00  0.00    -0.550 OA
ATOM     12  O   UNL     1      -2.487  -8.523  -2.964  1.00  0.00    -0.550 OA
ENDBRANCH   9  10
ENDBRANCH   8   9
ENDBRANCH   7   8
ENDBRANCH   6   7
ENDBRANCH   5   6
ENDBRANCH   4   5
ENDBRANCH   3   4
ENDBRANCH   1   3
BRANCH   2  13
ATOM     13  C   UNL     1       4.032  -6.810  -4.115  1.00  0.00     0.027 C 
BRANCH  13  14
ATOM     14  C   UNL     1       4.485  -6.050  -5.369  1.00  0.00     0.004 C 
BRANCH  14  15
ATOM     15  C   UNL     1       5.080  -4.667  -5.049  1.00  0.00     0.000 C 
BRANCH  15  16
ATOM     16  C   UNL     1       4.332  -3.502  -5.731  1.00  0.00     0.000 C 
BRANCH  16  17
ATOM     17  C   UNL     1       3.403  -2.759  -4.754  1.00  0.00    -0.000 C 
BRANCH  17  18
ATOM     18  C   UNL     1       1.938  -3.215  -4.865  1.00  0.00    -0.000 C 
BRANCH  18  19
ATOM     19  C   UNL     1       1.640  -3.938  -6.187  1.00  0.00    -0.003 C 
ATOM     20  C   UNL     1       0.356  -4.755  -6.089  1.00  0.00     0.004 C 
ENDBRANCH  18  19
ENDBRANCH  17  18
ENDBRANCH  16  17
ENDBRANCH  15  16
ENDBRANCH  14  15
ENDBRANCH  13  14
ENDBRANCH   2  13
TORSDOF 15
ENDMDL
MODEL 9
REMARK VINA RESULT:    -4.644      1.622      2.840
REMARK INTER + INTRA:         -11.595
REMARK INTER:                  -8.684
REMARK INTRA:                  -2.911
REMARK UNBOUND:                -2.879
REMARK SMILES CCCCCCCCC=CCCCCCCCC(=O)[O-]
REMARK SMILES IDX 10 1 9 2 11 3 12 4 13 5 14 6 15 7 16 8 17 9 18 10 19 11
REMARK SMILES IDX 20 12 8 13 7 14 6 15 5 16 4 17 3 18 2 19 1 20
REMARK H PARENT
REMARK Flexibility Score: inf
ROOT
ATOM      1  C   UNL     1       1.488  -6.502  -2.477  1.00  0.00    -0.031 C 
ATOM      2  C   UNL     1       0.725  -5.883  -1.557  1.00  0.00    -0.031 C 
ENDROOT
BRANCH   1   3
ATOM      3  C   UNL     1       0.951  -7.220  -3.691  1.00  0.00     0.027 C 
BRANCH   3   4
ATOM      4  C   UNL     1       1.844  -7.003  -4.922  1.00  0.00     0.004 C 
BRANCH   4   5
ATOM      5  C   UNL     1       1.078  -6.352  -6.083  1.00  0.00     0.000 C 
BRANCH   5   6
ATOM      6  C   UNL     1       0.435  -5.031  -5.646  1.00  0.00     0.000 C 
BRANCH   6   7
ATOM      7  C   UNL     1       1.392  -3.851  -5.876  1.00  0.00     0.000 C 
BRANCH   7   8
ATOM      8  C   UNL     1       2.211  -3.498  -4.624  1.00  0.00     0.006 C 
BRANCH   8   9
ATOM      9  C   UNL     1       3.450  -2.651  -4.947  1.00  0.00     0.053 C 
BRANCH   9  10
ATOM     10  C   UNL     1       4.528  -3.503  -5.538  1.00  0.00     0.041 C 
ATOM     11  O   UNL     1       5.305  -3.029  -6.409  1.00  0.00    -0.550 OA
ATOM     12  O   UNL     1       4.653  -4.834  -5.156  1.00  0.00    -0.550 OA
ENDBRANCH   9  10
ENDBRANCH   8   9
ENDBRANCH   7   8
ENDBRANCH   6   7
ENDBRANCH   5   6
ENDBRANCH   4   5
ENDBRANCH   3   4
ENDBRANCH   1   3
BRANCH   2  13
ATOM     13  C   UNL     1      -0.771  -5.729  -1.652  1.00  0.00     0.027 C 
BRANCH  13  14
ATOM     14  C   UNL     1      -1.133  -4.409  -2.345  1.00  0.00     0.004 C 
BRANCH  14  15
ATOM     15  C   UNL     1      -2.330  -4.544  -3.303  1.00  0.00     0.000 C 
BRANCH  15  16
ATOM     16  C   UNL     1      -2.971  -5.948  -3.295  1.00  0.00     0.000 C 
BRANCH  16  17
ATOM     17  C   UNL     1      -2.799  -6.672  -4.642  1.00  0.00    -0.000 C 
BRANCH  17  18
ATOM     18  C   UNL     1      -2.508  -8.173  -4.476  1.00  0.00    -0.000 C 
BRANCH  18  19
ATOM     19  C   UNL     1      -2.926  -8.710  -3.099  1.00  0.00    -0.003 C 
ATOM     20  C   UNL     1      -1.734  -9.309  -2.358  1.00  0.00     0.004 C 
ENDBRANCH  18  19
ENDBRANCH  17  18
ENDBRANCH  16  17
ENDBRANCH  15  16
ENDBRANCH  14  15
ENDBRANCH  13  14
ENDBRANCH   2  13
TORSDOF 15
ENDMDL
