MODEL 1
REMARK VINA RESULT:    -4.162      0.000      0.000
REMARK INTER + INTRA:          -5.066
REMARK INTER:                  -5.014
REMARK INTRA:                  -0.052
REMARK UNBOUND:                -0.052
REMARK SMILES CC[C@@H](C)[C@H]([NH3+])C(=O)[O-]
REMARK SMILES IDX 3 1 4 2 5 3 6 4 7 8 8 9 9 10 2 11 1 12
REMARK H PARENT 6 5 6 6 6 7
REMARK Flexibility Score: inf
ROOT
ATOM      1  C   UNL     1      12.256   7.032  22.874  1.00  0.00     0.050 C 
ATOM      2  C   UNL     1      12.029   6.519  21.441  1.00  0.00     0.014 C 
ENDROOT
BRANCH   1   3
ATOM      3  C   UNL     1      10.910   7.222  23.643  1.00  0.00     0.230 C 
BRANCH   3   4
ATOM      4  N   UNL     1      10.978   8.352  24.583  1.00  0.00    -0.350 N 
ATOM      5  H   UNL     1      11.879   8.874  24.471  1.00  0.00     0.345 HD
ATOM      6  H   UNL     1      10.176   9.003  24.427  1.00  0.00     0.345 HD
ATOM      7  H   UNL     1      10.907   8.005  25.568  1.00  0.00     0.345 HD
ENDBRANCH   3   4
BRANCH   3   8
ATOM      8  C   UNL     1      10.531   5.969  24.394  1.00  0.00     0.099 C 
ATOM      9  O   UNL     1       9.996   5.001  23.789  1.00  0.00    -0.544 OA
ATOM     10  O   UNL     1      10.768   5.878  25.759  1.00  0.00    -0.544 OA
ENDBRANCH   3   8
ENDBRANCH   1   3
BRANCH   1  11
ATOM     11  C   UNL     1      13.273   6.131  23.626  1.00  0.00     0.006 C 
ATOM     12  C   UNL     1      14.558   6.844  24.056  1.00  0.00     0.004 C 
ENDBRANCH   1  11
TORSDOF 4
ENDMDL
MODEL 2
REMARK VINA RESULT:    -4.146      6.738      7.908
REMARK INTER + INTRA:          -5.046
REMARK INTER:                  -5.031
REMARK INTRA:                  -0.014
REMARK UNBOUND:                -0.052
REMARK SMILES CC[C@@H](C)[C@H]([NH3+])C(=O)[O-]
REMARK SMILES IDX 3 1 4 2 5 3 6 4 7 8 8 9 9 10 2 11 1 12
REMARK H PARENT 6 5 6 6 6 7
REMARK Flexibility Score: inf
ROOT
ATOM      1  C   UNL     1       7.437   3.741  18.363  1.00  0.00     0.050 C 
ATOM      2  C   UNL     1       8.157   5.064  18.680  1.00  0.00     0.014 C 
ENDROOT
BRANCH   1   3
ATOM      3  C   UNL     1       8.067   2.537  19.131  1.00  0.00     0.230 C 
BRANCH   3   4
ATOM      4  N   UNL     1       7.938   1.283  18.372  1.00  0.00    -0.350 N 
ATOM      5  H   UNL     1       6.978   0.879  18.484  1.00  0.00     0.345 HD
ATOM      6  H   UNL     1       8.130   1.451  17.359  1.00  0.00     0.345 HD
ATOM      7  H   UNL     1       8.641   0.585  18.709  1.00  0.00     0.345 HD
ENDBRANCH   3   4
BRANCH   3   8
ATOM      8  C   UNL     1       7.434   2.366  20.491  1.00  0.00     0.099 C 
ATOM      9  O   UNL     1       6.522   1.515  20.667  1.00  0.00    -0.544 OA
ATOM     10  O   UNL     1       7.853   3.152  21.556  1.00  0.00    -0.544 OA
ENDBRANCH   3   8
ENDBRANCH   1   3
BRANCH   1  11
ATOM     11  C   UNL     1       5.906   3.883  18.588  1.00  0.00     0.006 C 
ATOM     12  C   UNL     1       5.057   3.685  17.329  1.00  0.00     0.004 C 
ENDBRANCH   1  11
TORSDOF 4
ENDMDL
MODEL 3
REMARK VINA RESULT:    -4.117      6.764      7.576
REMARK INTER + INTRA:          -5.011
REMARK INTER:                  -4.943
REMARK INTRA:                  -0.068
REMARK UNBOUND:                -0.052
REMARK SMILES CC[C@@H](C)[C@H]([NH3+])C(=O)[O-]
REMARK SMILES IDX 3 1 4 2 5 3 6 4 7 8 8 9 9 10 2 11 1 12
REMARK H PARENT 6 5 6 6 6 7
REMARK Flexibility Score: inf
ROOT
ATOM      1  C   UNL     1       8.042   2.139  20.758  1.00  0.00     0.050 C 
ATOM      2  C   UNL     1       8.883   0.875  21.011  1.00  0.00     0.014 C 
ENDROOT
BRANCH   1   3
ATOM      3  C   UNL     1       7.235   2.043  19.424  1.00  0.00     0.230 C 
BRANCH   3   4
ATOM      4  N   UNL     1       7.962   1.270  18.406  1.00  0.00    -0.350 N 
ATOM      5  H   UNL     1       8.381   0.406  18.824  1.00  0.00     0.345 HD
ATOM      6  H   UNL     1       7.319   1.003  17.626  1.00  0.00     0.345 HD
ATOM      7  H   UNL     1       8.727   1.851  17.991  1.00  0.00     0.345 HD
ENDBRANCH   3   4
BRANCH   3   8
ATOM      8  C   UNL     1       6.918   3.415  18.880  1.00  0.00     0.099 C 
ATOM      9  O   UNL     1       5.760   3.896  19.000  1.00  0.00    -0.544 OA
ATOM     10  O   UNL     1       7.905   4.153  18.240  1.00  0.00    -0.544 OA
ENDBRANCH   3   8
ENDBRANCH   1   3
BRANCH   1  11
ATOM     11  C   UNL     1       7.157   2.466  21.992  1.00  0.00     0.006 C 
ATOM     12  C   UNL     1       7.931   2.964  23.216  1.00  0.00     0.004 C 
ENDBRANCH   1  11
TORSDOF 4
ENDMDL
MODEL 4
REMARK VINA RESULT:    -4.076      3.569      4.599
REMARK INTER + INTRA:          -4.962
REMARK INTER:                  -4.919
REMARK INTRA:                  -0.043
REMARK UNBOUND:                -0.052
REMARK SMILES CC[C@@H](C)[C@H]([NH3+])C(=O)[O-]
REMARK SMILES IDX 3 1 4 2 5 3 6 4 7 8 8 9 9 10 2 11 1 12
REMARK H PARENT 6 5 6 6 6 7
REMARK Flexibility Score: inf
ROOT
ATOM      1  C   UNL     1       9.284   4.941  25.405  1.00  0.00     0.050 C 
ATOM      2  C   UNL     1      10.620   5.699  25.499  1.00  0.00     0.014 C 
ENDROOT
BRANCH   1   3
ATOM      3  C   UNL     1       8.088   5.904  25.121  1.00  0.00     0.230 C 
BRANCH   3   4
ATOM      4  N   UNL     1       8.419   7.295  25.466  1.00  0.00    -0.350 N 
ATOM      5  H   UNL     1       9.273   7.335  26.071  1.00  0.00     0.345 HD
ATOM      6  H   UNL     1       8.579   7.856  24.599  1.00  0.00     0.345 HD
ATOM      7  H   UNL     1       7.621   7.739  25.978  1.00  0.00     0.345 HD
ENDBRANCH   3   4
BRANCH   3   8
ATOM      8  C   UNL     1       6.855   5.480  25.881  1.00  0.00     0.099 C 
ATOM      9  O   UNL     1       6.260   6.294  26.637  1.00  0.00    -0.544 OA
ATOM     10  O   UNL     1       6.371   4.185  25.753  1.00  0.00    -0.544 OA
ENDBRANCH   3   8
ENDBRANCH   1   3
BRANCH   1  11
ATOM     11  C   UNL     1       9.386   3.770  24.389  1.00  0.00     0.006 C 
ATOM     12  C   UNL     1       9.343   2.375  25.020  1.00  0.00     0.004 C 
ENDBRANCH   1  11
TORSDOF 4
ENDMDL
MODEL 5
REMARK VINA RESULT:    -4.073      2.015      3.569
REMARK INTER + INTRA:          -4.958
REMARK INTER:                  -4.859
REMARK INTRA:                  -0.099
REMARK UNBOUND:                -0.052
REMARK SMILES CC[C@@H](C)[C@H]([NH3+])C(=O)[O-]
REMARK SMILES IDX 3 1 4 2 5 3 6 4 7 8 8 9 9 10 2 11 1 12
REMARK H PARENT 6 5 6 6 6 7
REMARK Flexibility Score: inf
ROOT
ATOM      1  C   UNL     1       9.774   6.116  24.340  1.00  0.00     0.050 C 
ATOM      2  C   UNL     1       8.609   6.703  25.157  1.00  0.00     0.014 C 
ENDROOT
BRANCH   1   3
ATOM      3  C   UNL     1      11.118   6.857  24.629  1.00  0.00     0.230 C 
BRANCH   3   4
ATOM      4  N   UNL     1      10.950   8.318  24.589  1.00  0.00    -0.350 N 
ATOM      5  H   UNL     1      10.302   8.596  23.815  1.00  0.00     0.345 HD
ATOM      6  H   UNL     1      10.574   8.664  25.501  1.00  0.00     0.345 HD
ATOM      7  H   UNL     1      11.876   8.782  24.440  1.00  0.00     0.345 HD
ENDBRANCH   3   4
BRANCH   3   8
ATOM      8  C   UNL     1      12.187   6.449  23.645  1.00  0.00     0.099 C 
ATOM      9  O   UNL     1      12.093   6.774  22.431  1.00  0.00    -0.544 OA
ATOM     10  O   UNL     1      13.280   5.709  24.074  1.00  0.00    -0.544 OA
ENDBRANCH   3   8
ENDBRANCH   1   3
BRANCH   1  11
ATOM     11  C   UNL     1       9.863   4.577  24.538  1.00  0.00     0.006 C 
ATOM     12  C   UNL     1       8.882   3.768  23.686  1.00  0.00     0.004 C 
ENDBRANCH   1  11
TORSDOF 4
ENDMDL
MODEL 6
REMARK VINA RESULT:    -4.040      5.777      6.955
REMARK INTER + INTRA:          -4.919
REMARK INTER:                  -4.857
REMARK INTRA:                  -0.061
REMARK UNBOUND:                -0.052
REMARK SMILES CC[C@@H](C)[C@H]([NH3+])C(=O)[O-]
REMARK SMILES IDX 3 1 4 2 5 3 6 4 7 8 8 9 9 10 2 11 1 12
REMARK H PARENT 6 5 6 6 6 7
REMARK Flexibility Score: inf
ROOT
ATOM      1  C   UNL     1       7.680   2.351  22.606  1.00  0.00     0.050 C 
ATOM      2  C   UNL     1       6.530   2.243  23.624  1.00  0.00     0.014 C 
ENDROOT
BRANCH   1   3
ATOM      3  C   UNL     1       7.155   2.372  21.135  1.00  0.00     0.230 C 
BRANCH   3   4
ATOM      4  N   UNL     1       5.789   1.834  21.040  1.00  0.00    -0.350 N 
ATOM      5  H   UNL     1       5.085   2.552  21.333  1.00  0.00     0.345 HD
ATOM      6  H   UNL     1       5.588   1.528  20.061  1.00  0.00     0.345 HD
ATOM      7  H   UNL     1       5.691   0.992  21.654  1.00  0.00     0.345 HD
ENDBRANCH   3   4
BRANCH   3   8
ATOM      8  C   UNL     1       8.066   1.591  20.221  1.00  0.00     0.099 C 
ATOM      9  O   UNL     1       9.007   0.901  20.697  1.00  0.00    -0.544 OA
ATOM     10  O   UNL     1       7.873   1.632  18.847  1.00  0.00    -0.544 OA
ENDBRANCH   3   8
ENDBRANCH   1   3
BRANCH   1  11
ATOM     11  C   UNL     1       8.604   3.552  22.948  1.00  0.00     0.006 C 
ATOM     12  C   UNL     1       9.159   3.541  24.376  1.00  0.00     0.004 C 
ENDBRANCH   1  11
TORSDOF 4
ENDMDL
MODEL 7
REMARK VINA RESULT:    -4.025      4.758      5.468
REMARK INTER + INTRA:          -4.900
REMARK INTER:                  -4.785
REMARK INTRA:                  -0.116
REMARK UNBOUND:                -0.052
REMARK SMILES CC[C@@H](C)[C@H]([NH3+])C(=O)[O-]
REMARK SMILES IDX 3 1 4 2 5 3 6 4 7 8 8 9 9 10 2 11 1 12
REMARK H PARENT 6 5 6 6 6 7
REMARK Flexibility Score: inf
ROOT
ATOM      1  C   UNL     1       8.123   4.915  25.339  1.00  0.00     0.050 C 
ATOM      2  C   UNL     1       8.567   6.364  25.069  1.00  0.00     0.014 C 
ENDROOT
BRANCH   1   3
ATOM      3  C   UNL     1       6.589   4.819  25.615  1.00  0.00     0.230 C 
BRANCH   3   4
ATOM      4  N   UNL     1       6.138   5.868  26.543  1.00  0.00    -0.350 N 
ATOM      5  H   UNL     1       5.384   5.507  27.173  1.00  0.00     0.345 HD
ATOM      6  H   UNL     1       6.940   6.211  27.119  1.00  0.00     0.345 HD
ATOM      7  H   UNL     1       5.769   6.688  26.007  1.00  0.00     0.345 HD
ENDBRANCH   3   4
BRANCH   3   8
ATOM      8  C   UNL     1       6.220   3.466  26.172  1.00  0.00     0.099 C 
ATOM      9  O   UNL     1       5.318   2.776  25.625  1.00  0.00    -0.544 OA
ATOM     10  O   UNL     1       6.873   2.975  27.295  1.00  0.00    -0.544 OA
ENDBRANCH   3   8
ENDBRANCH   1   3
BRANCH   1  11
ATOM     11  C   UNL     1       8.605   3.972  24.203  1.00  0.00     0.006 C 
ATOM     12  C   UNL     1       9.409   2.759  24.681  1.00  0.00     0.004 C 
ENDBRANCH   1  11
TORSDOF 4
ENDMDL
MODEL 8
REMARK VINA RESULT:    -4.011      6.192      7.102
REMARK INTER + INTRA:          -4.883
REMARK INTER:                  -4.787
REMARK INTRA:                  -0.096
REMARK UNBOUND:                -0.052
REMARK SMILES CC[C@@H](C)[C@H]([NH3+])C(=O)[O-]
REMARK SMILES IDX 3 1 4 2 5 3 6 4 7 8 8 9 9 10 2 11 1 12
REMARK H PARENT 6 5 6 6 6 7
REMARK Flexibility Score: inf
ROOT
ATOM      1  C   UNL     1       7.499   3.566  19.401  1.00  0.00     0.050 C 
ATOM      2  C   UNL     1       6.408   3.517  18.316  1.00  0.00     0.014 C 
ENDROOT
BRANCH   1   3
ATOM      3  C   UNL     1       8.178   2.174  19.606  1.00  0.00     0.230 C 
BRANCH   3   4
ATOM      4  N   UNL     1       7.943   1.283  18.460  1.00  0.00    -0.350 N 
ATOM      5  H   UNL     1       7.667   1.832  17.612  1.00  0.00     0.345 HD
ATOM      6  H   UNL     1       8.803   0.727  18.251  1.00  0.00     0.345 HD
ATOM      7  H   UNL     1       7.181   0.601  18.685  1.00  0.00     0.345 HD
ENDBRANCH   3   4
BRANCH   3   8
ATOM      8  C   UNL     1       7.683   1.509  20.868  1.00  0.00     0.099 C 
ATOM      9  O   UNL     1       8.402   0.666  21.467  1.00  0.00    -0.544 OA
ATOM     10  O   UNL     1       6.428   1.823  21.372  1.00  0.00    -0.544 OA
ENDBRANCH   3   8
ENDBRANCH   1   3
BRANCH   1  11
ATOM     11  C   UNL     1       8.511   4.708  19.110  1.00  0.00     0.006 C 
ATOM     12  C   UNL     1       9.771   4.678  19.979  1.00  0.00     0.004 C 
ENDBRANCH   1  11
TORSDOF 4
ENDMDL
MODEL 9
REMARK VINA RESULT:    -3.949      2.791      4.739
REMARK INTER + INTRA:          -4.809
REMARK INTER:                  -4.662
REMARK INTRA:                  -0.147
REMARK UNBOUND:                -0.052
REMARK SMILES CC[C@@H](C)[C@H]([NH3+])C(=O)[O-]
REMARK SMILES IDX 3 1 4 2 5 3 6 4 7 8 8 9 9 10 2 11 1 12
REMARK H PARENT 6 5 6 6 6 7
REMARK Flexibility Score: inf
ROOT
ATOM      1  C   UNL     1       7.795   4.974  25.125  1.00  0.00     0.050 C 
ATOM      2  C   UNL     1       6.529   5.176  25.978  1.00  0.00     0.014 C 
ENDROOT
BRANCH   1   3
ATOM      3  C   UNL     1       8.915   5.997  25.497  1.00  0.00     0.230 C 
BRANCH   3   4
ATOM      4  N   UNL     1       8.467   7.385  25.306  1.00  0.00    -0.350 N 
ATOM      5  H   UNL     1       7.553   7.413  24.796  1.00  0.00     0.345 HD
ATOM      6  H   UNL     1       8.366   7.863  26.230  1.00  0.00     0.345 HD
ATOM      7  H   UNL     1       9.178   7.920  24.756  1.00  0.00     0.345 HD
ENDBRANCH   3   4
BRANCH   3   8
ATOM      8  C   UNL     1      10.163   5.757  24.682  1.00  0.00     0.099 C 
ATOM      9  O   UNL     1      11.251   5.475  25.250  1.00  0.00    -0.544 OA
ATOM     10  O   UNL     1      10.116   5.850  23.297  1.00  0.00    -0.544 OA
ENDBRANCH   3   8
ENDBRANCH   1   3
BRANCH   1  11
ATOM     11  C   UNL     1       8.267   3.495  25.184  1.00  0.00     0.006 C 
ATOM     12  C   UNL     1       8.116   2.727  23.868  1.00  0.00     0.004 C 
ENDBRANCH   1  11
TORSDOF 4
ENDMDL
