MODEL 1
REMARK VINA RESULT:   140.794      0.000      0.000
REMARK INTER + INTRA:         154.381
REMARK INTER:                 153.140
REMARK INTRA:                   1.240
REMARK UNBOUND:                 1.240
REMARK SMILES C[C@@H]1[C@@H](C)CC[C@]2(C(=O)[O-])CC[C@@]3(C)C(=CC[C@H]4[C@]5(C)CC[C@H](O)C(C)(C)[C@@H]5CC[C@]43C)[C@@H]12
REMARK SMILES IDX 7 1 6 2 11 3 33 4 5 5 12 6 15 7 2 8 3 9 13 10 16 11 1 12
REMARK SMILES IDX 4 13 14 14 31 15 17 16 18 17 30 18 32 19 19 20 29 21 28 22
REMARK SMILES IDX 21 23 20 24 25 25 22 26 23 27 26 28 27 29 8 30 9 31 10 32
REMARK SMILES IDX 24 33
REMARK H PARENT 24 34
REMARK Flexibility Score: inf
ROOT
ATOM      1  C   UNL     1      16.771  23.069  13.806  1.00  0.00     0.017 C 
ATOM      2  C   UNL     1      16.846  21.942  12.745  1.00  0.00     0.014 C 
ATOM      3  C   UNL     1      15.330  23.653  13.911  1.00  0.00     0.014 C 
ATOM      4  C   UNL     1      17.682  24.233  13.269  1.00  0.00     0.030 C 
ATOM      5  C   UNL     1      18.302  21.458  12.555  1.00  0.00     0.004 C 
ATOM      6  C   UNL     1      15.195  24.868  14.894  1.00  0.00     0.013 C 
ATOM      7  C   UNL     1      17.304  25.627  13.817  1.00  0.00    -0.063 C 
ATOM      8  C   UNL     1      19.184  23.855  13.145  1.00  0.00    -0.003 C 
ATOM      9  C   UNL     1      19.311  22.593  12.215  1.00  0.00    -0.011 C 
ATOM     10  C   UNL     1      16.489  25.743  15.119  1.00  0.00    -0.006 C 
ATOM     11  C   UNL     1      17.157  26.598  12.883  1.00  0.00    -0.027 C 
ATOM     12  C   UNL     1      20.014  25.027  12.584  1.00  0.00     0.008 C 
ATOM     13  C   UNL     1      20.736  22.015  12.229  1.00  0.00     0.008 C 
ATOM     14  C   UNL     1      17.314  25.128  16.307  1.00  0.00     0.017 C 
ATOM     15  C   UNL     1      16.183  27.307  15.445  1.00  0.00    -0.020 C 
ATOM     16  C   UNL     1      15.903  27.416  12.848  1.00  0.00     0.032 C 
ATOM     17  C   UNL     1      15.618  28.119  14.191  1.00  0.00     0.006 C 
ATOM     18  C   UNL     1      15.213  27.444  16.658  1.00  0.00     0.008 C 
ATOM     19  C   UNL     1      17.540  28.009  15.849  1.00  0.00     0.012 C 
ATOM     20  C   UNL     1      14.162  28.760  14.298  1.00  0.00    -0.025 C 
ATOM     21  C   UNL     1      14.732  28.880  16.882  1.00  0.00     0.005 C 
ATOM     22  C   UNL     1      13.982  29.531  15.677  1.00  0.00     0.003 C 
ATOM     23  C   UNL     1      13.957  29.735  13.084  1.00  0.00     0.010 C 
ATOM     24  C   UNL     1      13.020  27.697  14.180  1.00  0.00     0.012 C 
ATOM     25  C   UNL     1      14.154  31.106  15.612  1.00  0.00    -0.006 C 
ATOM     26  C   UNL     1      12.875  30.789  13.320  1.00  0.00     0.033 C 
ATOM     27  C   UNL     1      13.163  31.699  14.540  1.00  0.00     0.120 C 
ATOM     28  C   UNL     1      15.621  31.548  15.333  1.00  0.00     0.014 C 
ATOM     29  C   UNL     1      13.762  31.725  16.983  1.00  0.00     0.014 C 
ENDROOT
BRANCH   1  30
ATOM     30  C   UNL     1      17.134  22.402  15.137  1.00  0.00     0.048 C 
ATOM     31  O   UNL     1      18.300  21.956  15.312  1.00  0.00    -0.550 OA
ATOM     32  O   UNL     1      16.261  22.368  16.216  1.00  0.00    -0.550 OA
ENDBRANCH   1  30
BRANCH  27  33
ATOM     33  O   UNL     1      13.545  32.992  14.129  1.00  0.00    -0.393 OA
ATOM     34  H   UNL     1      13.128  33.169  13.245  1.00  0.00     0.210 HD
ENDBRANCH  27  33
TORSDOF 2
ENDMDL
