MODEL 1
REMARK VINA RESULT:    -5.386      0.000      0.000
REMARK INTER + INTRA:         -11.327
REMARK INTER:                  -9.793
REMARK INTRA:                  -1.534
REMARK UNBOUND:                -1.534
REMARK SMILES CCCCCCCCCCCCCCCC(=O)[O-]
REMARK SMILES IDX 9 1 10 2 11 3 12 4 13 5 14 6 15 7 16 8 17 9 18 10 8 11 7 12
REMARK SMILES IDX 6 13 5 14 4 15 3 16 2 17 1 18
REMARK H PARENT
REMARK Flexibility Score: inf
ROOT
ATOM      1  C   UNL     1      13.100 -13.575  29.698  1.00  0.00     0.000 C 
ENDROOT
BRANCH   1   2
ATOM      2  C   UNL     1      12.981 -13.435  28.171  1.00  0.00     0.000 C 
BRANCH   2   3
ATOM      3  C   UNL     1      14.240 -13.919  27.430  1.00  0.00     0.000 C 
BRANCH   3   4
ATOM      4  C   UNL     1      14.416 -13.241  26.062  1.00  0.00     0.000 C 
BRANCH   4   5
ATOM      5  C   UNL     1      13.182 -12.433  25.636  1.00  0.00     0.000 C 
BRANCH   5   6
ATOM      6  C   UNL     1      13.091 -12.333  24.109  1.00  0.00     0.006 C 
BRANCH   6   7
ATOM      7  C   UNL     1      12.133 -13.384  23.543  1.00  0.00     0.053 C 
BRANCH   7   8
ATOM      8  C   UNL     1      11.818 -13.091  22.111  1.00  0.00     0.041 C 
ATOM      9  O   UNL     1      10.627 -12.913  21.747  1.00  0.00    -0.550 OA
ATOM     10  O   UNL     1      12.847 -12.966  21.185  1.00  0.00    -0.550 OA
ENDBRANCH   7   8
ENDBRANCH   6   7
ENDBRANCH   5   6
ENDBRANCH   4   5
ENDBRANCH   3   4
ENDBRANCH   2   3
ENDBRANCH   1   2
BRANCH   1  11
ATOM     11  C   UNL     1      11.757 -13.617  30.455  1.00  0.00     0.000 C 
BRANCH  11  12
ATOM     12  C   UNL     1      10.526 -13.730  29.530  1.00  0.00    -0.000 C 
BRANCH  12  13
ATOM     13  C   UNL     1       9.488 -12.627  29.808  1.00  0.00    -0.000 C 
BRANCH  13  14
ATOM     14  C   UNL     1       8.707 -12.213  28.550  1.00  0.00    -0.000 C 
BRANCH  14  15
ATOM     15  C   UNL     1       9.458 -12.550  27.251  1.00  0.00    -0.000 C 
BRANCH  15  16
ATOM     16  C   UNL     1       8.510 -12.951  26.110  1.00  0.00    -0.000 C 
BRANCH  16  17
ATOM     17  C   UNL     1       8.947 -12.386  24.750  1.00  0.00    -0.003 C 
ATOM     18  C   UNL     1       9.289 -10.902  24.854  1.00  0.00     0.004 C 
ENDBRANCH  16  17
ENDBRANCH  15  16
ENDBRANCH  14  15
ENDBRANCH  13  14
ENDBRANCH  12  13
ENDBRANCH  11  12
ENDBRANCH   1  11
TORSDOF 14
ENDMDL
MODEL 2
REMARK VINA RESULT:    -5.235      3.151      5.400
REMARK INTER + INTRA:         -11.052
REMARK INTER:                  -9.843
REMARK INTRA:                  -1.209
REMARK UNBOUND:                -1.534
REMARK SMILES CCCCCCCCCCCCCCCC(=O)[O-]
REMARK SMILES IDX 9 1 10 2 11 3 12 4 13 5 14 6 15 7 16 8 17 9 18 10 8 11 7 12
REMARK SMILES IDX 6 13 5 14 4 15 3 16 2 17 1 18
REMARK H PARENT
REMARK Flexibility Score: inf
ROOT
ATOM      1  C   UNL     1      12.293 -13.096  24.203  1.00  0.00     0.000 C 
ENDROOT
BRANCH   1   2
ATOM      2  C   UNL     1      13.052 -11.856  24.705  1.00  0.00     0.000 C 
BRANCH   2   3
ATOM      3  C   UNL     1      14.273 -12.216  25.570  1.00  0.00     0.000 C 
BRANCH   3   4
ATOM      4  C   UNL     1      14.014 -13.426  26.480  1.00  0.00     0.000 C 
BRANCH   4   5
ATOM      5  C   UNL     1      15.137 -13.652  27.503  1.00  0.00     0.000 C 
BRANCH   5   6
ATOM      6  C   UNL     1      14.802 -12.986  28.843  1.00  0.00     0.006 C 
BRANCH   6   7
ATOM      7  C   UNL     1      16.044 -12.340  29.463  1.00  0.00     0.053 C 
BRANCH   7   8
ATOM      8  C   UNL     1      16.702 -11.421  28.484  1.00  0.00     0.041 C 
ATOM      9  O   UNL     1      16.109 -10.383  28.091  1.00  0.00    -0.550 OA
ATOM     10  O   UNL     1      17.992 -11.687  28.041  1.00  0.00    -0.550 OA
ENDBRANCH   7   8
ENDBRANCH   6   7
ENDBRANCH   5   6
ENDBRANCH   4   5
ENDBRANCH   3   4
ENDBRANCH   2   3
ENDBRANCH   1   2
BRANCH   1  11
ATOM     11  C   UNL     1      10.782 -13.102  24.508  1.00  0.00     0.000 C 
BRANCH  11  12
ATOM     12  C   UNL     1      10.144 -11.697  24.518  1.00  0.00    -0.000 C 
BRANCH  12  13
ATOM     13  C   UNL     1       8.802 -11.674  25.273  1.00  0.00    -0.000 C 
BRANCH  13  14
ATOM     14  C   UNL     1       8.706 -12.767  26.349  1.00  0.00    -0.000 C 
BRANCH  14  15
ATOM     15  C   UNL     1       9.040 -12.243  27.756  1.00  0.00    -0.000 C 
BRANCH  15  16
ATOM     16  C   UNL     1       9.149 -13.370  28.794  1.00  0.00    -0.000 C 
BRANCH  16  17
ATOM     17  C   UNL     1      10.127 -13.037  29.931  1.00  0.00    -0.003 C 
ATOM     18  C   UNL     1      11.425 -13.828  29.789  1.00  0.00     0.004 C 
ENDBRANCH  16  17
ENDBRANCH  15  16
ENDBRANCH  14  15
ENDBRANCH  13  14
ENDBRANCH  12  13
ENDBRANCH  11  12
ENDBRANCH   1  11
TORSDOF 14
ENDMDL
MODEL 3
REMARK VINA RESULT:    -5.164      3.961      7.551
REMARK INTER + INTRA:         -10.925
REMARK INTER:                  -9.974
REMARK INTRA:                  -0.951
REMARK UNBOUND:                -1.534
REMARK SMILES CCCCCCCCCCCCCCCC(=O)[O-]
REMARK SMILES IDX 9 1 10 2 11 3 12 4 13 5 14 6 15 7 16 8 17 9 18 10 8 11 7 12
REMARK SMILES IDX 6 13 5 14 4 15 3 16 2 17 1 18
REMARK H PARENT
REMARK Flexibility Score: inf
ROOT
ATOM      1  C   UNL     1      12.212 -12.005  24.979  1.00  0.00     0.000 C 
ENDROOT
BRANCH   1   2
ATOM      2  C   UNL     1      11.428 -12.539  23.768  1.00  0.00     0.000 C 
BRANCH   2   3
ATOM      3  C   UNL     1       9.953 -12.100  23.776  1.00  0.00     0.000 C 
BRANCH   3   4
ATOM      4  C   UNL     1       9.460 -11.713  25.179  1.00  0.00     0.000 C 
BRANCH   4   5
ATOM      5  C   UNL     1       8.553 -12.781  25.806  1.00  0.00     0.000 C 
BRANCH   5   6
ATOM      6  C   UNL     1       8.615 -12.725  27.337  1.00  0.00     0.006 C 
BRANCH   6   7
ATOM      7  C   UNL     1      10.058 -12.839  27.835  1.00  0.00     0.053 C 
BRANCH   7   8
ATOM      8  C   UNL     1      10.088 -13.024  29.319  1.00  0.00     0.041 C 
ATOM      9  O   UNL     1      11.035 -13.652  29.861  1.00  0.00    -0.550 OA
ATOM     10  O   UNL     1       9.093 -12.462  30.110  1.00  0.00    -0.550 OA
ENDBRANCH   7   8
ENDBRANCH   6   7
ENDBRANCH   5   6
ENDBRANCH   4   5
ENDBRANCH   3   4
ENDBRANCH   2   3
ENDBRANCH   1   2
BRANCH   1  11
ATOM     11  C   UNL     1      13.425 -12.860  25.398  1.00  0.00     0.000 C 
BRANCH  11  12
ATOM     12  C   UNL     1      13.416 -14.284  24.803  1.00  0.00    -0.000 C 
BRANCH  12  13
ATOM     13  C   UNL     1      14.595 -15.133  25.312  1.00  0.00    -0.000 C 
BRANCH  13  14
ATOM     14  C   UNL     1      15.900 -14.860  24.545  1.00  0.00    -0.000 C 
BRANCH  14  15
ATOM     15  C   UNL     1      17.149 -15.291  25.332  1.00  0.00    -0.000 C 
BRANCH  15  16
ATOM     16  C   UNL     1      18.401 -15.384  24.446  1.00  0.00    -0.000 C 
BRANCH  16  17
ATOM     17  C   UNL     1      18.914 -16.824  24.293  1.00  0.00    -0.003 C 
ATOM     18  C   UNL     1      19.201 -17.153  22.830  1.00  0.00     0.004 C 
ENDBRANCH  16  17
ENDBRANCH  15  16
ENDBRANCH  14  15
ENDBRANCH  13  14
ENDBRANCH  12  13
ENDBRANCH  11  12
ENDBRANCH   1  11
TORSDOF 14
ENDMDL
MODEL 4
REMARK VINA RESULT:    -5.158      3.370      5.331
REMARK INTER + INTRA:         -10.913
REMARK INTER:                  -9.305
REMARK INTRA:                  -1.608
REMARK UNBOUND:                -1.534
REMARK SMILES CCCCCCCCCCCCCCCC(=O)[O-]
REMARK SMILES IDX 9 1 10 2 11 3 12 4 13 5 14 6 15 7 16 8 17 9 18 10 8 11 7 12
REMARK SMILES IDX 6 13 5 14 4 15 3 16 2 17 1 18
REMARK H PARENT
REMARK Flexibility Score: inf
ROOT
ATOM      1  C   UNL     1      13.814 -13.479  23.836  1.00  0.00     0.000 C 
ENDROOT
BRANCH   1   2
ATOM      2  C   UNL     1      15.280 -13.769  24.199  1.00  0.00     0.000 C 
BRANCH   2   3
ATOM      3  C   UNL     1      15.456 -15.113  24.930  1.00  0.00     0.000 C 
BRANCH   3   4
ATOM      4  C   UNL     1      14.742 -15.141  26.290  1.00  0.00     0.000 C 
BRANCH   4   5
ATOM      5  C   UNL     1      15.536 -14.426  27.393  1.00  0.00     0.000 C 
BRANCH   5   6
ATOM      6  C   UNL     1      14.816 -13.152  27.850  1.00  0.00     0.006 C 
BRANCH   6   7
ATOM      7  C   UNL     1      15.552 -11.899  27.367  1.00  0.00     0.053 C 
BRANCH   7   8
ATOM      8  C   UNL     1      16.086 -11.124  28.529  1.00  0.00     0.041 C 
ATOM      9  O   UNL     1      16.506  -9.948  28.367  1.00  0.00    -0.550 OA
ATOM     10  O   UNL     1      16.075 -11.682  29.801  1.00  0.00    -0.550 OA
ENDBRANCH   7   8
ENDBRANCH   6   7
ENDBRANCH   5   6
ENDBRANCH   4   5
ENDBRANCH   3   4
ENDBRANCH   2   3
ENDBRANCH   1   2
BRANCH   1  11
ATOM     11  C   UNL     1      13.280 -12.117  24.323  1.00  0.00     0.000 C 
BRANCH  11  12
ATOM     12  C   UNL     1      12.172 -12.231  25.392  1.00  0.00    -0.000 C 
BRANCH  12  13
ATOM     13  C   UNL     1      10.809 -12.598  24.777  1.00  0.00    -0.000 C 
BRANCH  13  14
ATOM     14  C   UNL     1       9.843 -11.403  24.712  1.00  0.00    -0.000 C 
BRANCH  14  15
ATOM     15  C   UNL     1       8.808 -11.418  25.849  1.00  0.00    -0.000 C 
BRANCH  15  16
ATOM     16  C   UNL     1       8.952 -12.646  26.762  1.00  0.00    -0.000 C 
BRANCH  16  17
ATOM     17  C   UNL     1       8.970 -12.279  28.253  1.00  0.00    -0.003 C 
ATOM     18  C   UNL     1      10.041 -13.068  29.001  1.00  0.00     0.004 C 
ENDBRANCH  16  17
ENDBRANCH  15  16
ENDBRANCH  14  15
ENDBRANCH  13  14
ENDBRANCH  12  13
ENDBRANCH  11  12
ENDBRANCH   1  11
TORSDOF 14
ENDMDL
MODEL 5
REMARK VINA RESULT:    -5.155      2.110      3.544
REMARK INTER + INTRA:         -10.908
REMARK INTER:                  -9.756
REMARK INTRA:                  -1.152
REMARK UNBOUND:                -1.534
REMARK SMILES CCCCCCCCCCCCCCCC(=O)[O-]
REMARK SMILES IDX 9 1 10 2 11 3 12 4 13 5 14 6 15 7 16 8 17 9 18 10 8 11 7 12
REMARK SMILES IDX 6 13 5 14 4 15 3 16 2 17 1 18
REMARK H PARENT
REMARK Flexibility Score: inf
ROOT
ATOM      1  C   UNL     1      10.985 -13.393  28.963  1.00  0.00     0.000 C 
ENDROOT
BRANCH   1   2
ATOM      2  C   UNL     1      12.042 -13.832  29.990  1.00  0.00     0.000 C 
BRANCH   2   3
ATOM      3  C   UNL     1      13.471 -13.432  29.580  1.00  0.00     0.000 C 
BRANCH   3   4
ATOM      4  C   UNL     1      13.778 -13.767  28.112  1.00  0.00     0.000 C 
BRANCH   4   5
ATOM      5  C   UNL     1      15.193 -13.346  27.690  1.00  0.00     0.000 C 
BRANCH   5   6
ATOM      6  C   UNL     1      16.019 -14.560  27.249  1.00  0.00     0.006 C 
BRANCH   6   7
ATOM      7  C   UNL     1      16.870 -14.232  26.019  1.00  0.00     0.053 C 
BRANCH   7   8
ATOM      8  C   UNL     1      16.228 -14.766  24.779  1.00  0.00     0.041 C 
ATOM      9  O   UNL     1      16.825 -15.623  24.075  1.00  0.00    -0.550 OA
ATOM     10  O   UNL     1      14.948 -14.356  24.426  1.00  0.00    -0.550 OA
ENDBRANCH   7   8
ENDBRANCH   6   7
ENDBRANCH   5   6
ENDBRANCH   4   5
ENDBRANCH   3   4
ENDBRANCH   2   3
ENDBRANCH   1   2
BRANCH   1  11
ATOM     11  C   UNL     1       9.667 -12.869  29.568  1.00  0.00     0.000 C 
BRANCH  11  12
ATOM     12  C   UNL     1       8.695 -12.280  28.524  1.00  0.00    -0.000 C 
BRANCH  12  13
ATOM     13  C   UNL     1       7.986 -13.377  27.708  1.00  0.00    -0.000 C 
BRANCH  13  14
ATOM     14  C   UNL     1       8.168 -13.202  26.191  1.00  0.00    -0.000 C 
BRANCH  14  15
ATOM     15  C   UNL     1       8.993 -11.955  25.835  1.00  0.00    -0.000 C 
BRANCH  15  16
ATOM     16  C   UNL     1       9.459 -11.955  24.370  1.00  0.00    -0.000 C 
BRANCH  16  17
ATOM     17  C   UNL     1      10.989 -11.974  24.235  1.00  0.00    -0.003 C 
ATOM     18  C   UNL     1      11.641 -12.624  25.453  1.00  0.00     0.004 C 
ENDBRANCH  16  17
ENDBRANCH  15  16
ENDBRANCH  14  15
ENDBRANCH  13  14
ENDBRANCH  12  13
ENDBRANCH  11  12
ENDBRANCH   1  11
TORSDOF 14
ENDMDL
MODEL 6
REMARK VINA RESULT:    -5.148      3.432      5.217
REMARK INTER + INTRA:         -10.894
REMARK INTER:                  -9.824
REMARK INTRA:                  -1.070
REMARK UNBOUND:                -1.534
REMARK SMILES CCCCCCCCCCCCCCCC(=O)[O-]
REMARK SMILES IDX 9 1 10 2 11 3 12 4 13 5 14 6 15 7 16 8 17 9 18 10 8 11 7 12
REMARK SMILES IDX 6 13 5 14 4 15 3 16 2 17 1 18
REMARK H PARENT
REMARK Flexibility Score: inf
ROOT
ATOM      1  C   UNL     1      13.887 -12.678  25.611  1.00  0.00     0.000 C 
ENDROOT
BRANCH   1   2
ATOM      2  C   UNL     1      13.458 -13.307  26.948  1.00  0.00     0.000 C 
BRANCH   2   3
ATOM      3  C   UNL     1      14.508 -14.284  27.509  1.00  0.00     0.000 C 
BRANCH   3   4
ATOM      4  C   UNL     1      15.076 -15.220  26.431  1.00  0.00     0.000 C 
BRANCH   4   5
ATOM      5  C   UNL     1      16.571 -14.989  26.172  1.00  0.00     0.000 C 
BRANCH   5   6
ATOM      6  C   UNL     1      16.925 -15.272  24.707  1.00  0.00     0.006 C 
BRANCH   6   7
ATOM      7  C   UNL     1      18.415 -15.036  24.443  1.00  0.00     0.053 C 
BRANCH   7   8
ATOM      8  C   UNL     1      19.009 -16.198  23.715  1.00  0.00     0.041 C 
ATOM      9  O   UNL     1      19.505 -17.162  24.355  1.00  0.00    -0.550 OA
ATOM     10  O   UNL     1      18.973 -16.240  22.326  1.00  0.00    -0.550 OA
ENDBRANCH   7   8
ENDBRANCH   6   7
ENDBRANCH   5   6
ENDBRANCH   4   5
ENDBRANCH   3   4
ENDBRANCH   2   3
ENDBRANCH   1   2
BRANCH   1  11
ATOM     11  C   UNL     1      12.792 -11.861  24.895  1.00  0.00     0.000 C 
BRANCH  11  12
ATOM     12  C   UNL     1      12.028 -12.658  23.817  1.00  0.00    -0.000 C 
BRANCH  12  13
ATOM     13  C   UNL     1      10.587 -12.984  24.249  1.00  0.00    -0.000 C 
BRANCH  13  14
ATOM     14  C   UNL     1       9.686 -11.739  24.305  1.00  0.00    -0.000 C 
BRANCH  14  15
ATOM     15  C   UNL     1       9.083 -11.509  25.701  1.00  0.00    -0.000 C 
BRANCH  15  16
ATOM     16  C   UNL     1       9.635 -12.488  26.750  1.00  0.00    -0.000 C 
BRANCH  16  17
ATOM     17  C   UNL     1       9.009 -12.285  28.138  1.00  0.00    -0.003 C 
ATOM     18  C   UNL     1       9.833 -12.979  29.219  1.00  0.00     0.004 C 
ENDBRANCH  16  17
ENDBRANCH  15  16
ENDBRANCH  14  15
ENDBRANCH  13  14
ENDBRANCH  12  13
ENDBRANCH  11  12
ENDBRANCH   1  11
TORSDOF 14
ENDMDL
MODEL 7
REMARK VINA RESULT:    -5.132      2.850      4.943
REMARK INTER + INTRA:         -10.866
REMARK INTER:                  -9.457
REMARK INTRA:                  -1.409
REMARK UNBOUND:                -1.534
REMARK SMILES CCCCCCCCCCCCCCCC(=O)[O-]
REMARK SMILES IDX 9 1 10 2 11 3 12 4 13 5 14 6 15 7 16 8 17 9 18 10 8 11 7 12
REMARK SMILES IDX 6 13 5 14 4 15 3 16 2 17 1 18
REMARK H PARENT
REMARK Flexibility Score: inf
ROOT
ATOM      1  C   UNL     1      13.088 -12.216  24.574  1.00  0.00     0.000 C 
ENDROOT
BRANCH   1   2
ATOM      2  C   UNL     1      14.382 -11.925  23.793  1.00  0.00     0.000 C 
BRANCH   2   3
ATOM      3  C   UNL     1      14.784 -13.080  22.859  1.00  0.00     0.000 C 
BRANCH   3   4
ATOM      4  C   UNL     1      16.038 -13.822  23.346  1.00  0.00     0.000 C 
BRANCH   4   5
ATOM      5  C   UNL     1      15.705 -15.098  24.133  1.00  0.00     0.000 C 
BRANCH   5   6
ATOM      6  C   UNL     1      15.932 -14.891  25.636  1.00  0.00     0.006 C 
BRANCH   6   7
ATOM      7  C   UNL     1      14.634 -15.093  26.423  1.00  0.00     0.053 C 
BRANCH   7   8
ATOM      8  C   UNL     1      14.532 -14.096  27.532  1.00  0.00     0.041 C 
ATOM      9  O   UNL     1      13.411 -13.625  27.861  1.00  0.00    -0.550 OA
ATOM     10  O   UNL     1      15.670 -13.720  28.236  1.00  0.00    -0.550 OA
ENDBRANCH   7   8
ENDBRANCH   6   7
ENDBRANCH   5   6
ENDBRANCH   4   5
ENDBRANCH   3   4
ENDBRANCH   2   3
ENDBRANCH   1   2
BRANCH   1  11
ATOM     11  C   UNL     1      12.176 -13.289  23.946  1.00  0.00     0.000 C 
BRANCH  11  12
ATOM     12  C   UNL     1      10.723 -13.249  24.463  1.00  0.00    -0.000 C 
BRANCH  12  13
ATOM     13  C   UNL     1      10.022 -11.921  24.122  1.00  0.00    -0.000 C 
BRANCH  13  14
ATOM     14  C   UNL     1       8.989 -11.503  25.182  1.00  0.00    -0.000 C 
BRANCH  14  15
ATOM     15  C   UNL     1       8.698 -12.622  26.196  1.00  0.00    -0.000 C 
BRANCH  15  16
ATOM     16  C   UNL     1       9.089 -12.232  27.631  1.00  0.00    -0.000 C 
BRANCH  16  17
ATOM     17  C   UNL     1       8.252 -12.962  28.692  1.00  0.00    -0.003 C 
ATOM     18  C   UNL     1       8.239 -12.189  30.008  1.00  0.00     0.004 C 
ENDBRANCH  16  17
ENDBRANCH  15  16
ENDBRANCH  14  15
ENDBRANCH  13  14
ENDBRANCH  12  13
ENDBRANCH  11  12
ENDBRANCH   1  11
TORSDOF 14
ENDMDL
MODEL 8
REMARK VINA RESULT:    -5.069      2.398      4.459
REMARK INTER + INTRA:         -10.752
REMARK INTER:                  -9.614
REMARK INTRA:                  -1.138
REMARK UNBOUND:                -1.534
REMARK SMILES CCCCCCCCCCCCCCCC(=O)[O-]
REMARK SMILES IDX 9 1 10 2 11 3 12 4 13 5 14 6 15 7 16 8 17 9 18 10 8 11 7 12
REMARK SMILES IDX 6 13 5 14 4 15 3 16 2 17 1 18
REMARK H PARENT
REMARK Flexibility Score: inf
ROOT
ATOM      1  C   UNL     1      12.201 -13.331  24.531  1.00  0.00     0.000 C 
ENDROOT
BRANCH   1   2
ATOM      2  C   UNL     1      13.013 -12.024  24.541  1.00  0.00     0.000 C 
BRANCH   2   3
ATOM      3  C   UNL     1      13.843 -11.830  23.260  1.00  0.00     0.000 C 
BRANCH   3   4
ATOM      4  C   UNL     1      13.599 -12.941  22.226  1.00  0.00     0.000 C 
BRANCH   4   5
ATOM      5  C   UNL     1      12.862 -12.438  20.977  1.00  0.00     0.000 C 
BRANCH   5   6
ATOM      6  C   UNL     1      11.449 -13.030  20.896  1.00  0.00     0.006 C 
BRANCH   6   7
ATOM      7  C   UNL     1      10.426 -11.964  20.493  1.00  0.00     0.053 C 
BRANCH   7   8
ATOM      8  C   UNL     1       9.958 -12.190  19.091  1.00  0.00     0.041 C 
ATOM      9  O   UNL     1      10.764 -12.086  18.129  1.00  0.00    -0.550 OA
ATOM     10  O   UNL     1       8.642 -12.564  18.850  1.00  0.00    -0.550 OA
ENDBRANCH   7   8
ENDBRANCH   6   7
ENDBRANCH   5   6
ENDBRANCH   4   5
ENDBRANCH   3   4
ENDBRANCH   2   3
ENDBRANCH   1   2
BRANCH   1  11
ATOM     11  C   UNL     1      10.670 -13.146  24.537  1.00  0.00     0.000 C 
BRANCH  11  12
ATOM     12  C   UNL     1      10.203 -11.847  25.227  1.00  0.00    -0.000 C 
BRANCH  12  13
ATOM     13  C   UNL     1       9.075 -12.102  26.243  1.00  0.00    -0.000 C 
BRANCH  13  14
ATOM     14  C   UNL     1       9.600 -12.573  27.610  1.00  0.00    -0.000 C 
BRANCH  14  15
ATOM     15  C   UNL     1       8.492 -13.162  28.498  1.00  0.00    -0.000 C 
BRANCH  15  16
ATOM     16  C   UNL     1       8.011 -12.175  29.573  1.00  0.00    -0.000 C 
BRANCH  16  17
ATOM     17  C   UNL     1       8.915 -12.164  30.815  1.00  0.00    -0.003 C 
ATOM     18  C   UNL     1       8.276 -11.372  31.952  1.00  0.00     0.004 C 
ENDBRANCH  16  17
ENDBRANCH  15  16
ENDBRANCH  14  15
ENDBRANCH  13  14
ENDBRANCH  12  13
ENDBRANCH  11  12
ENDBRANCH   1  11
TORSDOF 14
ENDMDL
MODEL 9
REMARK VINA RESULT:    -4.994      3.179      6.668
REMARK INTER + INTRA:         -10.616
REMARK INTER:                  -9.099
REMARK INTRA:                  -1.516
REMARK UNBOUND:                -1.534
REMARK SMILES CCCCCCCCCCCCCCCC(=O)[O-]
REMARK SMILES IDX 9 1 10 2 11 3 12 4 13 5 14 6 15 7 16 8 17 9 18 10 8 11 7 12
REMARK SMILES IDX 6 13 5 14 4 15 3 16 2 17 1 18
REMARK H PARENT
REMARK Flexibility Score: inf
ROOT
ATOM      1  C   UNL     1      13.738 -13.224  23.943  1.00  0.00     0.000 C 
ENDROOT
BRANCH   1   2
ATOM      2  C   UNL     1      13.164 -12.108  24.834  1.00  0.00     0.000 C 
BRANCH   2   3
ATOM      3  C   UNL     1      11.779 -12.458  25.407  1.00  0.00     0.000 C 
BRANCH   3   4
ATOM      4  C   UNL     1      10.643 -12.181  24.411  1.00  0.00     0.000 C 
BRANCH   4   5
ATOM      5  C   UNL     1       9.263 -12.573  24.959  1.00  0.00     0.000 C 
BRANCH   5   6
ATOM      6  C   UNL     1       9.011 -11.926  26.326  1.00  0.00     0.006 C 
BRANCH   6   7
ATOM      7  C   UNL     1       8.593 -12.973  27.363  1.00  0.00     0.053 C 
BRANCH   7   8
ATOM      8  C   UNL     1       8.988 -12.537  28.737  1.00  0.00     0.041 C 
ATOM      9  O   UNL     1      10.132 -12.812  29.186  1.00  0.00    -0.550 OA
ATOM     10  O   UNL     1       8.110 -11.782  29.507  1.00  0.00    -0.550 OA
ENDBRANCH   7   8
ENDBRANCH   6   7
ENDBRANCH   5   6
ENDBRANCH   4   5
ENDBRANCH   3   4
ENDBRANCH   2   3
ENDBRANCH   1   2
BRANCH   1  11
ATOM     11  C   UNL     1      15.261 -13.432  24.060  1.00  0.00     0.000 C 
BRANCH  11  12
ATOM     12  C   UNL     1      15.682 -14.915  24.123  1.00  0.00    -0.000 C 
BRANCH  12  13
ATOM     13  C   UNL     1      16.311 -15.282  25.480  1.00  0.00    -0.000 C 
BRANCH  13  14
ATOM     14  C   UNL     1      15.415 -14.906  26.672  1.00  0.00    -0.000 C 
BRANCH  14  15
ATOM     15  C   UNL     1      16.162 -14.081  27.734  1.00  0.00    -0.000 C 
BRANCH  15  16
ATOM     16  C   UNL     1      15.347 -12.872  28.221  1.00  0.00    -0.000 C 
BRANCH  16  17
ATOM     17  C   UNL     1      15.752 -11.564  27.525  1.00  0.00    -0.003 C 
ATOM     18  C   UNL     1      17.107 -11.705  26.837  1.00  0.00     0.004 C 
ENDBRANCH  16  17
ENDBRANCH  15  16
ENDBRANCH  14  15
ENDBRANCH  13  14
ENDBRANCH  12  13
ENDBRANCH  11  12
ENDBRANCH   1  11
TORSDOF 14
ENDMDL
