MODEL 1
REMARK VINA RESULT:    -4.431      0.000      0.000
REMARK INTER + INTRA:          -8.506
REMARK INTER:                  -7.669
REMARK INTRA:                  -0.837
REMARK UNBOUND:                -0.837
REMARK SMILES CCCCCCCCCCCCCCO
REMARK SMILES IDX 8 1 7 2 6 3 5 4 4 5 3 6 2 7 1 8 9 9 10 10 11 11 12 12 13 13
REMARK SMILES IDX 14 14 15 15
REMARK H PARENT 15 16
REMARK Flexibility Score: inf
ROOT
ATOM      1  C   UNL     1     -23.860  -2.272 -10.732  1.00  0.00     0.000 C 
ENDROOT
BRANCH   1   2
ATOM      2  C   UNL     1     -23.602  -2.069 -12.239  1.00  0.00    -0.000 C 
BRANCH   2   3
ATOM      3  C   UNL     1     -22.775  -0.823 -12.600  1.00  0.00    -0.000 C 
BRANCH   3   4
ATOM      4  C   UNL     1     -21.260  -1.059 -12.489  1.00  0.00    -0.000 C 
BRANCH   4   5
ATOM      5  C   UNL     1     -20.866  -2.518 -12.771  1.00  0.00    -0.000 C 
BRANCH   5   6
ATOM      6  C   UNL     1     -19.459  -2.863 -12.263  1.00  0.00    -0.000 C 
BRANCH   6   7
ATOM      7  C   UNL     1     -19.033  -4.258 -12.733  1.00  0.00    -0.003 C 
ATOM      8  C   UNL     1     -18.727  -4.268 -14.229  1.00  0.00     0.004 C 
ENDBRANCH   6   7
ENDBRANCH   5   6
ENDBRANCH   4   5
ENDBRANCH   3   4
ENDBRANCH   2   3
ENDBRANCH   1   2
BRANCH   1   9
ATOM      9  C   UNL     1     -24.233  -0.994  -9.955  1.00  0.00     0.000 C 
BRANCH   9  10
ATOM     10  C   UNL     1     -25.725  -0.611 -10.013  1.00  0.00     0.000 C 
BRANCH  10  11
ATOM     11  C   UNL     1     -26.005   0.861 -10.377  1.00  0.00     0.000 C 
BRANCH  11  12
ATOM     12  C   UNL     1     -25.937   1.184 -11.883  1.00  0.00     0.002 C 
BRANCH  12  13
ATOM     13  C   UNL     1     -25.921   2.686 -12.226  1.00  0.00     0.028 C 
BRANCH  13  14
ATOM     14  C   UNL     1     -27.295   3.244 -12.625  1.00  0.00     0.156 C 
BRANCH  14  15
ATOM     15  O   UNL     1     -27.507   3.124 -14.006  1.00  0.00    -0.396 OA
ATOM     16  H   UNL     1     -27.241   2.200 -14.255  1.00  0.00     0.210 HD
ENDBRANCH  14  15
ENDBRANCH  13  14
ENDBRANCH  12  13
ENDBRANCH  11  12
ENDBRANCH  10  11
ENDBRANCH   9  10
ENDBRANCH   1   9
TORSDOF 13
ENDMDL
MODEL 2
REMARK VINA RESULT:    -4.365      2.058      2.364
REMARK INTER + INTRA:          -8.391
REMARK INTER:                  -8.049
REMARK INTRA:                  -0.343
REMARK UNBOUND:                -0.837
REMARK SMILES CCCCCCCCCCCCCCO
REMARK SMILES IDX 8 1 7 2 6 3 5 4 4 5 3 6 2 7 1 8 9 9 10 10 11 11 12 12 13 13
REMARK SMILES IDX 14 14 15 15
REMARK H PARENT 15 16
REMARK Flexibility Score: inf
ROOT
ATOM      1  C   UNL     1     -24.307  -1.464 -11.503  1.00  0.00     0.000 C 
ENDROOT
BRANCH   1   2
ATOM      2  C   UNL     1     -23.071  -1.106 -12.353  1.00  0.00    -0.000 C 
BRANCH   2   3
ATOM      3  C   UNL     1     -21.735  -1.668 -11.836  1.00  0.00    -0.000 C 
BRANCH   3   4
ATOM      4  C   UNL     1     -21.028  -2.568 -12.863  1.00  0.00    -0.000 C 
BRANCH   4   5
ATOM      5  C   UNL     1     -19.505  -2.617 -12.656  1.00  0.00    -0.000 C 
BRANCH   5   6
ATOM      6  C   UNL     1     -19.039  -3.919 -11.988  1.00  0.00    -0.000 C 
BRANCH   6   7
ATOM      7  C   UNL     1     -17.960  -4.610 -12.829  1.00  0.00    -0.003 C 
ATOM      8  C   UNL     1     -18.400  -4.753 -14.283  1.00  0.00     0.004 C 
ENDBRANCH   6   7
ENDBRANCH   5   6
ENDBRANCH   4   5
ENDBRANCH   3   4
ENDBRANCH   2   3
ENDBRANCH   1   2
BRANCH   1   9
ATOM      9  C   UNL     1     -25.041  -0.261 -10.879  1.00  0.00     0.000 C 
BRANCH   9  10
ATOM     10  C   UNL     1     -25.617   0.747 -11.893  1.00  0.00     0.000 C 
BRANCH  10  11
ATOM     11  C   UNL     1     -26.580   1.792 -11.295  1.00  0.00     0.000 C 
BRANCH  11  12
ATOM     12  C   UNL     1     -27.796   1.207 -10.549  1.00  0.00     0.002 C 
BRANCH  12  13
ATOM     13  C   UNL     1     -29.158   1.802 -10.956  1.00  0.00     0.028 C 
BRANCH  13  14
ATOM     14  C   UNL     1     -30.357   0.927 -10.564  1.00  0.00     0.156 C 
BRANCH  14  15
ATOM     15  O   UNL     1     -31.133   0.603 -11.686  1.00  0.00    -0.396 OA
ATOM     16  H   UNL     1     -30.538   0.684 -12.477  1.00  0.00     0.210 HD
ENDBRANCH  14  15
ENDBRANCH  13  14
ENDBRANCH  12  13
ENDBRANCH  11  12
ENDBRANCH  10  11
ENDBRANCH   9  10
ENDBRANCH   1   9
TORSDOF 13
ENDMDL
MODEL 3
REMARK VINA RESULT:    -4.342      3.360      8.218
REMARK INTER + INTRA:          -8.352
REMARK INTER:                  -7.800
REMARK INTRA:                  -0.553
REMARK UNBOUND:                -0.837
REMARK SMILES CCCCCCCCCCCCCCO
REMARK SMILES IDX 8 1 7 2 6 3 5 4 4 5 3 6 2 7 1 8 9 9 10 10 11 11 12 12 13 13
REMARK SMILES IDX 14 14 15 15
REMARK H PARENT 15 16
REMARK Flexibility Score: inf
ROOT
ATOM      1  C   UNL     1     -22.301  -0.861 -12.410  1.00  0.00     0.000 C 
ENDROOT
BRANCH   1   2
ATOM      2  C   UNL     1     -23.837  -0.981 -12.356  1.00  0.00    -0.000 C 
BRANCH   2   3
ATOM      3  C   UNL     1     -24.438  -1.066 -10.942  1.00  0.00    -0.000 C 
BRANCH   3   4
ATOM      4  C   UNL     1     -25.429   0.071 -10.644  1.00  0.00    -0.000 C 
BRANCH   4   5
ATOM      5  C   UNL     1     -25.800   0.876 -11.900  1.00  0.00    -0.000 C 
BRANCH   5   6
ATOM      6  C   UNL     1     -26.941   1.874 -11.651  1.00  0.00    -0.000 C 
BRANCH   6   7
ATOM      7  C   UNL     1     -27.825   1.415 -10.485  1.00  0.00    -0.003 C 
ATOM      8  C   UNL     1     -29.302   1.436 -10.870  1.00  0.00     0.004 C 
ENDBRANCH   6   7
ENDBRANCH   5   6
ENDBRANCH   4   5
ENDBRANCH   3   4
ENDBRANCH   2   3
ENDBRANCH   1   2
BRANCH   1   9
ATOM      9  C   UNL     1     -21.535  -2.191 -12.257  1.00  0.00     0.000 C 
BRANCH   9  10
ATOM     10  C   UNL     1     -20.111  -2.192 -12.845  1.00  0.00     0.000 C 
BRANCH  10  11
ATOM     11  C   UNL     1     -19.586  -3.577 -13.274  1.00  0.00     0.000 C 
BRANCH  11  12
ATOM     12  C   UNL     1     -18.323  -4.054 -12.530  1.00  0.00     0.002 C 
BRANCH  12  13
ATOM     13  C   UNL     1     -18.082  -3.387 -11.162  1.00  0.00     0.028 C 
BRANCH  13  14
ATOM     14  C   UNL     1     -16.817  -2.518 -11.112  1.00  0.00     0.156 C 
BRANCH  14  15
ATOM     15  O   UNL     1     -16.983  -1.342 -11.858  1.00  0.00    -0.396 OA
ATOM     16  H   UNL     1     -16.271  -0.716 -11.563  1.00  0.00     0.210 HD
ENDBRANCH  14  15
ENDBRANCH  13  14
ENDBRANCH  12  13
ENDBRANCH  11  12
ENDBRANCH  10  11
ENDBRANCH   9  10
ENDBRANCH   1   9
TORSDOF 13
ENDMDL
MODEL 4
REMARK VINA RESULT:    -4.333      1.221      1.698
REMARK INTER + INTRA:          -8.336
REMARK INTER:                  -7.812
REMARK INTRA:                  -0.524
REMARK UNBOUND:                -0.837
REMARK SMILES CCCCCCCCCCCCCCO
REMARK SMILES IDX 8 1 7 2 6 3 5 4 4 5 3 6 2 7 1 8 9 9 10 10 11 11 12 12 13 13
REMARK SMILES IDX 14 14 15 15
REMARK H PARENT 15 16
REMARK Flexibility Score: inf
ROOT
ATOM      1  C   UNL     1     -23.115  -1.876 -11.357  1.00  0.00     0.000 C 
ENDROOT
BRANCH   1   2
ATOM      2  C   UNL     1     -22.817  -1.672 -12.856  1.00  0.00    -0.000 C 
BRANCH   2   3
ATOM      3  C   UNL     1     -21.326  -1.545 -13.215  1.00  0.00    -0.000 C 
BRANCH   3   4
ATOM      4  C   UNL     1     -20.428  -2.467 -12.374  1.00  0.00    -0.000 C 
BRANCH   4   5
ATOM      5  C   UNL     1     -19.662  -3.488 -13.231  1.00  0.00    -0.000 C 
BRANCH   5   6
ATOM      6  C   UNL     1     -18.333  -3.920 -12.594  1.00  0.00    -0.000 C 
BRANCH   6   7
ATOM      7  C   UNL     1     -18.173  -3.313 -11.196  1.00  0.00    -0.003 C 
ATOM      8  C   UNL     1     -16.815  -2.633 -11.041  1.00  0.00     0.004 C 
ENDBRANCH   6   7
ENDBRANCH   5   6
ENDBRANCH   4   5
ENDBRANCH   3   4
ENDBRANCH   2   3
ENDBRANCH   1   2
BRANCH   1   9
ATOM      9  C   UNL     1     -24.335  -1.100 -10.821  1.00  0.00     0.000 C 
BRANCH   9  10
ATOM     10  C   UNL     1     -25.063  -0.232 -11.866  1.00  0.00     0.000 C 
BRANCH  10  11
ATOM     11  C   UNL     1     -26.012   0.832 -11.280  1.00  0.00     0.000 C 
BRANCH  11  12
ATOM     12  C   UNL     1     -26.107   2.139 -12.091  1.00  0.00     0.002 C 
BRANCH  12  13
ATOM     13  C   UNL     1     -27.320   3.028 -11.754  1.00  0.00     0.028 C 
BRANCH  13  14
ATOM     14  C   UNL     1     -27.772   3.923 -12.917  1.00  0.00     0.156 C 
BRANCH  14  15
ATOM     15  O   UNL     1     -27.601   3.274 -14.149  1.00  0.00    -0.396 OA
ATOM     16  H   UNL     1     -28.010   3.860 -14.838  1.00  0.00     0.210 HD
ENDBRANCH  14  15
ENDBRANCH  13  14
ENDBRANCH  12  13
ENDBRANCH  11  12
ENDBRANCH  10  11
ENDBRANCH   9  10
ENDBRANCH   1   9
TORSDOF 13
ENDMDL
MODEL 5
REMARK VINA RESULT:    -4.268      3.522      7.965
REMARK INTER + INTRA:          -8.224
REMARK INTER:                  -7.554
REMARK INTRA:                  -0.670
REMARK UNBOUND:                -0.837
REMARK SMILES CCCCCCCCCCCCCCO
REMARK SMILES IDX 8 1 7 2 6 3 5 4 4 5 3 6 2 7 1 8 9 9 10 10 11 11 12 12 13 13
REMARK SMILES IDX 14 14 15 15
REMARK H PARENT 15 16
REMARK Flexibility Score: inf
ROOT
ATOM      1  C   UNL     1     -23.822  -1.912 -12.473  1.00  0.00     0.000 C 
ENDROOT
BRANCH   1   2
ATOM      2  C   UNL     1     -23.757  -2.411 -11.016  1.00  0.00    -0.000 C 
BRANCH   2   3
ATOM      3  C   UNL     1     -24.575  -1.589 -10.005  1.00  0.00    -0.000 C 
BRANCH   3   4
ATOM      4  C   UNL     1     -24.971  -0.204 -10.542  1.00  0.00    -0.000 C 
BRANCH   4   5
ATOM      5  C   UNL     1     -26.241   0.348  -9.875  1.00  0.00    -0.000 C 
BRANCH   5   6
ATOM      6  C   UNL     1     -27.046   1.272 -10.802  1.00  0.00    -0.000 C 
BRANCH   6   7
ATOM      7  C   UNL     1     -26.203   1.709 -12.005  1.00  0.00    -0.003 C 
ATOM      8  C   UNL     1     -26.655   3.068 -12.532  1.00  0.00     0.004 C 
ENDBRANCH   6   7
ENDBRANCH   5   6
ENDBRANCH   4   5
ENDBRANCH   3   4
ENDBRANCH   2   3
ENDBRANCH   1   2
BRANCH   1   9
ATOM      9  C   UNL     1     -22.511  -1.311 -13.017  1.00  0.00     0.000 C 
BRANCH   9  10
ATOM     10  C   UNL     1     -21.239  -1.727 -12.253  1.00  0.00     0.000 C 
BRANCH  10  11
ATOM     11  C   UNL     1     -20.481  -2.926 -12.857  1.00  0.00     0.000 C 
BRANCH  11  12
ATOM     12  C   UNL     1     -18.952  -2.896 -12.661  1.00  0.00     0.002 C 
BRANCH  12  13
ATOM     13  C   UNL     1     -18.240  -4.244 -12.888  1.00  0.00     0.028 C 
BRANCH  13  14
ATOM     14  C   UNL     1     -18.414  -4.804 -14.307  1.00  0.00     0.156 C 
BRANCH  14  15
ATOM     15  O   UNL     1     -17.793  -6.055 -14.436  1.00  0.00    -0.396 OA
ATOM     16  H   UNL     1     -17.562  -6.353 -13.518  1.00  0.00     0.210 HD
ENDBRANCH  14  15
ENDBRANCH  13  14
ENDBRANCH  12  13
ENDBRANCH  11  12
ENDBRANCH  10  11
ENDBRANCH   9  10
ENDBRANCH   1   9
TORSDOF 13
ENDMDL
MODEL 6
REMARK VINA RESULT:    -4.224      3.733      8.497
REMARK INTER + INTRA:          -8.148
REMARK INTER:                  -7.762
REMARK INTRA:                  -0.386
REMARK UNBOUND:                -0.837
REMARK SMILES CCCCCCCCCCCCCCO
REMARK SMILES IDX 8 1 7 2 6 3 5 4 4 5 3 6 2 7 1 8 9 9 10 10 11 11 12 12 13 13
REMARK SMILES IDX 14 14 15 15
REMARK H PARENT 15 16
REMARK Flexibility Score: inf
ROOT
ATOM      1  C   UNL     1     -23.780  -1.714 -12.503  1.00  0.00     0.000 C 
ENDROOT
BRANCH   1   2
ATOM      2  C   UNL     1     -24.705  -0.890 -11.584  1.00  0.00    -0.000 C 
BRANCH   2   3
ATOM      3  C   UNL     1     -25.122   0.484 -12.136  1.00  0.00    -0.000 C 
BRANCH   3   4
ATOM      4  C   UNL     1     -26.138   1.206 -11.236  1.00  0.00    -0.000 C 
BRANCH   4   5
ATOM      5  C   UNL     1     -27.041   2.172 -12.020  1.00  0.00    -0.000 C 
BRANCH   5   6
ATOM      6  C   UNL     1     -28.397   2.405 -11.338  1.00  0.00    -0.000 C 
BRANCH   6   7
ATOM      7  C   UNL     1     -28.784   1.205 -10.465  1.00  0.00    -0.003 C 
ATOM      8  C   UNL     1     -30.262   0.859 -10.625  1.00  0.00     0.004 C 
ENDBRANCH   6   7
ENDBRANCH   5   6
ENDBRANCH   4   5
ENDBRANCH   3   4
ENDBRANCH   2   3
ENDBRANCH   1   2
BRANCH   1   9
ATOM      9  C   UNL     1     -22.461  -1.019 -12.896  1.00  0.00     0.000 C 
BRANCH   9  10
ATOM     10  C   UNL     1     -21.211  -1.533 -12.156  1.00  0.00     0.000 C 
BRANCH  10  11
ATOM     11  C   UNL     1     -20.439  -2.652 -12.884  1.00  0.00     0.000 C 
BRANCH  11  12
ATOM     12  C   UNL     1     -18.954  -2.783 -12.490  1.00  0.00     0.002 C 
BRANCH  12  13
ATOM     13  C   UNL     1     -18.310  -4.143 -12.822  1.00  0.00     0.028 C 
BRANCH  13  14
ATOM     14  C   UNL     1     -18.746  -4.718 -14.177  1.00  0.00     0.156 C 
BRANCH  14  15
ATOM     15  O   UNL     1     -18.031  -5.886 -14.483  1.00  0.00    -0.396 OA
ATOM     16  H   UNL     1     -18.286  -6.141 -15.408  1.00  0.00     0.210 HD
ENDBRANCH  14  15
ENDBRANCH  13  14
ENDBRANCH  12  13
ENDBRANCH  11  12
ENDBRANCH  10  11
ENDBRANCH   9  10
ENDBRANCH   1   9
TORSDOF 13
ENDMDL
MODEL 7
REMARK VINA RESULT:    -4.169      1.320      1.544
REMARK INTER + INTRA:          -8.052
REMARK INTER:                  -7.510
REMARK INTRA:                  -0.542
REMARK UNBOUND:                -0.837
REMARK SMILES CCCCCCCCCCCCCCO
REMARK SMILES IDX 8 1 7 2 6 3 5 4 4 5 3 6 2 7 1 8 9 9 10 10 11 11 12 12 13 13
REMARK SMILES IDX 14 14 15 15
REMARK H PARENT 15 16
REMARK Flexibility Score: inf
ROOT
ATOM      1  C   UNL     1     -24.294  -1.151 -12.027  1.00  0.00     0.000 C 
ENDROOT
BRANCH   1   2
ATOM      2  C   UNL     1     -23.222  -2.259 -11.990  1.00  0.00    -0.000 C 
BRANCH   2   3
ATOM      3  C   UNL     1     -21.819  -1.799 -11.557  1.00  0.00    -0.000 C 
BRANCH   3   4
ATOM      4  C   UNL     1     -20.832  -1.704 -12.732  1.00  0.00    -0.000 C 
BRANCH   4   5
ATOM      5  C   UNL     1     -20.142  -3.044 -13.034  1.00  0.00    -0.000 C 
BRANCH   5   6
ATOM      6  C   UNL     1     -19.009  -3.365 -12.048  1.00  0.00    -0.000 C 
BRANCH   6   7
ATOM      7  C   UNL     1     -18.002  -4.339 -12.670  1.00  0.00    -0.003 C 
ATOM      8  C   UNL     1     -18.419  -4.738 -14.083  1.00  0.00     0.004 C 
ENDBRANCH   6   7
ENDBRANCH   5   6
ENDBRANCH   4   5
ENDBRANCH   3   4
ENDBRANCH   2   3
ENDBRANCH   1   2
BRANCH   1   9
ATOM      9  C   UNL     1     -24.873  -0.756 -10.653  1.00  0.00     0.000 C 
BRANCH   9  10
ATOM     10  C   UNL     1     -25.834   0.448 -10.676  1.00  0.00     0.000 C 
BRANCH  10  11
ATOM     11  C   UNL     1     -25.876   1.221 -12.010  1.00  0.00     0.000 C 
BRANCH  11  12
ATOM     12  C   UNL     1     -26.217   2.719 -11.885  1.00  0.00     0.002 C 
BRANCH  12  13
ATOM     13  C   UNL     1     -27.179   3.074 -10.735  1.00  0.00     0.028 C 
BRANCH  13  14
ATOM     14  C   UNL     1     -28.628   3.300 -11.189  1.00  0.00     0.156 C 
BRANCH  14  15
ATOM     15  O   UNL     1     -29.254   2.083 -11.501  1.00  0.00    -0.396 OA
ATOM     16  H   UNL     1     -28.762   1.700 -12.273  1.00  0.00     0.210 HD
ENDBRANCH  14  15
ENDBRANCH  13  14
ENDBRANCH  12  13
ENDBRANCH  11  12
ENDBRANCH  10  11
ENDBRANCH   9  10
ENDBRANCH   1   9
TORSDOF 13
ENDMDL
MODEL 8
REMARK VINA RESULT:    -4.148      3.197      8.226
REMARK INTER + INTRA:          -8.016
REMARK INTER:                  -7.503
REMARK INTRA:                  -0.512
REMARK UNBOUND:                -0.837
REMARK SMILES CCCCCCCCCCCCCCO
REMARK SMILES IDX 8 1 7 2 6 3 5 4 4 5 3 6 2 7 1 8 9 9 10 10 11 11 12 12 13 13
REMARK SMILES IDX 14 14 15 15
REMARK H PARENT 15 16
REMARK Flexibility Score: inf
ROOT
ATOM      1  C   UNL     1     -23.750  -1.619 -12.114  1.00  0.00     0.000 C 
ENDROOT
BRANCH   1   2
ATOM      2  C   UNL     1     -24.647  -0.911 -11.079  1.00  0.00    -0.000 C 
BRANCH   2   3
ATOM      3  C   UNL     1     -25.417   0.312 -11.607  1.00  0.00    -0.000 C 
BRANCH   3   4
ATOM      4  C   UNL     1     -26.281   0.986 -10.528  1.00  0.00    -0.000 C 
BRANCH   4   5
ATOM      5  C   UNL     1     -26.617   2.447 -10.867  1.00  0.00    -0.000 C 
BRANCH   5   6
ATOM      6  C   UNL     1     -26.137   2.858 -12.267  1.00  0.00    -0.000 C 
BRANCH   6   7
ATOM      7  C   UNL     1     -27.275   3.498 -13.070  1.00  0.00    -0.003 C 
ATOM      8  C   UNL     1     -28.166   4.357 -12.177  1.00  0.00     0.004 C 
ENDBRANCH   6   7
ENDBRANCH   5   6
ENDBRANCH   4   5
ENDBRANCH   3   4
ENDBRANCH   2   3
ENDBRANCH   1   2
BRANCH   1   9
ATOM      9  C   UNL     1     -22.796  -0.693 -12.895  1.00  0.00     0.000 C 
BRANCH   9  10
ATOM     10  C   UNL     1     -21.299  -1.024 -12.739  1.00  0.00     0.000 C 
BRANCH  10  11
ATOM     11  C   UNL     1     -20.970  -2.529 -12.670  1.00  0.00     0.000 C 
BRANCH  11  12
ATOM     12  C   UNL     1     -19.480  -2.880 -12.855  1.00  0.00     0.002 C 
BRANCH  12  13
ATOM     13  C   UNL     1     -19.150  -4.383 -12.776  1.00  0.00     0.028 C 
BRANCH  13  14
ATOM     14  C   UNL     1     -17.976  -4.806 -13.670  1.00  0.00     0.156 C 
BRANCH  14  15
ATOM     15  O   UNL     1     -17.991  -4.108 -14.887  1.00  0.00    -0.396 OA
ATOM     16  H   UNL     1     -18.659  -4.561 -15.465  1.00  0.00     0.210 HD
ENDBRANCH  14  15
ENDBRANCH  13  14
ENDBRANCH  12  13
ENDBRANCH  11  12
ENDBRANCH  10  11
ENDBRANCH   9  10
ENDBRANCH   1   9
TORSDOF 13
ENDMDL
MODEL 9
REMARK VINA RESULT:    -3.851      1.676      2.488
REMARK INTER + INTRA:          -7.502
REMARK INTER:                  -7.190
REMARK INTRA:                  -0.312
REMARK UNBOUND:                -0.837
REMARK SMILES CCCCCCCCCCCCCCO
REMARK SMILES IDX 8 1 7 2 6 3 5 4 4 5 3 6 2 7 1 8 9 9 10 10 11 11 12 12 13 13
REMARK SMILES IDX 14 14 15 15
REMARK H PARENT 15 16
REMARK Flexibility Score: inf
ROOT
ATOM      1  C   UNL     1     -24.775   0.062 -12.128  1.00  0.00     0.000 C 
ENDROOT
BRANCH   1   2
ATOM      2  C   UNL     1     -24.328  -1.264 -11.481  1.00  0.00    -0.000 C 
BRANCH   2   3
ATOM      3  C   UNL     1     -23.226  -2.024 -12.239  1.00  0.00    -0.000 C 
BRANCH   3   4
ATOM      4  C   UNL     1     -22.110  -1.099 -12.756  1.00  0.00    -0.000 C 
BRANCH   4   5
ATOM      5  C   UNL     1     -20.704  -1.649 -12.464  1.00  0.00    -0.000 C 
BRANCH   5   6
ATOM      6  C   UNL     1     -20.418  -2.967 -13.199  1.00  0.00    -0.000 C 
BRANCH   6   7
ATOM      7  C   UNL     1     -18.975  -3.426 -12.958  1.00  0.00    -0.003 C 
ATOM      8  C   UNL     1     -18.601  -4.580 -13.884  1.00  0.00     0.004 C 
ENDBRANCH   6   7
ENDBRANCH   5   6
ENDBRANCH   4   5
ENDBRANCH   3   4
ENDBRANCH   2   3
ENDBRANCH   1   2
BRANCH   1   9
ATOM      9  C   UNL     1     -25.797   0.877 -11.309  1.00  0.00     0.000 C 
BRANCH   9  10
ATOM     10  C   UNL     1     -26.840   1.641 -12.148  1.00  0.00     0.000 C 
BRANCH  10  11
ATOM     11  C   UNL     1     -26.494   3.117 -12.428  1.00  0.00     0.000 C 
BRANCH  11  12
ATOM     12  C   UNL     1     -27.705   4.067 -12.509  1.00  0.00     0.002 C 
BRANCH  12  13
ATOM     13  C   UNL     1     -27.437   5.507 -12.033  1.00  0.00     0.028 C 
BRANCH  13  14
ATOM     14  C   UNL     1     -28.595   6.476 -12.312  1.00  0.00     0.156 C 
BRANCH  14  15
ATOM     15  O   UNL     1     -28.796   6.639 -13.690  1.00  0.00    -0.396 OA
ATOM     16  H   UNL     1     -28.737   5.735 -14.095  1.00  0.00     0.210 HD
ENDBRANCH  14  15
ENDBRANCH  13  14
ENDBRANCH  12  13
ENDBRANCH  11  12
ENDBRANCH  10  11
ENDBRANCH   9  10
ENDBRANCH   1   9
TORSDOF 13
ENDMDL
