MODEL 1
REMARK VINA RESULT:    -7.870      0.000      0.000
REMARK INTER + INTRA:          -9.523
REMARK INTER:                  -9.250
REMARK INTRA:                  -0.273
REMARK UNBOUND:                -0.273
REMARK SMILES O=c1cc(-c2ccc(O)c(O)c2)oc2cc(O)cc(O)c12
REMARK SMILES IDX 4 1 3 2 2 3 1 4 21 5 19 6 18 7 16 8 15 9 14 10 13 11 5 12
REMARK SMILES IDX 6 13 7 14 8 15 12 16 10 17 9 18 11 20 20 22 17 24
REMARK H PARENT 9 19 11 21 20 23 17 25
REMARK Flexibility Score: inf
ROOT
ATOM      1  C   UNL     1      -4.243  38.771  43.199  1.00  0.00     0.138 A 
ATOM      2  C   UNL     1      -3.187  38.278  42.419  1.00  0.00     0.100 A 
ATOM      3  C   UNL     1      -2.773  36.955  42.576  1.00  0.00     0.197 A 
ATOM      4  O   UNL     1      -1.864  36.525  41.819  1.00  0.00    -0.289 OA
ATOM      5  C   UNL     1      -3.398  36.131  43.541  1.00  0.00     0.107 A 
ATOM      6  C   UNL     1      -3.031  34.779  43.816  1.00  0.00     0.134 A 
ATOM      7  C   UNL     1      -3.799  34.025  44.712  1.00  0.00     0.093 A 
ATOM      8  C   UNL     1      -4.881  34.589  45.387  1.00  0.00     0.123 A 
ATOM      9  C   UNL     1      -5.215  35.926  45.166  1.00  0.00     0.094 A 
ATOM     10  C   UNL     1      -4.491  36.695  44.252  1.00  0.00     0.146 A 
ATOM     11  O   UNL     1      -4.850  37.960  44.060  1.00  0.00    -0.456 OA
ENDROOT
BRANCH   1  12
ATOM     12  C   UNL     1      -4.724  40.170  43.075  1.00  0.00     0.021 A 
ATOM     13  C   UNL     1      -4.970  40.970  44.207  1.00  0.00     0.016 A 
ATOM     14  C   UNL     1      -5.432  42.281  44.061  1.00  0.00     0.051 A 
ATOM     15  C   UNL     1      -5.662  42.813  42.789  1.00  0.00     0.157 A 
ATOM     16  C   UNL     1      -4.970  40.707  41.799  1.00  0.00     0.062 A 
ATOM     17  C   UNL     1      -5.433  42.023  41.651  1.00  0.00     0.158 A 
BRANCH  15  18
ATOM     18  O   UNL     1      -6.122  44.125  42.676  1.00  0.00    -0.504 OA
ATOM     19  H   UNL     1      -7.110  44.347  42.629  1.00  0.00     0.293 HD
ENDBRANCH  15  18
BRANCH  17  20
ATOM     20  O   UNL     1      -5.665  42.545  40.380  1.00  0.00    -0.504 OA
ATOM     21  H   UNL     1      -6.343  43.281  40.224  1.00  0.00     0.293 HD
ENDBRANCH  17  20
ENDBRANCH   1  12
BRANCH   6  22
ATOM     22  O   UNL     1      -1.917  34.144  43.260  1.00  0.00    -0.507 OA
ATOM     23  H   UNL     1      -1.935  33.249  42.796  1.00  0.00     0.293 HD
ENDBRANCH   6  22
BRANCH   8  24
ATOM     24  O   UNL     1      -5.613  33.813  46.283  1.00  0.00    -0.508 OA
ATOM     25  H   UNL     1      -6.566  33.531  46.086  1.00  0.00     0.293 HD
ENDBRANCH   8  24
TORSDOF 5
ENDMDL
MODEL 2
REMARK VINA RESULT:    -7.543      1.351      2.751
REMARK INTER + INTRA:          -9.139
REMARK INTER:                  -8.876
REMARK INTRA:                  -0.263
REMARK UNBOUND:                -0.273
REMARK SMILES O=c1cc(-c2ccc(O)c(O)c2)oc2cc(O)cc(O)c12
REMARK SMILES IDX 4 1 3 2 2 3 1 4 21 5 19 6 18 7 16 8 15 9 14 10 13 11 5 12
REMARK SMILES IDX 6 13 7 14 8 15 12 16 10 17 9 18 11 20 20 22 17 24
REMARK H PARENT 9 19 11 21 20 23 17 25
REMARK Flexibility Score: inf
ROOT
ATOM      1  C   UNL     1      -4.304  38.671  43.093  1.00  0.00     0.138 A 
ATOM      2  C   UNL     1      -5.208  37.673  43.484  1.00  0.00     0.100 A 
ATOM      3  C   UNL     1      -4.778  36.348  43.568  1.00  0.00     0.197 A 
ATOM      4  O   UNL     1      -5.595  35.485  43.982  1.00  0.00    -0.289 OA
ATOM      5  C   UNL     1      -3.445  36.017  43.228  1.00  0.00     0.107 A 
ATOM      6  C   UNL     1      -2.908  34.694  43.238  1.00  0.00     0.134 A 
ATOM      7  C   UNL     1      -1.542  34.503  42.994  1.00  0.00     0.093 A 
ATOM      8  C   UNL     1      -0.707  35.576  42.683  1.00  0.00     0.123 A 
ATOM      9  C   UNL     1      -1.234  36.867  42.618  1.00  0.00     0.094 A 
ATOM     10  C   UNL     1      -2.585  37.096  42.890  1.00  0.00     0.146 A 
ATOM     11  O   UNL     1      -3.044  38.342  42.831  1.00  0.00    -0.456 OA
ENDROOT
BRANCH   1  12
ATOM     12  C   UNL     1      -4.708  40.095  42.985  1.00  0.00     0.021 A 
ATOM     13  C   UNL     1      -4.858  40.910  44.123  1.00  0.00     0.016 A 
ATOM     14  C   UNL     1      -5.249  42.245  43.993  1.00  0.00     0.051 A 
ATOM     15  C   UNL     1      -5.503  42.788  42.731  1.00  0.00     0.157 A 
ATOM     16  C   UNL     1      -4.978  40.645  41.718  1.00  0.00     0.062 A 
ATOM     17  C   UNL     1      -5.369  41.986  41.587  1.00  0.00     0.158 A 
BRANCH  15  18
ATOM     18  O   UNL     1      -5.891  44.125  42.634  1.00  0.00    -0.504 OA
ATOM     19  H   UNL     1      -6.793  44.398  42.262  1.00  0.00     0.293 HD
ENDBRANCH  15  18
BRANCH  17  20
ATOM     20  O   UNL     1      -5.626  42.520  40.325  1.00  0.00    -0.504 OA
ATOM     21  H   UNL     1      -6.530  42.417  39.879  1.00  0.00     0.293 HD
ENDBRANCH  17  20
ENDBRANCH   1  12
BRANCH   6  22
ATOM     22  O   UNL     1      -3.671  33.544  43.453  1.00  0.00    -0.507 OA
ATOM     23  H   UNL     1      -4.357  33.435  44.184  1.00  0.00     0.293 HD
ENDBRANCH   6  22
BRANCH   8  24
ATOM     24  O   UNL     1       0.644  35.346  42.432  1.00  0.00    -0.508 OA
ATOM     25  H   UNL     1       1.097  35.705  41.600  1.00  0.00     0.293 HD
ENDBRANCH   8  24
TORSDOF 5
ENDMDL
MODEL 3
REMARK VINA RESULT:    -7.377      3.971      5.940
REMARK INTER + INTRA:          -8.944
REMARK INTER:                  -8.631
REMARK INTRA:                  -0.313
REMARK UNBOUND:                -0.273
REMARK SMILES O=c1cc(-c2ccc(O)c(O)c2)oc2cc(O)cc(O)c12
REMARK SMILES IDX 4 1 3 2 2 3 1 4 21 5 19 6 18 7 16 8 15 9 14 10 13 11 5 12
REMARK SMILES IDX 6 13 7 14 8 15 12 16 10 17 9 18 11 20 20 22 17 24
REMARK H PARENT 9 19 11 21 20 23 17 25
REMARK Flexibility Score: inf
ROOT
ATOM      1  C   UNL     1      -0.421  37.983  42.145  1.00  0.00     0.138 A 
ATOM      2  C   UNL     1      -1.680  38.457  41.751  1.00  0.00     0.100 A 
ATOM      3  C   UNL     1      -2.801  37.638  41.888  1.00  0.00     0.197 A 
ATOM      4  O   UNL     1      -3.925  38.114  41.584  1.00  0.00    -0.289 OA
ATOM      5  C   UNL     1      -2.654  36.324  42.394  1.00  0.00     0.107 A 
ATOM      6  C   UNL     1      -3.720  35.386  42.540  1.00  0.00     0.134 A 
ATOM      7  C   UNL     1      -3.475  34.155  43.161  1.00  0.00     0.093 A 
ATOM      8  C   UNL     1      -2.194  33.804  43.586  1.00  0.00     0.123 A 
ATOM      9  C   UNL     1      -1.134  34.692  43.399  1.00  0.00     0.094 A 
ATOM     10  C   UNL     1      -1.352  35.942  42.815  1.00  0.00     0.146 A 
ATOM     11  O   UNL     1      -0.319  36.765  42.667  1.00  0.00    -0.456 OA
ENDROOT
BRANCH   1  12
ATOM     12  C   UNL     1       0.804  38.811  42.019  1.00  0.00     0.021 A 
ATOM     13  C   UNL     1       0.861  39.922  41.156  1.00  0.00     0.016 A 
ATOM     14  C   UNL     1       2.031  40.679  41.050  1.00  0.00     0.051 A 
ATOM     15  C   UNL     1       3.164  40.338  41.794  1.00  0.00     0.157 A 
ATOM     16  C   UNL     1       1.952  38.466  42.755  1.00  0.00     0.062 A 
ATOM     17  C   UNL     1       3.127  39.226  42.650  1.00  0.00     0.158 A 
BRANCH  15  18
ATOM     18  O   UNL     1       4.316  41.113  41.667  1.00  0.00    -0.504 OA
ATOM     19  H   UNL     1       4.742  41.301  40.767  1.00  0.00     0.293 HD
ENDBRANCH  15  18
BRANCH  17  20
ATOM     20  O   UNL     1       4.255  38.877  43.391  1.00  0.00    -0.504 OA
ATOM     21  H   UNL     1       4.772  39.565  43.926  1.00  0.00     0.293 HD
ENDBRANCH  17  20
ENDBRANCH   1  12
BRANCH   6  22
ATOM     22  O   UNL     1      -5.020  35.602  42.074  1.00  0.00    -0.507 OA
ATOM     23  H   UNL     1      -5.726  34.889  41.981  1.00  0.00     0.293 HD
ENDBRANCH   6  22
BRANCH   8  24
ATOM     24  O   UNL     1      -1.984  32.564  44.186  1.00  0.00    -0.508 OA
ATOM     25  H   UNL     1      -1.691  32.486  45.153  1.00  0.00     0.293 HD
ENDBRANCH   8  24
TORSDOF 5
ENDMDL
MODEL 4
REMARK VINA RESULT:    -7.006      4.391      6.958
REMARK INTER + INTRA:          -8.509
REMARK INTER:                  -8.246
REMARK INTRA:                  -0.263
REMARK UNBOUND:                -0.273
REMARK SMILES O=c1cc(-c2ccc(O)c(O)c2)oc2cc(O)cc(O)c12
REMARK SMILES IDX 4 1 3 2 2 3 1 4 21 5 19 6 18 7 16 8 15 9 14 10 13 11 5 12
REMARK SMILES IDX 6 13 7 14 8 15 12 16 10 17 9 18 11 20 20 22 17 24
REMARK H PARENT 9 19 11 21 20 23 17 25
REMARK Flexibility Score: inf
ROOT
ATOM      1  C   UNL     1       0.358  37.715  42.286  1.00  0.00     0.138 A 
ATOM      2  C   UNL     1       0.033  36.474  42.853  1.00  0.00     0.100 A 
ATOM      3  C   UNL     1      -1.305  36.090  42.950  1.00  0.00     0.197 A 
ATOM      4  O   UNL     1      -1.562  34.946  43.406  1.00  0.00    -0.289 OA
ATOM      5  C   UNL     1      -2.323  36.967  42.507  1.00  0.00     0.107 A 
ATOM      6  C   UNL     1      -3.723  36.697  42.595  1.00  0.00     0.134 A 
ATOM      7  C   UNL     1      -4.634  37.590  42.017  1.00  0.00     0.093 A 
ATOM      8  C   UNL     1      -4.203  38.769  41.410  1.00  0.00     0.123 A 
ATOM      9  C   UNL     1      -2.840  39.068  41.366  1.00  0.00     0.094 A 
ATOM     10  C   UNL     1      -1.903  38.181  41.902  1.00  0.00     0.146 A 
ATOM     11  O   UNL     1      -0.614  38.496  41.828  1.00  0.00    -0.456 OA
ENDROOT
BRANCH   1  12
ATOM     12  C   UNL     1       1.764  38.174  42.159  1.00  0.00     0.021 A 
ATOM     13  C   UNL     1       2.380  38.957  43.154  1.00  0.00     0.016 A 
ATOM     14  C   UNL     1       3.702  39.384  43.004  1.00  0.00     0.051 A 
ATOM     15  C   UNL     1       4.428  39.047  41.859  1.00  0.00     0.157 A 
ATOM     16  C   UNL     1       2.497  37.849  41.003  1.00  0.00     0.062 A 
ATOM     17  C   UNL     1       3.824  38.277  40.852  1.00  0.00     0.158 A 
BRANCH  15  18
ATOM     18  O   UNL     1       5.746  39.487  41.738  1.00  0.00    -0.504 OA
ATOM     19  H   UNL     1       6.343  39.625  42.545  1.00  0.00     0.293 HD
ENDBRANCH  15  18
BRANCH  17  20
ATOM     20  O   UNL     1       4.542  37.941  39.705  1.00  0.00    -0.504 OA
ATOM     21  H   UNL     1       4.096  37.500  38.909  1.00  0.00     0.293 HD
ENDBRANCH  17  20
ENDBRANCH   1  12
BRANCH   6  22
ATOM     22  O   UNL     1      -4.265  35.591  43.255  1.00  0.00    -0.507 OA
ATOM     23  H   UNL     1      -4.196  34.638  42.935  1.00  0.00     0.293 HD
ENDBRANCH   6  22
BRANCH   8  24
ATOM     24  O   UNL     1      -5.139  39.641  40.858  1.00  0.00    -0.508 OA
ATOM     25  H   UNL     1      -5.430  40.482  41.342  1.00  0.00     0.293 HD
ENDBRANCH   8  24
TORSDOF 5
ENDMDL
MODEL 5
REMARK VINA RESULT:    -6.896      2.525      3.891
REMARK INTER + INTRA:          -8.379
REMARK INTER:                  -8.086
REMARK INTRA:                  -0.294
REMARK UNBOUND:                -0.273
REMARK SMILES O=c1cc(-c2ccc(O)c(O)c2)oc2cc(O)cc(O)c12
REMARK SMILES IDX 4 1 3 2 2 3 1 4 21 5 19 6 18 7 16 8 15 9 14 10 13 11 5 12
REMARK SMILES IDX 6 13 7 14 8 15 12 16 10 17 9 18 11 20 20 22 17 24
REMARK H PARENT 9 19 11 21 20 23 17 25
REMARK Flexibility Score: inf
ROOT
ATOM      1  C   UNL     1      -2.314  35.554  43.304  1.00  0.00     0.138 A 
ATOM      2  C   UNL     1      -0.992  35.226  42.971  1.00  0.00     0.100 A 
ATOM      3  C   UNL     1      -0.450  34.017  43.408  1.00  0.00     0.197 A 
ATOM      4  O   UNL     1       0.717  33.723  43.041  1.00  0.00    -0.289 OA
ATOM      5  C   UNL     1      -1.226  33.147  44.209  1.00  0.00     0.107 A 
ATOM      6  C   UNL     1      -0.764  31.907  44.745  1.00  0.00     0.134 A 
ATOM      7  C   UNL     1      -1.660  31.074  45.428  1.00  0.00     0.093 A 
ATOM      8  C   UNL     1      -2.982  31.461  45.646  1.00  0.00     0.123 A 
ATOM      9  C   UNL     1      -3.429  32.696  45.173  1.00  0.00     0.094 A 
ATOM     10  C   UNL     1      -2.570  33.534  44.458  1.00  0.00     0.146 A 
ATOM     11  O   UNL     1      -3.039  34.695  44.012  1.00  0.00    -0.456 OA
ENDROOT
BRANCH   1  12
ATOM     12  C   UNL     1      -2.940  36.827  42.867  1.00  0.00     0.021 A 
ATOM     13  C   UNL     1      -4.207  37.227  43.333  1.00  0.00     0.016 A 
ATOM     14  C   UNL     1      -4.778  38.426  42.897  1.00  0.00     0.051 A 
ATOM     15  C   UNL     1      -4.100  39.242  41.987  1.00  0.00     0.157 A 
ATOM     16  C   UNL     1      -2.269  37.647  41.942  1.00  0.00     0.062 A 
ATOM     17  C   UNL     1      -2.840  38.852  41.505  1.00  0.00     0.158 A 
BRANCH  15  18
ATOM     18  O   UNL     1      -4.695  40.433  41.572  1.00  0.00    -0.504 OA
ATOM     19  H   UNL     1      -5.679  40.623  41.718  1.00  0.00     0.293 HD
ENDBRANCH  15  18
BRANCH  17  20
ATOM     20  O   UNL     1      -2.161  39.659  40.593  1.00  0.00    -0.504 OA
ATOM     21  H   UNL     1      -2.557  40.528  40.255  1.00  0.00     0.293 HD
ENDBRANCH  17  20
ENDBRANCH   1  12
BRANCH   6  22
ATOM     22  O   UNL     1       0.558  31.463  44.657  1.00  0.00    -0.507 OA
ATOM     23  H   UNL     1       0.883  30.737  44.039  1.00  0.00     0.293 HD
ENDBRANCH   6  22
BRANCH   8  24
ATOM     24  O   UNL     1      -3.841  30.614  46.343  1.00  0.00    -0.508 OA
ATOM     25  H   UNL     1      -3.605  30.257  47.261  1.00  0.00     0.293 HD
ENDBRANCH   8  24
TORSDOF 5
ENDMDL
MODEL 6
REMARK VINA RESULT:    -6.829      4.239      8.179
REMARK INTER + INTRA:          -8.300
REMARK INTER:                  -8.027
REMARK INTRA:                  -0.273
REMARK UNBOUND:                -0.273
REMARK SMILES O=c1cc(-c2ccc(O)c(O)c2)oc2cc(O)cc(O)c12
REMARK SMILES IDX 4 1 3 2 2 3 1 4 21 5 19 6 18 7 16 8 15 9 14 10 13 11 5 12
REMARK SMILES IDX 6 13 7 14 8 15 12 16 10 17 9 18 11 20 20 22 17 24
REMARK H PARENT 9 19 11 21 20 23 17 25
REMARK Flexibility Score: inf
ROOT
ATOM      1  C   UNL     1      -4.255  33.631  45.463  1.00  0.00     0.138 A 
ATOM      2  C   UNL     1      -4.826  34.816  44.979  1.00  0.00     0.100 A 
ATOM      3  C   UNL     1      -4.096  35.628  44.110  1.00  0.00     0.197 A 
ATOM      4  O   UNL     1      -4.658  36.653  43.644  1.00  0.00    -0.289 OA
ATOM      5  C   UNL     1      -2.776  35.267  43.750  1.00  0.00     0.107 A 
ATOM      6  C   UNL     1      -1.924  36.039  42.904  1.00  0.00     0.134 A 
ATOM      7  C   UNL     1      -0.679  35.523  42.523  1.00  0.00     0.093 A 
ATOM      8  C   UNL     1      -0.230  34.294  43.004  1.00  0.00     0.123 A 
ATOM      9  C   UNL     1      -1.033  33.555  43.876  1.00  0.00     0.094 A 
ATOM     10  C   UNL     1      -2.295  34.026  44.246  1.00  0.00     0.146 A 
ATOM     11  O   UNL     1      -3.034  33.286  45.066  1.00  0.00    -0.456 OA
ENDROOT
BRANCH   1  12
ATOM     12  C   UNL     1      -4.985  32.730  46.390  1.00  0.00     0.021 A 
ATOM     13  C   UNL     1      -6.174  32.080  46.007  1.00  0.00     0.016 A 
ATOM     14  C   UNL     1      -6.846  31.245  46.904  1.00  0.00     0.051 A 
ATOM     15  C   UNL     1      -6.352  31.051  48.196  1.00  0.00     0.157 A 
ATOM     16  C   UNL     1      -4.501  32.541  47.697  1.00  0.00     0.062 A 
ATOM     17  C   UNL     1      -5.174  31.702  48.597  1.00  0.00     0.158 A 
BRANCH  15  18
ATOM     18  O   UNL     1      -7.045  30.211  49.068  1.00  0.00    -0.504 OA
ATOM     19  H   UNL     1      -7.425  29.321  48.769  1.00  0.00     0.293 HD
ENDBRANCH  15  18
BRANCH  17  20
ATOM     20  O   UNL     1      -4.678  31.517  49.887  1.00  0.00    -0.504 OA
ATOM     21  H   UNL     1      -4.426  32.301  50.477  1.00  0.00     0.293 HD
ENDBRANCH  17  20
ENDBRANCH   1  12
BRANCH   6  22
ATOM     22  O   UNL     1      -2.240  37.317  42.435  1.00  0.00    -0.507 OA
ATOM     23  H   UNL     1      -2.297  37.578  41.463  1.00  0.00     0.293 HD
ENDBRANCH   6  22
BRANCH   8  24
ATOM     24  O   UNL     1       1.021  33.819  42.617  1.00  0.00    -0.508 OA
ATOM     25  H   UNL     1       1.613  33.301  43.255  1.00  0.00     0.293 HD
ENDBRANCH   8  24
TORSDOF 5
ENDMDL
MODEL 7
REMARK VINA RESULT:    -6.826      2.551      4.678
REMARK INTER + INTRA:          -8.296
REMARK INTER:                  -7.979
REMARK INTRA:                  -0.318
REMARK UNBOUND:                -0.273
REMARK SMILES O=c1cc(-c2ccc(O)c(O)c2)oc2cc(O)cc(O)c12
REMARK SMILES IDX 4 1 3 2 2 3 1 4 21 5 19 6 18 7 16 8 15 9 14 10 13 11 5 12
REMARK SMILES IDX 6 13 7 14 8 15 12 16 10 17 9 18 11 20 20 22 17 24
REMARK H PARENT 9 19 11 21 20 23 17 25
REMARK Flexibility Score: inf
ROOT
ATOM      1  C   UNL     1      -2.871  35.481  43.598  1.00  0.00     0.138 A 
ATOM      2  C   UNL     1      -3.676  34.718  44.456  1.00  0.00     0.100 A 
ATOM      3  C   UNL     1      -3.216  33.483  44.916  1.00  0.00     0.197 A 
ATOM      4  O   UNL     1      -3.934  32.851  45.733  1.00  0.00    -0.289 OA
ATOM      5  C   UNL     1      -1.958  32.996  44.490  1.00  0.00     0.107 A 
ATOM      6  C   UNL     1      -1.406  31.734  44.862  1.00  0.00     0.134 A 
ATOM      7  C   UNL     1      -0.101  31.409  44.472  1.00  0.00     0.093 A 
ATOM      8  C   UNL     1       0.649  32.272  43.673  1.00  0.00     0.123 A 
ATOM      9  C   UNL     1       0.098  33.486  43.259  1.00  0.00     0.094 A 
ATOM     10  C   UNL     1      -1.188  33.855  43.660  1.00  0.00     0.146 A 
ATOM     11  O   UNL     1      -1.670  35.025  43.256  1.00  0.00    -0.456 OA
ENDROOT
BRANCH   1  12
ATOM     12  C   UNL     1      -3.310  36.799  43.077  1.00  0.00     0.021 A 
ATOM     13  C   UNL     1      -4.525  37.386  43.479  1.00  0.00     0.016 A 
ATOM     14  C   UNL     1      -4.919  38.625  42.965  1.00  0.00     0.051 A 
ATOM     15  C   UNL     1      -4.115  39.294  42.039  1.00  0.00     0.157 A 
ATOM     16  C   UNL     1      -2.512  37.473  42.134  1.00  0.00     0.062 A 
ATOM     17  C   UNL     1      -2.906  38.716  41.618  1.00  0.00     0.158 A 
BRANCH  15  18
ATOM     18  O   UNL     1      -4.534  40.529  41.545  1.00  0.00    -0.504 OA
ATOM     19  H   UNL     1      -5.282  41.057  41.980  1.00  0.00     0.293 HD
ENDBRANCH  15  18
BRANCH  17  20
ATOM     20  O   UNL     1      -2.101  39.376  40.691  1.00  0.00    -0.504 OA
ATOM     21  H   UNL     1      -1.354  38.899  40.201  1.00  0.00     0.293 HD
ENDBRANCH  17  20
ENDBRANCH   1  12
BRANCH   6  22
ATOM     22  O   UNL     1      -2.101  30.761  45.587  1.00  0.00    -0.507 OA
ATOM     23  H   UNL     1      -1.674  30.072  46.185  1.00  0.00     0.293 HD
ENDBRANCH   6  22
BRANCH   8  24
ATOM     24  O   UNL     1       1.938  31.910  43.291  1.00  0.00    -0.508 OA
ATOM     25  H   UNL     1       2.657  32.604  43.123  1.00  0.00     0.293 HD
ENDBRANCH   8  24
TORSDOF 5
ENDMDL
MODEL 8
REMARK VINA RESULT:    -6.747      3.560      8.007
REMARK INTER + INTRA:          -8.204
REMARK INTER:                  -7.939
REMARK INTRA:                  -0.265
REMARK UNBOUND:                -0.273
REMARK SMILES O=c1cc(-c2ccc(O)c(O)c2)oc2cc(O)cc(O)c12
REMARK SMILES IDX 4 1 3 2 2 3 1 4 21 5 19 6 18 7 16 8 15 9 14 10 13 11 5 12
REMARK SMILES IDX 6 13 7 14 8 15 12 16 10 17 9 18 11 20 20 22 17 24
REMARK H PARENT 9 19 11 21 20 23 17 25
REMARK Flexibility Score: inf
ROOT
ATOM      1  C   UNL     1      -3.584  33.350  45.381  1.00  0.00     0.138 A 
ATOM      2  C   UNL     1      -2.249  32.935  45.276  1.00  0.00     0.100 A 
ATOM      3  C   UNL     1      -1.356  33.674  44.499  1.00  0.00     0.197 A 
ATOM      4  O   UNL     1      -0.151  33.312  44.474  1.00  0.00    -0.289 OA
ATOM      5  C   UNL     1      -1.810  34.816  43.798  1.00  0.00     0.107 A 
ATOM      6  C   UNL     1      -0.998  35.622  42.944  1.00  0.00     0.134 A 
ATOM      7  C   UNL     1      -1.528  36.796  42.395  1.00  0.00     0.093 A 
ATOM      8  C   UNL     1      -2.855  37.162  42.619  1.00  0.00     0.123 A 
ATOM      9  C   UNL     1      -3.673  36.352  43.409  1.00  0.00     0.094 A 
ATOM     10  C   UNL     1      -3.165  35.193  43.999  1.00  0.00     0.146 A 
ATOM     11  O   UNL     1      -3.972  34.458  44.756  1.00  0.00    -0.456 OA
ENDROOT
BRANCH   1  12
ATOM     12  C   UNL     1      -4.576  32.602  46.192  1.00  0.00     0.021 A 
ATOM     13  C   UNL     1      -5.758  32.087  45.625  1.00  0.00     0.016 A 
ATOM     14  C   UNL     1      -6.680  31.394  46.414  1.00  0.00     0.051 A 
ATOM     15  C   UNL     1      -6.446  31.211  47.780  1.00  0.00     0.157 A 
ATOM     16  C   UNL     1      -4.353  32.425  47.569  1.00  0.00     0.062 A 
ATOM     17  C   UNL     1      -5.278  31.730  48.362  1.00  0.00     0.158 A 
BRANCH  15  18
ATOM     18  O   UNL     1      -7.384  30.515  48.541  1.00  0.00    -0.504 OA
ATOM     19  H   UNL     1      -7.426  29.502  48.550  1.00  0.00     0.293 HD
ENDBRANCH  15  18
BRANCH  17  20
ATOM     20  O   UNL     1      -5.040  31.555  49.725  1.00  0.00    -0.504 OA
ATOM     21  H   UNL     1      -4.990  30.632  50.141  1.00  0.00     0.293 HD
ENDBRANCH  17  20
ENDBRANCH   1  12
BRANCH   6  22
ATOM     22  O   UNL     1       0.315  35.303  42.586  1.00  0.00    -0.507 OA
ATOM     23  H   UNL     1       0.893  34.625  43.058  1.00  0.00     0.293 HD
ENDBRANCH   6  22
BRANCH   8  24
ATOM     24  O   UNL     1      -3.354  38.329  42.044  1.00  0.00    -0.508 OA
ATOM     25  H   UNL     1      -4.243  38.722  42.327  1.00  0.00     0.293 HD
ENDBRANCH   8  24
TORSDOF 5
ENDMDL
MODEL 9
REMARK VINA RESULT:    -6.623      3.235      8.594
REMARK INTER + INTRA:          -8.059
REMARK INTER:                  -7.785
REMARK INTRA:                  -0.274
REMARK UNBOUND:                -0.273
REMARK SMILES O=c1cc(-c2ccc(O)c(O)c2)oc2cc(O)cc(O)c12
REMARK SMILES IDX 4 1 3 2 2 3 1 4 21 5 19 6 18 7 16 8 15 9 14 10 13 11 5 12
REMARK SMILES IDX 6 13 7 14 8 15 12 16 10 17 9 18 11 20 20 22 17 24
REMARK H PARENT 9 19 11 21 20 23 17 25
REMARK Flexibility Score: inf
ROOT
ATOM      1  C   UNL     1      -1.751  33.757  44.125  1.00  0.00     0.138 A 
ATOM      2  C   UNL     1      -3.024  33.636  44.700  1.00  0.00     0.100 A 
ATOM      3  C   UNL     1      -3.971  34.640  44.497  1.00  0.00     0.197 A 
ATOM      4  O   UNL     1      -5.124  34.474  44.974  1.00  0.00    -0.289 OA
ATOM      5  C   UNL     1      -3.631  35.787  43.741  1.00  0.00     0.107 A 
ATOM      6  C   UNL     1      -4.502  36.892  43.503  1.00  0.00     0.134 A 
ATOM      7  C   UNL     1      -4.095  37.919  42.643  1.00  0.00     0.093 A 
ATOM      8  C   UNL     1      -2.828  37.912  42.060  1.00  0.00     0.123 A 
ATOM      9  C   UNL     1      -1.947  36.862  42.328  1.00  0.00     0.094 A 
ATOM     10  C   UNL     1      -2.337  35.806  43.155  1.00  0.00     0.146 A 
ATOM     11  O   UNL     1      -1.474  34.818  43.374  1.00  0.00    -0.456 OA
ENDROOT
BRANCH   1  12
ATOM     12  C   UNL     1      -0.705  32.720  44.310  1.00  0.00     0.021 A 
ATOM     13  C   UNL     1      -0.140  32.455  45.572  1.00  0.00     0.016 A 
ATOM     14  C   UNL     1       0.850  31.480  45.715  1.00  0.00     0.051 A 
ATOM     15  C   UNL     1       1.299  30.759  44.605  1.00  0.00     0.157 A 
ATOM     16  C   UNL     1      -0.240  32.000  43.195  1.00  0.00     0.062 A 
ATOM     17  C   UNL     1       0.753  31.020  43.338  1.00  0.00     0.158 A 
BRANCH  15  18
ATOM     18  O   UNL     1       2.287  29.791  44.780  1.00  0.00    -0.504 OA
ATOM     19  H   UNL     1       2.621  29.218  44.014  1.00  0.00     0.293 HD
ENDBRANCH  15  18
BRANCH  17  20
ATOM     20  O   UNL     1       1.199  30.307  42.225  1.00  0.00    -0.504 OA
ATOM     21  H   UNL     1       1.736  29.453  42.322  1.00  0.00     0.293 HD
ENDBRANCH  17  20
ENDBRANCH   1  12
BRANCH   6  22
ATOM     22  O   UNL     1      -5.756  37.041  44.103  1.00  0.00    -0.507 OA
ATOM     23  H   UNL     1      -6.595  36.566  43.810  1.00  0.00     0.293 HD
ENDBRANCH   6  22
BRANCH   8  24
ATOM     24  O   UNL     1      -2.450  38.957  41.220  1.00  0.00    -0.508 OA
ATOM     25  H   UNL     1      -3.126  39.447  40.645  1.00  0.00     0.293 HD
ENDBRANCH   8  24
TORSDOF 5
ENDMDL
