MODEL 1
REMARK VINA RESULT:    -5.814      0.000      0.000
REMARK INTER + INTRA:          -8.565
REMARK INTER:                  -7.853
REMARK INTRA:                  -0.712
REMARK UNBOUND:                -0.712
REMARK SMILES COc1ccc(-c2cc(=O)c3c(OC)c(OC)c(OC)c(OC)c3o2)cc1
REMARK SMILES IDX 7 1 8 2 9 3 10 4 11 5 24 6 25 7 21 8 18 9 15 10 12 11 6 12
REMARK SMILES IDX 3 13 4 14 27 15 5 16 26 17 2 18 1 19 22 20 23 21 13 22 14 23
REMARK SMILES IDX 19 24 20 25 16 26 17 27
REMARK H PARENT
REMARK Flexibility Score: inf
ROOT
ATOM      1  C   UNL     1     173.687 175.986 175.159  1.00  0.00     0.138 A 
ATOM      2  C   UNL     1     174.762 175.988 174.260  1.00  0.00     0.100 A 
ATOM      3  C   UNL     1     174.673 176.737 173.088  1.00  0.00     0.197 A 
ATOM      4  O   UNL     1     175.649 176.725 172.289  1.00  0.00    -0.289 OA
ATOM      5  C   UNL     1     173.506 177.491 172.821  1.00  0.00     0.115 A 
ATOM      6  C   UNL     1     172.475 177.452 173.787  1.00  0.00     0.188 A 
ATOM      7  O   UNL     1     172.610 176.716 174.887  1.00  0.00    -0.452 OA
ATOM      8  C   UNL     1     171.299 178.190 173.616  1.00  0.00     0.209 A 
ATOM      9  C   UNL     1     171.148 178.997 172.467  1.00  0.00     0.211 A 
ATOM     10  C   UNL     1     172.133 178.981 171.455  1.00  0.00     0.208 A 
ATOM     11  C   UNL     1     173.341 178.264 171.646  1.00  0.00     0.179 A 
ENDROOT
BRANCH   1  12
ATOM     12  C   UNL     1     173.722 175.209 176.424  1.00  0.00     0.018 A 
ATOM     13  C   UNL     1     173.725 173.738 178.835  1.00  0.00     0.118 A 
ATOM     14  C   UNL     1     174.846 173.713 177.985  1.00  0.00     0.047 A 
ATOM     15  C   UNL     1     172.607 174.490 178.466  1.00  0.00     0.047 A 
ATOM     16  C   UNL     1     174.842 174.439 176.790  1.00  0.00     0.016 A 
ATOM     17  C   UNL     1     172.600 175.215 177.271  1.00  0.00     0.016 A 
BRANCH  13  18
ATOM     18  O   UNL     1     173.683 173.031 180.046  1.00  0.00    -0.497 OA
ATOM     19  C   UNL     1     172.728 173.259 181.077  1.00  0.00     0.278 C 
ENDBRANCH  13  18
ENDBRANCH   1  12
BRANCH   8  20
ATOM     20  O   UNL     1     170.332 178.088 174.636  1.00  0.00    -0.490 OA
ATOM     21  C   UNL     1     169.208 177.215 174.653  1.00  0.00     0.278 C 
ENDBRANCH   8  20
BRANCH  11  22
ATOM     22  O   UNL     1     174.390 178.276 170.703  1.00  0.00    -0.492 OA
ATOM     23  C   UNL     1     175.185 179.394 170.316  1.00  0.00     0.278 C 
ENDBRANCH  11  22
BRANCH   9  24
ATOM     24  O   UNL     1     170.031 179.829 172.341  1.00  0.00    -0.490 OA
ATOM     25  C   UNL     1     168.835 179.405 171.694  1.00  0.00     0.279 C 
ENDBRANCH   9  24
BRANCH  10  26
ATOM     26  O   UNL     1     171.907 179.663 170.256  1.00  0.00    -0.490 OA
ATOM     27  C   UNL     1     171.404 179.022 169.088  1.00  0.00     0.278 C 
ENDBRANCH  10  26
TORSDOF 6
ENDMDL
MODEL 2
REMARK VINA RESULT:    -5.750      6.936      9.205
REMARK INTER + INTRA:          -8.479
REMARK INTER:                  -7.781
REMARK INTRA:                  -0.699
REMARK UNBOUND:                -0.712
REMARK SMILES COc1ccc(-c2cc(=O)c3c(OC)c(OC)c(OC)c(OC)c3o2)cc1
REMARK SMILES IDX 7 1 8 2 9 3 10 4 11 5 24 6 25 7 21 8 18 9 15 10 12 11 6 12
REMARK SMILES IDX 3 13 4 14 27 15 5 16 26 17 2 18 1 19 22 20 23 21 13 22 14 23
REMARK SMILES IDX 19 24 20 25 16 26 17 27
REMARK H PARENT
REMARK Flexibility Score: inf
ROOT
ATOM      1  C   UNL     1     172.698 170.408 175.182  1.00  0.00     0.138 A 
ATOM      2  C   UNL     1     171.628 170.358 174.278  1.00  0.00     0.100 A 
ATOM      3  C   UNL     1     171.751 169.602 173.113  1.00  0.00     0.197 A 
ATOM      4  O   UNL     1     170.779 169.570 172.310  1.00  0.00    -0.289 OA
ATOM      5  C   UNL     1     172.947 168.891 172.859  1.00  0.00     0.115 A 
ATOM      6  C   UNL     1     173.972 168.978 173.828  1.00  0.00     0.188 A 
ATOM      7  O   UNL     1     173.804 169.718 174.921  1.00  0.00    -0.452 OA
ATOM      8  C   UNL     1     175.175 168.284 173.670  1.00  0.00     0.209 A 
ATOM      9  C   UNL     1     175.362 167.473 172.529  1.00  0.00     0.211 A 
ATOM     10  C   UNL     1     174.382 167.443 171.512  1.00  0.00     0.208 A 
ATOM     11  C   UNL     1     173.147 168.114 171.691  1.00  0.00     0.179 A 
ENDROOT
BRANCH   1  12
ATOM     12  C   UNL     1     172.627 171.195 176.440  1.00  0.00     0.018 A 
ATOM     13  C   UNL     1     172.557 172.686 178.837  1.00  0.00     0.118 A 
ATOM     14  C   UNL     1     171.448 172.677 177.972  1.00  0.00     0.047 A 
ATOM     15  C   UNL     1     173.698 171.959 178.489  1.00  0.00     0.047 A 
ATOM     16  C   UNL     1     171.484 171.941 176.784  1.00  0.00     0.016 A 
ATOM     17  C   UNL     1     173.738 171.224 177.301  1.00  0.00     0.016 A 
BRANCH  13  18
ATOM     18  O   UNL     1     172.566 173.404 180.043  1.00  0.00    -0.497 OA
ATOM     19  C   UNL     1     173.588 173.305 181.030  1.00  0.00     0.278 C 
ENDBRANCH  13  18
ENDBRANCH   1  12
BRANCH   8  20
ATOM     20  O   UNL     1     176.133 168.432 174.692  1.00  0.00    -0.490 OA
ATOM     21  C   UNL     1     177.222 169.348 174.706  1.00  0.00     0.278 C 
ENDBRANCH   8  20
BRANCH  11  22
ATOM     22  O   UNL     1     172.103 168.053 170.744  1.00  0.00    -0.492 OA
ATOM     23  C   UNL     1     171.415 166.888 170.297  1.00  0.00     0.278 C 
ENDBRANCH  11  22
BRANCH   9  24
ATOM     24  O   UNL     1     176.511 166.684 172.415  1.00  0.00    -0.490 OA
ATOM     25  C   UNL     1     177.690 167.144 171.763  1.00  0.00     0.279 C 
ENDBRANCH   9  24
BRANCH  10  26
ATOM     26  O   UNL     1     174.639 166.758 170.320  1.00  0.00    -0.490 OA
ATOM     27  C   UNL     1     175.100 167.412 169.141  1.00  0.00     0.278 C 
ENDBRANCH  10  26
TORSDOF 6
ENDMDL
MODEL 3
REMARK VINA RESULT:    -5.731      1.046      3.483
REMARK INTER + INTRA:          -8.453
REMARK INTER:                  -7.744
REMARK INTRA:                  -0.709
REMARK UNBOUND:                -0.712
REMARK SMILES COc1ccc(-c2cc(=O)c3c(OC)c(OC)c(OC)c(OC)c3o2)cc1
REMARK SMILES IDX 7 1 8 2 9 3 10 4 11 5 24 6 25 7 21 8 18 9 15 10 12 11 6 12
REMARK SMILES IDX 3 13 4 14 27 15 5 16 26 17 2 18 1 19 22 20 23 21 13 22 14 23
REMARK SMILES IDX 19 24 20 25 16 26 17 27
REMARK H PARENT
REMARK Flexibility Score: inf
ROOT
ATOM      1  C   UNL     1     172.869 176.203 175.589  1.00  0.00     0.138 A 
ATOM      2  C   UNL     1     171.639 176.863 175.713  1.00  0.00     0.100 A 
ATOM      3  C   UNL     1     171.210 177.708 174.691  1.00  0.00     0.197 A 
ATOM      4  O   UNL     1     170.101 178.296 174.821  1.00  0.00    -0.289 OA
ATOM      5  C   UNL     1     172.013 177.886 173.540  1.00  0.00     0.115 A 
ATOM      6  C   UNL     1     173.230 177.170 173.483  1.00  0.00     0.188 A 
ATOM      7  O   UNL     1     173.595 176.379 174.489  1.00  0.00    -0.452 OA
ATOM      8  C   UNL     1     174.071 177.266 172.370  1.00  0.00     0.209 A 
ATOM      9  C   UNL     1     173.689 178.080 171.280  1.00  0.00     0.211 A 
ATOM     10  C   UNL     1     172.517 178.865 171.359  1.00  0.00     0.208 A 
ATOM     11  C   UNL     1     171.646 178.738 172.470  1.00  0.00     0.179 A 
ENDROOT
BRANCH   1  12
ATOM     12  C   UNL     1     173.380 175.290 176.643  1.00  0.00     0.018 A 
ATOM     13  C   UNL     1     174.292 173.546 178.669  1.00  0.00     0.118 A 
ATOM     14  C   UNL     1     175.110 173.842 177.564  1.00  0.00     0.047 A 
ATOM     15  C   UNL     1     173.018 174.116 178.745  1.00  0.00     0.047 A 
ATOM     16  C   UNL     1     174.657 174.703 176.559  1.00  0.00     0.016 A 
ATOM     17  C   UNL     1     172.562 174.975 177.742  1.00  0.00     0.016 A 
BRANCH  13  18
ATOM     18  O   UNL     1     174.705 172.694 179.704  1.00  0.00    -0.497 OA
ATOM     19  C   UNL     1     174.488 172.948 181.089  1.00  0.00     0.278 C 
ENDBRANCH  13  18
ENDBRANCH   1  12
BRANCH   8  20
ATOM     20  O   UNL     1     175.260 176.512 172.406  1.00  0.00    -0.490 OA
ATOM     21  C   UNL     1     175.492 175.263 171.763  1.00  0.00     0.278 C 
ENDBRANCH   8  20
BRANCH  11  22
ATOM     22  O   UNL     1     170.425 179.439 172.564  1.00  0.00    -0.492 OA
ATOM     23  C   UNL     1     169.307 179.338 171.687  1.00  0.00     0.278 C 
ENDBRANCH  11  22
BRANCH   9  24
ATOM     24  O   UNL     1     174.461 178.093 170.115  1.00  0.00    -0.490 OA
ATOM     25  C   UNL     1     175.635 178.890 169.988  1.00  0.00     0.279 C 
ENDBRANCH   9  24
BRANCH  10  26
ATOM     26  O   UNL     1     172.226 179.780 170.343  1.00  0.00    -0.490 OA
ATOM     27  C   UNL     1     172.676 181.131 170.371  1.00  0.00     0.278 C 
ENDBRANCH  10  26
TORSDOF 6
ENDMDL
MODEL 4
REMARK VINA RESULT:    -5.722      6.920      8.630
REMARK INTER + INTRA:          -8.441
REMARK INTER:                  -7.724
REMARK INTRA:                  -0.717
REMARK UNBOUND:                -0.712
REMARK SMILES COc1ccc(-c2cc(=O)c3c(OC)c(OC)c(OC)c(OC)c3o2)cc1
REMARK SMILES IDX 7 1 8 2 9 3 10 4 11 5 24 6 25 7 21 8 18 9 15 10 12 11 6 12
REMARK SMILES IDX 3 13 4 14 27 15 5 16 26 17 2 18 1 19 22 20 23 21 13 22 14 23
REMARK SMILES IDX 19 24 20 25 16 26 17 27
REMARK H PARENT
REMARK Flexibility Score: inf
ROOT
ATOM      1  C   UNL     1     173.439 170.233 175.545  1.00  0.00     0.138 A 
ATOM      2  C   UNL     1     174.672 169.577 175.662  1.00  0.00     0.100 A 
ATOM      3  C   UNL     1     175.096 168.730 174.639  1.00  0.00     0.197 A 
ATOM      4  O   UNL     1     176.207 168.146 174.762  1.00  0.00    -0.289 OA
ATOM      5  C   UNL     1     174.284 168.547 173.495  1.00  0.00     0.115 A 
ATOM      6  C   UNL     1     173.065 169.258 173.445  1.00  0.00     0.188 A 
ATOM      7  O   UNL     1     172.705 170.051 174.452  1.00  0.00    -0.452 OA
ATOM      8  C   UNL     1     172.215 169.157 172.339  1.00  0.00     0.209 A 
ATOM      9  C   UNL     1     172.591 168.341 171.249  1.00  0.00     0.211 A 
ATOM     10  C   UNL     1     173.765 167.559 171.321  1.00  0.00     0.208 A 
ATOM     11  C   UNL     1     174.645 167.692 172.425  1.00  0.00     0.179 A 
ENDROOT
BRANCH   1  12
ATOM     12  C   UNL     1     172.933 171.148 176.600  1.00  0.00     0.018 A 
ATOM     13  C   UNL     1     172.033 172.896 178.628  1.00  0.00     0.118 A 
ATOM     14  C   UNL     1     171.197 172.574 177.543  1.00  0.00     0.047 A 
ATOM     15  C   UNL     1     173.318 172.349 178.683  1.00  0.00     0.047 A 
ATOM     16  C   UNL     1     171.645 171.711 176.537  1.00  0.00     0.016 A 
ATOM     17  C   UNL     1     173.768 171.488 177.679  1.00  0.00     0.016 A 
BRANCH  13  18
ATOM     18  O   UNL     1     171.626 173.751 179.663  1.00  0.00    -0.497 OA
ATOM     19  C   UNL     1     171.872 173.513 181.045  1.00  0.00     0.278 C 
ENDBRANCH  13  18
ENDBRANCH   1  12
BRANCH   8  20
ATOM     20  O   UNL     1     171.024 169.908 172.382  1.00  0.00    -0.490 OA
ATOM     21  C   UNL     1     170.782 171.150 171.732  1.00  0.00     0.278 C 
ENDBRANCH   8  20
BRANCH  11  22
ATOM     22  O   UNL     1     175.869 166.995 172.511  1.00  0.00    -0.492 OA
ATOM     23  C   UNL     1     176.993 167.124 171.646  1.00  0.00     0.278 C 
ENDBRANCH  11  22
BRANCH   9  24
ATOM     24  O   UNL     1     171.809 168.322 170.090  1.00  0.00    -0.490 OA
ATOM     25  C   UNL     1     170.643 167.513 169.970  1.00  0.00     0.279 C 
ENDBRANCH   9  24
BRANCH  10  26
ATOM     26  O   UNL     1     174.052 166.642 170.305  1.00  0.00    -0.490 OA
ATOM     27  C   UNL     1     173.631 165.282 170.355  1.00  0.00     0.278 C 
ENDBRANCH  10  26
TORSDOF 6
ENDMDL
MODEL 5
REMARK VINA RESULT:    -5.283      4.726      7.411
REMARK INTER + INTRA:          -7.848
REMARK INTER:                  -7.267
REMARK INTRA:                  -0.581
REMARK UNBOUND:                -0.712
REMARK SMILES COc1ccc(-c2cc(=O)c3c(OC)c(OC)c(OC)c(OC)c3o2)cc1
REMARK SMILES IDX 7 1 8 2 9 3 10 4 11 5 24 6 25 7 21 8 18 9 15 10 12 11 6 12
REMARK SMILES IDX 3 13 4 14 27 15 5 16 26 17 2 18 1 19 22 20 23 21 13 22 14 23
REMARK SMILES IDX 19 24 20 25 16 26 17 27
REMARK H PARENT
REMARK Flexibility Score: inf
ROOT
ATOM      1  C   UNL     1     174.827 172.779 175.372  1.00  0.00     0.138 A 
ATOM      2  C   UNL     1     174.644 173.788 174.418  1.00  0.00     0.100 A 
ATOM      3  C   UNL     1     175.343 173.726 173.213  1.00  0.00     0.197 A 
ATOM      4  O   UNL     1     175.167 174.645 172.367  1.00  0.00    -0.289 OA
ATOM      5  C   UNL     1     176.221 172.646 172.964  1.00  0.00     0.115 A 
ATOM      6  C   UNL     1     176.336 171.659 173.969  1.00  0.00     0.188 A 
ATOM      7  O   UNL     1     175.648 171.769 175.103  1.00  0.00    -0.452 OA
ATOM      8  C   UNL     1     177.160 170.543 173.793  1.00  0.00     0.209 A 
ATOM      9  C   UNL     1     177.877 170.395 172.585  1.00  0.00     0.211 A 
ATOM     10  C   UNL     1     177.838 171.414 171.608  1.00  0.00     0.208 A 
ATOM     11  C   UNL     1     176.972 172.525 171.770  1.00  0.00     0.179 A 
ENDROOT
BRANCH   1  12
ATOM     12  C   UNL     1     174.110 172.789 176.673  1.00  0.00     0.018 A 
ATOM     13  C   UNL     1     172.800 172.833 179.175  1.00  0.00     0.118 A 
ATOM     14  C   UNL     1     172.065 172.653 177.990  1.00  0.00     0.047 A 
ATOM     15  C   UNL     1     174.186 173.002 179.098  1.00  0.00     0.047 A 
ATOM     16  C   UNL     1     172.713 172.634 176.751  1.00  0.00     0.016 A 
ATOM     17  C   UNL     1     174.836 172.986 177.861  1.00  0.00     0.016 A 
BRANCH  13  18
ATOM     18  O   UNL     1     172.196 172.853 180.441  1.00  0.00    -0.497 OA
ATOM     19  C   UNL     1     172.552 173.751 181.488  1.00  0.00     0.278 C 
ENDBRANCH  13  18
ENDBRANCH   1  12
BRANCH   8  20
ATOM     20  O   UNL     1     177.204 169.613 174.850  1.00  0.00    -0.490 OA
ATOM     21  C   UNL     1     176.352 168.486 175.024  1.00  0.00     0.278 C 
ENDBRANCH   8  20
BRANCH  11  22
ATOM     22  O   UNL     1     176.835 173.531 170.790  1.00  0.00    -0.492 OA
ATOM     23  C   UNL     1     177.769 174.561 170.480  1.00  0.00     0.278 C 
ENDBRANCH  11  22
BRANCH   9  24
ATOM     24  O   UNL     1     178.611 169.229 172.349  1.00  0.00    -0.490 OA
ATOM     25  C   UNL     1     178.044 168.086 171.716  1.00  0.00     0.279 C 
ENDBRANCH   9  24
BRANCH  10  26
ATOM     26  O   UNL     1     178.666 171.331 170.485  1.00  0.00    -0.490 OA
ATOM     27  C   UNL     1     180.026 171.756 170.498  1.00  0.00     0.278 C 
ENDBRANCH  10  26
TORSDOF 6
ENDMDL
MODEL 6
REMARK VINA RESULT:    -5.258      3.564      4.317
REMARK INTER + INTRA:          -7.815
REMARK INTER:                  -7.115
REMARK INTRA:                  -0.700
REMARK UNBOUND:                -0.712
REMARK SMILES COc1ccc(-c2cc(=O)c3c(OC)c(OC)c(OC)c(OC)c3o2)cc1
REMARK SMILES IDX 7 1 8 2 9 3 10 4 11 5 24 6 25 7 21 8 18 9 15 10 12 11 6 12
REMARK SMILES IDX 3 13 4 14 27 15 5 16 26 17 2 18 1 19 22 20 23 21 13 22 14 23
REMARK SMILES IDX 19 24 20 25 16 26 17 27
REMARK H PARENT
REMARK Flexibility Score: inf
ROOT
ATOM      1  C   UNL     1     171.642 173.364 175.972  1.00  0.00     0.138 A 
ATOM      2  C   UNL     1     171.840 172.287 175.097  1.00  0.00     0.100 A 
ATOM      3  C   UNL     1     171.310 172.346 173.809  1.00  0.00     0.197 A 
ATOM      4  O   UNL     1     171.496 171.367 173.036  1.00  0.00    -0.289 OA
ATOM      5  C   UNL     1     170.586 173.489 173.397  1.00  0.00     0.115 A 
ATOM      6  C   UNL     1     170.447 174.540 174.332  1.00  0.00     0.188 A 
ATOM      7  O   UNL     1     170.969 174.430 175.551  1.00  0.00    -0.452 OA
ATOM      8  C   UNL     1     169.771 175.717 173.998  1.00  0.00     0.209 A 
ATOM      9  C   UNL     1     169.232 175.863 172.701  1.00  0.00     0.211 A 
ATOM     10  C   UNL     1     169.290 174.789 171.785  1.00  0.00     0.208 A 
ATOM     11  C   UNL     1     170.009 173.612 172.109  1.00  0.00     0.179 A 
ENDROOT
BRANCH   1  12
ATOM     12  C   UNL     1     172.182 173.361 177.356  1.00  0.00     0.018 A 
ATOM     13  C   UNL     1     173.268 173.373 179.963  1.00  0.00     0.118 A 
ATOM     14  C   UNL     1     171.874 173.375 179.772  1.00  0.00     0.047 A 
ATOM     15  C   UNL     1     174.108 173.377 178.846  1.00  0.00     0.047 A 
ATOM     16  C   UNL     1     171.337 173.372 178.481  1.00  0.00     0.016 A 
ATOM     17  C   UNL     1     173.574 173.376 177.555  1.00  0.00     0.016 A 
BRANCH  13  18
ATOM     18  O   UNL     1     173.853 173.369 181.238  1.00  0.00    -0.497 OA
ATOM     19  C   UNL     1     175.205 173.005 181.501  1.00  0.00     0.278 C 
ENDBRANCH  13  18
ENDBRANCH   1  12
BRANCH   8  20
ATOM     20  O   UNL     1     169.688 176.707 174.997  1.00  0.00    -0.490 OA
ATOM     21  C   UNL     1     170.520 177.855 175.124  1.00  0.00     0.278 C 
ENDBRANCH   8  20
BRANCH  11  22
ATOM     22  O   UNL     1     170.166 172.542 171.203  1.00  0.00    -0.492 OA
ATOM     23  C   UNL     1     170.879 172.557 169.971  1.00  0.00     0.278 C 
ENDBRANCH  11  22
BRANCH   9  24
ATOM     24  O   UNL     1     168.657 177.078 172.317  1.00  0.00    -0.490 OA
ATOM     25  C   UNL     1     167.310 177.417 172.631  1.00  0.00     0.279 C 
ENDBRANCH   9  24
BRANCH  10  26
ATOM     26  O   UNL     1     168.624 174.886 170.559  1.00  0.00    -0.490 OA
ATOM     27  C   UNL     1     167.295 174.411 170.366  1.00  0.00     0.278 C 
ENDBRANCH  10  26
TORSDOF 6
ENDMDL
MODEL 7
REMARK VINA RESULT:    -5.206      1.728      3.793
REMARK INTER + INTRA:          -7.744
REMARK INTER:                  -7.026
REMARK INTRA:                  -0.719
REMARK UNBOUND:                -0.712
REMARK SMILES COc1ccc(-c2cc(=O)c3c(OC)c(OC)c(OC)c(OC)c3o2)cc1
REMARK SMILES IDX 7 1 8 2 9 3 10 4 11 5 24 6 25 7 21 8 18 9 15 10 12 11 6 12
REMARK SMILES IDX 3 13 4 14 27 15 5 16 26 17 2 18 1 19 22 20 23 21 13 22 14 23
REMARK SMILES IDX 19 24 20 25 16 26 17 27
REMARK H PARENT
REMARK Flexibility Score: inf
ROOT
ATOM      1  C   UNL     1     173.603 175.569 175.745  1.00  0.00     0.138 A 
ATOM      2  C   UNL     1     172.775 176.698 175.709  1.00  0.00     0.100 A 
ATOM      3  C   UNL     1     172.622 177.397 174.513  1.00  0.00     0.197 A 
ATOM      4  O   UNL     1     171.874 178.412 174.499  1.00  0.00    -0.289 OA
ATOM      5  C   UNL     1     173.295 176.956 173.349  1.00  0.00     0.115 A 
ATOM      6  C   UNL     1     174.096 175.798 173.464  1.00  0.00     0.188 A 
ATOM      7  O   UNL     1     174.212 175.172 174.633  1.00  0.00    -0.452 OA
ATOM      8  C   UNL     1     174.774 175.277 172.357  1.00  0.00     0.209 A 
ATOM      9  C   UNL     1     174.644 175.913 171.103  1.00  0.00     0.211 A 
ATOM     10  C   UNL     1     173.915 177.118 170.991  1.00  0.00     0.208 A 
ATOM     11  C   UNL     1     173.196 177.623 172.104  1.00  0.00     0.179 A 
ENDROOT
BRANCH   1  12
ATOM     12  C   UNL     1     173.807 174.783 176.990  1.00  0.00     0.018 A 
ATOM     13  C   UNL     1     174.130 173.296 179.368  1.00  0.00     0.118 A 
ATOM     14  C   UNL     1     175.128 173.279 178.378  1.00  0.00     0.047 A 
ATOM     15  C   UNL     1     172.971 174.047 179.155  1.00  0.00     0.047 A 
ATOM     16  C   UNL     1     174.966 174.014 177.199  1.00  0.00     0.016 A 
ATOM     17  C   UNL     1     172.806 174.780 177.977  1.00  0.00     0.016 A 
BRANCH  13  18
ATOM     18  O   UNL     1     174.249 172.581 180.570  1.00  0.00    -0.497 OA
ATOM     19  C   UNL     1     173.147 172.087 181.324  1.00  0.00     0.278 C 
ENDBRANCH  13  18
ENDBRANCH   1  12
BRANCH   8  20
ATOM     20  O   UNL     1     175.545 174.118 172.572  1.00  0.00    -0.490 OA
ATOM     21  C   UNL     1     175.150 172.777 172.307  1.00  0.00     0.278 C 
ENDBRANCH   8  20
BRANCH  11  22
ATOM     22  O   UNL     1     172.389 178.778 172.027  1.00  0.00    -0.492 OA
ATOM     23  C   UNL     1     171.189 178.940 171.278  1.00  0.00     0.278 C 
ENDBRANCH  11  22
BRANCH   9  24
ATOM     24  O   UNL     1     175.220 175.338 169.966  1.00  0.00    -0.490 OA
ATOM     25  C   UNL     1     176.588 175.535 169.623  1.00  0.00     0.279 C 
ENDBRANCH   9  24
BRANCH  10  26
ATOM     26  O   UNL     1     173.915 177.820 169.782  1.00  0.00    -0.490 OA
ATOM     27  C   UNL     1     174.832 178.874 169.504  1.00  0.00     0.278 C 
ENDBRANCH  10  26
TORSDOF 6
ENDMDL
MODEL 8
REMARK VINA RESULT:    -4.969      3.957      6.143
REMARK INTER + INTRA:          -7.425
REMARK INTER:                  -6.785
REMARK INTRA:                  -0.639
REMARK UNBOUND:                -0.712
REMARK SMILES COc1ccc(-c2cc(=O)c3c(OC)c(OC)c(OC)c(OC)c3o2)cc1
REMARK SMILES IDX 7 1 8 2 9 3 10 4 11 5 24 6 25 7 21 8 18 9 15 10 12 11 6 12
REMARK SMILES IDX 3 13 4 14 27 15 5 16 26 17 2 18 1 19 22 20 23 21 13 22 14 23
REMARK SMILES IDX 19 24 20 25 16 26 17 27
REMARK H PARENT
REMARK Flexibility Score: inf
ROOT
ATOM      1  C   UNL     1     174.691 172.361 175.566  1.00  0.00     0.138 A 
ATOM      2  C   UNL     1     175.507 171.225 175.484  1.00  0.00     0.100 A 
ATOM      3  C   UNL     1     176.307 171.037 174.358  1.00  0.00     0.197 A 
ATOM      4  O   UNL     1     177.034 170.008 174.300  1.00  0.00    -0.289 OA
ATOM      5  C   UNL     1     176.293 171.995 173.317  1.00  0.00     0.115 A 
ATOM      6  C   UNL     1     175.458 173.122 173.485  1.00  0.00     0.188 A 
ATOM      7  O   UNL     1     174.710 173.250 174.578  1.00  0.00    -0.452 OA
ATOM      8  C   UNL     1     175.404 174.131 172.518  1.00  0.00     0.209 A 
ATOM      9  C   UNL     1     176.210 174.026 171.362  1.00  0.00     0.211 A 
ATOM     10  C   UNL     1     176.985 172.866 171.142  1.00  0.00     0.208 A 
ATOM     11  C   UNL     1     177.069 171.863 172.140  1.00  0.00     0.179 A 
ENDROOT
BRANCH   1  12
ATOM     12  C   UNL     1     173.817 172.617 176.740  1.00  0.00     0.018 A 
ATOM     13  C   UNL     1     172.205 173.136 179.000  1.00  0.00     0.118 A 
ATOM     14  C   UNL     1     171.623 172.702 177.795  1.00  0.00     0.047 A 
ATOM     15  C   UNL     1     173.589 173.317 179.061  1.00  0.00     0.047 A 
ATOM     16  C   UNL     1     172.421 172.449 176.675  1.00  0.00     0.016 A 
ATOM     17  C   UNL     1     174.389 173.066 177.943  1.00  0.00     0.016 A 
BRANCH  13  18
ATOM     18  O   UNL     1     171.447 173.397 180.151  1.00  0.00    -0.497 OA
ATOM     19  C   UNL     1     171.977 173.431 181.472  1.00  0.00     0.278 C 
ENDBRANCH  13  18
ENDBRANCH   1  12
BRANCH   8  20
ATOM     20  O   UNL     1     174.544 175.215 172.778  1.00  0.00    -0.490 OA
ATOM     21  C   UNL     1     174.886 176.429 173.436  1.00  0.00     0.278 C 
ENDBRANCH   8  20
BRANCH  11  22
ATOM     22  O   UNL     1     177.889 170.723 172.005  1.00  0.00    -0.492 OA
ATOM     23  C   UNL     1     177.718 169.645 171.090  1.00  0.00     0.278 C 
ENDBRANCH  11  22
BRANCH   9  24
ATOM     24  O   UNL     1     176.254 175.080 170.445  1.00  0.00    -0.490 OA
ATOM     25  C   UNL     1     177.189 176.149 170.557  1.00  0.00     0.279 C 
ENDBRANCH   9  24
BRANCH  10  26
ATOM     26  O   UNL     1     177.661 172.703 169.928  1.00  0.00    -0.490 OA
ATOM     27  C   UNL     1     179.038 173.028 169.764  1.00  0.00     0.278 C 
ENDBRANCH  10  26
TORSDOF 6
ENDMDL
MODEL 9
REMARK VINA RESULT:    -4.965      5.323      6.494
REMARK INTER + INTRA:          -7.419
REMARK INTER:                  -6.712
REMARK INTRA:                  -0.707
REMARK UNBOUND:                -0.712
REMARK SMILES COc1ccc(-c2cc(=O)c3c(OC)c(OC)c(OC)c(OC)c3o2)cc1
REMARK SMILES IDX 7 1 8 2 9 3 10 4 11 5 24 6 25 7 21 8 18 9 15 10 12 11 6 12
REMARK SMILES IDX 3 13 4 14 27 15 5 16 26 17 2 18 1 19 22 20 23 21 13 22 14 23
REMARK SMILES IDX 19 24 20 25 16 26 17 27
REMARK H PARENT
REMARK Flexibility Score: inf
ROOT
ATOM      1  C   UNL     1     171.721 172.715 175.673  1.00  0.00     0.138 A 
ATOM      2  C   UNL     1     171.127 173.848 175.101  1.00  0.00     0.100 A 
ATOM      3  C   UNL     1     170.727 173.811 173.766  1.00  0.00     0.197 A 
ATOM      4  O   UNL     1     170.196 174.840 173.268  1.00  0.00    -0.289 OA
ATOM      5  C   UNL     1     170.917 172.633 173.007  1.00  0.00     0.115 A 
ATOM      6  C   UNL     1     171.506 171.527 173.662  1.00  0.00     0.188 A 
ATOM      7  O   UNL     1     171.874 171.618 174.938  1.00  0.00    -0.452 OA
ATOM      8  C   UNL     1     171.705 170.315 172.994  1.00  0.00     0.209 A 
ATOM      9  C   UNL     1     171.298 170.191 171.647  1.00  0.00     0.211 A 
ATOM     10  C   UNL     1     170.786 171.311 170.956  1.00  0.00     0.208 A 
ATOM     11  C   UNL     1     170.548 172.528 171.644  1.00  0.00     0.179 A 
ENDROOT
BRANCH   1  12
ATOM     12  C   UNL     1     172.168 172.692 177.090  1.00  0.00     0.018 A 
ATOM     13  C   UNL     1     172.958 172.670 179.801  1.00  0.00     0.118 A 
ATOM     14  C   UNL     1     173.722 171.996 178.832  1.00  0.00     0.047 A 
ATOM     15  C   UNL     1     171.796 173.341 179.407  1.00  0.00     0.047 A 
ATOM     16  C   UNL     1     173.329 172.004 177.490  1.00  0.00     0.016 A 
ATOM     17  C   UNL     1     171.400 173.349 178.067  1.00  0.00     0.016 A 
BRANCH  13  18
ATOM     18  O   UNL     1     173.314 172.695 181.158  1.00  0.00    -0.497 OA
ATOM     19  C   UNL     1     174.607 173.047 181.643  1.00  0.00     0.278 C 
ENDBRANCH  13  18
ENDBRANCH   1  12
BRANCH   8  20
ATOM     20  O   UNL     1     172.296 169.272 173.734  1.00  0.00    -0.490 OA
ATOM     21  C   UNL     1     173.666 168.890 173.714  1.00  0.00     0.278 C 
ENDBRANCH   8  20
BRANCH  11  22
ATOM     22  O   UNL     1     169.966 173.652 171.022  1.00  0.00    -0.492 OA
ATOM     23  C   UNL     1     168.636 173.768 170.526  1.00  0.00     0.278 C 
ENDBRANCH  11  22
BRANCH   9  24
ATOM     24  O   UNL     1     171.383 168.953 171.004  1.00  0.00    -0.490 OA
ATOM     25  C   UNL     1     170.311 168.015 171.010  1.00  0.00     0.279 C 
ENDBRANCH   9  24
BRANCH  10  26
ATOM     26  O   UNL     1     170.526 171.222 169.585  1.00  0.00    -0.490 OA
ATOM     27  C   UNL     1     171.490 171.567 168.595  1.00  0.00     0.278 C 
ENDBRANCH  10  26
TORSDOF 6
ENDMDL
