MODEL 1
REMARK VINA RESULT:    -3.721      0.000      0.000
REMARK INTER + INTRA:         -12.049
REMARK INTER:                  -8.071
REMARK INTRA:                  -3.977
REMARK UNBOUND:                -3.977
REMARK SMILES CCCCCCCCCCCCCCCCCCCCCC(=O)[O-]
REMARK SMILES IDX 12 1 11 2 10 3 9 4 8 5 7 6 6 7 5 8 4 9 3 10 2 11 1 12 13 13
REMARK SMILES IDX 14 14 15 15 16 16 17 17 18 18 19 19 20 20 21 21 22 22 23 23
REMARK SMILES IDX 24 24
REMARK H PARENT
REMARK Flexibility Score: inf
ROOT
ATOM      1  C   UNL     1     -10.493 -11.990  26.175  1.00  0.00     0.000 C 
ENDROOT
BRANCH   1   2
ATOM      2  C   UNL     1     -10.331 -12.275  27.680  1.00  0.00     0.000 C 
BRANCH   2   3
ATOM      3  C   UNL     1     -11.591 -12.895  28.311  1.00  0.00     0.000 C 
BRANCH   3   4
ATOM      4  C   UNL     1     -12.447 -11.928  29.150  1.00  0.00    -0.000 C 
BRANCH   4   5
ATOM      5  C   UNL     1     -13.898 -11.822  28.648  1.00  0.00    -0.000 C 
BRANCH   5   6
ATOM      6  C   UNL     1     -14.000 -11.933  27.118  1.00  0.00    -0.000 C 
BRANCH   6   7
ATOM      7  C   UNL     1     -14.488 -10.628  26.466  1.00  0.00    -0.000 C 
BRANCH   7   8
ATOM      8  C   UNL     1     -13.474 -10.043  25.465  1.00  0.00    -0.000 C 
BRANCH   8   9
ATOM      9  C   UNL     1     -12.935  -8.647  25.827  1.00  0.00    -0.000 C 
BRANCH   9  10
ATOM     10  C   UNL     1     -12.993  -8.359  27.337  1.00  0.00    -0.000 C 
BRANCH  10  11
ATOM     11  C   UNL     1     -11.645  -8.610  28.033  1.00  0.00    -0.003 C 
ATOM     12  C   UNL     1     -11.355  -7.591  29.136  1.00  0.00     0.004 C 
ENDBRANCH  10  11
ENDBRANCH   9  10
ENDBRANCH   8   9
ENDBRANCH   7   8
ENDBRANCH   6   7
ENDBRANCH   5   6
ENDBRANCH   4   5
ENDBRANCH   3   4
ENDBRANCH   2   3
ENDBRANCH   1   2
BRANCH   1  13
ATOM     13  C   UNL     1     -10.731 -13.267  25.355  1.00  0.00     0.000 C 
BRANCH  13  14
ATOM     14  C   UNL     1     -11.777 -13.072  24.245  1.00  0.00     0.000 C 
BRANCH  14  15
ATOM     15  C   UNL     1     -12.555 -14.359  23.918  1.00  0.00     0.000 C 
BRANCH  15  16
ATOM     16  C   UNL     1     -13.532 -14.833  25.014  1.00  0.00     0.000 C 
BRANCH  16  17
ATOM     17  C   UNL     1     -13.220 -16.212  25.623  1.00  0.00     0.000 C 
BRANCH  17  18
ATOM     18  C   UNL     1     -12.832 -16.140  27.110  1.00  0.00     0.000 C 
BRANCH  18  19
ATOM     19  C   UNL     1     -11.371 -16.574  27.355  1.00  0.00     0.000 C 
BRANCH  19  20
ATOM     20  C   UNL     1     -10.608 -16.946  26.067  1.00  0.00     0.006 C 
BRANCH  20  21
ATOM     21  C   UNL     1      -9.160 -16.433  26.018  1.00  0.00     0.053 C 
BRANCH  21  22
ATOM     22  C   UNL     1      -8.621 -16.385  24.621  1.00  0.00     0.041 C 
ATOM     23  O   UNL     1      -9.354 -16.003  23.672  1.00  0.00    -0.550 OA
ATOM     24  O   UNL     1      -7.308 -16.759  24.366  1.00  0.00    -0.550 OA
ENDBRANCH  21  22
ENDBRANCH  20  21
ENDBRANCH  19  20
ENDBRANCH  18  19
ENDBRANCH  17  18
ENDBRANCH  16  17
ENDBRANCH  15  16
ENDBRANCH  14  15
ENDBRANCH  13  14
ENDBRANCH   1  13
TORSDOF 20
ENDMDL
MODEL 2
REMARK VINA RESULT:    -3.683      2.803      6.116
REMARK INTER + INTRA:         -11.966
REMARK INTER:                  -7.768
REMARK INTRA:                  -4.197
REMARK UNBOUND:                -3.977
REMARK SMILES CCCCCCCCCCCCCCCCCCCCCC(=O)[O-]
REMARK SMILES IDX 12 1 11 2 10 3 9 4 8 5 7 6 6 7 5 8 4 9 3 10 2 11 1 12 13 13
REMARK SMILES IDX 14 14 15 15 16 16 17 17 18 18 19 19 20 20 21 21 22 22 23 23
REMARK SMILES IDX 24 24
REMARK H PARENT
REMARK Flexibility Score: inf
ROOT
ATOM      1  C   UNL     1     -12.248  -8.954  25.203  1.00  0.00     0.000 C 
ENDROOT
BRANCH   1   2
ATOM      2  C   UNL     1     -11.373  -9.149  26.455  1.00  0.00     0.000 C 
BRANCH   2   3
ATOM      3  C   UNL     1     -11.776  -8.225  27.618  1.00  0.00     0.000 C 
BRANCH   3   4
ATOM      4  C   UNL     1     -11.729  -8.870  29.015  1.00  0.00    -0.000 C 
BRANCH   4   5
ATOM      5  C   UNL     1     -11.791 -10.407  28.968  1.00  0.00    -0.000 C 
BRANCH   5   6
ATOM      6  C   UNL     1     -13.167 -10.952  29.387  1.00  0.00    -0.000 C 
BRANCH   6   7
ATOM      7  C   UNL     1     -13.724 -11.975  28.383  1.00  0.00    -0.000 C 
BRANCH   7   8
ATOM      8  C   UNL     1     -12.737 -12.294  27.244  1.00  0.00    -0.000 C 
BRANCH   8   9
ATOM      9  C   UNL     1     -12.982 -13.635  26.530  1.00  0.00    -0.000 C 
BRANCH   9  10
ATOM     10  C   UNL     1     -12.032 -13.859  25.340  1.00  0.00    -0.000 C 
BRANCH  10  11
ATOM     11  C   UNL     1     -10.929 -12.792  25.261  1.00  0.00    -0.003 C 
ATOM     12  C   UNL     1     -10.756 -12.229  23.851  1.00  0.00     0.004 C 
ENDBRANCH  10  11
ENDBRANCH   9  10
ENDBRANCH   8   9
ENDBRANCH   7   8
ENDBRANCH   6   7
ENDBRANCH   5   6
ENDBRANCH   4   5
ENDBRANCH   3   4
ENDBRANCH   2   3
ENDBRANCH   1   2
BRANCH   1  13
ATOM     13  C   UNL     1     -12.313  -7.487  24.753  1.00  0.00     0.000 C 
BRANCH  13  14
ATOM     14  C   UNL     1     -13.622  -7.150  24.017  1.00  0.00     0.000 C 
BRANCH  14  15
ATOM     15  C   UNL     1     -14.606  -6.340  24.880  1.00  0.00     0.000 C 
BRANCH  15  16
ATOM     16  C   UNL     1     -15.791  -7.143  25.455  1.00  0.00     0.000 C 
BRANCH  16  17
ATOM     17  C   UNL     1     -15.515  -7.858  26.790  1.00  0.00     0.000 C 
BRANCH  17  18
ATOM     18  C   UNL     1     -15.406  -9.385  26.645  1.00  0.00     0.000 C 
BRANCH  18  19
ATOM     19  C   UNL     1     -15.852  -9.873  25.250  1.00  0.00     0.000 C 
BRANCH  19  20
ATOM     20  C   UNL     1     -15.448 -11.328  24.940  1.00  0.00     0.006 C 
BRANCH  20  21
ATOM     21  C   UNL     1     -14.775 -11.522  23.573  1.00  0.00     0.053 C 
BRANCH  21  22
ATOM     22  C   UNL     1     -14.702 -12.964  23.174  1.00  0.00     0.041 C 
ATOM     23  O   UNL     1     -15.504 -13.800  23.668  1.00  0.00    -0.550 OA
ATOM     24  O   UNL     1     -13.750 -13.388  22.254  1.00  0.00    -0.550 OA
ENDBRANCH  21  22
ENDBRANCH  20  21
ENDBRANCH  19  20
ENDBRANCH  18  19
ENDBRANCH  17  18
ENDBRANCH  16  17
ENDBRANCH  15  16
ENDBRANCH  14  15
ENDBRANCH  13  14
ENDBRANCH   1  13
TORSDOF 20
ENDMDL
MODEL 3
REMARK VINA RESULT:    -3.679      2.867      6.911
REMARK INTER + INTRA:         -11.959
REMARK INTER:                  -7.936
REMARK INTRA:                  -4.023
REMARK UNBOUND:                -3.977
REMARK SMILES CCCCCCCCCCCCCCCCCCCCCC(=O)[O-]
REMARK SMILES IDX 12 1 11 2 10 3 9 4 8 5 7 6 6 7 5 8 4 9 3 10 2 11 1 12 13 13
REMARK SMILES IDX 14 14 15 15 16 16 17 17 18 18 19 19 20 20 21 21 22 22 23 23
REMARK SMILES IDX 24 24
REMARK H PARENT
REMARK Flexibility Score: inf
ROOT
ATOM      1  C   UNL     1     -12.705 -12.038  25.434  1.00  0.00     0.000 C 
ENDROOT
BRANCH   1   2
ATOM      2  C   UNL     1     -11.175 -12.131  25.289  1.00  0.00     0.000 C 
BRANCH   2   3
ATOM      3  C   UNL     1     -10.592 -13.420  25.895  1.00  0.00     0.000 C 
BRANCH   3   4
ATOM      4  C   UNL     1     -10.584 -14.641  24.956  1.00  0.00    -0.000 C 
BRANCH   4   5
ATOM      5  C   UNL     1      -9.970 -15.893  25.605  1.00  0.00    -0.000 C 
BRANCH   5   6
ATOM      6  C   UNL     1     -11.017 -16.987  25.876  1.00  0.00    -0.000 C 
BRANCH   6   7
ATOM      7  C   UNL     1     -12.458 -16.465  25.743  1.00  0.00    -0.000 C 
BRANCH   7   8
ATOM      8  C   UNL     1     -13.192 -16.382  27.095  1.00  0.00    -0.000 C 
BRANCH   8   9
ATOM      9  C   UNL     1     -12.303 -16.611  28.331  1.00  0.00    -0.000 C 
BRANCH   9  10
ATOM     10  C   UNL     1     -11.934 -15.303  29.051  1.00  0.00    -0.000 C 
BRANCH  10  11
ATOM     11  C   UNL     1     -10.427 -15.198  29.339  1.00  0.00    -0.003 C 
ATOM     12  C   UNL     1      -9.732 -16.559  29.336  1.00  0.00     0.004 C 
ENDBRANCH  10  11
ENDBRANCH   9  10
ENDBRANCH   8   9
ENDBRANCH   7   8
ENDBRANCH   6   7
ENDBRANCH   5   6
ENDBRANCH   4   5
ENDBRANCH   3   4
ENDBRANCH   2   3
ENDBRANCH   1   2
BRANCH   1  13
ATOM     13  C   UNL     1     -13.214 -12.686  26.731  1.00  0.00     0.000 C 
BRANCH  13  14
ATOM     14  C   UNL     1     -13.867 -11.670  27.683  1.00  0.00     0.000 C 
BRANCH  14  15
ATOM     15  C   UNL     1     -13.264 -11.699  29.099  1.00  0.00     0.000 C 
BRANCH  15  16
ATOM     16  C   UNL     1     -11.725 -11.792  29.156  1.00  0.00     0.000 C 
BRANCH  16  17
ATOM     17  C   UNL     1     -10.972 -10.547  28.652  1.00  0.00     0.000 C 
BRANCH  17  18
ATOM     18  C   UNL     1     -11.467  -9.241  29.296  1.00  0.00     0.000 C 
BRANCH  18  19
ATOM     19  C   UNL     1     -11.783  -8.154  28.246  1.00  0.00     0.000 C 
BRANCH  19  20
ATOM     20  C   UNL     1     -11.805  -8.677  26.796  1.00  0.00     0.006 C 
BRANCH  20  21
ATOM     21  C   UNL     1     -13.016  -8.213  25.972  1.00  0.00     0.053 C 
BRANCH  21  22
ATOM     22  C   UNL     1     -12.663  -7.949  24.541  1.00  0.00     0.041 C 
ATOM     23  O   UNL     1     -12.239  -6.817  24.191  1.00  0.00    -0.550 OA
ATOM     24  O   UNL     1     -12.800  -8.953  23.590  1.00  0.00    -0.550 OA
ENDBRANCH  21  22
ENDBRANCH  20  21
ENDBRANCH  19  20
ENDBRANCH  18  19
ENDBRANCH  17  18
ENDBRANCH  16  17
ENDBRANCH  15  16
ENDBRANCH  14  15
ENDBRANCH  13  14
ENDBRANCH   1  13
TORSDOF 20
ENDMDL
MODEL 4
REMARK VINA RESULT:    -3.676      2.951      6.388
REMARK INTER + INTRA:         -11.951
REMARK INTER:                  -7.499
REMARK INTRA:                  -4.452
REMARK UNBOUND:                -3.977
REMARK SMILES CCCCCCCCCCCCCCCCCCCCCC(=O)[O-]
REMARK SMILES IDX 12 1 11 2 10 3 9 4 8 5 7 6 6 7 5 8 4 9 3 10 2 11 1 12 13 13
REMARK SMILES IDX 14 14 15 15 16 16 17 17 18 18 19 19 20 20 21 21 22 22 23 23
REMARK SMILES IDX 24 24
REMARK H PARENT
REMARK Flexibility Score: inf
ROOT
ATOM      1  C   UNL     1     -15.155 -11.566  25.019  1.00  0.00     0.000 C 
ENDROOT
BRANCH   1   2
ATOM      2  C   UNL     1     -14.818 -13.063  25.150  1.00  0.00     0.000 C 
BRANCH   2   3
ATOM      3  C   UNL     1     -13.697 -13.338  26.168  1.00  0.00     0.000 C 
BRANCH   3   4
ATOM      4  C   UNL     1     -12.895 -14.630  25.925  1.00  0.00    -0.000 C 
BRANCH   4   5
ATOM      5  C   UNL     1     -11.614 -14.709  26.774  1.00  0.00    -0.000 C 
BRANCH   5   6
ATOM      6  C   UNL     1     -10.400 -14.089  26.063  1.00  0.00    -0.000 C 
BRANCH   6   7
ATOM      7  C   UNL     1     -10.104 -12.659  26.547  1.00  0.00    -0.000 C 
BRANCH   7   8
ATOM      8  C   UNL     1     -10.400 -11.591  25.478  1.00  0.00    -0.000 C 
BRANCH   8   9
ATOM      9  C   UNL     1     -10.508 -12.125  24.039  1.00  0.00    -0.000 C 
BRANCH   9  10
ATOM     10  C   UNL     1     -11.712 -11.547  23.276  1.00  0.00    -0.000 C 
BRANCH  10  11
ATOM     11  C   UNL     1     -12.393 -12.591  22.377  1.00  0.00    -0.003 C 
ATOM     12  C   UNL     1     -11.743 -13.971  22.482  1.00  0.00     0.004 C 
ENDBRANCH  10  11
ENDBRANCH   9  10
ENDBRANCH   8   9
ENDBRANCH   7   8
ENDBRANCH   6   7
ENDBRANCH   5   6
ENDBRANCH   4   5
ENDBRANCH   3   4
ENDBRANCH   2   3
ENDBRANCH   1   2
BRANCH   1  13
ATOM     13  C   UNL     1     -14.206 -10.675  25.834  1.00  0.00     0.000 C 
BRANCH  13  14
ATOM     14  C   UNL     1     -14.880  -9.380  26.320  1.00  0.00     0.000 C 
BRANCH  14  15
ATOM     15  C   UNL     1     -13.883  -8.228  26.537  1.00  0.00     0.000 C 
BRANCH  15  16
ATOM     16  C   UNL     1     -12.502  -8.420  25.877  1.00  0.00     0.000 C 
BRANCH  16  17
ATOM     17  C   UNL     1     -11.297  -8.323  26.831  1.00  0.00     0.000 C 
BRANCH  17  18
ATOM     18  C   UNL     1     -11.682  -8.510  28.308  1.00  0.00     0.000 C 
BRANCH  18  19
ATOM     19  C   UNL     1     -11.414  -9.947  28.805  1.00  0.00     0.000 C 
BRANCH  19  20
ATOM     20  C   UNL     1     -12.691 -10.716  29.201  1.00  0.00     0.006 C 
BRANCH  20  21
ATOM     21  C   UNL     1     -12.475 -12.217  29.448  1.00  0.00     0.053 C 
BRANCH  21  22
ATOM     22  C   UNL     1     -12.179 -12.521  30.885  1.00  0.00     0.041 C 
ATOM     23  O   UNL     1     -11.694 -13.636  31.210  1.00  0.00    -0.550 OA
ATOM     24  O   UNL     1     -12.437 -11.572  31.867  1.00  0.00    -0.550 OA
ENDBRANCH  21  22
ENDBRANCH  20  21
ENDBRANCH  19  20
ENDBRANCH  18  19
ENDBRANCH  17  18
ENDBRANCH  16  17
ENDBRANCH  15  16
ENDBRANCH  14  15
ENDBRANCH  13  14
ENDBRANCH   1  13
TORSDOF 20
ENDMDL
MODEL 5
REMARK VINA RESULT:    -3.665      3.275      7.334
REMARK INTER + INTRA:         -11.927
REMARK INTER:                  -8.079
REMARK INTRA:                  -3.847
REMARK UNBOUND:                -3.977
REMARK SMILES CCCCCCCCCCCCCCCCCCCCCC(=O)[O-]
REMARK SMILES IDX 12 1 11 2 10 3 9 4 8 5 7 6 6 7 5 8 4 9 3 10 2 11 1 12 13 13
REMARK SMILES IDX 14 14 15 15 16 16 17 17 18 18 19 19 20 20 21 21 22 22 23 23
REMARK SMILES IDX 24 24
REMARK H PARENT
REMARK Flexibility Score: inf
ROOT
ATOM      1  C   UNL     1     -10.567 -12.182  26.538  1.00  0.00     0.000 C 
ENDROOT
BRANCH   1   2
ATOM      2  C   UNL     1     -10.057 -11.722  25.160  1.00  0.00     0.000 C 
BRANCH   2   3
ATOM      3  C   UNL     1     -10.969 -12.167  24.003  1.00  0.00     0.000 C 
BRANCH   3   4
ATOM      4  C   UNL     1     -10.436 -13.343  23.162  1.00  0.00    -0.000 C 
BRANCH   4   5
ATOM      5  C   UNL     1     -10.857 -14.715  23.716  1.00  0.00    -0.000 C 
BRANCH   5   6
ATOM      6  C   UNL     1      -9.652 -15.629  23.998  1.00  0.00    -0.000 C 
BRANCH   6   7
ATOM      7  C   UNL     1      -9.508 -15.965  25.492  1.00  0.00    -0.000 C 
BRANCH   7   8
ATOM      8  C   UNL     1     -10.743 -16.686  26.065  1.00  0.00    -0.000 C 
BRANCH   8   9
ATOM      9  C   UNL     1     -11.330 -16.054  27.340  1.00  0.00    -0.000 C 
BRANCH   9  10
ATOM     10  C   UNL     1     -12.863 -15.936  27.296  1.00  0.00    -0.000 C 
BRANCH  10  11
ATOM     11  C   UNL     1     -13.443 -16.340  25.931  1.00  0.00    -0.003 C 
ATOM     12  C   UNL     1     -14.205 -15.200  25.255  1.00  0.00     0.004 C 
ENDBRANCH  10  11
ENDBRANCH   9  10
ENDBRANCH   8   9
ENDBRANCH   7   8
ENDBRANCH   6   7
ENDBRANCH   5   6
ENDBRANCH   4   5
ENDBRANCH   3   4
ENDBRANCH   2   3
ENDBRANCH   1   2
BRANCH   1  13
ATOM     13  C   UNL     1     -12.090 -12.387  26.564  1.00  0.00     0.000 C 
BRANCH  13  14
ATOM     14  C   UNL     1     -12.705 -12.085  27.941  1.00  0.00     0.000 C 
BRANCH  14  15
ATOM     15  C   UNL     1     -13.117 -10.611  28.106  1.00  0.00     0.000 C 
BRANCH  15  16
ATOM     16  C   UNL     1     -12.067  -9.706  28.784  1.00  0.00     0.000 C 
BRANCH  16  17
ATOM     17  C   UNL     1     -11.715  -8.418  28.017  1.00  0.00     0.000 C 
BRANCH  17  18
ATOM     18  C   UNL     1     -11.443  -8.661  26.523  1.00  0.00     0.000 C 
BRANCH  18  19
ATOM     19  C   UNL     1     -12.500  -7.991  25.620  1.00  0.00     0.000 C 
BRANCH  19  20
ATOM     20  C   UNL     1     -12.847  -8.806  24.357  1.00  0.00     0.006 C 
BRANCH  20  21
ATOM     21  C   UNL     1     -13.921  -9.883  24.572  1.00  0.00     0.053 C 
BRANCH  21  22
ATOM     22  C   UNL     1     -15.297  -9.301  24.680  1.00  0.00     0.041 C 
ATOM     23  O   UNL     1     -15.803  -9.076  25.810  1.00  0.00    -0.550 OA
ATOM     24  O   UNL     1     -16.022  -9.004  23.532  1.00  0.00    -0.550 OA
ENDBRANCH  21  22
ENDBRANCH  20  21
ENDBRANCH  19  20
ENDBRANCH  18  19
ENDBRANCH  17  18
ENDBRANCH  16  17
ENDBRANCH  15  16
ENDBRANCH  14  15
ENDBRANCH  13  14
ENDBRANCH   1  13
TORSDOF 20
ENDMDL
MODEL 6
REMARK VINA RESULT:    -3.661      2.459      5.484
REMARK INTER + INTRA:         -11.920
REMARK INTER:                  -8.183
REMARK INTRA:                  -3.737
REMARK UNBOUND:                -3.977
REMARK SMILES CCCCCCCCCCCCCCCCCCCCCC(=O)[O-]
REMARK SMILES IDX 12 1 11 2 10 3 9 4 8 5 7 6 6 7 5 8 4 9 3 10 2 11 1 12 13 13
REMARK SMILES IDX 14 14 15 15 16 16 17 17 18 18 19 19 20 20 21 21 22 22 23 23
REMARK SMILES IDX 24 24
REMARK H PARENT
REMARK Flexibility Score: inf
ROOT
ATOM      1  C   UNL     1     -10.544 -18.920  29.486  1.00  0.00     0.000 C 
ENDROOT
BRANCH   1   2
ATOM      2  C   UNL     1     -10.865 -19.123  27.993  1.00  0.00     0.000 C 
BRANCH   2   3
ATOM      3  C   UNL     1     -10.658 -17.848  27.156  1.00  0.00     0.000 C 
BRANCH   3   4
ATOM      4  C   UNL     1     -11.950 -17.160  26.679  1.00  0.00    -0.000 C 
BRANCH   4   5
ATOM      5  C   UNL     1     -11.704 -16.123  25.569  1.00  0.00    -0.000 C 
BRANCH   5   6
ATOM      6  C   UNL     1     -10.460 -16.451  24.726  1.00  0.00    -0.000 C 
BRANCH   6   7
ATOM      7  C   UNL     1      -9.741 -15.186  24.225  1.00  0.00    -0.000 C 
BRANCH   7   8
ATOM      8  C   UNL     1     -10.615 -14.333  23.287  1.00  0.00    -0.000 C 
BRANCH   8   9
ATOM      9  C   UNL     1     -10.509 -12.813  23.506  1.00  0.00    -0.000 C 
BRANCH   9  10
ATOM     10  C   UNL     1     -10.978 -12.378  24.905  1.00  0.00    -0.000 C 
BRANCH  10  11
ATOM     11  C   UNL     1     -10.097 -11.267  25.499  1.00  0.00    -0.003 C 
ATOM     12  C   UNL     1     -10.814 -10.467  26.587  1.00  0.00     0.004 C 
ENDBRANCH  10  11
ENDBRANCH   9  10
ENDBRANCH   8   9
ENDBRANCH   7   8
ENDBRANCH   6   7
ENDBRANCH   5   6
ENDBRANCH   4   5
ENDBRANCH   3   4
ENDBRANCH   2   3
ENDBRANCH   1   2
BRANCH   1  13
ATOM     13  C   UNL     1     -11.665 -19.430  30.403  1.00  0.00     0.000 C 
BRANCH  13  14
ATOM     14  C   UNL     1     -12.319 -18.303  31.222  1.00  0.00     0.000 C 
BRANCH  14  15
ATOM     15  C   UNL     1     -11.823 -16.902  30.821  1.00  0.00     0.000 C 
BRANCH  15  16
ATOM     16  C   UNL     1     -12.890 -15.982  30.192  1.00  0.00     0.000 C 
BRANCH  16  17
ATOM     17  C   UNL     1     -12.344 -14.721  29.498  1.00  0.00     0.000 C 
BRANCH  17  18
ATOM     18  C   UNL     1     -10.823 -14.766  29.275  1.00  0.00     0.000 C 
BRANCH  18  19
ATOM     19  C   UNL     1     -10.361 -13.765  28.194  1.00  0.00     0.000 C 
BRANCH  19  20
ATOM     20  C   UNL     1      -8.916 -13.996  27.708  1.00  0.00     0.006 C 
BRANCH  20  21
ATOM     21  C   UNL     1      -8.293 -15.320  28.176  1.00  0.00     0.053 C 
BRANCH  21  22
ATOM     22  C   UNL     1      -7.180 -15.772  27.282  1.00  0.00     0.041 C 
ATOM     23  O   UNL     1      -7.361 -16.720  26.474  1.00  0.00    -0.550 OA
ATOM     24  O   UNL     1      -5.940 -15.147  27.339  1.00  0.00    -0.550 OA
ENDBRANCH  21  22
ENDBRANCH  20  21
ENDBRANCH  19  20
ENDBRANCH  18  19
ENDBRANCH  17  18
ENDBRANCH  16  17
ENDBRANCH  15  16
ENDBRANCH  14  15
ENDBRANCH  13  14
ENDBRANCH   1  13
TORSDOF 20
ENDMDL
MODEL 7
REMARK VINA RESULT:    -3.636      2.578      6.951
REMARK INTER + INTRA:         -11.864
REMARK INTER:                  -7.774
REMARK INTRA:                  -4.090
REMARK UNBOUND:                -3.977
REMARK SMILES CCCCCCCCCCCCCCCCCCCCCC(=O)[O-]
REMARK SMILES IDX 12 1 11 2 10 3 9 4 8 5 7 6 6 7 5 8 4 9 3 10 2 11 1 12 13 13
REMARK SMILES IDX 14 14 15 15 16 16 17 17 18 18 19 19 20 20 21 21 22 22 23 23
REMARK SMILES IDX 24 24
REMARK H PARENT
REMARK Flexibility Score: inf
ROOT
ATOM      1  C   UNL     1     -10.367 -12.197  26.804  1.00  0.00     0.000 C 
ENDROOT
BRANCH   1   2
ATOM      2  C   UNL     1     -10.109 -11.717  25.364  1.00  0.00     0.000 C 
BRANCH   2   3
ATOM      3  C   UNL     1     -11.405 -11.503  24.562  1.00  0.00     0.000 C 
BRANCH   3   4
ATOM      4  C   UNL     1     -11.707 -12.582  23.504  1.00  0.00    -0.000 C 
BRANCH   4   5
ATOM      5  C   UNL     1     -10.586 -13.628  23.377  1.00  0.00    -0.000 C 
BRANCH   5   6
ATOM      6  C   UNL     1     -11.016 -15.014  23.886  1.00  0.00    -0.000 C 
BRANCH   6   7
ATOM      7  C   UNL     1     -12.393 -14.986  24.571  1.00  0.00    -0.000 C 
BRANCH   7   8
ATOM      8  C   UNL     1     -12.429 -15.798  25.879  1.00  0.00    -0.000 C 
BRANCH   8   9
ATOM      9  C   UNL     1     -11.664 -17.134  25.834  1.00  0.00    -0.000 C 
BRANCH   9  10
ATOM     10  C   UNL     1     -10.657 -17.282  26.988  1.00  0.00    -0.000 C 
BRANCH  10  11
ATOM     11  C   UNL     1     -10.082 -15.931  27.442  1.00  0.00    -0.003 C 
ATOM     12  C   UNL     1      -8.759 -15.595  26.756  1.00  0.00     0.004 C 
ENDBRANCH  10  11
ENDBRANCH   9  10
ENDBRANCH   8   9
ENDBRANCH   7   8
ENDBRANCH   6   7
ENDBRANCH   5   6
ENDBRANCH   4   5
ENDBRANCH   3   4
ENDBRANCH   2   3
ENDBRANCH   1   2
BRANCH   1  13
ATOM     13  C   UNL     1     -11.863 -12.256  27.146  1.00  0.00     0.000 C 
BRANCH  13  14
ATOM     14  C   UNL     1     -12.206 -11.495  28.439  1.00  0.00     0.000 C 
BRANCH  14  15
ATOM     15  C   UNL     1     -11.270 -10.301  28.699  1.00  0.00     0.000 C 
BRANCH  15  16
ATOM     16  C   UNL     1     -11.802  -8.934  28.222  1.00  0.00     0.000 C 
BRANCH  16  17
ATOM     17  C   UNL     1     -11.301  -8.480  26.838  1.00  0.00     0.000 C 
BRANCH  17  18
ATOM     18  C   UNL     1     -12.434  -8.321  25.810  1.00  0.00     0.000 C 
BRANCH  18  19
ATOM     19  C   UNL     1     -13.794  -8.027  26.479  1.00  0.00     0.000 C 
BRANCH  19  20
ATOM     20  C   UNL     1     -14.959  -8.866  25.916  1.00  0.00     0.006 C 
BRANCH  20  21
ATOM     21  C   UNL     1     -14.975 -10.328  26.389  1.00  0.00     0.053 C 
BRANCH  21  22
ATOM     22  C   UNL     1     -15.003 -11.295  25.246  1.00  0.00     0.041 C 
ATOM     23  O   UNL     1     -15.046 -10.874  24.061  1.00  0.00    -0.550 OA
ATOM     24  O   UNL     1     -14.979 -12.663  25.488  1.00  0.00    -0.550 OA
ENDBRANCH  21  22
ENDBRANCH  20  21
ENDBRANCH  19  20
ENDBRANCH  18  19
ENDBRANCH  17  18
ENDBRANCH  16  17
ENDBRANCH  15  16
ENDBRANCH  14  15
ENDBRANCH  13  14
ENDBRANCH   1  13
TORSDOF 20
ENDMDL
MODEL 8
REMARK VINA RESULT:    -3.627      1.671      5.440
REMARK INTER + INTRA:         -11.846
REMARK INTER:                  -7.809
REMARK INTRA:                  -4.037
REMARK UNBOUND:                -3.977
REMARK SMILES CCCCCCCCCCCCCCCCCCCCCC(=O)[O-]
REMARK SMILES IDX 12 1 11 2 10 3 9 4 8 5 7 6 6 7 5 8 4 9 3 10 2 11 1 12 13 13
REMARK SMILES IDX 14 14 15 15 16 16 17 17 18 18 19 19 20 20 21 21 22 22 23 23
REMARK SMILES IDX 24 24
REMARK H PARENT
REMARK Flexibility Score: inf
ROOT
ATOM      1  C   UNL     1     -10.899 -10.416  27.980  1.00  0.00     0.000 C 
ENDROOT
BRANCH   1   2
ATOM      2  C   UNL     1     -11.637  -9.600  29.057  1.00  0.00     0.000 C 
BRANCH   2   3
ATOM      3  C   UNL     1     -12.180 -10.471  30.204  1.00  0.00     0.000 C 
BRANCH   3   4
ATOM      4  C   UNL     1     -13.538 -11.143  29.929  1.00  0.00    -0.000 C 
BRANCH   4   5
ATOM      5  C   UNL     1     -13.416 -12.650  29.645  1.00  0.00    -0.000 C 
BRANCH   5   6
ATOM      6  C   UNL     1     -12.034 -13.208  30.022  1.00  0.00    -0.000 C 
BRANCH   6   7
ATOM      7  C   UNL     1     -11.388 -14.002  28.874  1.00  0.00    -0.000 C 
BRANCH   7   8
ATOM      8  C   UNL     1     -11.054 -15.454  29.263  1.00  0.00    -0.000 C 
BRANCH   8   9
ATOM      9  C   UNL     1     -11.902 -16.527  28.557  1.00  0.00    -0.000 C 
BRANCH   9  10
ATOM     10  C   UNL     1     -12.915 -15.929  27.565  1.00  0.00    -0.000 C 
BRANCH  10  11
ATOM     11  C   UNL     1     -12.831 -16.582  26.176  1.00  0.00    -0.003 C 
ATOM     12  C   UNL     1     -11.617 -17.500  26.030  1.00  0.00     0.004 C 
ENDBRANCH  10  11
ENDBRANCH   9  10
ENDBRANCH   8   9
ENDBRANCH   7   8
ENDBRANCH   6   7
ENDBRANCH   5   6
ENDBRANCH   4   5
ENDBRANCH   3   4
ENDBRANCH   2   3
ENDBRANCH   1   2
BRANCH   1  13
ATOM     13  C   UNL     1     -10.880  -9.710  26.616  1.00  0.00     0.000 C 
BRANCH  13  14
ATOM     14  C   UNL     1     -11.636  -8.370  26.632  1.00  0.00     0.000 C 
BRANCH  14  15
ATOM     15  C   UNL     1     -12.914  -8.389  25.775  1.00  0.00     0.000 C 
BRANCH  15  16
ATOM     16  C   UNL     1     -14.229  -8.575  26.560  1.00  0.00     0.000 C 
BRANCH  16  17
ATOM     17  C   UNL     1     -14.705 -10.032  26.709  1.00  0.00     0.000 C 
BRANCH  17  18
ATOM     18  C   UNL     1     -14.209 -10.947  25.576  1.00  0.00     0.000 C 
BRANCH  18  19
ATOM     19  C   UNL     1     -13.575 -12.248  26.112  1.00  0.00     0.000 C 
BRANCH  19  20
ATOM     20  C   UNL     1     -12.792 -13.043  25.048  1.00  0.00     0.006 C 
BRANCH  20  21
ATOM     21  C   UNL     1     -11.269 -12.852  25.105  1.00  0.00     0.053 C 
BRANCH  21  22
ATOM     22  C   UNL     1     -10.526 -14.130  24.861  1.00  0.00     0.041 C 
ATOM     23  O   UNL     1     -10.621 -14.716  23.751  1.00  0.00    -0.550 OA
ATOM     24  O   UNL     1      -9.725 -14.674  25.858  1.00  0.00    -0.550 OA
ENDBRANCH  21  22
ENDBRANCH  20  21
ENDBRANCH  19  20
ENDBRANCH  18  19
ENDBRANCH  17  18
ENDBRANCH  16  17
ENDBRANCH  15  16
ENDBRANCH  14  15
ENDBRANCH  13  14
ENDBRANCH   1  13
TORSDOF 20
ENDMDL
MODEL 9
REMARK VINA RESULT:    -3.605      2.813      5.640
REMARK INTER + INTRA:         -11.796
REMARK INTER:                  -7.865
REMARK INTRA:                  -3.931
REMARK UNBOUND:                -3.977
REMARK SMILES CCCCCCCCCCCCCCCCCCCCCC(=O)[O-]
REMARK SMILES IDX 12 1 11 2 10 3 9 4 8 5 7 6 6 7 5 8 4 9 3 10 2 11 1 12 13 13
REMARK SMILES IDX 14 14 15 15 16 16 17 17 18 18 19 19 20 20 21 21 22 22 23 23
REMARK SMILES IDX 24 24
REMARK H PARENT
REMARK Flexibility Score: inf
ROOT
ATOM      1  C   UNL     1     -11.613  -8.390  26.129  1.00  0.00     0.000 C 
ENDROOT
BRANCH   1   2
ATOM      2  C   UNL     1     -12.821  -7.816  25.366  1.00  0.00     0.000 C 
BRANCH   2   3
ATOM      3  C   UNL     1     -14.123  -7.858  26.186  1.00  0.00     0.000 C 
BRANCH   3   4
ATOM      4  C   UNL     1     -15.339  -7.187  25.520  1.00  0.00    -0.000 C 
BRANCH   4   5
ATOM      5  C   UNL     1     -14.996  -5.837  24.866  1.00  0.00    -0.000 C 
BRANCH   5   6
ATOM      6  C   UNL     1     -15.574  -5.708  23.447  1.00  0.00    -0.000 C 
BRANCH   6   7
ATOM      7  C   UNL     1     -14.478  -5.591  22.374  1.00  0.00    -0.000 C 
BRANCH   7   8
ATOM      8  C   UNL     1     -14.388  -6.834  21.471  1.00  0.00    -0.000 C 
BRANCH   8   9
ATOM      9  C   UNL     1     -13.052  -7.595  21.543  1.00  0.00    -0.000 C 
BRANCH   9  10
ATOM     10  C   UNL     1     -13.205  -9.018  22.106  1.00  0.00    -0.000 C 
BRANCH  10  11
ATOM     11  C   UNL     1     -14.651  -9.330  22.525  1.00  0.00    -0.003 C 
ATOM     12  C   UNL     1     -15.221 -10.553  21.805  1.00  0.00     0.004 C 
ENDBRANCH  10  11
ENDBRANCH   9  10
ENDBRANCH   8   9
ENDBRANCH   7   8
ENDBRANCH   6   7
ENDBRANCH   5   6
ENDBRANCH   4   5
ENDBRANCH   3   4
ENDBRANCH   2   3
ENDBRANCH   1   2
BRANCH   1  13
ATOM     13  C   UNL     1     -11.886  -8.547  27.632  1.00  0.00     0.000 C 
BRANCH  13  14
ATOM     14  C   UNL     1     -11.444  -9.917  28.174  1.00  0.00     0.000 C 
BRANCH  14  15
ATOM     15  C   UNL     1     -12.519 -10.598  29.040  1.00  0.00     0.000 C 
BRANCH  15  16
ATOM     16  C   UNL     1     -13.864 -10.862  28.331  1.00  0.00     0.000 C 
BRANCH  16  17
ATOM     17  C   UNL     1     -13.831 -11.952  27.245  1.00  0.00     0.000 C 
BRANCH  17  18
ATOM     18  C   UNL     1     -14.230 -11.429  25.854  1.00  0.00     0.000 C 
BRANCH  18  19
ATOM     19  C   UNL     1     -13.361 -12.036  24.731  1.00  0.00     0.000 C 
BRANCH  19  20
ATOM     20  C   UNL     1     -11.854 -11.746  24.884  1.00  0.00     0.006 C 
BRANCH  20  21
ATOM     21  C   UNL     1     -10.941 -12.925  24.514  1.00  0.00     0.053 C 
BRANCH  21  22
ATOM     22  C   UNL     1     -11.386 -14.209  25.145  1.00  0.00     0.041 C 
ATOM     23  O   UNL     1     -11.308 -14.362  26.392  1.00  0.00    -0.550 OA
ATOM     24  O   UNL     1     -11.888 -15.237  24.358  1.00  0.00    -0.550 OA
ENDBRANCH  21  22
ENDBRANCH  20  21
ENDBRANCH  19  20
ENDBRANCH  18  19
ENDBRANCH  17  18
ENDBRANCH  16  17
ENDBRANCH  15  16
ENDBRANCH  14  15
ENDBRANCH  13  14
ENDBRANCH   1  13
TORSDOF 20
ENDMDL
