MODEL 1
REMARK VINA RESULT:    -4.328      0.000      0.000
REMARK INTER + INTRA:          -7.780
REMARK INTER:                  -6.857
REMARK INTRA:                  -0.922
REMARK UNBOUND:                -0.922
REMARK SMILES CCCCCCCCCCCC(=O)[O-]
REMARK SMILES IDX 7 1 8 2 9 3 10 4 11 5 12 6 13 7 14 8 6 9 5 10 4 11 3 12 2 13
REMARK SMILES IDX 1 14
REMARK H PARENT
REMARK Flexibility Score: inf
ROOT
ATOM      1  C   UNL     1      25.664  13.354 -14.011  1.00  0.00     0.000 C 
ENDROOT
BRANCH   1   2
ATOM      2  C   UNL     1      27.090  12.959 -13.599  1.00  0.00     0.000 C 
BRANCH   2   3
ATOM      3  C   UNL     1      27.224  12.719 -12.087  1.00  0.00     0.000 C 
BRANCH   3   4
ATOM      4  C   UNL     1      28.645  12.998 -11.566  1.00  0.00     0.006 C 
BRANCH   4   5
ATOM      5  C   UNL     1      28.674  13.195 -10.045  1.00  0.00     0.053 C 
BRANCH   5   6
ATOM      6  C   UNL     1      28.700  14.647  -9.676  1.00  0.00     0.041 C 
ATOM      7  O   UNL     1      29.260  15.484 -10.432  1.00  0.00    -0.550 OA
ATOM      8  O   UNL     1      28.134  15.070  -8.480  1.00  0.00    -0.550 OA
ENDBRANCH   5   6
ENDBRANCH   4   5
ENDBRANCH   3   4
ENDBRANCH   2   3
ENDBRANCH   1   2
BRANCH   1   9
ATOM      9  C   UNL     1      25.589  14.842 -14.370  1.00  0.00     0.000 C 
BRANCH   9  10
ATOM     10  C   UNL     1      25.087  15.671 -13.180  1.00  0.00    -0.000 C 
BRANCH  10  11
ATOM     11  C   UNL     1      26.258  16.351 -12.453  1.00  0.00    -0.000 C 
BRANCH  11  12
ATOM     12  C   UNL     1      25.948  16.643 -10.976  1.00  0.00    -0.000 C 
BRANCH  12  13
ATOM     13  C   UNL     1      24.927  17.776 -10.800  1.00  0.00    -0.003 C 
ATOM     14  C   UNL     1      25.456  19.086 -11.379  1.00  0.00     0.004 C 
ENDBRANCH  12  13
ENDBRANCH  11  12
ENDBRANCH  10  11
ENDBRANCH   9  10
ENDBRANCH   1   9
TORSDOF 10
ENDMDL
MODEL 2
REMARK VINA RESULT:    -4.319      1.834      3.488
REMARK INTER + INTRA:          -7.767
REMARK INTER:                  -6.250
REMARK INTRA:                  -1.517
REMARK UNBOUND:                -0.922
REMARK SMILES CCCCCCCCCCCC(=O)[O-]
REMARK SMILES IDX 7 1 8 2 9 3 10 4 11 5 12 6 13 7 14 8 6 9 5 10 4 11 3 12 2 13
REMARK SMILES IDX 1 14
REMARK H PARENT
REMARK Flexibility Score: inf
ROOT
ATOM      1  C   UNL     1      24.915  16.985  -9.917  1.00  0.00     0.000 C 
ENDROOT
BRANCH   1   2
ATOM      2  C   UNL     1      24.662  15.526 -10.325  1.00  0.00     0.000 C 
BRANCH   2   3
ATOM      3  C   UNL     1      25.963  14.724 -10.488  1.00  0.00     0.000 C 
BRANCH   3   4
ATOM      4  C   UNL     1      27.113  15.279  -9.631  1.00  0.00     0.006 C 
BRANCH   4   5
ATOM      5  C   UNL     1      28.488  14.990 -10.250  1.00  0.00     0.053 C 
BRANCH   5   6
ATOM      6  C   UNL     1      28.757  13.519 -10.335  1.00  0.00     0.041 C 
ATOM      7  O   UNL     1      29.237  13.021 -11.387  1.00  0.00    -0.550 OA
ATOM      8  O   UNL     1      28.446  12.693  -9.262  1.00  0.00    -0.550 OA
ENDBRANCH   5   6
ENDBRANCH   4   5
ENDBRANCH   3   4
ENDBRANCH   2   3
ENDBRANCH   1   2
BRANCH   1   9
ATOM      9  C   UNL     1      24.390  17.952 -10.985  1.00  0.00     0.000 C 
BRANCH   9  10
ATOM     10  C   UNL     1      25.500  18.895 -11.468  1.00  0.00    -0.000 C 
BRANCH  10  11
ATOM     11  C   UNL     1      26.654  18.104 -12.104  1.00  0.00    -0.000 C 
BRANCH  11  12
ATOM     12  C   UNL     1      26.377  17.725 -13.567  1.00  0.00    -0.000 C 
BRANCH  12  13
ATOM     13  C   UNL     1      26.241  16.209 -13.769  1.00  0.00    -0.003 C 
ATOM     14  C   UNL     1      24.795  15.821 -14.062  1.00  0.00     0.004 C 
ENDBRANCH  12  13
ENDBRANCH  11  12
ENDBRANCH  10  11
ENDBRANCH   9  10
ENDBRANCH   1   9
TORSDOF 10
ENDMDL
MODEL 3
REMARK VINA RESULT:    -4.298      2.400      3.972
REMARK INTER + INTRA:          -7.734
REMARK INTER:                  -7.067
REMARK INTRA:                  -0.667
REMARK UNBOUND:                -0.922
REMARK SMILES CCCCCCCCCCCC(=O)[O-]
REMARK SMILES IDX 7 1 8 2 9 3 10 4 11 5 12 6 13 7 14 8 6 9 5 10 4 11 3 12 2 13
REMARK SMILES IDX 1 14
REMARK H PARENT
REMARK Flexibility Score: inf
ROOT
ATOM      1  C   UNL     1      27.843  13.878  -9.234  1.00  0.00     0.000 C 
ENDROOT
BRANCH   1   2
ATOM      2  C   UNL     1      29.017  14.055 -10.209  1.00  0.00     0.000 C 
BRANCH   2   3
ATOM      3  C   UNL     1      28.977  13.052 -11.372  1.00  0.00     0.000 C 
BRANCH   3   4
ATOM      4  C   UNL     1      27.542  12.710 -11.811  1.00  0.00     0.006 C 
BRANCH   4   5
ATOM      5  C   UNL     1      27.371  12.779 -13.334  1.00  0.00     0.053 C 
BRANCH   5   6
ATOM      6  C   UNL     1      26.183  13.606 -13.721  1.00  0.00     0.041 C 
ATOM      7  O   UNL     1      25.076  13.433 -13.148  1.00  0.00    -0.550 OA
ATOM      8  O   UNL     1      26.293  14.547 -14.737  1.00  0.00    -0.550 OA
ENDBRANCH   5   6
ENDBRANCH   4   5
ENDBRANCH   3   4
ENDBRANCH   2   3
ENDBRANCH   1   2
BRANCH   1   9
ATOM      9  C   UNL     1      27.219  15.231  -8.875  1.00  0.00     0.000 C 
BRANCH   9  10
ATOM     10  C   UNL     1      26.106  15.605  -9.862  1.00  0.00    -0.000 C 
BRANCH  10  11
ATOM     11  C   UNL     1      24.863  16.118  -9.120  1.00  0.00    -0.000 C 
BRANCH  11  12
ATOM     12  C   UNL     1      24.296  17.408  -9.735  1.00  0.00    -0.000 C 
BRANCH  12  13
ATOM     13  C   UNL     1      24.840  17.678 -11.145  1.00  0.00    -0.003 C 
ATOM     14  C   UNL     1      25.417  19.088 -11.250  1.00  0.00     0.004 C 
ENDBRANCH  12  13
ENDBRANCH  11  12
ENDBRANCH  10  11
ENDBRANCH   9  10
ENDBRANCH   1   9
TORSDOF 10
ENDMDL
MODEL 4
REMARK VINA RESULT:    -4.296      3.157      5.719
REMARK INTER + INTRA:          -7.730
REMARK INTER:                  -6.898
REMARK INTRA:                  -0.831
REMARK UNBOUND:                -0.922
REMARK SMILES CCCCCCCCCCCC(=O)[O-]
REMARK SMILES IDX 7 1 8 2 9 3 10 4 11 5 12 6 13 7 14 8 6 9 5 10 4 11 3 12 2 13
REMARK SMILES IDX 1 14
REMARK H PARENT
REMARK Flexibility Score: inf
ROOT
ATOM      1  C   UNL     1      24.794  17.908 -10.235  1.00  0.00     0.000 C 
ENDROOT
BRANCH   1   2
ATOM      2  C   UNL     1      25.270  18.806 -11.387  1.00  0.00     0.000 C 
BRANCH   2   3
ATOM      3  C   UNL     1      26.518  18.252 -12.092  1.00  0.00     0.000 C 
BRANCH   3   4
ATOM      4  C   UNL     1      26.302  18.045 -13.601  1.00  0.00     0.006 C 
BRANCH   4   5
ATOM      5  C   UNL     1      26.214  16.559 -13.975  1.00  0.00     0.053 C 
BRANCH   5   6
ATOM      6  C   UNL     1      26.165  16.364 -15.459  1.00  0.00     0.041 C 
ATOM      7  O   UNL     1      25.058  16.333 -16.058  1.00  0.00    -0.550 OA
ATOM      8  O   UNL     1      27.341  16.184 -16.176  1.00  0.00    -0.550 OA
ENDBRANCH   5   6
ENDBRANCH   4   5
ENDBRANCH   3   4
ENDBRANCH   2   3
ENDBRANCH   1   2
BRANCH   1   9
ATOM      9  C   UNL     1      25.243  16.458 -10.447  1.00  0.00     0.000 C 
BRANCH   9  10
ATOM     10  C   UNL     1      25.487  15.754  -9.106  1.00  0.00    -0.000 C 
BRANCH  10  11
ATOM     11  C   UNL     1      26.836  15.018  -9.110  1.00  0.00    -0.000 C 
BRANCH  11  12
ATOM     12  C   UNL     1      27.700  15.371 -10.331  1.00  0.00    -0.000 C 
BRANCH  12  13
ATOM     13  C   UNL     1      29.124  14.808 -10.229  1.00  0.00    -0.003 C 
ATOM     14  C   UNL     1      29.201  13.399 -10.811  1.00  0.00     0.004 C 
ENDBRANCH  12  13
ENDBRANCH  11  12
ENDBRANCH  10  11
ENDBRANCH   9  10
ENDBRANCH   1   9
TORSDOF 10
ENDMDL
MODEL 5
REMARK VINA RESULT:    -4.292      2.576      4.387
REMARK INTER + INTRA:          -7.723
REMARK INTER:                  -6.443
REMARK INTRA:                  -1.281
REMARK UNBOUND:                -0.922
REMARK SMILES CCCCCCCCCCCC(=O)[O-]
REMARK SMILES IDX 7 1 8 2 9 3 10 4 11 5 12 6 13 7 14 8 6 9 5 10 4 11 3 12 2 13
REMARK SMILES IDX 1 14
REMARK H PARENT
REMARK Flexibility Score: inf
ROOT
ATOM      1  C   UNL     1      27.739  12.388 -10.616  1.00  0.00     0.000 C 
ENDROOT
BRANCH   1   2
ATOM      2  C   UNL     1      26.637  12.673 -11.648  1.00  0.00     0.000 C 
BRANCH   2   3
ATOM      3  C   UNL     1      27.198  12.935 -13.054  1.00  0.00     0.000 C 
BRANCH   3   4
ATOM      4  C   UNL     1      26.102  13.301 -14.071  1.00  0.00     0.006 C 
BRANCH   4   5
ATOM      5  C   UNL     1      26.171  14.775 -14.490  1.00  0.00     0.053 C 
BRANCH   5   6
ATOM      6  C   UNL     1      24.893  15.496 -14.188  1.00  0.00     0.041 C 
ATOM      7  O   UNL     1      24.352  15.382 -13.057  1.00  0.00    -0.550 OA
ATOM      8  O   UNL     1      24.281  16.267 -15.169  1.00  0.00    -0.550 OA
ENDBRANCH   5   6
ENDBRANCH   4   5
ENDBRANCH   3   4
ENDBRANCH   2   3
ENDBRANCH   1   2
BRANCH   1   9
ATOM      9  C   UNL     1      28.935  13.325 -10.817  1.00  0.00     0.000 C 
BRANCH   9  10
ATOM     10  C   UNL     1      28.821  14.565  -9.920  1.00  0.00    -0.000 C 
BRANCH  10  11
ATOM     11  C   UNL     1      28.618  15.834 -10.761  1.00  0.00    -0.000 C 
BRANCH  11  12
ATOM     12  C   UNL     1      27.135  16.180 -10.964  1.00  0.00    -0.000 C 
BRANCH  12  13
ATOM     13  C   UNL     1      26.257  15.726  -9.789  1.00  0.00    -0.003 C 
ATOM     14  C   UNL     1      24.976  16.552  -9.709  1.00  0.00     0.004 C 
ENDBRANCH  12  13
ENDBRANCH  11  12
ENDBRANCH  10  11
ENDBRANCH   9  10
ENDBRANCH   1   9
TORSDOF 10
ENDMDL
MODEL 6
REMARK VINA RESULT:    -4.255      6.660      8.954
REMARK INTER + INTRA:          -7.665
REMARK INTER:                  -6.246
REMARK INTRA:                  -1.419
REMARK UNBOUND:                -0.922
REMARK SMILES CCCCCCCCCCCC(=O)[O-]
REMARK SMILES IDX 7 1 8 2 9 3 10 4 11 5 12 6 13 7 14 8 6 9 5 10 4 11 3 12 2 13
REMARK SMILES IDX 1 14
REMARK H PARENT
REMARK Flexibility Score: inf
ROOT
ATOM      1  C   UNL     1      18.440  17.367  -6.947  1.00  0.00     0.000 C 
ENDROOT
BRANCH   1   2
ATOM      2  C   UNL     1      19.293  17.035  -8.180  1.00  0.00     0.000 C 
BRANCH   2   3
ATOM      3  C   UNL     1      20.431  18.044  -8.401  1.00  0.00     0.000 C 
BRANCH   3   4
ATOM      4  C   UNL     1      21.819  17.442  -8.123  1.00  0.00     0.006 C 
BRANCH   4   5
ATOM      5  C   UNL     1      21.843  15.922  -8.333  1.00  0.00     0.053 C 
BRANCH   5   6
ATOM      6  C   UNL     1      22.301  15.562  -9.714  1.00  0.00     0.041 C 
ATOM      7  O   UNL     1      22.237  14.370 -10.113  1.00  0.00    -0.550 OA
ATOM      8  O   UNL     1      22.831  16.540 -10.547  1.00  0.00    -0.550 OA
ENDBRANCH   5   6
ENDBRANCH   4   5
ENDBRANCH   3   4
ENDBRANCH   2   3
ENDBRANCH   1   2
BRANCH   1   9
ATOM      9  C   UNL     1      19.190  17.031  -5.653  1.00  0.00     0.000 C 
BRANCH   9  10
ATOM     10  C   UNL     1      19.259  18.249  -4.723  1.00  0.00    -0.000 C 
BRANCH  10  11
ATOM     11  C   UNL     1      20.561  19.036  -4.945  1.00  0.00    -0.000 C 
BRANCH  11  12
ATOM     12  C   UNL     1      20.317  20.422  -5.562  1.00  0.00    -0.000 C 
BRANCH  12  13
ATOM     13  C   UNL     1      18.824  20.741  -5.726  1.00  0.00    -0.003 C 
ATOM     14  C   UNL     1      18.497  21.115  -7.169  1.00  0.00     0.004 C 
ENDBRANCH  12  13
ENDBRANCH  11  12
ENDBRANCH  10  11
ENDBRANCH   9  10
ENDBRANCH   1   9
TORSDOF 10
ENDMDL
MODEL 7
REMARK VINA RESULT:    -4.252      2.369      3.802
REMARK INTER + INTRA:          -7.660
REMARK INTER:                  -6.941
REMARK INTRA:                  -0.719
REMARK UNBOUND:                -0.922
REMARK SMILES CCCCCCCCCCCC(=O)[O-]
REMARK SMILES IDX 7 1 8 2 9 3 10 4 11 5 12 6 13 7 14 8 6 9 5 10 4 11 3 12 2 13
REMARK SMILES IDX 1 14
REMARK H PARENT
REMARK Flexibility Score: inf
ROOT
ATOM      1  C   UNL     1      25.057  17.251 -10.603  1.00  0.00     0.000 C 
ENDROOT
BRANCH   1   2
ATOM      2  C   UNL     1      26.024  16.058 -10.546  1.00  0.00     0.000 C 
BRANCH   2   3
ATOM      3  C   UNL     1      26.132  15.452  -9.139  1.00  0.00     0.000 C 
BRANCH   3   4
ATOM      4  C   UNL     1      27.575  15.067  -8.768  1.00  0.00     0.006 C 
BRANCH   4   5
ATOM      5  C   UNL     1      28.459  14.875 -10.008  1.00  0.00     0.053 C 
BRANCH   5   6
ATOM      6  C   UNL     1      28.783  13.430 -10.237  1.00  0.00     0.041 C 
ATOM      7  O   UNL     1      28.397  12.556  -9.418  1.00  0.00    -0.550 OA
ATOM      8  O   UNL     1      29.542  13.055 -11.339  1.00  0.00    -0.550 OA
ENDBRANCH   5   6
ENDBRANCH   4   5
ENDBRANCH   3   4
ENDBRANCH   2   3
ENDBRANCH   1   2
BRANCH   1   9
ATOM      9  C   UNL     1      25.651  18.401 -11.424  1.00  0.00     0.000 C 
BRANCH   9  10
ATOM     10  C   UNL     1      26.915  17.951 -12.168  1.00  0.00    -0.000 C 
BRANCH  10  11
ATOM     11  C   UNL     1      26.642  17.800 -13.673  1.00  0.00    -0.000 C 
BRANCH  11  12
ATOM     12  C   UNL     1      25.526  18.733 -14.168  1.00  0.00    -0.000 C 
BRANCH  12  13
ATOM     13  C   UNL     1      25.919  19.502 -15.437  1.00  0.00    -0.003 C 
ATOM     14  C   UNL     1      25.137  20.808 -15.552  1.00  0.00     0.004 C 
ENDBRANCH  12  13
ENDBRANCH  11  12
ENDBRANCH  10  11
ENDBRANCH   9  10
ENDBRANCH   1   9
TORSDOF 10
ENDMDL
MODEL 8
REMARK VINA RESULT:    -4.201      3.060      4.762
REMARK INTER + INTRA:          -7.579
REMARK INTER:                  -6.457
REMARK INTRA:                  -1.122
REMARK UNBOUND:                -0.922
REMARK SMILES CCCCCCCCCCCC(=O)[O-]
REMARK SMILES IDX 7 1 8 2 9 3 10 4 11 5 12 6 13 7 14 8 6 9 5 10 4 11 3 12 2 13
REMARK SMILES IDX 1 14
REMARK H PARENT
REMARK Flexibility Score: inf
ROOT
ATOM      1  C   UNL     1      29.015  14.320 -10.549  1.00  0.00     0.000 C 
ENDROOT
BRANCH   1   2
ATOM      2  C   UNL     1      28.396  12.926 -10.731  1.00  0.00     0.000 C 
BRANCH   2   3
ATOM      3  C   UNL     1      27.823  12.713 -12.141  1.00  0.00     0.000 C 
BRANCH   3   4
ATOM      4  C   UNL     1      26.432  13.347 -12.318  1.00  0.00     0.006 C 
BRANCH   4   5
ATOM      5  C   UNL     1      26.126  13.671 -13.786  1.00  0.00     0.053 C 
BRANCH   5   6
ATOM      6  C   UNL     1      25.162  14.810 -13.912  1.00  0.00     0.041 C 
ATOM      7  O   UNL     1      25.066  15.444 -14.995  1.00  0.00    -0.550 OA
ATOM      8  O   UNL     1      24.392  15.192 -12.821  1.00  0.00    -0.550 OA
ENDBRANCH   5   6
ENDBRANCH   4   5
ENDBRANCH   3   4
ENDBRANCH   2   3
ENDBRANCH   1   2
BRANCH   1   9
ATOM      9  C   UNL     1      28.621  14.924  -9.196  1.00  0.00     0.000 C 
BRANCH   9  10
ATOM     10  C   UNL     1      27.225  14.452  -8.769  1.00  0.00    -0.000 C 
BRANCH  10  11
ATOM     11  C   UNL     1      26.149  15.463  -9.195  1.00  0.00    -0.000 C 
BRANCH  11  12
ATOM     12  C   UNL     1      24.748  14.837  -9.279  1.00  0.00    -0.000 C 
BRANCH  12  13
ATOM     13  C   UNL     1      24.733  13.364  -8.846  1.00  0.00    -0.003 C 
ATOM     14  C   UNL     1      23.330  12.927  -8.433  1.00  0.00     0.004 C 
ENDBRANCH  12  13
ENDBRANCH  11  12
ENDBRANCH  10  11
ENDBRANCH   9  10
ENDBRANCH   1   9
TORSDOF 10
ENDMDL
MODEL 9
REMARK VINA RESULT:    -4.152      2.478      5.131
REMARK INTER + INTRA:          -7.502
REMARK INTER:                  -6.359
REMARK INTRA:                  -1.144
REMARK UNBOUND:                -0.922
REMARK SMILES CCCCCCCCCCCC(=O)[O-]
REMARK SMILES IDX 7 1 8 2 9 3 10 4 11 5 12 6 13 7 14 8 6 9 5 10 4 11 3 12 2 13
REMARK SMILES IDX 1 14
REMARK H PARENT
REMARK Flexibility Score: inf
ROOT
ATOM      1  C   UNL     1      25.367  14.182 -10.950  1.00  0.00     0.000 C 
ENDROOT
BRANCH   1   2
ATOM      2  C   UNL     1      24.579  15.228 -10.146  1.00  0.00     0.000 C 
BRANCH   2   3
ATOM      3  C   UNL     1      25.346  16.549  -9.982  1.00  0.00     0.000 C 
BRANCH   3   4
ATOM      4  C   UNL     1      24.599  17.749 -10.591  1.00  0.00     0.006 C 
BRANCH   4   5
ATOM      5  C   UNL     1      25.528  18.654 -11.410  1.00  0.00     0.053 C 
BRANCH   5   6
ATOM      6  C   UNL     1      26.382  17.862 -12.352  1.00  0.00     0.041 C 
ATOM      7  O   UNL     1      25.851  17.169 -13.259  1.00  0.00    -0.550 OA
ATOM      8  O   UNL     1      27.764  17.864 -12.206  1.00  0.00    -0.550 OA
ENDBRANCH   5   6
ENDBRANCH   4   5
ENDBRANCH   3   4
ENDBRANCH   2   3
ENDBRANCH   1   2
BRANCH   1   9
ATOM      9  C   UNL     1      25.520  12.881 -10.155  1.00  0.00     0.000 C 
BRANCH   9  10
ATOM     10  C   UNL     1      26.069  13.155  -8.749  1.00  0.00    -0.000 C 
BRANCH  10  11
ATOM     11  C   UNL     1      27.603  13.071  -8.732  1.00  0.00    -0.000 C 
BRANCH  11  12
ATOM     12  C   UNL     1      28.272  14.454  -8.776  1.00  0.00    -0.000 C 
BRANCH  12  13
ATOM     13  C   UNL     1      29.058  14.690 -10.073  1.00  0.00    -0.003 C 
ATOM     14  C   UNL     1      29.202  13.397 -10.871  1.00  0.00     0.004 C 
ENDBRANCH  12  13
ENDBRANCH  11  12
ENDBRANCH  10  11
ENDBRANCH   9  10
ENDBRANCH   1   9
TORSDOF 10
ENDMDL
