MODEL 1
REMARK VINA RESULT:    -3.535      0.000      0.000
REMARK INTER + INTRA:          -4.238
REMARK INTER:                  -4.155
REMARK INTRA:                  -0.083
REMARK UNBOUND:                -0.083
REMARK SMILES CCCCC(=O)[O-]
REMARK SMILES IDX 4 1 5 2 6 3 7 4 3 5 2 6 1 7
REMARK H PARENT
REMARK Flexibility Score: inf
ROOT
ATOM      1  C   UNL     1      14.536  44.765  -9.886  1.00  0.00     0.053 C 
ENDROOT
BRANCH   1   2
ATOM      2  C   UNL     1      14.308  45.943 -10.783  1.00  0.00     0.041 C 
ATOM      3  O   UNL     1      14.244  45.790 -12.032  1.00  0.00    -0.550 OA
ATOM      4  O   UNL     1      14.194  47.218 -10.242  1.00  0.00    -0.550 OA
ENDBRANCH   1   2
BRANCH   1   5
ATOM      5  C   UNL     1      13.488  43.657 -10.083  1.00  0.00     0.006 C 
BRANCH   5   6
ATOM      6  C   UNL     1      12.078  44.038  -9.595  1.00  0.00    -0.003 C 
ATOM      7  C   UNL     1      10.965  43.290 -10.327  1.00  0.00     0.004 C 
ENDBRANCH   5   6
ENDBRANCH   1   5
TORSDOF 3
ENDMDL
MODEL 2
REMARK VINA RESULT:    -3.275      2.563      3.698
REMARK INTER + INTRA:          -3.932
REMARK INTER:                  -3.906
REMARK INTRA:                  -0.027
REMARK UNBOUND:                -0.083
REMARK SMILES CCCCC(=O)[O-]
REMARK SMILES IDX 4 1 5 2 6 3 7 4 3 5 2 6 1 7
REMARK H PARENT
REMARK Flexibility Score: inf
ROOT
ATOM      1  C   UNL     1      12.847  44.662 -10.249  1.00  0.00     0.053 C 
ENDROOT
BRANCH   1   2
ATOM      2  C   UNL     1      11.655  43.866  -9.810  1.00  0.00     0.041 C 
ATOM      3  O   UNL     1      11.079  43.086 -10.614  1.00  0.00    -0.550 OA
ATOM      4  O   UNL     1      11.161  44.009  -8.519  1.00  0.00    -0.550 OA
ENDBRANCH   1   2
BRANCH   1   5
ATOM      5  C   UNL     1      14.103  43.794 -10.437  1.00  0.00     0.006 C 
BRANCH   5   6
ATOM      6  C   UNL     1      15.411  44.601 -10.529  1.00  0.00    -0.003 C 
ATOM      7  C   UNL     1      15.181  46.101 -10.698  1.00  0.00     0.004 C 
ENDBRANCH   5   6
ENDBRANCH   1   5
TORSDOF 3
ENDMDL
MODEL 3
REMARK VINA RESULT:    -3.270     14.965     15.798
REMARK INTER + INTRA:          -3.926
REMARK INTER:                  -3.842
REMARK INTRA:                  -0.084
REMARK UNBOUND:                -0.083
REMARK SMILES CCCCC(=O)[O-]
REMARK SMILES IDX 4 1 5 2 6 3 7 4 3 5 2 6 1 7
REMARK H PARENT
REMARK Flexibility Score: inf
ROOT
ATOM      1  C   UNL     1       1.969  51.423  -0.693  1.00  0.00     0.053 C 
ENDROOT
BRANCH   1   2
ATOM      2  C   UNL     1       2.627  51.318  -2.035  1.00  0.00     0.041 C 
ATOM      3  O   UNL     1       2.119  50.602  -2.939  1.00  0.00    -0.550 OA
ATOM      4  O   UNL     1       3.820  51.988  -2.280  1.00  0.00    -0.550 OA
ENDBRANCH   1   2
BRANCH   1   5
ATOM      5  C   UNL     1       2.260  50.210   0.207  1.00  0.00     0.006 C 
BRANCH   5   6
ATOM      6  C   UNL     1       2.950  50.570   1.536  1.00  0.00    -0.003 C 
ATOM      7  C   UNL     1       4.232  51.379   1.348  1.00  0.00     0.004 C 
ENDBRANCH   5   6
ENDBRANCH   1   5
TORSDOF 3
ENDMDL
MODEL 4
REMARK VINA RESULT:    -3.262     15.291     15.995
REMARK INTER + INTRA:          -3.917
REMARK INTER:                  -3.842
REMARK INTRA:                  -0.075
REMARK UNBOUND:                -0.083
REMARK SMILES CCCCC(=O)[O-]
REMARK SMILES IDX 4 1 5 2 6 3 7 4 3 5 2 6 1 7
REMARK H PARENT
REMARK Flexibility Score: inf
ROOT
ATOM      1  C   UNL     1       1.951  51.522  -0.409  1.00  0.00     0.053 C 
ENDROOT
BRANCH   1   2
ATOM      2  C   UNL     1       2.591  51.529  -1.764  1.00  0.00     0.041 C 
ATOM      3  O   UNL     1       3.457  52.396  -2.056  1.00  0.00    -0.550 OA
ATOM      4  O   UNL     1       2.208  50.594  -2.719  1.00  0.00    -0.550 OA
ENDBRANCH   1   2
BRANCH   1   5
ATOM      5  C   UNL     1       2.370  50.308   0.438  1.00  0.00     0.006 C 
BRANCH   5   6
ATOM      6  C   UNL     1       3.159  50.676   1.708  1.00  0.00    -0.003 C 
ATOM      7  C   UNL     1       4.462  51.417   1.413  1.00  0.00     0.004 C 
ENDBRANCH   5   6
ENDBRANCH   1   5
TORSDOF 3
ENDMDL
MODEL 5
REMARK VINA RESULT:    -3.130     15.535     16.101
REMARK INTER + INTRA:          -3.762
REMARK INTER:                  -3.682
REMARK INTRA:                  -0.080
REMARK UNBOUND:                -0.083
REMARK SMILES CCCCC(=O)[O-]
REMARK SMILES IDX 4 1 5 2 6 3 7 4 3 5 2 6 1 7
REMARK H PARENT
REMARK Flexibility Score: inf
ROOT
ATOM      1  C   UNL     1       3.843  52.125   1.333  1.00  0.00     0.053 C 
ENDROOT
BRANCH   1   2
ATOM      2  C   UNL     1       5.294  52.149   0.959  1.00  0.00     0.041 C 
ATOM      3  O   UNL     1       5.639  52.243  -0.249  1.00  0.00    -0.550 OA
ATOM      4  O   UNL     1       6.268  52.036   1.944  1.00  0.00    -0.550 OA
ENDBRANCH   1   2
BRANCH   1   5
ATOM      5  C   UNL     1       3.346  50.714   1.694  1.00  0.00     0.006 C 
BRANCH   5   6
ATOM      6  C   UNL     1       2.166  50.230   0.832  1.00  0.00    -0.003 C 
ATOM      7  C   UNL     1       2.011  51.012  -0.471  1.00  0.00     0.004 C 
ENDBRANCH   5   6
ENDBRANCH   1   5
TORSDOF 3
ENDMDL
MODEL 6
REMARK VINA RESULT:    -3.096     16.465     16.831
REMARK INTER + INTRA:          -3.722
REMARK INTER:                  -3.621
REMARK INTRA:                  -0.101
REMARK UNBOUND:                -0.083
REMARK SMILES CCCCC(=O)[O-]
REMARK SMILES IDX 4 1 5 2 6 3 7 4 3 5 2 6 1 7
REMARK H PARENT
REMARK Flexibility Score: inf
ROOT
ATOM      1  C   UNL     1       4.297  52.349   0.218  1.00  0.00     0.053 C 
ENDROOT
BRANCH   1   2
ATOM      2  C   UNL     1       3.679  53.651   0.625  1.00  0.00     0.041 C 
ATOM      3  O   UNL     1       4.223  54.365   1.510  1.00  0.00    -0.550 OA
ATOM      4  O   UNL     1       2.485  54.066   0.048  1.00  0.00    -0.550 OA
ENDBRANCH   1   2
BRANCH   1   5
ATOM      5  C   UNL     1       4.472  51.380   1.400  1.00  0.00     0.006 C 
BRANCH   5   6
ATOM      6  C   UNL     1       3.177  50.651   1.806  1.00  0.00    -0.003 C 
ATOM      7  C   UNL     1       2.312  50.252   0.613  1.00  0.00     0.004 C 
ENDBRANCH   5   6
ENDBRANCH   1   5
TORSDOF 3
ENDMDL
MODEL 7
REMARK VINA RESULT:    -3.063     16.451     16.794
REMARK INTER + INTRA:          -3.683
REMARK INTER:                  -3.602
REMARK INTRA:                  -0.081
REMARK UNBOUND:                -0.083
REMARK SMILES CCCCC(=O)[O-]
REMARK SMILES IDX 4 1 5 2 6 3 7 4 3 5 2 6 1 7
REMARK H PARENT
REMARK Flexibility Score: inf
ROOT
ATOM      1  C   UNL     1       4.256  52.083   0.687  1.00  0.00     0.053 C 
ENDROOT
BRANCH   1   2
ATOM      2  C   UNL     1       3.871  53.509   0.942  1.00  0.00     0.041 C 
ATOM      3  O   UNL     1       2.874  54.013   0.360  1.00  0.00    -0.550 OA
ATOM      4  O   UNL     1       4.633  54.293   1.800  1.00  0.00    -0.550 OA
ENDBRANCH   1   2
BRANCH   1   5
ATOM      5  C   UNL     1       3.570  51.102   1.654  1.00  0.00     0.006 C 
BRANCH   5   6
ATOM      6  C   UNL     1       2.429  50.291   1.013  1.00  0.00    -0.003 C 
ATOM      7  C   UNL     1       2.242  50.587  -0.474  1.00  0.00     0.004 C 
ENDBRANCH   5   6
ENDBRANCH   1   5
TORSDOF 3
ENDMDL
MODEL 8
REMARK VINA RESULT:    -3.023     15.944     16.635
REMARK INTER + INTRA:          -3.636
REMARK INTER:                  -3.543
REMARK INTRA:                  -0.093
REMARK UNBOUND:                -0.083
REMARK SMILES CCCCC(=O)[O-]
REMARK SMILES IDX 4 1 5 2 6 3 7 4 3 5 2 6 1 7
REMARK H PARENT
REMARK Flexibility Score: inf
ROOT
ATOM      1  C   UNL     1       1.902  52.172  -0.379  1.00  0.00     0.053 C 
ENDROOT
BRANCH   1   2
ATOM      2  C   UNL     1       2.642  53.424  -0.740  1.00  0.00     0.041 C 
ATOM      3  O   UNL     1       3.310  53.484  -1.806  1.00  0.00    -0.550 OA
ATOM      4  O   UNL     1       2.620  54.517   0.118  1.00  0.00    -0.550 OA
ENDBRANCH   1   2
BRANCH   1   5
ATOM      5  C   UNL     1       2.841  51.023   0.025  1.00  0.00     0.006 C 
BRANCH   5   6
ATOM      6  C   UNL     1       3.445  51.176   1.433  1.00  0.00    -0.003 C 
ATOM      7  C   UNL     1       4.899  51.645   1.416  1.00  0.00     0.004 C 
ENDBRANCH   5   6
ENDBRANCH   1   5
TORSDOF 3
ENDMDL
MODEL 9
REMARK VINA RESULT:    -3.010     14.868     15.637
REMARK INTER + INTRA:          -3.621
REMARK INTER:                  -3.508
REMARK INTRA:                  -0.113
REMARK UNBOUND:                -0.083
REMARK SMILES CCCCC(=O)[O-]
REMARK SMILES IDX 4 1 5 2 6 3 7 4 3 5 2 6 1 7
REMARK H PARENT
REMARK Flexibility Score: inf
ROOT
ATOM      1  C   UNL     1       5.186  52.026   0.724  1.00  0.00     0.053 C 
ENDROOT
BRANCH   1   2
ATOM      2  C   UNL     1       5.032  52.303  -0.740  1.00  0.00     0.041 C 
ATOM      3  O   UNL     1       5.991  52.102  -1.531  1.00  0.00    -0.550 OA
ATOM      4  O   UNL     1       3.835  52.814  -1.229  1.00  0.00    -0.550 OA
ENDBRANCH   1   2
BRANCH   1   5
ATOM      5  C   UNL     1       3.843  52.032   1.474  1.00  0.00     0.006 C 
BRANCH   5   6
ATOM      6  C   UNL     1       3.249  50.630   1.701  1.00  0.00    -0.003 C 
ATOM      7  C   UNL     1       2.156  50.271   0.696  1.00  0.00     0.004 C 
ENDBRANCH   5   6
ENDBRANCH   1   5
TORSDOF 3
ENDMDL
