MODEL 1
REMARK VINA RESULT:    -3.803      0.000      0.000
REMARK INTER + INTRA:          -5.074
REMARK INTER:                  -5.359
REMARK INTRA:                   0.285
REMARK UNBOUND:                 0.285
REMARK SMILES CC1=CCC(=C(C)C)C(=O)CC(C)=CCC1
REMARK SMILES IDX 12 1 14 2 13 3 15 4 16 5 2 6 1 7 3 8 11 10 9 11 10 12 5 13
REMARK SMILES IDX 6 14 7 15 8 16 4 17
REMARK H PARENT
REMARK Flexibility Score: 60.00
ROOT
ATOM      1  C   UNL     1       0.423 -25.084  14.309  1.00  0.00    -0.070 C 
ATOM      2  C   UNL     1       0.907 -25.428  15.523  1.00  0.00    -0.027 C 
ATOM      3  C   UNL     1       1.260 -24.173  13.446  1.00  0.00     0.039 C 
ENDROOT
BRANCH   2   4
ATOM      4  C   UNL     1       0.178 -26.248  16.565  1.00  0.00     0.032 C 
BRANCH   4   5
ATOM      5  C   UNL     1       0.286 -27.775  16.380  1.00  0.00     0.034 C 
BRANCH   5   6
ATOM      6  C   UNL     1      -1.043 -28.492  16.542  1.00  0.00    -0.077 C 
ATOM      7  C   UNL     1      -1.617 -28.599  17.933  1.00  0.00     0.039 C 
ATOM      8  C   UNL     1      -1.712 -29.101  15.533  1.00  0.00    -0.023 CG0
ATOM      9  G   UNL     1      -1.338 -29.108  14.063  1.00  0.00     0.000 G0
ENDBRANCH   5   6
ENDBRANCH   4   5
ENDBRANCH   2   4
BRANCH   1  10
ATOM     10  C   UNL     1      -0.951 -25.492  13.816  1.00  0.00     0.111 C 
BRANCH  10  11
ATOM     11  C   UNL     1      -0.906 -26.794  13.060  1.00  0.00     0.163 C 
ATOM     12  O   UNL     1      -0.047 -26.919  12.145  1.00  0.00    -0.294 OA
BRANCH  11  13
ATOM     13  C   UNL     1      -1.873 -27.902  13.314  1.00  0.00    -0.002 C 
ATOM     14  C   UNL     1      -3.189 -27.775  12.967  1.00  0.00    -0.069 C 
ATOM     15  C   UNL     1      -4.222 -28.812  13.353  1.00  0.00     0.039 C 
ATOM     16  C   UNL     1      -3.680 -26.585  12.173  1.00  0.00     0.039 C 
BRANCH  13  17
ATOM     17  C   UNL     1      -1.352 -29.122  14.058  1.00  0.00     0.066 CG0
ATOM     18  G   UNL     1      -1.703 -29.090  15.533  1.00  0.00     0.000 G0
ENDBRANCH  13  17
ENDBRANCH  11  13
ENDBRANCH  10  11
ENDBRANCH   1  10
TORSDOF 0
ENDMDL
MODEL 2
REMARK VINA RESULT:    -3.521      2.034      3.222
REMARK INTER + INTRA:          -4.677
REMARK INTER:                  -5.200
REMARK INTRA:                   0.522
REMARK UNBOUND:                 0.285
REMARK SMILES CC1=CCC(=C(C)C)C(=O)CC(C)=CCC1
REMARK SMILES IDX 12 1 14 2 13 3 15 4 16 5 2 6 1 7 3 8 11 10 9 11 10 12 5 13
REMARK SMILES IDX 6 14 7 15 8 16 4 17
REMARK H PARENT
REMARK Flexibility Score: 60.00
ROOT
ATOM      1  C   UNL     1      -1.670 -25.568  14.579  1.00  0.00    -0.070 C 
ATOM      2  C   UNL     1      -2.403 -26.538  15.169  1.00  0.00    -0.027 C 
ATOM      3  C   UNL     1      -1.397 -24.311  15.366  1.00  0.00     0.039 C 
ENDROOT
BRANCH   2   4
ATOM      4  C   UNL     1      -2.861 -27.822  14.514  1.00  0.00     0.032 C 
BRANCH   4   5
ATOM      5  C   UNL     1      -2.250 -29.107  15.109  1.00  0.00     0.034 C 
BRANCH   5   6
ATOM      6  C   UNL     1      -0.765 -28.983  15.402  1.00  0.00    -0.077 C 
ATOM      7  C   UNL     1      -0.331 -29.012  16.846  1.00  0.00     0.039 C 
ATOM      8  C   UNL     1       0.186 -28.778  14.459  1.00  0.00    -0.023 CG0
ATOM      9  G   UNL     1      -0.012 -28.732  12.956  1.00  0.00     0.000 G0
ENDBRANCH   5   6
ENDBRANCH   4   5
ENDBRANCH   2   4
BRANCH   1  10
ATOM     10  C   UNL     1      -1.192 -25.646  13.143  1.00  0.00     0.111 C 
BRANCH  10  11
ATOM     11  C   UNL     1       0.219 -26.165  13.054  1.00  0.00     0.163 C 
ATOM     12  O   UNL     1       1.142 -25.462  13.549  1.00  0.00    -0.294 OA
BRANCH  11  13
ATOM     13  C   UNL     1       0.561 -27.438  12.355  1.00  0.00    -0.002 C 
ATOM     14  C   UNL     1       1.267 -27.425  11.184  1.00  0.00    -0.069 C 
ATOM     15  C   UNL     1       1.492 -28.681  10.371  1.00  0.00     0.039 C 
ATOM     16  C   UNL     1       1.860 -26.144  10.640  1.00  0.00     0.039 C 
BRANCH  13  17
ATOM     17  C   UNL     1       0.011 -28.727  12.947  1.00  0.00     0.066 CG0
ATOM     18  G   UNL     1       0.179 -28.785  14.453  1.00  0.00     0.000 G0
ENDBRANCH  13  17
ENDBRANCH  11  13
ENDBRANCH  10  11
ENDBRANCH   1  10
TORSDOF 0
ENDMDL
MODEL 3
REMARK VINA RESULT:    -3.507     18.773     20.916
REMARK INTER + INTRA:          -4.657
REMARK INTER:                  -5.073
REMARK INTRA:                   0.416
REMARK UNBOUND:                 0.285
REMARK SMILES CC1=CCC(=C(C)C)C(=O)CC(C)=CCC1
REMARK SMILES IDX 12 1 14 2 13 3 15 4 16 5 2 6 1 7 3 8 11 10 9 11 10 12 5 13
REMARK SMILES IDX 6 14 7 15 8 16 4 17
REMARK H PARENT
REMARK Flexibility Score: 60.00
ROOT
ATOM      1  C   UNL     1      10.218 -13.014  17.222  1.00  0.00    -0.070 C 
ATOM      2  C   UNL     1       9.902 -12.120  18.184  1.00  0.00    -0.027 C 
ATOM      3  C   UNL     1      10.808 -14.334  17.650  1.00  0.00     0.039 C 
ENDROOT
BRANCH   2   4
ATOM      4  C   UNL     1       9.393 -10.714  17.951  1.00  0.00     0.032 C 
BRANCH   4   5
ATOM      5  C   UNL     1      10.321  -9.595  18.467  1.00  0.00     0.034 C 
BRANCH   5   6
ATOM      6  C   UNL     1      11.754  -9.738  17.984  1.00  0.00    -0.077 C 
ATOM      7  C   UNL     1      12.828  -9.934  19.024  1.00  0.00     0.039 C 
ATOM      8  C   UNL     1      12.139  -9.630  16.688  1.00  0.00    -0.023 CG0
ATOM      9  G   UNL     1      11.239  -9.452  15.481  1.00  0.00     0.000 G0
ENDBRANCH   5   6
ENDBRANCH   4   5
ENDBRANCH   2   4
BRANCH   1  10
ATOM     10  C   UNL     1      10.096 -12.719  15.740  1.00  0.00     0.111 C 
BRANCH  10  11
ATOM     11  C   UNL     1      11.318 -12.014  15.212  1.00  0.00     0.163 C 
ATOM     12  O   UNL     1      12.440 -12.562  15.384  1.00  0.00    -0.294 OA
BRANCH  11  13
ATOM     13  C   UNL     1      11.249 -10.676  14.553  1.00  0.00    -0.002 C 
ATOM     14  C   UNL     1      11.269 -10.566  13.190  1.00  0.00    -0.069 C 
ATOM     15  C   UNL     1      11.359  -9.224  12.497  1.00  0.00     0.039 C 
ATOM     16  C   UNL     1      11.201 -11.790  12.303  1.00  0.00     0.039 C 
BRANCH  13  17
ATOM     17  C   UNL     1      11.254  -9.454  15.458  1.00  0.00     0.066 CG0
ATOM     18  G   UNL     1      12.125  -9.650  16.684  1.00  0.00     0.000 G0
ENDBRANCH  13  17
ENDBRANCH  11  13
ENDBRANCH  10  11
ENDBRANCH   1  10
TORSDOF 0
ENDMDL
MODEL 4
REMARK VINA RESULT:    -3.355      2.265      4.218
REMARK INTER + INTRA:          -4.443
REMARK INTER:                  -4.819
REMARK INTRA:                   0.376
REMARK UNBOUND:                 0.285
REMARK SMILES CC1=CCC(=C(C)C)C(=O)CC(C)=CCC1
REMARK SMILES IDX 12 1 14 2 13 3 15 4 16 5 2 6 1 7 3 8 11 10 9 11 10 12 5 13
REMARK SMILES IDX 6 14 7 15 8 16 4 17
REMARK H PARENT
REMARK Flexibility Score: 60.00
ROOT
ATOM      1  C   UNL     1      -2.434 -27.997  13.595  1.00  0.00    -0.070 C 
ATOM      2  C   UNL     1      -2.718 -27.039  14.505  1.00  0.00    -0.027 C 
ATOM      3  C   UNL     1      -3.215 -28.000  12.305  1.00  0.00     0.039 C 
ENDROOT
BRANCH   2   4
ATOM      4  C   UNL     1      -2.116 -26.927  15.888  1.00  0.00     0.032 C 
BRANCH   4   5
ATOM      5  C   UNL     1      -1.083 -25.795  16.056  1.00  0.00     0.034 C 
BRANCH   5   6
ATOM      6  C   UNL     1      -0.927 -24.939  14.811  1.00  0.00    -0.077 C 
ATOM      7  C   UNL     1      -1.882 -23.785  14.631  1.00  0.00     0.039 C 
ATOM      8  C   UNL     1      -0.035 -25.184  13.821  1.00  0.00    -0.023 CG0
ATOM      9  G   UNL     1       1.026 -26.266  13.795  1.00  0.00     0.000 G0
ENDBRANCH   5   6
ENDBRANCH   4   5
ENDBRANCH   2   4
BRANCH   1  10
ATOM     10  C   UNL     1      -1.442 -29.114  13.847  1.00  0.00     0.111 C 
BRANCH  10  11
ATOM     11  C   UNL     1      -0.046 -28.583  14.045  1.00  0.00     0.163 C 
ATOM     12  O   UNL     1       0.610 -28.995  15.040  1.00  0.00    -0.294 OA
BRANCH  11  13
ATOM     13  C   UNL     1       0.554 -27.553  13.147  1.00  0.00    -0.002 C 
ATOM     14  C   UNL     1       0.740 -27.808  11.816  1.00  0.00    -0.069 C 
ATOM     15  C   UNL     1       1.488 -26.850  10.915  1.00  0.00     0.039 C 
ATOM     16  C   UNL     1       0.205 -29.070  11.178  1.00  0.00     0.039 C 
BRANCH  13  17
ATOM     17  C   UNL     1       1.032 -26.261  13.792  1.00  0.00     0.066 CG0
ATOM     18  G   UNL     1      -0.045 -25.194  13.809  1.00  0.00     0.000 G0
ENDBRANCH  13  17
ENDBRANCH  11  13
ENDBRANCH  10  11
ENDBRANCH   1  10
TORSDOF 0
ENDMDL
MODEL 5
REMARK VINA RESULT:    -3.273      2.214      3.636
REMARK INTER + INTRA:          -4.327
REMARK INTER:                  -4.555
REMARK INTRA:                   0.228
REMARK UNBOUND:                 0.285
REMARK SMILES CC1=CCC(=C(C)C)C(=O)CC(C)=CCC1
REMARK SMILES IDX 12 1 14 2 13 3 15 4 16 5 2 6 1 7 3 8 11 10 9 11 10 12 5 13
REMARK SMILES IDX 6 14 7 15 8 16 4 17
REMARK H PARENT
REMARK Flexibility Score: 60.00
ROOT
ATOM      1  C   UNL     1       0.351 -27.621  12.333  1.00  0.00    -0.070 C 
ATOM      2  C   UNL     1       0.668 -28.754  12.998  1.00  0.00    -0.027 C 
ATOM      3  C   UNL     1       1.002 -27.381  10.994  1.00  0.00     0.039 C 
ENDROOT
BRANCH   2   4
ATOM      4  C   UNL     1       0.197 -29.125  14.387  1.00  0.00     0.032 C 
BRANCH   4   5
ATOM      5  C   UNL     1       0.920 -28.389  15.534  1.00  0.00     0.034 C 
BRANCH   5   6
ATOM      6  C   UNL     1      -0.029 -27.853  16.592  1.00  0.00    -0.077 C 
ATOM      7  C   UNL     1      -0.852 -28.852  17.365  1.00  0.00     0.039 C 
ATOM      8  C   UNL     1      -0.236 -26.536  16.837  1.00  0.00    -0.023 CG0
ATOM      9  G   UNL     1       0.486 -25.365  16.201  1.00  0.00     0.000 G0
ENDBRANCH   5   6
ENDBRANCH   4   5
ENDBRANCH   2   4
BRANCH   1  10
ATOM     10  C   UNL     1      -0.549 -26.545  12.907  1.00  0.00     0.111 C 
BRANCH  10  11
ATOM     11  C   UNL     1       0.241 -25.483  13.625  1.00  0.00     0.163 C 
ATOM     12  O   UNL     1       1.346 -25.130  13.129  1.00  0.00    -0.294 OA
BRANCH  11  13
ATOM     13  C   UNL     1      -0.206 -24.888  14.918  1.00  0.00    -0.002 C 
ATOM     14  C   UNL     1      -1.140 -23.889  14.942  1.00  0.00    -0.069 C 
ATOM     15  C   UNL     1      -1.497 -23.159  16.218  1.00  0.00     0.039 C 
ATOM     16  C   UNL     1      -1.867 -23.465  13.686  1.00  0.00     0.039 C 
BRANCH  13  17
ATOM     17  C   UNL     1       0.489 -25.369  16.182  1.00  0.00     0.066 CG0
ATOM     18  G   UNL     1      -0.246 -26.521  16.840  1.00  0.00     0.000 G0
ENDBRANCH  13  17
ENDBRANCH  11  13
ENDBRANCH  10  11
ENDBRANCH   1  10
TORSDOF 0
ENDMDL
MODEL 6
REMARK VINA RESULT:    -3.270      1.510      3.456
REMARK INTER + INTRA:          -4.323
REMARK INTER:                  -4.842
REMARK INTRA:                   0.519
REMARK UNBOUND:                 0.285
REMARK SMILES CC1=CCC(=C(C)C)C(=O)CC(C)=CCC1
REMARK SMILES IDX 12 1 14 2 13 3 15 4 16 5 2 6 1 7 3 8 11 10 9 11 10 12 5 13
REMARK SMILES IDX 6 14 7 15 8 16 4 17
REMARK H PARENT
REMARK Flexibility Score: 60.00
ROOT
ATOM      1  C   UNL     1       0.222 -26.543  16.048  1.00  0.00    -0.070 C 
ATOM      2  C   UNL     1      -0.344 -27.721  16.393  1.00  0.00    -0.027 C 
ATOM      3  C   UNL     1       1.707 -26.385  16.257  1.00  0.00     0.039 C 
ENDROOT
BRANCH   2   4
ATOM      4  C   UNL     1      -1.823 -28.037  16.351  1.00  0.00     0.032 C 
BRANCH   4   5
ATOM      5  C   UNL     1      -2.235 -29.064  15.277  1.00  0.00     0.034 C 
BRANCH   5   6
ATOM      6  C   UNL     1      -2.853 -28.425  14.045  1.00  0.00    -0.077 C 
ATOM      7  C   UNL     1      -4.357 -28.437  13.930  1.00  0.00     0.039 C 
ATOM      8  C   UNL     1      -2.143 -27.909  13.013  1.00  0.00    -0.023 CG0
ATOM      9  G   UNL     1      -0.636 -27.774  12.918  1.00  0.00     0.000 G0
ENDBRANCH   5   6
ENDBRANCH   4   5
ENDBRANCH   2   4
BRANCH   1  10
ATOM     10  C   UNL     1      -0.574 -25.353  15.553  1.00  0.00     0.111 C 
BRANCH  10  11
ATOM     11  C   UNL     1      -0.946 -25.498  14.101  1.00  0.00     0.163 C 
ATOM     12  O   UNL     1      -1.999 -24.931  13.698  1.00  0.00    -0.294 OA
BRANCH  11  13
ATOM     13  C   UNL     1      -0.153 -26.332  13.150  1.00  0.00    -0.002 C 
ATOM     14  C   UNL     1       0.899 -25.796  12.461  1.00  0.00    -0.069 C 
ATOM     15  C   UNL     1       1.621 -26.567  11.377  1.00  0.00     0.039 C 
ATOM     16  C   UNL     1       1.396 -24.398  12.751  1.00  0.00     0.039 C 
BRANCH  13  17
ATOM     17  C   UNL     1      -0.626 -27.758  12.914  1.00  0.00     0.066 CG0
ATOM     18  G   UNL     1      -2.133 -27.889  13.018  1.00  0.00     0.000 G0
ENDBRANCH  13  17
ENDBRANCH  11  13
ENDBRANCH  10  11
ENDBRANCH   1  10
TORSDOF 0
ENDMDL
MODEL 7
REMARK VINA RESULT:    -3.266     17.194     18.705
REMARK INTER + INTRA:          -4.317
REMARK INTER:                  -5.810
REMARK INTRA:                   1.492
REMARK UNBOUND:                 0.285
REMARK SMILES CC1=CCC(=C(C)C)C(=O)CC(C)=CCC1
REMARK SMILES IDX 12 1 14 2 13 3 15 4 16 5 2 6 1 7 3 8 11 10 9 11 10 12 5 13
REMARK SMILES IDX 6 14 7 15 8 16 4 17
REMARK H PARENT
REMARK Flexibility Score: 60.00
ROOT
ATOM      1  C   UNL     1      11.482 -16.071  16.421  1.00  0.00    -0.070 C 
ATOM      2  C   UNL     1      10.497 -15.660  17.250  1.00  0.00    -0.027 C 
ATOM      3  C   UNL     1      11.977 -17.489  16.560  1.00  0.00     0.039 C 
ENDROOT
BRANCH   2   4
ATOM      4  C   UNL     1       9.937 -14.257  17.330  1.00  0.00     0.032 C 
BRANCH   4   5
ATOM      5  C   UNL     1      10.996 -13.136  17.336  1.00  0.00     0.034 C 
BRANCH   5   6
ATOM      6  C   UNL     1      10.547 -11.886  16.599  1.00  0.00    -0.077 C 
ATOM      7  C   UNL     1       9.567 -10.976  17.295  1.00  0.00     0.039 C 
ATOM      8  C   UNL     1      10.914 -11.571  15.332  1.00  0.00    -0.023 CG0
ATOM      9  G   UNL     1      11.894 -12.321  14.453  1.00  0.00     0.000 G0
ENDBRANCH   5   6
ENDBRANCH   4   5
ENDBRANCH   2   4
BRANCH   1  10
ATOM     10  C   UNL     1      12.169 -15.155  15.429  1.00  0.00     0.111 C 
BRANCH  10  11
ATOM     11  C   UNL     1      11.253 -14.778  14.293  1.00  0.00     0.163 C 
ATOM     12  O   UNL     1      10.476 -15.663  13.840  1.00  0.00    -0.294 OA
BRANCH  11  13
ATOM     13  C   UNL     1      11.281 -13.429  13.655  1.00  0.00    -0.002 C 
ATOM     14  C   UNL     1      10.830 -13.251  12.377  1.00  0.00    -0.069 C 
ATOM     15  C   UNL     1      10.990 -11.934  11.648  1.00  0.00     0.039 C 
ATOM     16  C   UNL     1      10.146 -14.370  11.623  1.00  0.00     0.039 C 
BRANCH  13  17
ATOM     17  C   UNL     1      11.915 -12.298  14.449  1.00  0.00     0.066 CG0
ATOM     18  G   UNL     1      10.913 -11.586  15.337  1.00  0.00     0.000 G0
ENDBRANCH  13  17
ENDBRANCH  11  13
ENDBRANCH  10  11
ENDBRANCH   1  10
TORSDOF 0
ENDMDL
MODEL 8
REMARK VINA RESULT:    -3.109      1.774      3.528
REMARK INTER + INTRA:          -4.096
REMARK INTER:                  -5.377
REMARK INTRA:                   1.281
REMARK UNBOUND:                 0.285
REMARK SMILES CC1=CCC(=C(C)C)C(=O)CC(C)=CCC1
REMARK SMILES IDX 12 1 14 2 13 3 15 4 16 5 2 6 1 7 3 8 11 10 9 11 10 12 5 13
REMARK SMILES IDX 6 14 7 15 8 16 4 17
REMARK H PARENT
REMARK Flexibility Score: 60.00
ROOT
ATOM      1  C   UNL     1      -1.891 -24.784  14.660  1.00  0.00    -0.070 C 
ATOM      2  C   UNL     1      -2.631 -24.887  13.535  1.00  0.00    -0.027 C 
ATOM      3  C   UNL     1      -1.138 -23.499  14.896  1.00  0.00     0.039 C 
ENDROOT
BRANCH   2   4
ATOM      4  C   UNL     1      -3.375 -26.122  13.075  1.00  0.00     0.032 C 
BRANCH   4   5
ATOM      5  C   UNL     1      -2.479 -27.332  12.744  1.00  0.00     0.034 C 
BRANCH   5   6
ATOM      6  C   UNL     1      -2.676 -28.500  13.695  1.00  0.00    -0.077 C 
ATOM      7  C   UNL     1      -4.085 -28.983  13.929  1.00  0.00     0.039 C 
ATOM      8  C   UNL     1      -1.679 -29.090  14.398  1.00  0.00    -0.023 CG0
ATOM      9  G   UNL     1      -0.196 -28.786  14.312  1.00  0.00     0.000 G0
ENDBRANCH   5   6
ENDBRANCH   4   5
ENDBRANCH   2   4
BRANCH   1  10
ATOM     10  C   UNL     1      -1.708 -25.924  15.641  1.00  0.00     0.111 C 
BRANCH  10  11
ATOM     11  C   UNL     1      -0.334 -26.533  15.537  1.00  0.00     0.163 C 
ATOM     12  O   UNL     1       0.474 -26.338  16.486  1.00  0.00    -0.294 OA
BRANCH  11  13
ATOM     13  C   UNL     1       0.115 -27.296  14.336  1.00  0.00    -0.002 C 
ATOM     14  C   UNL     1       0.695 -26.655  13.277  1.00  0.00    -0.069 C 
ATOM     15  C   UNL     1       1.016 -27.375  11.984  1.00  0.00     0.039 C 
ATOM     16  C   UNL     1       1.046 -25.186  13.346  1.00  0.00     0.039 C 
BRANCH  13  17
ATOM     17  C   UNL     1      -0.188 -28.786  14.306  1.00  0.00     0.066 CG0
ATOM     18  G   UNL     1      -1.673 -29.073  14.409  1.00  0.00     0.000 G0
ENDBRANCH  13  17
ENDBRANCH  11  13
ENDBRANCH  10  11
ENDBRANCH   1  10
TORSDOF 0
ENDMDL
MODEL 9
REMARK VINA RESULT:    -3.094     17.363     19.055
REMARK INTER + INTRA:          -4.075
REMARK INTER:                  -4.589
REMARK INTRA:                   0.514
REMARK UNBOUND:                 0.285
REMARK SMILES CC1=CCC(=C(C)C)C(=O)CC(C)=CCC1
REMARK SMILES IDX 12 1 14 2 13 3 15 4 16 5 2 6 1 7 3 8 11 10 9 11 10 12 5 13
REMARK SMILES IDX 6 14 7 15 8 16 4 17
REMARK H PARENT
REMARK Flexibility Score: 60.00
ROOT
ATOM      1  C   UNL     1      11.120 -16.028  13.601  1.00  0.00    -0.070 C 
ATOM      2  C   UNL     1      10.780 -15.659  12.347  1.00  0.00    -0.027 C 
ATOM      3  C   UNL     1      12.044 -17.209  13.764  1.00  0.00     0.039 C 
ENDROOT
BRANCH   2   4
ATOM      4  C   UNL     1       9.796 -14.569  11.982  1.00  0.00     0.032 C 
BRANCH   4   5
ATOM      5  C   UNL     1      10.425 -13.319  11.332  1.00  0.00     0.034 C 
BRANCH   5   6
ATOM      6  C   UNL     1      11.780 -12.960  11.916  1.00  0.00    -0.077 C 
ATOM      7  C   UNL     1      13.004 -13.289  11.098  1.00  0.00     0.039 C 
ATOM      8  C   UNL     1      11.966 -12.429  13.149  1.00  0.00    -0.023 CG0
ATOM      9  G   UNL     1      10.892 -12.003  14.131  1.00  0.00     0.000 G0
ENDBRANCH   5   6
ENDBRANCH   4   5
ENDBRANCH   2   4
BRANCH   1  10
ATOM     10  C   UNL     1      10.548 -15.375  14.843  1.00  0.00     0.111 C 
BRANCH  10  11
ATOM     11  C   UNL     1      11.400 -14.225  15.309  1.00  0.00     0.163 C 
ATOM     12  O   UNL     1      12.581 -14.472  15.677  1.00  0.00    -0.294 OA
BRANCH  11  13
ATOM     13  C   UNL     1      10.879 -12.829  15.407  1.00  0.00    -0.002 C 
ATOM     14  C   UNL     1      10.343 -12.363  16.575  1.00  0.00    -0.069 C 
ATOM     15  C   UNL     1       9.666 -11.013  16.662  1.00  0.00     0.039 C 
ATOM     16  C   UNL     1      10.403 -13.181  17.846  1.00  0.00     0.039 C 
BRANCH  13  17
ATOM     17  C   UNL     1      10.883 -11.995  14.135  1.00  0.00     0.066 CG0
ATOM     18  G   UNL     1      11.967 -12.428  13.167  1.00  0.00     0.000 G0
ENDBRANCH  13  17
ENDBRANCH  11  13
ENDBRANCH  10  11
ENDBRANCH   1  10
TORSDOF 0
ENDMDL
