MODEL 1
REMARK VINA RESULT:    -3.886      0.000      0.000
REMARK INTER + INTRA:          -5.847
REMARK INTER:                  -5.476
REMARK INTRA:                  -0.371
REMARK UNBOUND:                -0.371
REMARK SMILES C=CCCCCCCC(=O)[O-]
REMARK SMILES IDX 6 1 7 2 8 3 9 4 10 5 11 6 5 7 4 8 3 9 2 10 1 11
REMARK H PARENT
REMARK Flexibility Score: inf
ROOT
ATOM      1  C   UNL     1      38.719  -6.583  -6.290  1.00  0.00     0.000 C 
ENDROOT
BRANCH   1   2
ATOM      2  C   UNL     1      37.224  -6.469  -6.643  1.00  0.00     0.006 C 
BRANCH   2   3
ATOM      3  C   UNL     1      36.860  -5.232  -7.479  1.00  0.00     0.053 C 
BRANCH   3   4
ATOM      4  C   UNL     1      35.431  -5.258  -7.929  1.00  0.00     0.041 C 
ATOM      5  O   UNL     1      34.927  -6.323  -8.374  1.00  0.00    -0.550 OA
ATOM      6  O   UNL     1      34.667  -4.099  -7.890  1.00  0.00    -0.550 OA
ENDBRANCH   3   4
ENDBRANCH   2   3
ENDBRANCH   1   2
BRANCH   1   7
ATOM      7  C   UNL     1      39.588  -5.568  -7.053  1.00  0.00     0.000 C 
BRANCH   7   8
ATOM      8  C   UNL     1      40.705  -4.975  -6.178  1.00  0.00     0.004 C 
BRANCH   8   9
ATOM      9  C   UNL     1      40.879  -5.727  -4.849  1.00  0.00     0.027 C 
BRANCH   9  10
ATOM     10  C   UNL     1      41.379  -4.807  -3.769  1.00  0.00    -0.035 C 
ATOM     11  C   UNL     1      41.451  -3.484  -3.948  1.00  0.00     0.004 C 
ENDBRANCH   9  10
ENDBRANCH   8   9
ENDBRANCH   7   8
ENDBRANCH   1   7
TORSDOF 7
ENDMDL
MODEL 2
REMARK VINA RESULT:    -3.749     17.572     19.493
REMARK INTER + INTRA:          -5.654
REMARK INTER:                  -5.356
REMARK INTRA:                  -0.298
REMARK UNBOUND:                -0.371
REMARK SMILES C=CCCCCCCC(=O)[O-]
REMARK SMILES IDX 6 1 7 2 8 3 9 4 10 5 11 6 5 7 4 8 3 9 2 10 1 11
REMARK H PARENT
REMARK Flexibility Score: inf
ROOT
ATOM      1  C   UNL     1      36.107   5.588   9.385  1.00  0.00     0.000 C 
ENDROOT
BRANCH   1   2
ATOM      2  C   UNL     1      35.609   4.184   9.779  1.00  0.00     0.006 C 
BRANCH   2   3
ATOM      3  C   UNL     1      36.675   3.081   9.680  1.00  0.00     0.053 C 
BRANCH   3   4
ATOM      4  C   UNL     1      36.416   2.150   8.536  1.00  0.00     0.041 C 
ATOM      5  O   UNL     1      37.230   2.079   7.579  1.00  0.00    -0.550 OA
ATOM      6  O   UNL     1      35.257   1.384   8.510  1.00  0.00    -0.550 OA
ENDBRANCH   3   4
ENDBRANCH   2   3
ENDBRANCH   1   2
BRANCH   1   7
ATOM      7  C   UNL     1      35.037   6.675   9.583  1.00  0.00     0.000 C 
BRANCH   7   8
ATOM      8  C   UNL     1      33.615   6.093   9.659  1.00  0.00     0.004 C 
BRANCH   8   9
ATOM      9  C   UNL     1      32.535   7.119   9.284  1.00  0.00     0.027 C 
BRANCH   9  10
ATOM     10  C   UNL     1      31.179   6.473   9.202  1.00  0.00    -0.035 C 
ATOM     11  C   UNL     1      30.979   5.206   9.579  1.00  0.00     0.004 C 
ENDBRANCH   9  10
ENDBRANCH   8   9
ENDBRANCH   7   8
ENDBRANCH   1   7
TORSDOF 7
ENDMDL
MODEL 3
REMARK VINA RESULT:    -3.745      1.933      3.176
REMARK INTER + INTRA:          -5.648
REMARK INTER:                  -5.363
REMARK INTRA:                  -0.285
REMARK UNBOUND:                -0.371
REMARK SMILES C=CCCCCCCC(=O)[O-]
REMARK SMILES IDX 6 1 7 2 8 3 9 4 10 5 11 6 5 7 4 8 3 9 2 10 1 11
REMARK H PARENT
REMARK Flexibility Score: inf
ROOT
ATOM      1  C   UNL     1      36.898  -4.824  -8.088  1.00  0.00     0.000 C 
ENDROOT
BRANCH   1   2
ATOM      2  C   UNL     1      35.527  -4.142  -8.258  1.00  0.00     0.006 C 
BRANCH   2   3
ATOM      3  C   UNL     1      35.531  -2.933  -9.208  1.00  0.00     0.053 C 
BRANCH   3   4
ATOM      4  C   UNL     1      34.173  -2.317  -9.340  1.00  0.00     0.041 C 
ATOM      5  O   UNL     1      33.141  -3.002  -9.109  1.00  0.00    -0.550 OA
ATOM      6  O   UNL     1      34.043  -0.996  -9.749  1.00  0.00    -0.550 OA
ENDBRANCH   3   4
ENDBRANCH   2   3
ENDBRANCH   1   2
BRANCH   1   7
ATOM      7  C   UNL     1      36.857  -6.002  -7.101  1.00  0.00     0.000 C 
BRANCH   7   8
ATOM      8  C   UNL     1      38.262  -6.464  -6.678  1.00  0.00     0.004 C 
BRANCH   8   9
ATOM      9  C   UNL     1      39.380  -5.651  -7.348  1.00  0.00     0.027 C 
BRANCH   9  10
ATOM     10  C   UNL     1      40.359  -5.135  -6.330  1.00  0.00    -0.035 C 
ATOM     11  C   UNL     1      40.625  -5.807  -5.205  1.00  0.00     0.004 C 
ENDBRANCH   9  10
ENDBRANCH   8   9
ENDBRANCH   7   8
ENDBRANCH   1   7
TORSDOF 7
ENDMDL
MODEL 4
REMARK VINA RESULT:    -3.708     20.725     21.443
REMARK INTER + INTRA:          -5.596
REMARK INTER:                  -5.326
REMARK INTRA:                  -0.270
REMARK UNBOUND:                -0.371
REMARK SMILES C=CCCCCCCC(=O)[O-]
REMARK SMILES IDX 6 1 7 2 8 3 9 4 10 5 11 6 5 7 4 8 3 9 2 10 1 11
REMARK H PARENT
REMARK Flexibility Score: inf
ROOT
ATOM      1  C   UNL     1      24.969   0.653  10.069  1.00  0.00     0.000 C 
ENDROOT
BRANCH   1   2
ATOM      2  C   UNL     1      24.891  -0.854   9.760  1.00  0.00     0.006 C 
BRANCH   2   3
ATOM      3  C   UNL     1      26.248  -1.576   9.770  1.00  0.00     0.053 C 
BRANCH   3   4
ATOM      4  C   UNL     1      26.298  -2.692   8.772  1.00  0.00     0.041 C 
ATOM      5  O   UNL     1      25.735  -3.791   9.021  1.00  0.00    -0.550 OA
ATOM      6  O   UNL     1      26.994  -2.532   7.581  1.00  0.00    -0.550 OA
ENDBRANCH   3   4
ENDBRANCH   2   3
ENDBRANCH   1   2
BRANCH   1   7
ATOM      7  C   UNL     1      23.822   1.451   9.428  1.00  0.00     0.000 C 
BRANCH   7   8
ATOM      8  C   UNL     1      24.246   2.875   9.029  1.00  0.00     0.004 C 
BRANCH   8   9
ATOM      9  C   UNL     1      25.690   3.201   9.442  1.00  0.00     0.027 C 
BRANCH   9  10
ATOM     10  C   UNL     1      26.203   4.411   8.711  1.00  0.00    -0.035 C 
ATOM     11  C   UNL     1      25.416   5.459   8.445  1.00  0.00     0.004 C 
ENDBRANCH   9  10
ENDBRANCH   8   9
ENDBRANCH   7   8
ENDBRANCH   1   7
TORSDOF 7
ENDMDL
MODEL 5
REMARK VINA RESULT:    -3.684      5.763      7.582
REMARK INTER + INTRA:          -5.563
REMARK INTER:                  -5.259
REMARK INTRA:                  -0.304
REMARK UNBOUND:                -0.371
REMARK SMILES C=CCCCCCCC(=O)[O-]
REMARK SMILES IDX 6 1 7 2 8 3 9 4 10 5 11 6 5 7 4 8 3 9 2 10 1 11
REMARK H PARENT
REMARK Flexibility Score: inf
ROOT
ATOM      1  C   UNL     1      41.276  -7.257  -0.482  1.00  0.00     0.000 C 
ENDROOT
BRANCH   1   2
ATOM      2  C   UNL     1      40.667  -6.988   0.907  1.00  0.00     0.006 C 
BRANCH   2   3
ATOM      3  C   UNL     1      40.663  -5.508   1.323  1.00  0.00     0.053 C 
BRANCH   3   4
ATOM      4  C   UNL     1      39.371  -5.110   1.967  1.00  0.00     0.041 C 
ATOM      5  O   UNL     1      38.349  -5.834   1.838  1.00  0.00    -0.550 OA
ATOM      6  O   UNL     1      39.286  -3.922   2.682  1.00  0.00    -0.550 OA
ENDBRANCH   3   4
ENDBRANCH   2   3
ENDBRANCH   1   2
BRANCH   1   7
ATOM      7  C   UNL     1      41.918  -6.006  -1.103  1.00  0.00     0.000 C 
BRANCH   7   8
ATOM      8  C   UNL     1      41.669  -5.905  -2.617  1.00  0.00     0.004 C 
BRANCH   8   9
ATOM      9  C   UNL     1      41.527  -4.454  -3.100  1.00  0.00     0.027 C 
BRANCH   9  10
ATOM     10  C   UNL     1      41.064  -4.401  -4.530  1.00  0.00    -0.035 C 
ATOM     11  C   UNL     1      40.791  -5.512  -5.222  1.00  0.00     0.004 C 
ENDBRANCH   9  10
ENDBRANCH   8   9
ENDBRANCH   7   8
ENDBRANCH   1   7
TORSDOF 7
ENDMDL
MODEL 6
REMARK VINA RESULT:    -3.655     16.880     18.023
REMARK INTER + INTRA:          -5.522
REMARK INTER:                  -4.809
REMARK INTRA:                  -0.713
REMARK UNBOUND:                -0.371
REMARK SMILES C=CCCCCCCC(=O)[O-]
REMARK SMILES IDX 6 1 7 2 8 3 9 4 10 5 11 6 5 7 4 8 3 9 2 10 1 11
REMARK H PARENT
REMARK Flexibility Score: inf
ROOT
ATOM      1  C   UNL     1      34.746   2.892   9.933  1.00  0.00     0.000 C 
ENDROOT
BRANCH   1   2
ATOM      2  C   UNL     1      35.199   1.420   9.986  1.00  0.00     0.006 C 
BRANCH   2   3
ATOM      3  C   UNL     1      36.304   1.059   8.981  1.00  0.00     0.053 C 
BRANCH   3   4
ATOM      4  C   UNL     1      37.397   0.253   9.614  1.00  0.00     0.041 C 
ATOM      5  O   UNL     1      37.267  -0.991   9.755  1.00  0.00    -0.550 OA
ATOM      6  O   UNL     1      38.546   0.881  10.078  1.00  0.00    -0.550 OA
ENDBRANCH   3   4
ENDBRANCH   2   3
ENDBRANCH   1   2
BRANCH   1   7
ATOM      7  C   UNL     1      35.909   3.879  10.125  1.00  0.00     0.000 C 
BRANCH   7   8
ATOM      8  C   UNL     1      35.842   5.066   9.148  1.00  0.00     0.004 C 
BRANCH   8   9
ATOM      9  C   UNL     1      36.761   4.885   7.931  1.00  0.00     0.027 C 
BRANCH   9  10
ATOM     10  C   UNL     1      38.134   4.437   8.351  1.00  0.00    -0.035 C 
ATOM     11  C   UNL     1      38.834   3.549   7.638  1.00  0.00     0.004 C 
ENDBRANCH   9  10
ENDBRANCH   8   9
ENDBRANCH   7   8
ENDBRANCH   1   7
TORSDOF 7
ENDMDL
MODEL 7
REMARK VINA RESULT:    -3.637     13.146     14.296
REMARK INTER + INTRA:          -5.496
REMARK INTER:                  -5.217
REMARK INTRA:                  -0.279
REMARK UNBOUND:                -0.371
REMARK SMILES C=CCCCCCCC(=O)[O-]
REMARK SMILES IDX 6 1 7 2 8 3 9 4 10 5 11 6 5 7 4 8 3 9 2 10 1 11
REMARK H PARENT
REMARK Flexibility Score: inf
ROOT
ATOM      1  C   UNL     1      26.563  -7.488   0.372  1.00  0.00     0.000 C 
ENDROOT
BRANCH   1   2
ATOM      2  C   UNL     1      26.146  -6.416  -0.654  1.00  0.00     0.006 C 
BRANCH   2   3
ATOM      3  C   UNL     1      24.900  -6.776  -1.479  1.00  0.00     0.053 C 
BRANCH   3   4
ATOM      4  C   UNL     1      24.992  -6.269  -2.885  1.00  0.00     0.041 C 
ATOM      5  O   UNL     1      24.167  -6.656  -3.754  1.00  0.00    -0.550 OA
ATOM      6  O   UNL     1      26.010  -5.395  -3.246  1.00  0.00    -0.550 OA
ENDBRANCH   3   4
ENDBRANCH   2   3
ENDBRANCH   1   2
BRANCH   1   7
ATOM      7  C   UNL     1      27.831  -7.103   1.151  1.00  0.00     0.000 C 
BRANCH   7   8
ATOM      8  C   UNL     1      27.918  -7.805   2.517  1.00  0.00     0.004 C 
BRANCH   8   9
ATOM      9  C   UNL     1      27.506  -9.283   2.451  1.00  0.00     0.027 C 
BRANCH   9  10
ATOM     10  C   UNL     1      26.865  -9.724   3.738  1.00  0.00    -0.035 C 
ATOM     11  C   UNL     1      25.541  -9.675   3.918  1.00  0.00     0.004 C 
ENDBRANCH   9  10
ENDBRANCH   8   9
ENDBRANCH   7   8
ENDBRANCH   1   7
TORSDOF 7
ENDMDL
MODEL 8
REMARK VINA RESULT:    -3.618      3.480      4.652
REMARK INTER + INTRA:          -5.470
REMARK INTER:                  -5.310
REMARK INTRA:                  -0.160
REMARK UNBOUND:                -0.371
REMARK SMILES C=CCCCCCCC(=O)[O-]
REMARK SMILES IDX 6 1 7 2 8 3 9 4 10 5 11 6 5 7 4 8 3 9 2 10 1 11
REMARK H PARENT
REMARK Flexibility Score: inf
ROOT
ATOM      1  C   UNL     1      35.521  -4.928  -7.866  1.00  0.00     0.000 C 
ENDROOT
BRANCH   1   2
ATOM      2  C   UNL     1      35.640  -4.076  -9.144  1.00  0.00     0.006 C 
BRANCH   2   3
ATOM      3  C   UNL     1      35.365  -2.577  -8.937  1.00  0.00     0.053 C 
BRANCH   3   4
ATOM      4  C   UNL     1      34.033  -2.170  -9.485  1.00  0.00     0.041 C 
ATOM      5  O   UNL     1      33.816  -0.969  -9.798  1.00  0.00    -0.550 OA
ATOM      6  O   UNL     1      33.017  -3.108  -9.620  1.00  0.00    -0.550 OA
ENDBRANCH   3   4
ENDBRANCH   2   3
ENDBRANCH   1   2
BRANCH   1   7
ATOM      7  C   UNL     1      36.867  -5.528  -7.426  1.00  0.00     0.000 C 
BRANCH   7   8
ATOM      8  C   UNL     1      36.801  -7.055  -7.254  1.00  0.00     0.004 C 
BRANCH   8   9
ATOM      9  C   UNL     1      37.303  -7.519  -5.877  1.00  0.00     0.027 C 
BRANCH   9  10
ATOM     10  C   UNL     1      36.754  -8.875  -5.530  1.00  0.00    -0.035 C 
ATOM     11  C   UNL     1      36.459  -9.214  -4.271  1.00  0.00     0.004 C 
ENDBRANCH   9  10
ENDBRANCH   8   9
ENDBRANCH   7   8
ENDBRANCH   1   7
TORSDOF 7
ENDMDL
MODEL 9
REMARK VINA RESULT:    -3.610     15.531     17.571
REMARK INTER + INTRA:          -5.458
REMARK INTER:                  -4.972
REMARK INTRA:                  -0.487
REMARK UNBOUND:                -0.371
REMARK SMILES C=CCCCCCCC(=O)[O-]
REMARK SMILES IDX 6 1 7 2 8 3 9 4 10 5 11 6 5 7 4 8 3 9 2 10 1 11
REMARK H PARENT
REMARK Flexibility Score: inf
ROOT
ATOM      1  C   UNL     1      37.027   4.814   7.605  1.00  0.00     0.000 C 
ENDROOT
BRANCH   1   2
ATOM      2  C   UNL     1      38.437   4.198   7.674  1.00  0.00     0.006 C 
BRANCH   2   3
ATOM      3  C   UNL     1      39.408   4.708   6.597  1.00  0.00     0.053 C 
BRANCH   3   4
ATOM      4  C   UNL     1      40.296   3.619   6.080  1.00  0.00     0.041 C 
ATOM      5  O   UNL     1      39.950   2.941   5.077  1.00  0.00    -0.550 OA
ATOM      6  O   UNL     1      41.492   3.330   6.725  1.00  0.00    -0.550 OA
ENDBRANCH   3   4
ENDBRANCH   2   3
ENDBRANCH   1   2
BRANCH   1   7
ATOM      7  C   UNL     1      36.441   5.113   8.995  1.00  0.00     0.000 C 
BRANCH   7   8
ATOM      8  C   UNL     1      36.424   3.874   9.906  1.00  0.00     0.004 C 
BRANCH   8   9
ATOM      9  C   UNL     1      35.044   3.203   9.969  1.00  0.00     0.027 C 
BRANCH   9  10
ATOM     10  C   UNL     1      35.108   1.784   9.476  1.00  0.00    -0.035 C 
ATOM     11  C   UNL     1      36.117   1.348   8.714  1.00  0.00     0.004 C 
ENDBRANCH   9  10
ENDBRANCH   8   9
ENDBRANCH   7   8
ENDBRANCH   1   7
TORSDOF 7
ENDMDL
