MODEL 1
REMARK VINA RESULT:    -0.958      0.000      0.000
REMARK INTER + INTRA:          -0.426
REMARK INTER:                  -1.182
REMARK INTRA:                   0.756
REMARK UNBOUND:                 0.756
REMARK SMILES CC1=CC=CC(C)(C)CC1=O
REMARK SMILES IDX 1 1 2 2 3 3 10 4 11 5 9 6 4 8 5 9 6 10 7 11 8 12
REMARK H PARENT
REMARK Flexibility Score: 80.00
ROOT
ATOM      1  C   UNL     1      92.090  26.457  12.051  1.00  0.00     0.048 C 
ATOM      2  C   UNL     1      92.151  27.960  11.922  1.00  0.00    -0.008 C 
ATOM      3  C   UNL     1      92.774  28.470  10.838  1.00  0.00     0.007 C 
ENDROOT
BRANCH   2   4
ATOM      4  C   UNL     1      91.583  28.758  13.037  1.00  0.00     0.159 C 
ATOM      5  O   UNL     1      91.309  28.176  14.123  1.00  0.00    -0.295 OA
BRANCH   4   6
ATOM      6  C   UNL     1      91.299  30.225  12.942  1.00  0.00     0.091 CG0
ATOM      7  G   UNL     1      92.563  31.075  12.683  1.00  0.00     0.000 G0
ENDBRANCH   4   6
ENDBRANCH   2   4
BRANCH   3   8
ATOM      8  C   UNL     1      93.014  29.882  10.455  1.00  0.00    -0.003 C 
ATOM      9  C   UNL     1      92.950  30.985  11.211  1.00  0.00    -0.020 C 
BRANCH   9  10
ATOM     10  C   UNL     1      92.579  31.049  12.675  1.00  0.00    -0.010 CG0
ATOM     11  C   UNL     1      93.776  30.597  13.542  1.00  0.00     0.016 C 
ATOM     12  C   UNL     1      92.260  32.519  13.030  1.00  0.00     0.016 C 
ATOM     13  G   UNL     1      91.308  30.208  12.927  1.00  0.00     0.000 G0
ENDBRANCH   9  10
ENDBRANCH   3   8
TORSDOF 0
ENDMDL
MODEL 2
REMARK VINA RESULT:    -0.856      1.734      2.884
REMARK INTER + INTRA:          -0.300
REMARK INTER:                  -1.073
REMARK INTRA:                   0.772
REMARK UNBOUND:                 0.756
REMARK SMILES CC1=CC=CC(C)(C)CC1=O
REMARK SMILES IDX 1 1 2 2 3 3 10 4 11 5 9 6 4 8 5 9 6 10 7 11 8 12
REMARK H PARENT
REMARK Flexibility Score: 80.00
ROOT
ATOM      1  C   UNL     1      93.078  27.251  10.190  1.00  0.00     0.048 C 
ATOM      2  C   UNL     1      92.456  27.885  11.412  1.00  0.00    -0.008 C 
ATOM      3  C   UNL     1      91.795  27.078  12.268  1.00  0.00     0.007 C 
ENDROOT
BRANCH   2   4
ATOM      4  C   UNL     1      92.561  29.361  11.534  1.00  0.00     0.159 C 
ATOM      5  O   UNL     1      92.972  30.026  10.543  1.00  0.00    -0.295 OA
BRANCH   4   6
ATOM      6  C   UNL     1      92.216  30.113  12.782  1.00  0.00     0.091 CG0
ATOM      7  G   UNL     1      90.751  29.914  13.229  1.00  0.00     0.000 G0
ENDBRANCH   4   6
ENDBRANCH   2   4
BRANCH   3   8
ATOM      8  C   UNL     1      91.071  27.407  13.519  1.00  0.00    -0.003 C 
ATOM      9  C   UNL     1      90.614  28.592  13.944  1.00  0.00    -0.020 C 
BRANCH   9  10
ATOM     10  C   UNL     1      90.763  29.918  13.234  1.00  0.00    -0.010 CG0
ATOM     11  C   UNL     1      89.769  29.996  12.052  1.00  0.00     0.016 C 
ATOM     12  C   UNL     1      90.408  31.044  14.231  1.00  0.00     0.016 C 
ATOM     13  G   UNL     1      92.230  30.110  12.793  1.00  0.00     0.000 G0
ENDBRANCH   9  10
ENDBRANCH   3   8
TORSDOF 0
ENDMDL
MODEL 3
REMARK VINA RESULT:    -0.739      2.076      2.970
REMARK INTER + INTRA:          -0.156
REMARK INTER:                  -0.901
REMARK INTRA:                   0.745
REMARK UNBOUND:                 0.756
REMARK SMILES CC1=CC=CC(C)(C)CC1=O
REMARK SMILES IDX 1 1 2 2 3 3 10 4 11 5 9 6 4 8 5 9 6 10 7 11 8 12
REMARK H PARENT
REMARK Flexibility Score: 80.00
ROOT
ATOM      1  C   UNL     1      93.250  27.289   9.795  1.00  0.00     0.048 C 
ATOM      2  C   UNL     1      92.876  28.486  10.637  1.00  0.00    -0.008 C 
ATOM      3  C   UNL     1      92.305  28.251  11.838  1.00  0.00     0.007 C 
ENDROOT
BRANCH   2   4
ATOM      4  C   UNL     1      93.100  29.827  10.044  1.00  0.00     0.159 C 
ATOM      5  O   UNL     1      93.403  29.908   8.821  1.00  0.00    -0.295 OA
BRANCH   4   6
ATOM      6  C   UNL     1      93.000  31.103  10.822  1.00  0.00     0.091 CG0
ATOM      7  G   UNL     1      91.616  31.312  11.474  1.00  0.00     0.000 G0
ENDBRANCH   4   6
ENDBRANCH   2   4
BRANCH   3   8
ATOM      8  C   UNL     1      91.812  29.205  12.860  1.00  0.00    -0.003 C 
ATOM      9  C   UNL     1      91.503  30.501  12.726  1.00  0.00    -0.020 C 
BRANCH   9  10
ATOM     10  C   UNL     1      91.617  31.325  11.464  1.00  0.00    -0.010 CG0
ATOM     11  C   UNL     1      90.440  31.001  10.516  1.00  0.00     0.016 C 
ATOM     12  C   UNL     1      91.521  32.818  11.850  1.00  0.00     0.016 C 
ATOM     13  G   UNL     1      92.994  31.085  10.808  1.00  0.00     0.000 G0
ENDBRANCH   9  10
ENDBRANCH   3   8
TORSDOF 0
ENDMDL
MODEL 4
REMARK VINA RESULT:    -0.717      2.858      3.568
REMARK INTER + INTRA:          -0.129
REMARK INTER:                  -0.895
REMARK INTRA:                   0.765
REMARK UNBOUND:                 0.756
REMARK SMILES CC1=CC=CC(C)(C)CC1=O
REMARK SMILES IDX 1 1 2 2 3 3 10 4 11 5 9 6 4 8 5 9 6 10 7 11 8 12
REMARK H PARENT
REMARK Flexibility Score: 80.00
ROOT
ATOM      1  C   UNL     1      91.814  26.809  11.831  1.00  0.00     0.048 C 
ATOM      2  C   UNL     1      92.197  27.555  10.575  1.00  0.00    -0.008 C 
ATOM      3  C   UNL     1      93.291  27.134   9.905  1.00  0.00     0.007 C 
ENDROOT
BRANCH   2   4
ATOM      4  C   UNL     1      91.379  28.741  10.218  1.00  0.00     0.159 C 
ATOM      5  O   UNL     1      90.565  29.197  11.069  1.00  0.00    -0.295 OA
BRANCH   4   6
ATOM      6  C   UNL     1      91.454  29.427   8.889  1.00  0.00     0.091 CG0
ATOM      7  G   UNL     1      92.857  29.987   8.570  1.00  0.00     0.000 G0
ENDBRANCH   4   6
ENDBRANCH   2   4
BRANCH   3   8
ATOM      8  C   UNL     1      93.920  27.673   8.677  1.00  0.00    -0.003 C 
ATOM      9  C   UNL     1      93.766  28.875   8.105  1.00  0.00    -0.020 C 
BRANCH   9  10
ATOM     10  C   UNL     1      92.861  29.986   8.584  1.00  0.00    -0.010 CG0
ATOM     11  C   UNL     1      93.495  30.694   9.803  1.00  0.00     0.016 C 
ATOM     12  C   UNL     1      92.724  31.023   7.447  1.00  0.00     0.016 C 
ATOM     13  G   UNL     1      91.457  29.418   8.889  1.00  0.00     0.000 G0
ENDBRANCH   9  10
ENDBRANCH   3   8
TORSDOF 0
ENDMDL
MODEL 5
REMARK VINA RESULT:    -0.668      2.565      4.313
REMARK INTER + INTRA:          -0.068
REMARK INTER:                  -0.822
REMARK INTRA:                   0.754
REMARK UNBOUND:                 0.756
REMARK SMILES CC1=CC=CC(C)(C)CC1=O
REMARK SMILES IDX 1 1 2 2 3 3 10 4 11 5 9 6 4 8 5 9 6 10 7 11 8 12
REMARK H PARENT
REMARK Flexibility Score: 80.00
ROOT
ATOM      1  C   UNL     1      94.687  33.086  16.005  1.00  0.00     0.048 C 
ATOM      2  C   UNL     1      94.008  31.892  15.378  1.00  0.00    -0.008 C 
ATOM      3  C   UNL     1      94.159  31.711  14.049  1.00  0.00     0.007 C 
ENDROOT
BRANCH   2   4
ATOM      4  C   UNL     1      93.165  31.052  16.266  1.00  0.00     0.159 C 
ATOM      5  O   UNL     1      92.892  31.473  17.424  1.00  0.00    -0.295 OA
BRANCH   4   6
ATOM      6  C   UNL     1      92.626  29.712  15.868  1.00  0.00     0.091 CG0
ATOM      7  G   UNL     1      91.724  29.766  14.615  1.00  0.00     0.000 G0
ENDBRANCH   4   6
ENDBRANCH   2   4
BRANCH   3   8
ATOM      8  C   UNL     1      93.600  30.664  13.161  1.00  0.00    -0.003 C 
ATOM      9  C   UNL     1      92.567  29.839  13.374  1.00  0.00    -0.020 C 
BRANCH   9  10
ATOM     10  C   UNL     1      91.721  29.765  14.624  1.00  0.00    -0.010 CG0
ATOM     11  C   UNL     1      90.722  30.945  14.655  1.00  0.00     0.016 C 
ATOM     12  C   UNL     1      90.908  28.452  14.582  1.00  0.00     0.016 C 
ATOM     13  G   UNL     1      92.634  29.725  15.869  1.00  0.00     0.000 G0
ENDBRANCH   9  10
ENDBRANCH   3   8
TORSDOF 0
ENDMDL
MODEL 6
REMARK VINA RESULT:    -0.659      1.976      3.656
REMARK INTER + INTRA:          -0.058
REMARK INTER:                  -0.811
REMARK INTRA:                   0.753
REMARK UNBOUND:                 0.756
REMARK SMILES CC1=CC=CC(C)(C)CC1=O
REMARK SMILES IDX 1 1 2 2 3 3 10 4 11 5 9 6 4 8 5 9 6 10 7 11 8 12
REMARK H PARENT
REMARK Flexibility Score: 80.00
ROOT
ATOM      1  C   UNL     1      93.028  29.725  16.140  1.00  0.00     0.048 C 
ATOM      2  C   UNL     1      91.994  29.456  15.071  1.00  0.00    -0.008 C 
ATOM      3  C   UNL     1      91.220  28.359  15.212  1.00  0.00     0.007 C 
ENDROOT
BRANCH   2   4
ATOM      4  C   UNL     1      91.964  30.382  13.912  1.00  0.00     0.159 C 
ATOM      5  O   UNL     1      92.899  31.220  13.778  1.00  0.00    -0.295 OA
BRANCH   4   6
ATOM      6  C   UNL     1      90.871  30.390  12.889  1.00  0.00     0.091 CG0
ATOM      7  G   UNL     1      90.704  29.035  12.165  1.00  0.00     0.000 G0
ENDBRANCH   4   6
ENDBRANCH   2   4
BRANCH   3   8
ATOM      8  C   UNL     1      90.156  27.826  14.329  1.00  0.00    -0.003 C 
ATOM      9  C   UNL     1      89.923  28.085  13.035  1.00  0.00    -0.020 C 
BRANCH   9  10
ATOM     10  C   UNL     1      90.702  29.035  12.156  1.00  0.00    -0.010 CG0
ATOM     11  C   UNL     1      92.048  28.392  11.748  1.00  0.00     0.016 C 
ATOM     12  C   UNL     1      89.884  29.287  10.870  1.00  0.00     0.016 C 
ATOM     13  G   UNL     1      90.884  30.386  12.883  1.00  0.00     0.000 G0
ENDBRANCH   9  10
ENDBRANCH   3   8
TORSDOF 0
ENDMDL
MODEL 7
REMARK VINA RESULT:    -0.638      3.618      5.384
REMARK INTER + INTRA:          -0.031
REMARK INTER:                  -0.795
REMARK INTRA:                   0.764
REMARK UNBOUND:                 0.756
REMARK SMILES CC1=CC=CC(C)(C)CC1=O
REMARK SMILES IDX 1 1 2 2 3 3 10 4 11 5 9 6 4 8 5 9 6 10 7 11 8 12
REMARK H PARENT
REMARK Flexibility Score: 80.00
ROOT
ATOM      1  C   UNL     1      94.283  33.009  17.208  1.00  0.00     0.048 C 
ATOM      2  C   UNL     1      93.343  31.838  17.045  1.00  0.00    -0.008 C 
ATOM      3  C   UNL     1      93.769  30.629  17.468  1.00  0.00     0.007 C 
ENDROOT
BRANCH   2   4
ATOM      4  C   UNL     1      92.051  32.099  16.363  1.00  0.00     0.159 C 
ATOM      5  O   UNL     1      91.880  33.210  15.789  1.00  0.00    -0.295 OA
BRANCH   4   6
ATOM      6  C   UNL     1      90.922  31.116  16.327  1.00  0.00     0.091 CG0
ATOM      7  G   UNL     1      91.307  29.769  15.676  1.00  0.00     0.000 G0
ENDBRANCH   4   6
ENDBRANCH   2   4
BRANCH   3   8
ATOM      8  C   UNL     1      93.094  29.311  17.418  1.00  0.00    -0.003 C 
ATOM      9  C   UNL     1      92.059  28.920  16.663  1.00  0.00    -0.020 C 
BRANCH   9  10
ATOM     10  C   UNL     1      91.298  29.771  15.674  1.00  0.00    -0.010 CG0
ATOM     11  C   UNL     1      92.128  29.947  14.382  1.00  0.00     0.016 C 
ATOM     12  C   UNL     1      89.991  29.034  15.306  1.00  0.00     0.016 C 
ATOM     13  G   UNL     1      90.923  31.119  16.329  1.00  0.00     0.000 G0
ENDBRANCH   9  10
ENDBRANCH   3   8
TORSDOF 0
ENDMDL
MODEL 8
REMARK VINA RESULT:    -0.630      3.542      5.068
REMARK INTER + INTRA:          -0.022
REMARK INTER:                  -0.776
REMARK INTRA:                   0.755
REMARK UNBOUND:                 0.756
REMARK SMILES CC1=CC=CC(C)(C)CC1=O
REMARK SMILES IDX 1 1 2 2 3 3 10 4 11 5 9 6 4 8 5 9 6 10 7 11 8 12
REMARK H PARENT
REMARK Flexibility Score: 80.00
ROOT
ATOM      1  C   UNL     1      91.907  29.590  12.966  1.00  0.00     0.048 C 
ATOM      2  C   UNL     1      91.315  28.603  13.944  1.00  0.00    -0.008 C 
ATOM      3  C   UNL     1      90.382  27.744  13.480  1.00  0.00     0.007 C 
ENDROOT
BRANCH   2   4
ATOM      4  C   UNL     1      91.754  28.707  15.358  1.00  0.00     0.159 C 
ATOM      5  O   UNL     1      92.430  29.713  15.713  1.00  0.00    -0.295 OA
BRANCH   4   6
ATOM      6  C   UNL     1      91.451  27.671  16.396  1.00  0.00     0.091 CG0
ATOM      7  G   UNL     1      89.938  27.437  16.600  1.00  0.00     0.000 G0
ENDBRANCH   4   6
ENDBRANCH   2   4
BRANCH   3   8
ATOM      8  C   UNL     1      89.615  26.697  14.194  1.00  0.00    -0.003 C 
ATOM      9  C   UNL     1      89.404  26.552  15.508  1.00  0.00    -0.020 C 
BRANCH   9  10
ATOM     10  C   UNL     1      89.942  27.439  16.607  1.00  0.00    -0.010 CG0
ATOM     11  C   UNL     1      89.133  28.755  16.666  1.00  0.00     0.016 C 
ATOM     12  C   UNL     1      89.760  26.706  17.955  1.00  0.00     0.016 C 
ATOM     13  G   UNL     1      91.453  27.678  16.389  1.00  0.00     0.000 G0
ENDBRANCH   9  10
ENDBRANCH   3   8
TORSDOF 0
ENDMDL
MODEL 9
REMARK VINA RESULT:    -0.628      1.920      3.106
REMARK INTER + INTRA:          -0.019
REMARK INTER:                  -0.781
REMARK INTRA:                   0.763
REMARK UNBOUND:                 0.756
REMARK SMILES CC1=CC=CC(C)(C)CC1=O
REMARK SMILES IDX 1 1 2 2 3 3 10 4 11 5 9 6 4 8 5 9 6 10 7 11 8 12
REMARK H PARENT
REMARK Flexibility Score: 80.00
ROOT
ATOM      1  C   UNL     1      91.249  27.361  13.819  1.00  0.00     0.048 C 
ATOM      2  C   UNL     1      91.722  28.358  12.788  1.00  0.00    -0.008 C 
ATOM      3  C   UNL     1      91.642  29.669  13.102  1.00  0.00     0.007 C 
ENDROOT
BRANCH   2   4
ATOM      4  C   UNL     1      92.170  27.818  11.481  1.00  0.00     0.159 C 
ATOM      5  O   UNL     1      91.961  26.600  11.222  1.00  0.00    -0.295 OA
BRANCH   4   6
ATOM      6  C   UNL     1      92.875  28.638  10.445  1.00  0.00     0.091 CG0
ATOM      7  G   UNL     1      92.055  29.860   9.974  1.00  0.00     0.000 G0
ENDBRANCH   4   6
ENDBRANCH   2   4
BRANCH   3   8
ATOM      8  C   UNL     1      91.998  30.863  12.300  1.00  0.00    -0.003 C 
ATOM      9  C   UNL     1      92.166  30.972  10.976  1.00  0.00    -0.020 C 
BRANCH   9  10
ATOM     10  C   UNL     1      92.056  29.856   9.963  1.00  0.00    -0.010 CG0
ATOM     11  C   UNL     1      90.568  29.518   9.711  1.00  0.00     0.016 C 
ATOM     12  C   UNL     1      92.665  30.348   8.631  1.00  0.00     0.016 C 
ATOM     13  G   UNL     1      92.872  28.635  10.443  1.00  0.00     0.000 G0
ENDBRANCH   9  10
ENDBRANCH   3   8
TORSDOF 0
ENDMDL
