MODEL 1
REMARK VINA RESULT:    -3.051      0.000      0.000
REMARK INTER + INTRA:          -6.376
REMARK INTER:                  -4.835
REMARK INTRA:                  -1.541
REMARK UNBOUND:                -1.541
REMARK SMILES CCCCCCCCCCCC(=O)[O-]
REMARK SMILES IDX 7 1 8 2 9 3 10 4 11 5 12 6 13 7 14 8 6 9 5 10 4 11 3 12 2 13
REMARK SMILES IDX 1 14
REMARK H PARENT
REMARK Flexibility Score: inf
ROOT
ATOM      1  C   UNL     1      25.592  -4.059 -26.839  1.00  0.00     0.000 C 
ENDROOT
BRANCH   1   2
ATOM      2  C   UNL     1      26.228  -4.041 -28.238  1.00  0.00     0.000 C 
BRANCH   2   3
ATOM      3  C   UNL     1      25.190  -3.854 -29.355  1.00  0.00     0.000 C 
BRANCH   3   4
ATOM      4  C   UNL     1      25.506  -4.759 -30.556  1.00  0.00     0.006 C 
BRANCH   4   5
ATOM      5  C   UNL     1      24.239  -5.209 -31.294  1.00  0.00     0.053 C 
BRANCH   5   6
ATOM      6  C   UNL     1      24.308  -4.898 -32.758  1.00  0.00     0.041 C 
ATOM      7  O   UNL     1      25.329  -5.209 -33.424  1.00  0.00    -0.550 OA
ATOM      8  O   UNL     1      23.257  -4.234 -33.379  1.00  0.00    -0.550 OA
ENDBRANCH   5   6
ENDBRANCH   4   5
ENDBRANCH   3   4
ENDBRANCH   2   3
ENDBRANCH   1   2
BRANCH   1   9
ATOM      9  C   UNL     1      24.140  -4.570 -26.856  1.00  0.00     0.000 C 
BRANCH   9  10
ATOM     10  C   UNL     1      23.928  -5.784 -25.937  1.00  0.00    -0.000 C 
BRANCH  10  11
ATOM     11  C   UNL     1      24.462  -7.089 -26.553  1.00  0.00    -0.000 C 
BRANCH  11  12
ATOM     12  C   UNL     1      24.092  -7.234 -28.038  1.00  0.00    -0.000 C 
BRANCH  12  13
ATOM     13  C   UNL     1      25.180  -7.949 -28.853  1.00  0.00    -0.003 C 
ATOM     14  C   UNL     1      26.556  -7.754 -28.223  1.00  0.00     0.004 C 
ENDBRANCH  12  13
ENDBRANCH  11  12
ENDBRANCH  10  11
ENDBRANCH   9  10
ENDBRANCH   1   9
TORSDOF 10
ENDMDL
MODEL 2
REMARK VINA RESULT:    -3.019     11.884     13.743
REMARK INTER + INTRA:          -6.325
REMARK INTER:                  -5.637
REMARK INTRA:                  -0.688
REMARK UNBOUND:                -1.541
REMARK SMILES CCCCCCCCCCCC(=O)[O-]
REMARK SMILES IDX 7 1 8 2 9 3 10 4 11 5 12 6 13 7 14 8 6 9 5 10 4 11 3 12 2 13
REMARK SMILES IDX 1 14
REMARK H PARENT
REMARK Flexibility Score: inf
ROOT
ATOM      1  C   UNL     1      32.340   0.381 -34.374  1.00  0.00     0.000 C 
ENDROOT
BRANCH   1   2
ATOM      2  C   UNL     1      32.160   1.856 -33.982  1.00  0.00     0.000 C 
BRANCH   2   3
ATOM      3  C   UNL     1      33.429   2.463 -33.367  1.00  0.00     0.000 C 
BRANCH   3   4
ATOM      4  C   UNL     1      33.234   3.956 -33.064  1.00  0.00     0.006 C 
BRANCH   4   5
ATOM      5  C   UNL     1      34.558   4.730 -33.077  1.00  0.00     0.053 C 
BRANCH   5   6
ATOM      6  C   UNL     1      34.593   5.791 -32.019  1.00  0.00     0.041 C 
ATOM      7  O   UNL     1      33.523   6.200 -31.497  1.00  0.00    -0.550 OA
ATOM      8  O   UNL     1      35.805   6.350 -31.634  1.00  0.00    -0.550 OA
ENDBRANCH   5   6
ENDBRANCH   4   5
ENDBRANCH   3   4
ENDBRANCH   2   3
ENDBRANCH   1   2
BRANCH   1   9
ATOM      9  C   UNL     1      33.585   0.150 -35.250  1.00  0.00     0.000 C 
BRANCH   9  10
ATOM     10  C   UNL     1      33.330  -0.845 -36.394  1.00  0.00    -0.000 C 
BRANCH  10  11
ATOM     11  C   UNL     1      33.231  -0.154 -37.764  1.00  0.00    -0.000 C 
BRANCH  11  12
ATOM     12  C   UNL     1      31.896  -0.437 -38.472  1.00  0.00    -0.000 C 
BRANCH  12  13
ATOM     13  C   UNL     1      31.016   0.815 -38.601  1.00  0.00    -0.003 C 
ATOM     14  C   UNL     1      30.228   1.067 -37.319  1.00  0.00     0.004 C 
ENDBRANCH  12  13
ENDBRANCH  11  12
ENDBRANCH  10  11
ENDBRANCH   9  10
ENDBRANCH   1   9
TORSDOF 10
ENDMDL
MODEL 3
REMARK VINA RESULT:    -3.005      1.019      2.503
REMARK INTER + INTRA:          -6.302
REMARK INTER:                  -4.944
REMARK INTRA:                  -1.358
REMARK UNBOUND:                -1.541
REMARK SMILES CCCCCCCCCCCC(=O)[O-]
REMARK SMILES IDX 7 1 8 2 9 3 10 4 11 5 12 6 13 7 14 8 6 9 5 10 4 11 3 12 2 13
REMARK SMILES IDX 1 14
REMARK H PARENT
REMARK Flexibility Score: inf
ROOT
ATOM      1  C   UNL     1      27.816  -6.662 -28.879  1.00  0.00     0.000 C 
ENDROOT
BRANCH   1   2
ATOM      2  C   UNL     1      27.114  -5.296 -28.834  1.00  0.00     0.000 C 
BRANCH   2   3
ATOM      3  C   UNL     1      26.712  -4.793 -30.228  1.00  0.00     0.000 C 
BRANCH   3   4
ATOM      4  C   UNL     1      25.206  -4.498 -30.293  1.00  0.00     0.006 C 
BRANCH   4   5
ATOM      5  C   UNL     1      24.460  -5.478 -31.207  1.00  0.00     0.053 C 
BRANCH   5   6
ATOM      6  C   UNL     1      24.427  -5.001 -32.627  1.00  0.00     0.041 C 
ATOM      7  O   UNL     1      25.420  -5.185 -33.379  1.00  0.00    -0.550 OA
ATOM      8  O   UNL     1      23.313  -4.325 -33.109  1.00  0.00    -0.550 OA
ENDBRANCH   5   6
ENDBRANCH   4   5
ENDBRANCH   3   4
ENDBRANCH   2   3
ENDBRANCH   1   2
BRANCH   1   9
ATOM      9  C   UNL     1      27.039  -7.751 -28.117  1.00  0.00     0.000 C 
BRANCH   9  10
ATOM     10  C   UNL     1      25.621  -7.966 -28.671  1.00  0.00    -0.000 C 
BRANCH  10  11
ATOM     11  C   UNL     1      24.547  -7.929 -27.569  1.00  0.00    -0.000 C 
BRANCH  11  12
ATOM     12  C   UNL     1      23.860  -6.558 -27.462  1.00  0.00    -0.000 C 
BRANCH  12  13
ATOM     13  C   UNL     1      23.835  -6.018 -26.025  1.00  0.00    -0.003 C 
ATOM     14  C   UNL     1      25.237  -5.644 -25.554  1.00  0.00     0.004 C 
ENDBRANCH  12  13
ENDBRANCH  11  12
ENDBRANCH  10  11
ENDBRANCH   9  10
ENDBRANCH   1   9
TORSDOF 10
ENDMDL
MODEL 4
REMARK VINA RESULT:    -2.941     12.831     14.537
REMARK INTER + INTRA:          -6.201
REMARK INTER:                  -4.695
REMARK INTRA:                  -1.506
REMARK UNBOUND:                -1.541
REMARK SMILES CCCCCCCCCCCC(=O)[O-]
REMARK SMILES IDX 7 1 8 2 9 3 10 4 11 5 12 6 13 7 14 8 6 9 5 10 4 11 3 12 2 13
REMARK SMILES IDX 1 14
REMARK H PARENT
REMARK Flexibility Score: inf
ROOT
ATOM      1  C   UNL     1      33.818   4.973 -32.999  1.00  0.00     0.000 C 
ENDROOT
BRANCH   1   2
ATOM      2  C   UNL     1      35.264   5.397 -32.697  1.00  0.00     0.000 C 
BRANCH   2   3
ATOM      3  C   UNL     1      35.400   6.109 -31.343  1.00  0.00     0.000 C 
BRANCH   3   4
ATOM      4  C   UNL     1      34.562   7.396 -31.312  1.00  0.00     0.006 C 
BRANCH   4   5
ATOM      5  C   UNL     1      33.563   7.413 -30.148  1.00  0.00     0.053 C 
BRANCH   5   6
ATOM      6  C   UNL     1      32.313   8.160 -30.499  1.00  0.00     0.041 C 
ATOM      7  O   UNL     1      32.302   9.418 -30.485  1.00  0.00    -0.550 OA
ATOM      8  O   UNL     1      31.150   7.464 -30.807  1.00  0.00    -0.550 OA
ENDBRANCH   5   6
ENDBRANCH   4   5
ENDBRANCH   3   4
ENDBRANCH   2   3
ENDBRANCH   1   2
BRANCH   1   9
ATOM      9  C   UNL     1      33.651   3.443 -33.058  1.00  0.00     0.000 C 
BRANCH   9  10
ATOM     10  C   UNL     1      32.753   2.901 -31.933  1.00  0.00    -0.000 C 
BRANCH  10  11
ATOM     11  C   UNL     1      32.081   4.024 -31.124  1.00  0.00    -0.000 C 
BRANCH  11  12
ATOM     12  C   UNL     1      32.543   4.051 -29.658  1.00  0.00    -0.000 C 
BRANCH  12  13
ATOM     13  C   UNL     1      33.663   3.039 -29.370  1.00  0.00    -0.003 C 
ATOM     14  C   UNL     1      34.814   3.694 -28.613  1.00  0.00     0.004 C 
ENDBRANCH  12  13
ENDBRANCH  11  12
ENDBRANCH  10  11
ENDBRANCH   9  10
ENDBRANCH   1   9
TORSDOF 10
ENDMDL
MODEL 5
REMARK VINA RESULT:    -2.900     14.325     16.166
REMARK INTER + INTRA:          -6.137
REMARK INTER:                  -5.556
REMARK INTRA:                  -0.581
REMARK UNBOUND:                -1.541
REMARK SMILES CCCCCCCCCCCC(=O)[O-]
REMARK SMILES IDX 7 1 8 2 9 3 10 4 11 5 12 6 13 7 14 8 6 9 5 10 4 11 3 12 2 13
REMARK SMILES IDX 1 14
REMARK H PARENT
REMARK Flexibility Score: inf
ROOT
ATOM      1  C   UNL     1      32.939   8.883 -30.521  1.00  0.00     0.000 C 
ENDROOT
BRANCH   1   2
ATOM      2  C   UNL     1      33.469   7.448 -30.374  1.00  0.00     0.000 C 
BRANCH   2   3
ATOM      3  C   UNL     1      34.777   7.219 -31.145  1.00  0.00     0.000 C 
BRANCH   3   4
ATOM      4  C   UNL     1      35.000   5.725 -31.419  1.00  0.00     0.006 C 
BRANCH   4   5
ATOM      5  C   UNL     1      34.737   5.356 -32.884  1.00  0.00     0.053 C 
BRANCH   5   6
ATOM      6  C   UNL     1      33.553   4.448 -33.025  1.00  0.00     0.041 C 
ATOM      7  O   UNL     1      32.386   4.905 -32.907  1.00  0.00    -0.550 OA
ATOM      8  O   UNL     1      33.741   3.090 -33.255  1.00  0.00    -0.550 OA
ENDBRANCH   5   6
ENDBRANCH   4   5
ENDBRANCH   3   4
ENDBRANCH   2   3
ENDBRANCH   1   2
BRANCH   1   9
ATOM      9  C   UNL     1      32.242   9.390 -29.246  1.00  0.00     0.000 C 
BRANCH   9  10
ATOM     10  C   UNL     1      32.505   8.489 -28.028  1.00  0.00    -0.000 C 
BRANCH  10  11
ATOM     11  C   UNL     1      32.143   9.175 -26.699  1.00  0.00    -0.000 C 
BRANCH  11  12
ATOM     12  C   UNL     1      32.381  10.694 -26.737  1.00  0.00    -0.000 C 
BRANCH  12  13
ATOM     13  C   UNL     1      33.647  11.115 -25.977  1.00  0.00    -0.003 C 
ATOM     14  C   UNL     1      33.697  10.473 -24.594  1.00  0.00     0.004 C 
ENDBRANCH  12  13
ENDBRANCH  11  12
ENDBRANCH  10  11
ENDBRANCH   9  10
ENDBRANCH   1   9
TORSDOF 10
ENDMDL
MODEL 6
REMARK VINA RESULT:    -2.876      1.471      3.364
REMARK INTER + INTRA:          -6.098
REMARK INTER:                  -4.629
REMARK INTRA:                  -1.469
REMARK UNBOUND:                -1.541
REMARK SMILES CCCCCCCCCCCC(=O)[O-]
REMARK SMILES IDX 7 1 8 2 9 3 10 4 11 5 12 6 13 7 14 8 6 9 5 10 4 11 3 12 2 13
REMARK SMILES IDX 1 14
REMARK H PARENT
REMARK Flexibility Score: inf
ROOT
ATOM      1  C   UNL     1      24.805  -7.889 -26.850  1.00  0.00     0.000 C 
ENDROOT
BRANCH   1   2
ATOM      2  C   UNL     1      24.497  -7.846 -28.355  1.00  0.00     0.000 C 
BRANCH   2   3
ATOM      3  C   UNL     1      24.062  -6.451 -28.829  1.00  0.00     0.000 C 
BRANCH   3   4
ATOM      4  C   UNL     1      24.117  -6.349 -30.361  1.00  0.00     0.006 C 
BRANCH   4   5
ATOM      5  C   UNL     1      24.259  -4.900 -30.842  1.00  0.00     0.053 C 
BRANCH   5   6
ATOM      6  C   UNL     1      25.203  -4.788 -32.000  1.00  0.00     0.041 C 
ATOM      7  O   UNL     1      24.900  -5.288 -33.115  1.00  0.00    -0.550 OA
ATOM      8  O   UNL     1      26.432  -4.160 -31.839  1.00  0.00    -0.550 OA
ENDBRANCH   5   6
ENDBRANCH   4   5
ENDBRANCH   3   4
ENDBRANCH   2   3
ENDBRANCH   1   2
BRANCH   1   9
ATOM      9  C   UNL     1      26.301  -7.690 -26.547  1.00  0.00     0.000 C 
BRANCH   9  10
ATOM     10  C   UNL     1      27.205  -8.122 -27.713  1.00  0.00    -0.000 C 
BRANCH  10  11
ATOM     11  C   UNL     1      28.250  -7.052 -28.076  1.00  0.00    -0.000 C 
BRANCH  11  12
ATOM     12  C   UNL     1      27.711  -6.021 -29.081  1.00  0.00    -0.000 C 
BRANCH  12  13
ATOM     13  C   UNL     1      27.864  -4.575 -28.587  1.00  0.00    -0.003 C 
ATOM     14  C   UNL     1      26.574  -4.075 -27.943  1.00  0.00     0.004 C 
ENDBRANCH  12  13
ENDBRANCH  11  12
ENDBRANCH  10  11
ENDBRANCH   9  10
ENDBRANCH   1   9
TORSDOF 10
ENDMDL
MODEL 7
REMARK VINA RESULT:    -2.867     15.641     17.452
REMARK INTER + INTRA:          -6.083
REMARK INTER:                  -5.457
REMARK INTRA:                  -0.627
REMARK UNBOUND:                -1.541
REMARK SMILES CCCCCCCCCCCC(=O)[O-]
REMARK SMILES IDX 7 1 8 2 9 3 10 4 11 5 12 6 13 7 14 8 6 9 5 10 4 11 3 12 2 13
REMARK SMILES IDX 1 14
REMARK H PARENT
REMARK Flexibility Score: inf
ROOT
ATOM      1  C   UNL     1      32.089   9.293 -29.498  1.00  0.00     0.000 C 
ENDROOT
BRANCH   1   2
ATOM      2  C   UNL     1      32.217   8.257 -28.369  1.00  0.00     0.000 C 
BRANCH   2   3
ATOM      3  C   UNL     1      32.457   8.906 -26.998  1.00  0.00     0.000 C 
BRANCH   3   4
ATOM      4  C   UNL     1      32.449  10.438 -27.105  1.00  0.00     0.006 C 
BRANCH   4   5
ATOM      5  C   UNL     1      33.660  11.075 -26.413  1.00  0.00     0.053 C 
BRANCH   5   6
ATOM      6  C   UNL     1      33.469  11.169 -24.930  1.00  0.00     0.041 C 
ATOM      7  O   UNL     1      34.159  10.454 -24.156  1.00  0.00    -0.550 OA
ATOM      8  O   UNL     1      32.506  12.022 -24.404  1.00  0.00    -0.550 OA
ENDBRANCH   5   6
ENDBRANCH   4   5
ENDBRANCH   3   4
ENDBRANCH   2   3
ENDBRANCH   1   2
BRANCH   1   9
ATOM      9  C   UNL     1      33.147   9.101 -30.599  1.00  0.00     0.000 C 
BRANCH   9  10
ATOM     10  C   UNL     1      33.350   7.624 -30.976  1.00  0.00    -0.000 C 
BRANCH  10  11
ATOM     11  C   UNL     1      34.836   7.247 -31.103  1.00  0.00    -0.000 C 
BRANCH  11  12
ATOM     12  C   UNL     1      35.128   5.824 -30.599  1.00  0.00    -0.000 C 
BRANCH  12  13
ATOM     13  C   UNL     1      34.500   4.740 -31.488  1.00  0.00    -0.003 C 
ATOM     14  C   UNL     1      34.805   4.993 -32.961  1.00  0.00     0.004 C 
ENDBRANCH  12  13
ENDBRANCH  11  12
ENDBRANCH  10  11
ENDBRANCH   9  10
ENDBRANCH   1   9
TORSDOF 10
ENDMDL
MODEL 8
REMARK VINA RESULT:    -2.810      9.085     11.372
REMARK INTER + INTRA:          -5.993
REMARK INTER:                  -4.434
REMARK INTRA:                  -1.560
REMARK UNBOUND:                -1.541
REMARK SMILES CCCCCCCCCCCC(=O)[O-]
REMARK SMILES IDX 7 1 8 2 9 3 10 4 11 5 12 6 13 7 14 8 6 9 5 10 4 11 3 12 2 13
REMARK SMILES IDX 1 14
REMARK H PARENT
REMARK Flexibility Score: inf
ROOT
ATOM      1  C   UNL     1      29.937   0.570 -37.738  1.00  0.00     0.000 C 
ENDROOT
BRANCH   1   2
ATOM      2  C   UNL     1      28.750  -0.027 -38.511  1.00  0.00     0.000 C 
BRANCH   2   3
ATOM      3  C   UNL     1      29.175  -1.142 -39.478  1.00  0.00     0.000 C 
BRANCH   3   4
ATOM      4  C   UNL     1      28.331  -2.407 -39.264  1.00  0.00     0.006 C 
BRANCH   4   5
ATOM      5  C   UNL     1      27.752  -2.488 -37.847  1.00  0.00     0.053 C 
BRANCH   5   6
ATOM      6  C   UNL     1      27.576  -3.906 -37.397  1.00  0.00     0.041 C 
ATOM      7  O   UNL     1      28.455  -4.767 -37.660  1.00  0.00    -0.550 OA
ATOM      8  O   UNL     1      26.424  -4.283 -36.716  1.00  0.00    -0.550 OA
ENDBRANCH   5   6
ENDBRANCH   4   5
ENDBRANCH   3   4
ENDBRANCH   2   3
ENDBRANCH   1   2
BRANCH   1   9
ATOM      9  C   UNL     1      31.177   0.776 -38.626  1.00  0.00     0.000 C 
BRANCH   9  10
ATOM     10  C   UNL     1      32.454   0.183 -38.009  1.00  0.00    -0.000 C 
BRANCH  10  11
ATOM     11  C   UNL     1      32.856  -1.152 -38.659  1.00  0.00    -0.000 C 
BRANCH  11  12
ATOM     12  C   UNL     1      32.928  -2.304 -37.642  1.00  0.00    -0.000 C 
BRANCH  12  13
ATOM     13  C   UNL     1      31.570  -2.987 -37.424  1.00  0.00    -0.003 C 
ATOM     14  C   UNL     1      30.998  -2.647 -36.051  1.00  0.00     0.004 C 
ENDBRANCH  12  13
ENDBRANCH  11  12
ENDBRANCH  10  11
ENDBRANCH   9  10
ENDBRANCH   1   9
TORSDOF 10
ENDMDL
MODEL 9
REMARK VINA RESULT:    -2.777     13.244     15.327
REMARK INTER + INTRA:          -5.941
REMARK INTER:                  -4.410
REMARK INTRA:                  -1.531
REMARK UNBOUND:                -1.541
REMARK SMILES CCCCCCCCCCCC(=O)[O-]
REMARK SMILES IDX 7 1 8 2 9 3 10 4 11 5 12 6 13 7 14 8 6 9 5 10 4 11 3 12 2 13
REMARK SMILES IDX 1 14
REMARK H PARENT
REMARK Flexibility Score: inf
ROOT
ATOM      1  C   UNL     1      32.352   4.044 -30.559  1.00  0.00     0.000 C 
ENDROOT
BRANCH   1   2
ATOM      2  C   UNL     1      32.942   4.172 -29.145  1.00  0.00     0.000 C 
BRANCH   2   3
ATOM      3  C   UNL     1      34.380   3.639 -29.056  1.00  0.00     0.000 C 
BRANCH   3   4
ATOM      4  C   UNL     1      35.252   4.554 -28.183  1.00  0.00     0.006 C 
BRANCH   4   5
ATOM      5  C   UNL     1      34.443   5.250 -27.081  1.00  0.00     0.053 C 
BRANCH   5   6
ATOM      6  C   UNL     1      34.998   4.964 -25.718  1.00  0.00     0.041 C 
ATOM      7  O   UNL     1      36.123   4.411 -25.596  1.00  0.00    -0.550 OA
ATOM      8  O   UNL     1      34.257   5.278 -24.585  1.00  0.00    -0.550 OA
ENDBRANCH   5   6
ENDBRANCH   4   5
ENDBRANCH   3   4
ENDBRANCH   2   3
ENDBRANCH   1   2
BRANCH   1   9
ATOM      9  C   UNL     1      33.418   3.706 -31.616  1.00  0.00     0.000 C 
BRANCH   9  10
ATOM     10  C   UNL     1      33.649   4.853 -32.614  1.00  0.00    -0.000 C 
BRANCH  10  11
ATOM     11  C   UNL     1      35.078   5.418 -32.541  1.00  0.00    -0.000 C 
BRANCH  11  12
ATOM     12  C   UNL     1      35.255   6.422 -31.390  1.00  0.00    -0.000 C 
BRANCH  12  13
ATOM     13  C   UNL     1      34.187   7.525 -31.395  1.00  0.00    -0.003 C 
ATOM     14  C   UNL     1      33.469   7.600 -30.051  1.00  0.00     0.004 C 
ENDBRANCH  12  13
ENDBRANCH  11  12
ENDBRANCH  10  11
ENDBRANCH   9  10
ENDBRANCH   1   9
TORSDOF 10
ENDMDL
