MODEL 1
REMARK VINA RESULT:    -2.372      0.000      0.000
REMARK INTER + INTRA:          -3.080
REMARK INTER:                  -2.857
REMARK INTRA:                  -0.223
REMARK UNBOUND:                -0.223
REMARK SMILES OCC(O)CO
REMARK SMILES IDX 3 1 5 2 6 3 2 5 1 6 4 8
REMARK H PARENT 6 4 1 7 4 9
REMARK Flexibility Score: inf
ROOT
ATOM      1  C   UNL     1     185.465 201.821 212.272  1.00  0.00     0.165 C 
ENDROOT
BRANCH   1   2
ATOM      2  C   UNL     1     185.858 201.788 213.758  1.00  0.00     0.190 C 
BRANCH   2   3
ATOM      3  O   UNL     1     186.305 200.510 214.122  1.00  0.00    -0.394 OA
ATOM      4  H   UNL     1     186.375 200.515 215.111  1.00  0.00     0.210 HD
ENDBRANCH   2   3
ENDBRANCH   1   2
BRANCH   1   5
ATOM      5  C   UNL     1     185.167 200.418 211.722  1.00  0.00     0.190 C 
BRANCH   5   6
ATOM      6  O   UNL     1     186.343 199.763 211.322  1.00  0.00    -0.394 OA
ATOM      7  H   UNL     1     186.067 198.894 210.929  1.00  0.00     0.210 HD
ENDBRANCH   5   6
ENDBRANCH   1   5
BRANCH   1   8
ATOM      8  O   UNL     1     184.351 202.653 212.078  1.00  0.00    -0.388 OA
ATOM      9  H   UNL     1     183.564 202.058 211.970  1.00  0.00     0.211 HD
ENDBRANCH   1   8
TORSDOF 5
ENDMDL
MODEL 2
REMARK VINA RESULT:    -2.355      1.348      2.293
REMARK INTER + INTRA:          -3.060
REMARK INTER:                  -2.848
REMARK INTRA:                  -0.212
REMARK UNBOUND:                -0.223
REMARK SMILES OCC(O)CO
REMARK SMILES IDX 3 1 5 2 6 3 2 5 1 6 4 8
REMARK H PARENT 6 4 1 7 4 9
REMARK Flexibility Score: inf
ROOT
ATOM      1  C   UNL     1     185.265 201.784 212.192  1.00  0.00     0.165 C 
ENDROOT
BRANCH   1   2
ATOM      2  C   UNL     1     186.442 202.024 211.233  1.00  0.00     0.190 C 
BRANCH   2   3
ATOM      3  O   UNL     1     187.604 202.345 211.947  1.00  0.00    -0.394 OA
ATOM      4  H   UNL     1     188.252 202.687 211.279  1.00  0.00     0.210 HD
ENDBRANCH   2   3
ENDBRANCH   1   2
BRANCH   1   5
ATOM      5  C   UNL     1     185.690 201.887 213.665  1.00  0.00     0.190 C 
BRANCH   5   6
ATOM      6  O   UNL     1     186.247 200.683 214.123  1.00  0.00    -0.394 OA
ATOM      7  H   UNL     1     185.651 200.347 214.843  1.00  0.00     0.210 HD
ENDBRANCH   5   6
ENDBRANCH   1   5
BRANCH   1   8
ATOM      8  O   UNL     1     184.228 202.695 211.933  1.00  0.00    -0.388 OA
ATOM      9  H   UNL     1     184.645 203.594 211.873  1.00  0.00     0.211 HD
ENDBRANCH   1   8
TORSDOF 5
ENDMDL
MODEL 3
REMARK VINA RESULT:    -2.277      1.586      2.353
REMARK INTER + INTRA:          -2.966
REMARK INTER:                  -2.743
REMARK INTRA:                  -0.222
REMARK UNBOUND:                -0.223
REMARK SMILES OCC(O)CO
REMARK SMILES IDX 3 1 5 2 6 3 2 5 1 6 4 8
REMARK H PARENT 6 4 1 7 4 9
REMARK Flexibility Score: inf
ROOT
ATOM      1  C   UNL     1     186.027 201.398 211.222  1.00  0.00     0.165 C 
ENDROOT
BRANCH   1   2
ATOM      2  C   UNL     1     186.248 200.073 211.969  1.00  0.00     0.190 C 
BRANCH   2   3
ATOM      3  O   UNL     1     185.608 200.095 213.215  1.00  0.00    -0.394 OA
ATOM      4  H   UNL     1     185.821 199.229 213.649  1.00  0.00     0.210 HD
ENDBRANCH   2   3
ENDBRANCH   1   2
BRANCH   1   5
ATOM      5  C   UNL     1     184.610 201.951 211.436  1.00  0.00     0.190 C 
BRANCH   5   6
ATOM      6  O   UNL     1     184.552 202.800 212.552  1.00  0.00    -0.394 OA
ATOM      7  H   UNL     1     183.633 202.727 212.921  1.00  0.00     0.210 HD
ENDBRANCH   5   6
ENDBRANCH   1   5
BRANCH   1   8
ATOM      8  O   UNL     1     186.974 202.353 211.627  1.00  0.00    -0.388 OA
ATOM      9  H   UNL     1     186.583 203.245 211.434  1.00  0.00     0.211 HD
ENDBRANCH   1   8
TORSDOF 5
ENDMDL
MODEL 4
REMARK VINA RESULT:    -2.261      1.246      3.150
REMARK INTER + INTRA:          -2.947
REMARK INTER:                  -2.727
REMARK INTRA:                  -0.220
REMARK UNBOUND:                -0.223
REMARK SMILES OCC(O)CO
REMARK SMILES IDX 3 1 5 2 6 3 2 5 1 6 4 8
REMARK H PARENT 6 4 1 7 4 9
REMARK Flexibility Score: inf
ROOT
ATOM      1  C   UNL     1     185.668 200.738 212.086  1.00  0.00     0.165 C 
ENDROOT
BRANCH   1   2
ATOM      2  C   UNL     1     184.788 199.979 211.079  1.00  0.00     0.190 C 
BRANCH   2   3
ATOM      3  O   UNL     1     185.109 200.347 209.766  1.00  0.00    -0.394 OA
ATOM      4  H   UNL     1     184.386 200.956 209.467  1.00  0.00     0.210 HD
ENDBRANCH   2   3
ENDBRANCH   1   2
BRANCH   1   5
ATOM      5  C   UNL     1     185.189 202.182 212.299  1.00  0.00     0.190 C 
BRANCH   5   6
ATOM      6  O   UNL     1     183.985 202.428 211.620  1.00  0.00    -0.394 OA
ATOM      7  H   UNL     1     183.604 201.542 211.382  1.00  0.00     0.210 HD
ENDBRANCH   5   6
ENDBRANCH   1   5
BRANCH   1   8
ATOM      8  O   UNL     1     185.700 200.062 213.316  1.00  0.00    -0.388 OA
ATOM      9  H   UNL     1     186.340 199.310 213.214  1.00  0.00     0.211 HD
ENDBRANCH   1   8
TORSDOF 5
ENDMDL
MODEL 5
REMARK VINA RESULT:    -2.253      1.327      2.784
REMARK INTER + INTRA:          -2.937
REMARK INTER:                  -2.721
REMARK INTRA:                  -0.216
REMARK UNBOUND:                -0.223
REMARK SMILES OCC(O)CO
REMARK SMILES IDX 3 1 5 2 6 3 2 5 1 6 4 8
REMARK H PARENT 6 4 1 7 4 9
REMARK Flexibility Score: inf
ROOT
ATOM      1  C   UNL     1     185.921 200.859 212.099  1.00  0.00     0.165 C 
ENDROOT
BRANCH   1   2
ATOM      2  C   UNL     1     184.736 201.703 211.602  1.00  0.00     0.190 C 
BRANCH   2   3
ATOM      3  O   UNL     1     184.523 202.800 212.446  1.00  0.00    -0.394 OA
ATOM      4  H   UNL     1     184.351 202.424 213.348  1.00  0.00     0.210 HD
ENDBRANCH   2   3
ENDBRANCH   1   2
BRANCH   1   5
ATOM      5  C   UNL     1     187.046 201.729 212.680  1.00  0.00     0.190 C 
BRANCH   5   6
ATOM      6  O   UNL     1     186.914 201.880 214.069  1.00  0.00    -0.394 OA
ATOM      7  H   UNL     1     186.115 201.355 214.339  1.00  0.00     0.210 HD
ENDBRANCH   5   6
ENDBRANCH   1   5
BRANCH   1   8
ATOM      8  O   UNL     1     185.493 199.933 213.064  1.00  0.00    -0.388 OA
ATOM      9  H   UNL     1     184.565 200.186 213.312  1.00  0.00     0.211 HD
ENDBRANCH   1   8
TORSDOF 5
ENDMDL
MODEL 6
REMARK VINA RESULT:    -2.223      1.579      2.528
REMARK INTER + INTRA:          -2.900
REMARK INTER:                  -2.680
REMARK INTRA:                  -0.220
REMARK UNBOUND:                -0.223
REMARK SMILES OCC(O)CO
REMARK SMILES IDX 3 1 5 2 6 3 2 5 1 6 4 8
REMARK H PARENT 6 4 1 7 4 9
REMARK Flexibility Score: inf
ROOT
ATOM      1  C   UNL     1     185.480 200.674 211.701  1.00  0.00     0.165 C 
ENDROOT
BRANCH   1   2
ATOM      2  C   UNL     1     184.495 201.831 211.466  1.00  0.00     0.190 C 
BRANCH   2   3
ATOM      3  O   UNL     1     184.574 202.766 212.506  1.00  0.00    -0.394 OA
ATOM      4  H   UNL     1     184.779 202.248 213.327  1.00  0.00     0.210 HD
ENDBRANCH   2   3
ENDBRANCH   1   2
BRANCH   1   5
ATOM      5  C   UNL     1     186.898 201.016 211.217  1.00  0.00     0.190 C 
BRANCH   5   6
ATOM      6  O   UNL     1     187.163 202.390 211.336  1.00  0.00    -0.394 OA
ATOM      7  H   UNL     1     186.331 202.814 211.672  1.00  0.00     0.210 HD
ENDBRANCH   5   6
ENDBRANCH   1   5
BRANCH   1   8
ATOM      8  O   UNL     1     185.514 200.329 213.062  1.00  0.00    -0.388 OA
ATOM      9  H   UNL     1     185.304 199.360 213.117  1.00  0.00     0.211 HD
ENDBRANCH   1   8
TORSDOF 5
ENDMDL
MODEL 7
REMARK VINA RESULT:    -2.209      1.110      2.408
REMARK INTER + INTRA:          -2.883
REMARK INTER:                  -2.665
REMARK INTRA:                  -0.219
REMARK UNBOUND:                -0.223
REMARK SMILES OCC(O)CO
REMARK SMILES IDX 3 1 5 2 6 3 2 5 1 6 4 8
REMARK H PARENT 6 4 1 7 4 9
REMARK Flexibility Score: inf
ROOT
ATOM      1  C   UNL     1     185.393 200.483 212.366  1.00  0.00     0.165 C 
ENDROOT
BRANCH   1   2
ATOM      2  C   UNL     1     185.398 202.011 212.531  1.00  0.00     0.190 C 
BRANCH   2   3
ATOM      3  O   UNL     1     184.281 202.579 211.904  1.00  0.00    -0.394 OA
ATOM      4  H   UNL     1     183.655 201.831 211.728  1.00  0.00     0.210 HD
ENDBRANCH   2   3
ENDBRANCH   1   2
BRANCH   1   5
ATOM      5  C   UNL     1     185.907 200.049 210.984  1.00  0.00     0.190 C 
BRANCH   5   6
ATOM      6  O   UNL     1     184.995 200.382 209.970  1.00  0.00    -0.394 OA
ATOM      7  H   UNL     1     184.138 200.609 210.419  1.00  0.00     0.210 HD
ENDBRANCH   5   6
ENDBRANCH   1   5
BRANCH   1   8
ATOM      8  O   UNL     1     186.166 199.879 213.370  1.00  0.00    -0.388 OA
ATOM      9  H   UNL     1     186.780 199.244 212.917  1.00  0.00     0.211 HD
ENDBRANCH   1   8
TORSDOF 5
ENDMDL
MODEL 8
REMARK VINA RESULT:    -2.144      1.542      2.703
REMARK INTER + INTRA:          -2.805
REMARK INTER:                  -2.592
REMARK INTRA:                  -0.213
REMARK UNBOUND:                -0.223
REMARK SMILES OCC(O)CO
REMARK SMILES IDX 3 1 5 2 6 3 2 5 1 6 4 8
REMARK H PARENT 6 4 1 7 4 9
REMARK Flexibility Score: inf
ROOT
ATOM      1  C   UNL     1     186.127 201.180 213.209  1.00  0.00     0.165 C 
ENDROOT
BRANCH   1   2
ATOM      2  C   UNL     1     187.526 201.722 212.875  1.00  0.00     0.190 C 
BRANCH   2   3
ATOM      3  O   UNL     1     187.499 202.452 211.679  1.00  0.00    -0.394 OA
ATOM      4  H   UNL     1     188.430 202.757 211.523  1.00  0.00     0.210 HD
ENDBRANCH   2   3
ENDBRANCH   1   2
BRANCH   1   5
ATOM      5  C   UNL     1     185.121 201.440 212.077  1.00  0.00     0.190 C 
BRANCH   5   6
ATOM      6  O   UNL     1     184.509 202.696 212.214  1.00  0.00    -0.394 OA
ATOM      7  H   UNL     1     184.806 203.245 211.441  1.00  0.00     0.210 HD
ENDBRANCH   5   6
ENDBRANCH   1   5
BRANCH   1   8
ATOM      8  O   UNL     1     186.187 199.804 213.483  1.00  0.00    -0.388 OA
ATOM      9  H   UNL     1     186.549 199.365 212.669  1.00  0.00     0.211 HD
ENDBRANCH   1   8
TORSDOF 5
ENDMDL
MODEL 9
REMARK VINA RESULT:    -1.965      1.859      2.544
REMARK INTER + INTRA:          -2.590
REMARK INTER:                  -2.369
REMARK INTRA:                  -0.222
REMARK UNBOUND:                -0.223
REMARK SMILES OCC(O)CO
REMARK SMILES IDX 3 1 5 2 6 3 2 5 1 6 4 8
REMARK H PARENT 6 4 1 7 4 9
REMARK Flexibility Score: inf
ROOT
ATOM      1  C   UNL     1     185.066 201.574 211.899  1.00  0.00     0.165 C 
ENDROOT
BRANCH   1   2
ATOM      2  C   UNL     1     184.627 200.592 210.800  1.00  0.00     0.190 C 
BRANCH   2   3
ATOM      3  O   UNL     1     185.646 199.669 210.528  1.00  0.00    -0.394 OA
ATOM      4  H   UNL     1     186.417 200.199 210.201  1.00  0.00     0.210 HD
ENDBRANCH   2   3
ENDBRANCH   1   2
BRANCH   1   5
ATOM      5  C   UNL     1     186.516 202.042 211.709  1.00  0.00     0.190 C 
BRANCH   5   6
ATOM      6  O   UNL     1     186.758 202.440 210.385  1.00  0.00    -0.394 OA
ATOM      7  H   UNL     1     187.726 202.653 210.321  1.00  0.00     0.210 HD
ENDBRANCH   5   6
ENDBRANCH   1   5
BRANCH   1   8
ATOM      8  O   UNL     1     184.209 202.685 211.933  1.00  0.00    -0.388 OA
ATOM      9  H   UNL     1     184.727 203.435 212.326  1.00  0.00     0.211 HD
ENDBRANCH   1   8
TORSDOF 5
ENDMDL
