MODEL 1
REMARK VINA RESULT:    -4.004      0.000      0.000
REMARK INTER + INTRA:          -5.380
REMARK INTER:                  -5.175
REMARK INTRA:                  -0.205
REMARK UNBOUND:                -0.205
REMARK SMILES CCCCCCC(=O)[O-]
REMARK SMILES IDX 5 1 6 2 7 3 8 4 9 5 4 6 3 7 2 8 1 9
REMARK H PARENT
REMARK Flexibility Score: inf
ROOT
ATOM      1  C   UNL     1      12.298   3.962  38.778  1.00  0.00     0.006 C 
ENDROOT
BRANCH   1   2
ATOM      2  C   UNL     1      11.618   5.228  38.233  1.00  0.00     0.053 C 
BRANCH   2   3
ATOM      3  C   UNL     1      11.759   6.390  39.168  1.00  0.00     0.041 C 
ATOM      4  O   UNL     1      10.789   6.743  39.889  1.00  0.00    -0.550 OA
ATOM      5  O   UNL     1      12.949   7.104  39.215  1.00  0.00    -0.550 OA
ENDBRANCH   2   3
ENDBRANCH   1   2
BRANCH   1   6
ATOM      6  C   UNL     1      12.125   2.717  37.888  1.00  0.00     0.000 C 
BRANCH   6   7
ATOM      7  C   UNL     1      11.351   3.011  36.595  1.00  0.00    -0.000 C 
BRANCH   7   8
ATOM      8  C   UNL     1      12.147   2.558  35.365  1.00  0.00    -0.003 C 
ATOM      9  C   UNL     1      13.100   1.418  35.715  1.00  0.00     0.004 C 
ENDBRANCH   7   8
ENDBRANCH   6   7
ENDBRANCH   1   6
TORSDOF 5
ENDMDL
MODEL 2
REMARK VINA RESULT:    -3.964     16.742     17.689
REMARK INTER + INTRA:          -5.328
REMARK INTER:                  -5.033
REMARK INTRA:                  -0.295
REMARK UNBOUND:                -0.205
REMARK SMILES CCCCCCC(=O)[O-]
REMARK SMILES IDX 5 1 6 2 7 3 8 4 9 5 4 6 3 7 2 8 1 9
REMARK H PARENT
REMARK Flexibility Score: inf
ROOT
ATOM      1  C   UNL     1      25.104  -5.955  40.342  1.00  0.00     0.006 C 
ENDROOT
BRANCH   1   2
ATOM      2  C   UNL     1      26.599  -5.716  40.075  1.00  0.00     0.053 C 
BRANCH   2   3
ATOM      3  C   UNL     1      27.277  -6.939  39.537  1.00  0.00     0.041 C 
ATOM      4  O   UNL     1      26.702  -8.057  39.591  1.00  0.00    -0.550 OA
ATOM      5  O   UNL     1      28.558  -6.848  39.009  1.00  0.00    -0.550 OA
ENDBRANCH   2   3
ENDBRANCH   1   2
BRANCH   1   6
ATOM      6  C   UNL     1      24.171  -5.428  39.236  1.00  0.00     0.000 C 
BRANCH   6   7
ATOM      7  C   UNL     1      23.236  -6.512  38.680  1.00  0.00    -0.000 C 
BRANCH   7   8
ATOM      8  C   UNL     1      23.135  -7.697  39.646  1.00  0.00    -0.003 C 
ATOM      9  C   UNL     1      21.681  -7.998  40.000  1.00  0.00     0.004 C 
ENDBRANCH   7   8
ENDBRANCH   6   7
ENDBRANCH   1   6
TORSDOF 5
ENDMDL
MODEL 3
REMARK VINA RESULT:    -3.961      1.530      1.964
REMARK INTER + INTRA:          -5.324
REMARK INTER:                  -4.982
REMARK INTRA:                  -0.342
REMARK UNBOUND:                -0.205
REMARK SMILES CCCCCCC(=O)[O-]
REMARK SMILES IDX 5 1 6 2 7 3 8 4 9 5 4 6 3 7 2 8 1 9
REMARK H PARENT
REMARK Flexibility Score: inf
ROOT
ATOM      1  C   UNL     1      12.516   4.512  39.472  1.00  0.00     0.006 C 
ENDROOT
BRANCH   1   2
ATOM      2  C   UNL     1      11.969   5.855  39.982  1.00  0.00     0.053 C 
BRANCH   2   3
ATOM      3  C   UNL     1      10.755   6.294  39.223  1.00  0.00     0.041 C 
ATOM      4  O   UNL     1       9.881   7.006  39.784  1.00  0.00    -0.550 OA
ATOM      5  O   UNL     1      10.572   5.887  37.908  1.00  0.00    -0.550 OA
ENDBRANCH   2   3
ENDBRANCH   1   2
BRANCH   1   6
ATOM      6  C   UNL     1      11.704   3.284  39.924  1.00  0.00     0.000 C 
BRANCH   6   7
ATOM      7  C   UNL     1      11.253   2.402  38.751  1.00  0.00    -0.000 C 
BRANCH   7   8
ATOM      8  C   UNL     1      12.228   2.516  37.574  1.00  0.00    -0.003 C 
ATOM      9  C   UNL     1      11.495   2.865  36.281  1.00  0.00     0.004 C 
ENDBRANCH   7   8
ENDBRANCH   6   7
ENDBRANCH   1   6
TORSDOF 5
ENDMDL
MODEL 4
REMARK VINA RESULT:    -3.960      2.728      4.438
REMARK INTER + INTRA:          -5.323
REMARK INTER:                  -4.950
REMARK INTRA:                  -0.373
REMARK UNBOUND:                -0.205
REMARK SMILES CCCCCCC(=O)[O-]
REMARK SMILES IDX 5 1 6 2 7 3 8 4 9 5 4 6 3 7 2 8 1 9
REMARK H PARENT
REMARK Flexibility Score: inf
ROOT
ATOM      1  C   UNL     1      11.571   2.284  38.969  1.00  0.00     0.006 C 
ENDROOT
BRANCH   1   2
ATOM      2  C   UNL     1      12.358   2.363  37.652  1.00  0.00     0.053 C 
BRANCH   2   3
ATOM      3  C   UNL     1      11.477   2.705  36.489  1.00  0.00     0.041 C 
ATOM      4  O   UNL     1      11.972   2.840  35.339  1.00  0.00    -0.550 OA
ATOM      5  O   UNL     1      10.117   2.909  36.682  1.00  0.00    -0.550 OA
ENDBRANCH   2   3
ENDBRANCH   1   2
BRANCH   1   6
ATOM      6  C   UNL     1      11.651   3.557  39.833  1.00  0.00     0.000 C 
BRANCH   6   7
ATOM      7  C   UNL     1      12.835   4.459  39.456  1.00  0.00    -0.000 C 
BRANCH   7   8
ATOM      8  C   UNL     1      12.360   5.882  39.139  1.00  0.00    -0.003 C 
ATOM      9  C   UNL     1      10.977   5.870  38.494  1.00  0.00     0.004 C 
ENDBRANCH   7   8
ENDBRANCH   6   7
ENDBRANCH   1   6
TORSDOF 5
ENDMDL
MODEL 5
REMARK VINA RESULT:    -3.944      3.032      4.981
REMARK INTER + INTRA:          -5.302
REMARK INTER:                  -5.112
REMARK INTRA:                  -0.190
REMARK UNBOUND:                -0.205
REMARK SMILES CCCCCCC(=O)[O-]
REMARK SMILES IDX 5 1 6 2 7 3 8 4 9 5 4 6 3 7 2 8 1 9
REMARK H PARENT
REMARK Flexibility Score: inf
ROOT
ATOM      1  C   UNL     1      11.558   3.718  38.485  1.00  0.00     0.006 C 
ENDROOT
BRANCH   1   2
ATOM      2  C   UNL     1      10.948   3.146  37.195  1.00  0.00     0.053 C 
BRANCH   2   3
ATOM      3  C   UNL     1      11.982   2.512  36.316  1.00  0.00     0.041 C 
ATOM      4  O   UNL     1      12.131   2.904  35.129  1.00  0.00    -0.550 OA
ATOM      5  O   UNL     1      12.757   1.464  36.797  1.00  0.00    -0.550 OA
ENDBRANCH   2   3
ENDBRANCH   1   2
BRANCH   1   6
ATOM      6  C   UNL     1      11.733   5.248  38.478  1.00  0.00     0.000 C 
BRANCH   6   7
ATOM      7  C   UNL     1      10.409   5.999  38.277  1.00  0.00    -0.000 C 
BRANCH   7   8
ATOM      8  C   UNL     1      10.037   6.798  39.531  1.00  0.00    -0.003 C 
ATOM      9  C   UNL     1      11.266   7.078  40.392  1.00  0.00     0.004 C 
ENDBRANCH   7   8
ENDBRANCH   6   7
ENDBRANCH   1   6
TORSDOF 5
ENDMDL
MODEL 6
REMARK VINA RESULT:    -3.875     15.468     16.979
REMARK INTER + INTRA:          -5.213
REMARK INTER:                  -5.017
REMARK INTRA:                  -0.196
REMARK UNBOUND:                -0.205
REMARK SMILES CCCCCCC(=O)[O-]
REMARK SMILES IDX 5 1 6 2 7 3 8 4 9 5 4 6 3 7 2 8 1 9
REMARK H PARENT
REMARK Flexibility Score: inf
ROOT
ATOM      1  C   UNL     1      23.558  -6.614  38.595  1.00  0.00     0.006 C 
ENDROOT
BRANCH   1   2
ATOM      2  C   UNL     1      22.160  -6.708  39.227  1.00  0.00     0.053 C 
BRANCH   2   3
ATOM      3  C   UNL     1      21.809  -8.113  39.610  1.00  0.00     0.041 C 
ATOM      4  O   UNL     1      22.267  -9.083  38.950  1.00  0.00    -0.550 OA
ATOM      5  O   UNL     1      20.948  -8.350  40.674  1.00  0.00    -0.550 OA
ENDBRANCH   2   3
ENDBRANCH   1   2
BRANCH   1   6
ATOM      6  C   UNL     1      24.410  -5.440  39.113  1.00  0.00     0.000 C 
BRANCH   6   7
ATOM      7  C   UNL     1      25.257  -5.813  40.338  1.00  0.00    -0.000 C 
BRANCH   7   8
ATOM      8  C   UNL     1      26.077  -7.081  40.071  1.00  0.00    -0.003 C 
ATOM      9  C   UNL     1      27.484  -6.737  39.590  1.00  0.00     0.004 C 
ENDBRANCH   7   8
ENDBRANCH   6   7
ENDBRANCH   1   6
TORSDOF 5
ENDMDL
MODEL 7
REMARK VINA RESULT:    -3.820     15.306     16.879
REMARK INTER + INTRA:          -5.141
REMARK INTER:                  -4.918
REMARK INTRA:                  -0.223
REMARK UNBOUND:                -0.205
REMARK SMILES CCCCCCC(=O)[O-]
REMARK SMILES IDX 5 1 6 2 7 3 8 4 9 5 4 6 3 7 2 8 1 9
REMARK H PARENT
REMARK Flexibility Score: inf
ROOT
ATOM      1  C   UNL     1      24.000  -7.143  39.988  1.00  0.00     0.006 C 
ENDROOT
BRANCH   1   2
ATOM      2  C   UNL     1      22.923  -7.765  39.086  1.00  0.00     0.053 C 
BRANCH   2   3
ATOM      3  C   UNL     1      21.543  -7.549  39.626  1.00  0.00     0.041 C 
ATOM      4  O   UNL     1      20.811  -6.642  39.148  1.00  0.00    -0.550 OA
ATOM      5  O   UNL     1      21.078  -8.325  40.679  1.00  0.00    -0.550 OA
ENDBRANCH   2   3
ENDBRANCH   1   2
BRANCH   1   6
ATOM      6  C   UNL     1      24.345  -5.681  39.649  1.00  0.00     0.000 C 
BRANCH   6   7
ATOM      7  C   UNL     1      25.838  -5.473  39.355  1.00  0.00    -0.000 C 
BRANCH   7   8
ATOM      8  C   UNL     1      26.700  -6.418  40.201  1.00  0.00    -0.003 C 
ATOM      9  C   UNL     1      27.696  -7.182  39.333  1.00  0.00     0.004 C 
ENDBRANCH   7   8
ENDBRANCH   6   7
ENDBRANCH   1   6
TORSDOF 5
ENDMDL
MODEL 8
REMARK VINA RESULT:    -3.798     10.808     11.845
REMARK INTER + INTRA:          -5.114
REMARK INTER:                  -4.954
REMARK INTRA:                  -0.160
REMARK UNBOUND:                -0.205
REMARK SMILES CCCCCCC(=O)[O-]
REMARK SMILES IDX 5 1 6 2 7 3 8 4 9 5 4 6 3 7 2 8 1 9
REMARK H PARENT
REMARK Flexibility Score: inf
ROOT
ATOM      1  C   UNL     1      20.056  -0.980  44.075  1.00  0.00     0.006 C 
ENDROOT
BRANCH   1   2
ATOM      2  C   UNL     1      20.761   0.386  44.088  1.00  0.00     0.053 C 
BRANCH   2   3
ATOM      3  C   UNL     1      22.253   0.249  44.116  1.00  0.00     0.041 C 
ATOM      4  O   UNL     1      22.920   0.780  45.043  1.00  0.00    -0.550 OA
ATOM      5  O   UNL     1      22.908  -0.433  43.100  1.00  0.00    -0.550 OA
ENDBRANCH   2   3
ENDBRANCH   1   2
BRANCH   1   6
ATOM      6  C   UNL     1      18.529  -0.906  44.262  1.00  0.00     0.000 C 
BRANCH   6   7
ATOM      7  C   UNL     1      18.122  -0.479  45.680  1.00  0.00    -0.000 C 
BRANCH   7   8
ATOM      8  C   UNL     1      16.627  -0.146  45.744  1.00  0.00    -0.003 C 
ATOM      9  C   UNL     1      15.990  -0.203  44.358  1.00  0.00     0.004 C 
ENDBRANCH   7   8
ENDBRANCH   6   7
ENDBRANCH   1   6
TORSDOF 5
ENDMDL
MODEL 9
REMARK VINA RESULT:    -3.667      1.881      2.792
REMARK INTER + INTRA:          -4.944
REMARK INTER:                  -4.669
REMARK INTRA:                  -0.275
REMARK UNBOUND:                -0.205
REMARK SMILES CCCCCCC(=O)[O-]
REMARK SMILES IDX 5 1 6 2 7 3 8 4 9 5 4 6 3 7 2 8 1 9
REMARK H PARENT
REMARK Flexibility Score: inf
ROOT
ATOM      1  C   UNL     1      11.312   4.752  37.738  1.00  0.00     0.006 C 
ENDROOT
BRANCH   1   2
ATOM      2  C   UNL     1      10.619   5.974  38.363  1.00  0.00     0.053 C 
BRANCH   2   3
ATOM      3  C   UNL     1      11.517   6.706  39.312  1.00  0.00     0.041 C 
ATOM      4  O   UNL     1      11.029   7.341  40.284  1.00  0.00    -0.550 OA
ATOM      5  O   UNL     1      12.890   6.717  39.103  1.00  0.00    -0.550 OA
ENDBRANCH   2   3
ENDBRANCH   1   2
BRANCH   1   6
ATOM      6  C   UNL     1      11.347   3.509  38.647  1.00  0.00     0.000 C 
BRANCH   6   7
ATOM      7  C   UNL     1      12.766   2.961  38.854  1.00  0.00    -0.000 C 
BRANCH   7   8
ATOM      8  C   UNL     1      13.289   3.307  40.253  1.00  0.00    -0.003 C 
ATOM      9  C   UNL     1      13.233   2.094  41.178  1.00  0.00     0.004 C 
ENDBRANCH   7   8
ENDBRANCH   6   7
ENDBRANCH   1   6
TORSDOF 5
ENDMDL
