MODEL 1
REMARK VINA RESULT:    -6.435      0.000      0.000
REMARK INTER + INTRA:          -7.081
REMARK INTER:                  -6.812
REMARK INTRA:                  -0.269
REMARK UNBOUND:                -0.269
REMARK SMILES CC1=CC[C@@H]2[C@H]3[C@H](C(C)C)CC[C@]2(C)[C@@H]13
REMARK SMILES IDX 1 1 2 2 3 3 4 4 5 5 6 6 15 7 13 8 12 9 11 10 7 11 14 12 8 13
REMARK SMILES IDX 9 14 10 15
REMARK H PARENT
REMARK Flexibility Score: inf
ROOT
ATOM      1  C   UNL     1       5.304   6.031  10.875  1.00  0.00     0.039 C 
ATOM      2  C   UNL     1       6.123   6.097  12.129  1.00  0.00    -0.073 C 
ATOM      3  C   UNL     1       7.133   5.217  12.358  1.00  0.00    -0.027 C 
ATOM      4  C   UNL     1       7.952   5.348  13.648  1.00  0.00     0.031 C 
ATOM      5  C   UNL     1       7.405   6.525  14.522  1.00  0.00     0.003 C 
ATOM      6  C   UNL     1       5.865   6.395  14.567  1.00  0.00     0.004 C 
ATOM      7  C   UNL     1       5.853   7.144  13.213  1.00  0.00     0.024 C 
ATOM      8  C   UNL     1       7.180   7.798  13.674  1.00  0.00    -0.022 C 
ATOM      9  C   UNL     1       6.910   8.991  14.635  1.00  0.00     0.008 C 
ATOM     10  C   UNL     1       5.649   8.774  15.507  1.00  0.00     0.005 C 
ATOM     11  C   UNL     1       5.286   7.267  15.727  1.00  0.00    -0.005 C 
ATOM     12  C   UNL     1       8.236   8.179  12.608  1.00  0.00     0.012 C 
ENDROOT
BRANCH  11  13
ATOM     13  C   UNL     1       3.745   7.074  15.915  1.00  0.00    -0.014 C 
ATOM     14  C   UNL     1       2.952   8.161  15.163  1.00  0.00     0.007 C 
ATOM     15  C   UNL     1       3.328   7.097  17.397  1.00  0.00     0.007 C 
ENDBRANCH  11  13
TORSDOF 1
ENDMDL
MODEL 2
REMARK VINA RESULT:    -6.187     13.646     15.507
REMARK INTER + INTRA:          -6.818
REMARK INTER:                  -6.382
REMARK INTRA:                  -0.436
REMARK UNBOUND:                -0.269
REMARK SMILES CC1=CC[C@@H]2[C@H]3[C@H](C(C)C)CC[C@]2(C)[C@@H]13
REMARK SMILES IDX 1 1 2 2 3 3 4 4 5 5 6 6 15 7 13 8 12 9 11 10 7 11 14 12 8 13
REMARK SMILES IDX 9 14 10 15
REMARK H PARENT
REMARK Flexibility Score: inf
ROOT
ATOM      1  C   UNL     1      12.009   4.317  30.850  1.00  0.00     0.039 C 
ATOM      2  C   UNL     1      11.053   4.616  29.735  1.00  0.00    -0.073 C 
ATOM      3  C   UNL     1       9.980   3.817  29.495  1.00  0.00    -0.027 C 
ATOM      4  C   UNL     1       9.023   4.185  28.356  1.00  0.00     0.031 C 
ATOM      5  C   UNL     1       9.522   5.473  27.620  1.00  0.00     0.003 C 
ATOM      6  C   UNL     1      11.037   5.304  27.363  1.00  0.00     0.004 C 
ATOM      7  C   UNL     1      11.247   5.819  28.808  1.00  0.00     0.024 C 
ATOM      8  C   UNL     1       9.909   6.580  28.627  1.00  0.00    -0.022 C 
ATOM      9  C   UNL     1      10.124   7.907  27.844  1.00  0.00     0.008 C 
ATOM     10  C   UNL     1      11.262   7.799  26.798  1.00  0.00     0.005 C 
ATOM     11  C   UNL     1      11.519   6.338  26.296  1.00  0.00    -0.005 C 
ATOM     12  C   UNL     1       9.007   6.812  29.863  1.00  0.00     0.012 C 
ENDROOT
BRANCH  11  13
ATOM     13  C   UNL     1      13.015   6.132  25.889  1.00  0.00    -0.014 C 
ATOM     14  C   UNL     1      13.473   4.687  26.167  1.00  0.00     0.007 C 
ATOM     15  C   UNL     1      13.962   7.099  26.625  1.00  0.00     0.007 C 
ENDBRANCH  11  13
TORSDOF 1
ENDMDL
MODEL 3
REMARK VINA RESULT:    -5.717      1.265      4.860
REMARK INTER + INTRA:          -6.320
REMARK INTER:                  -6.169
REMARK INTRA:                  -0.151
REMARK UNBOUND:                -0.269
REMARK SMILES CC1=CC[C@@H]2[C@H]3[C@H](C(C)C)CC[C@]2(C)[C@@H]13
REMARK SMILES IDX 1 1 2 2 3 3 4 4 5 5 6 6 15 7 13 8 12 9 11 10 7 11 14 12 8 13
REMARK SMILES IDX 9 14 10 15
REMARK H PARENT
REMARK Flexibility Score: inf
ROOT
ATOM      1  C   UNL     1       5.721  10.125  17.033  1.00  0.00     0.039 C 
ATOM      2  C   UNL     1       5.196   8.753  16.738  1.00  0.00    -0.073 C 
ATOM      3  C   UNL     1       4.667   7.974  17.719  1.00  0.00    -0.027 C 
ATOM      4  C   UNL     1       4.124   6.588  17.353  1.00  0.00     0.031 C 
ATOM      5  C   UNL     1       4.332   6.307  15.828  1.00  0.00     0.003 C 
ATOM      6  C   UNL     1       5.781   6.713  15.473  1.00  0.00     0.004 C 
ATOM      7  C   UNL     1       5.245   8.158  15.328  1.00  0.00     0.024 C 
ATOM      8  C   UNL     1       3.882   7.511  14.968  1.00  0.00    -0.022 C 
ATOM      9  C   UNL     1       3.850   7.069  13.477  1.00  0.00     0.008 C 
ATOM     10  C   UNL     1       5.240   6.615  12.965  1.00  0.00     0.005 C 
ATOM     11  C   UNL     1       6.190   6.097  14.097  1.00  0.00    -0.005 C 
ATOM     12  C   UNL     1       2.579   8.253  15.350  1.00  0.00     0.012 C 
ENDROOT
BRANCH  11  13
ATOM     13  C   UNL     1       7.691   6.357  13.742  1.00  0.00    -0.014 C 
ATOM     14  C   UNL     1       8.284   7.477  14.617  1.00  0.00     0.007 C 
ATOM     15  C   UNL     1       7.888   6.732  12.261  1.00  0.00     0.007 C 
ENDBRANCH  11  13
TORSDOF 1
ENDMDL
MODEL 4
REMARK VINA RESULT:    -5.438     12.403     13.676
REMARK INTER + INTRA:          -6.026
REMARK INTER:                  -5.720
REMARK INTRA:                  -0.305
REMARK UNBOUND:                -0.269
REMARK SMILES CC1=CC[C@@H]2[C@H]3[C@H](C(C)C)CC[C@]2(C)[C@@H]13
REMARK SMILES IDX 1 1 2 2 3 3 4 4 5 5 6 6 15 7 13 8 12 9 11 10 7 11 14 12 8 13
REMARK SMILES IDX 9 14 10 15
REMARK H PARENT
REMARK Flexibility Score: inf
ROOT
ATOM      1  C   UNL     1      17.220   7.092  23.998  1.00  0.00     0.039 C 
ATOM      2  C   UNL     1      16.025   7.962  24.246  1.00  0.00    -0.073 C 
ATOM      3  C   UNL     1      16.164   9.277  24.560  1.00  0.00    -0.027 C 
ATOM      4  C   UNL     1      14.905  10.124  24.779  1.00  0.00     0.031 C 
ATOM      5  C   UNL     1      13.622   9.241  24.625  1.00  0.00     0.003 C 
ATOM      6  C   UNL     1      13.855   7.939  25.425  1.00  0.00     0.004 C 
ATOM      7  C   UNL     1      14.598   7.411  24.174  1.00  0.00     0.024 C 
ATOM      8  C   UNL     1      13.692   8.365  23.354  1.00  0.00    -0.022 C 
ATOM      9  C   UNL     1      12.292   7.732  23.111  1.00  0.00     0.008 C 
ATOM     10  C   UNL     1      11.840   6.829  24.284  1.00  0.00     0.005 C 
ATOM     11  C   UNL     1      12.497   7.201  25.656  1.00  0.00    -0.005 C 
ATOM     12  C   UNL     1      14.249   8.987  22.050  1.00  0.00     0.012 C 
ENDROOT
BRANCH  11  13
ATOM     13  C   UNL     1      12.643   5.945  26.576  1.00  0.00    -0.014 C 
ATOM     14  C   UNL     1      11.391   5.749  27.453  1.00  0.00     0.007 C 
ATOM     15  C   UNL     1      13.878   6.029  27.493  1.00  0.00     0.007 C 
ENDBRANCH  11  13
TORSDOF 1
ENDMDL
MODEL 5
REMARK VINA RESULT:    -5.421     10.065     11.525
REMARK INTER + INTRA:          -6.007
REMARK INTER:                  -5.702
REMARK INTRA:                  -0.305
REMARK UNBOUND:                -0.269
REMARK SMILES CC1=CC[C@@H]2[C@H]3[C@H](C(C)C)CC[C@]2(C)[C@@H]13
REMARK SMILES IDX 1 1 2 2 3 3 4 4 5 5 6 6 15 7 13 8 12 9 11 10 7 11 14 12 8 13
REMARK SMILES IDX 9 14 10 15
REMARK H PARENT
REMARK Flexibility Score: inf
ROOT
ATOM      1  C   UNL     1       9.569   8.782  23.626  1.00  0.00     0.039 C 
ATOM      2  C   UNL     1      10.665   8.306  22.721  1.00  0.00    -0.073 C 
ATOM      3  C   UNL     1      10.505   7.206  21.939  1.00  0.00    -0.027 C 
ATOM      4  C   UNL     1      11.652   6.781  21.015  1.00  0.00     0.031 C 
ATOM      5  C   UNL     1      12.877   7.737  21.193  1.00  0.00     0.003 C 
ATOM      6  C   UNL     1      13.105   7.924  22.710  1.00  0.00     0.004 C 
ATOM      7  C   UNL     1      12.016   9.023  22.646  1.00  0.00     0.024 C 
ATOM      8  C   UNL     1      12.440   9.220  21.168  1.00  0.00    -0.022 C 
ATOM      9  C   UNL     1      13.713  10.109  21.067  1.00  0.00     0.008 C 
ATOM     10  C   UNL     1      14.666   9.916  22.272  1.00  0.00     0.005 C 
ATOM     11  C   UNL     1      14.526   8.521  22.970  1.00  0.00    -0.005 C 
ATOM     12  C   UNL     1      11.375   9.666  20.138  1.00  0.00     0.012 C 
ENDROOT
BRANCH  11  13
ATOM     13  C   UNL     1      14.873   8.609  24.492  1.00  0.00    -0.014 C 
ATOM     14  C   UNL     1      16.378   8.379  24.734  1.00  0.00     0.007 C 
ATOM     15  C   UNL     1      14.079   7.593  25.335  1.00  0.00     0.007 C 
ENDBRANCH  11  13
TORSDOF 1
ENDMDL
MODEL 6
REMARK VINA RESULT:    -5.409      1.691      3.012
REMARK INTER + INTRA:          -5.995
REMARK INTER:                  -5.753
REMARK INTRA:                  -0.242
REMARK UNBOUND:                -0.269
REMARK SMILES CC1=CC[C@@H]2[C@H]3[C@H](C(C)C)CC[C@]2(C)[C@@H]13
REMARK SMILES IDX 1 1 2 2 3 3 4 4 5 5 6 6 15 7 13 8 12 9 11 10 7 11 14 12 8 13
REMARK SMILES IDX 9 14 10 15
REMARK H PARENT
REMARK Flexibility Score: inf
ROOT
ATOM      1  C   UNL     1       7.870   4.126  14.472  1.00  0.00     0.039 C 
ATOM      2  C   UNL     1       7.526   5.572  14.283  1.00  0.00    -0.073 C 
ATOM      3  C   UNL     1       8.204   6.348  13.396  1.00  0.00    -0.027 C 
ATOM      4  C   UNL     1       7.793   7.815  13.229  1.00  0.00     0.031 C 
ATOM      5  C   UNL     1       6.619   8.166  14.202  1.00  0.00     0.003 C 
ATOM      6  C   UNL     1       6.981   7.595  15.592  1.00  0.00     0.004 C 
ATOM      7  C   UNL     1       6.411   6.247  15.087  1.00  0.00     0.024 C 
ATOM      8  C   UNL     1       5.508   7.092  14.151  1.00  0.00    -0.022 C 
ATOM      9  C   UNL     1       4.264   7.631  14.915  1.00  0.00     0.008 C 
ATOM     10  C   UNL     1       4.568   7.929  16.404  1.00  0.00     0.005 C 
ATOM     11  C   UNL     1       6.075   8.240  16.690  1.00  0.00    -0.005 C 
ATOM     12  C   UNL     1       5.099   6.506  12.778  1.00  0.00     0.012 C 
ENDROOT
BRANCH  11  13
ATOM     13  C   UNL     1       6.482   7.807  18.137  1.00  0.00    -0.014 C 
ATOM     14  C   UNL     1       5.245   7.420  18.970  1.00  0.00     0.007 C 
ATOM     15  C   UNL     1       7.253   8.911  18.884  1.00  0.00     0.007 C 
ENDBRANCH  11  13
TORSDOF 1
ENDMDL
MODEL 7
REMARK VINA RESULT:    -5.333     12.210     13.638
REMARK INTER + INTRA:          -5.914
REMARK INTER:                  -5.608
REMARK INTRA:                  -0.306
REMARK UNBOUND:                -0.269
REMARK SMILES CC1=CC[C@@H]2[C@H]3[C@H](C(C)C)CC[C@]2(C)[C@@H]13
REMARK SMILES IDX 1 1 2 2 3 3 4 4 5 5 6 6 15 7 13 8 12 9 11 10 7 11 14 12 8 13
REMARK SMILES IDX 9 14 10 15
REMARK H PARENT
REMARK Flexibility Score: inf
ROOT
ATOM      1  C   UNL     1      10.884   6.755  23.099  1.00  0.00     0.039 C 
ATOM      2  C   UNL     1      11.593   6.940  24.406  1.00  0.00    -0.073 C 
ATOM      3  C   UNL     1      12.950   6.924  24.480  1.00  0.00    -0.027 C 
ATOM      4  C   UNL     1      13.621   7.141  25.841  1.00  0.00     0.031 C 
ATOM      5  C   UNL     1      12.540   7.312  26.960  1.00  0.00     0.003 C 
ATOM      6  C   UNL     1      11.484   6.201  26.761  1.00  0.00     0.004 C 
ATOM      7  C   UNL     1      10.827   7.136  25.718  1.00  0.00     0.024 C 
ATOM      8  C   UNL     1      11.438   8.308  26.528  1.00  0.00    -0.022 C 
ATOM      9  C   UNL     1      10.562   8.645  27.769  1.00  0.00     0.008 C 
ATOM     10  C   UNL     1       9.865   7.393  28.357  1.00  0.00     0.005 C 
ATOM     11  C   UNL     1      10.611   6.052  28.048  1.00  0.00    -0.005 C 
ATOM     12  C   UNL     1      11.852   9.598  25.781  1.00  0.00     0.012 C 
ENDROOT
BRANCH  11  13
ATOM     13  C   UNL     1       9.613   4.851  27.964  1.00  0.00    -0.014 C 
ATOM     14  C   UNL     1       9.380   4.222  29.351  1.00  0.00     0.007 C 
ATOM     15  C   UNL     1      10.097   3.752  27.000  1.00  0.00     0.007 C 
ENDBRANCH  11  13
TORSDOF 1
ENDMDL
MODEL 8
REMARK VINA RESULT:    -5.185     11.953     13.536
REMARK INTER + INTRA:          -5.758
REMARK INTER:                  -5.477
REMARK INTRA:                  -0.280
REMARK UNBOUND:                -0.269
REMARK SMILES CC1=CC[C@@H]2[C@H]3[C@H](C(C)C)CC[C@]2(C)[C@@H]13
REMARK SMILES IDX 1 1 2 2 3 3 4 4 5 5 6 6 15 7 13 8 12 9 11 10 7 11 14 12 8 13
REMARK SMILES IDX 9 14 10 15
REMARK H PARENT
REMARK Flexibility Score: inf
ROOT
ATOM      1  C   UNL     1      11.306   6.779  22.037  1.00  0.00     0.039 C 
ATOM      2  C   UNL     1      11.515   7.608  23.268  1.00  0.00    -0.073 C 
ATOM      3  C   UNL     1      10.654   8.607  23.599  1.00  0.00    -0.027 C 
ATOM      4  C   UNL     1      10.906   9.407  24.882  1.00  0.00     0.031 C 
ATOM      5  C   UNL     1      12.211   8.909  25.587  1.00  0.00     0.003 C 
ATOM      6  C   UNL     1      13.305   8.780  24.502  1.00  0.00     0.004 C 
ATOM      7  C   UNL     1      12.710   7.384  24.198  1.00  0.00     0.024 C 
ATOM      8  C   UNL     1      12.247   7.366  25.677  1.00  0.00    -0.022 C 
ATOM      9  C   UNL     1      13.411   6.953  26.621  1.00  0.00     0.008 C 
ATOM     10  C   UNL     1      14.791   7.429  26.102  1.00  0.00     0.005 C 
ATOM     11  C   UNL     1      14.714   8.684  25.170  1.00  0.00    -0.005 C 
ATOM     12  C   UNL     1      10.947   6.611  26.044  1.00  0.00     0.012 C 
ENDROOT
BRANCH  11  13
ATOM     13  C   UNL     1      15.878   8.689  24.125  1.00  0.00    -0.014 C 
ATOM     14  C   UNL     1      16.513   7.291  23.993  1.00  0.00     0.007 C 
ATOM     15  C   UNL     1      16.983   9.700  24.482  1.00  0.00     0.007 C 
ENDBRANCH  11  13
TORSDOF 1
ENDMDL
MODEL 9
REMARK VINA RESULT:    -5.131      3.221      5.734
REMARK INTER + INTRA:          -5.700
REMARK INTER:                  -5.473
REMARK INTRA:                  -0.228
REMARK UNBOUND:                -0.269
REMARK SMILES CC1=CC[C@@H]2[C@H]3[C@H](C(C)C)CC[C@]2(C)[C@@H]13
REMARK SMILES IDX 1 1 2 2 3 3 4 4 5 5 6 6 15 7 13 8 12 9 11 10 7 11 14 12 8 13
REMARK SMILES IDX 9 14 10 15
REMARK H PARENT
REMARK Flexibility Score: inf
ROOT
ATOM      1  C   UNL     1       4.092   6.332  15.736  1.00  0.00     0.039 C 
ATOM      2  C   UNL     1       4.352   7.624  16.449  1.00  0.00    -0.073 C 
ATOM      3  C   UNL     1       4.977   8.658  15.827  1.00  0.00    -0.027 C 
ATOM      4  C   UNL     1       5.195   9.964  16.600  1.00  0.00     0.031 C 
ATOM      5  C   UNL     1       4.653   9.830  18.061  1.00  0.00     0.003 C 
ATOM      6  C   UNL     1       5.157   8.480  18.622  1.00  0.00     0.004 C 
ATOM      7  C   UNL     1       3.944   7.835  17.910  1.00  0.00     0.024 C 
ATOM      8  C   UNL     1       3.239   9.205  18.080  1.00  0.00    -0.022 C 
ATOM      9  C   UNL     1       2.651   9.355  19.513  1.00  0.00     0.008 C 
ATOM     10  C   UNL     1       3.504   8.629  20.581  1.00  0.00     0.005 C 
ATOM     11  C   UNL     1       5.007   8.455  20.177  1.00  0.00    -0.005 C 
ATOM     12  C   UNL     1       2.212   9.655  17.014  1.00  0.00     0.012 C 
ENDROOT
BRANCH  11  13
ATOM     13  C   UNL     1       5.625   7.171  20.821  1.00  0.00    -0.014 C 
ATOM     14  C   UNL     1       5.278   7.077  22.320  1.00  0.00     0.007 C 
ATOM     15  C   UNL     1       7.156   7.115  20.666  1.00  0.00     0.007 C 
ENDBRANCH  11  13
TORSDOF 1
ENDMDL
