MODEL 1
REMARK VINA RESULT:    -5.335      0.000      0.000
REMARK INTER + INTRA:          -9.833
REMARK INTER:                  -8.454
REMARK INTRA:                  -1.379
REMARK UNBOUND:                -1.379
REMARK SMILES CCCCCCCCCCCC(=O)[O-]
REMARK SMILES IDX 7 1 8 2 9 3 10 4 11 5 12 6 13 7 14 8 6 9 5 10 4 11 3 12 2 13
REMARK SMILES IDX 1 14
REMARK H PARENT
REMARK Flexibility Score: inf
ROOT
ATOM      1  C   UNL     1     -18.110  -9.543   0.621  1.00  0.00     0.000 C 
ENDROOT
BRANCH   1   2
ATOM      2  C   UNL     1     -19.054  -9.602  -0.592  1.00  0.00     0.000 C 
BRANCH   2   3
ATOM      3  C   UNL     1     -18.474 -10.415  -1.765  1.00  0.00     0.000 C 
BRANCH   3   4
ATOM      4  C   UNL     1     -17.319 -11.365  -1.397  1.00  0.00     0.006 C 
BRANCH   4   5
ATOM      5  C   UNL     1     -16.673 -12.026  -2.621  1.00  0.00     0.053 C 
BRANCH   5   6
ATOM      6  C   UNL     1     -16.992 -13.486  -2.657  1.00  0.00     0.041 C 
ATOM      7  O   UNL     1     -17.244 -14.053  -3.753  1.00  0.00    -0.550 OA
ATOM      8  O   UNL     1     -17.061 -14.212  -1.475  1.00  0.00    -0.550 OA
ENDBRANCH   5   6
ENDBRANCH   4   5
ENDBRANCH   3   4
ENDBRANCH   2   3
ENDBRANCH   1   2
BRANCH   1   9
ATOM      9  C   UNL     1     -17.799  -8.103   1.066  1.00  0.00     0.000 C 
BRANCH   9  10
ATOM     10  C   UNL     1     -16.349  -7.637   0.820  1.00  0.00    -0.000 C 
BRANCH  10  11
ATOM     11  C   UNL     1     -15.660  -8.259  -0.410  1.00  0.00    -0.000 C 
BRANCH  11  12
ATOM     12  C   UNL     1     -16.028  -7.610  -1.756  1.00  0.00    -0.000 C 
BRANCH  12  13
ATOM     13  C   UNL     1     -15.534  -8.420  -2.963  1.00  0.00    -0.003 C 
ATOM     14  C   UNL     1     -16.499  -8.300  -4.139  1.00  0.00     0.004 C 
ENDBRANCH  12  13
ENDBRANCH  11  12
ENDBRANCH  10  11
ENDBRANCH   9  10
ENDBRANCH   1   9
TORSDOF 10
ENDMDL
MODEL 2
REMARK VINA RESULT:    -5.273      1.467      1.887
REMARK INTER + INTRA:          -9.734
REMARK INTER:                  -8.109
REMARK INTRA:                  -1.625
REMARK UNBOUND:                -1.379
REMARK SMILES CCCCCCCCCCCC(=O)[O-]
REMARK SMILES IDX 7 1 8 2 9 3 10 4 11 5 12 6 13 7 14 8 6 9 5 10 4 11 3 12 2 13
REMARK SMILES IDX 1 14
REMARK H PARENT
REMARK Flexibility Score: inf
ROOT
ATOM      1  C   UNL     1     -18.982  -9.128  -0.341  1.00  0.00     0.000 C 
ENDROOT
BRANCH   1   2
ATOM      2  C   UNL     1     -19.044 -10.637  -0.632  1.00  0.00     0.000 C 
BRANCH   2   3
ATOM      3  C   UNL     1     -18.115 -11.064  -1.784  1.00  0.00     0.000 C 
BRANCH   3   4
ATOM      4  C   UNL     1     -16.860 -11.848  -1.359  1.00  0.00     0.006 C 
BRANCH   4   5
ATOM      5  C   UNL     1     -16.895 -12.285   0.111  1.00  0.00     0.053 C 
BRANCH   5   6
ATOM      6  C   UNL     1     -16.288 -13.643   0.268  1.00  0.00     0.041 C 
ATOM      7  O   UNL     1     -16.397 -14.495  -0.653  1.00  0.00    -0.550 OA
ATOM      8  O   UNL     1     -15.643 -13.984   1.450  1.00  0.00    -0.550 OA
ENDBRANCH   5   6
ENDBRANCH   4   5
ENDBRANCH   3   4
ENDBRANCH   2   3
ENDBRANCH   1   2
BRANCH   1   9
ATOM      9  C   UNL     1     -18.253  -8.802   0.975  1.00  0.00     0.000 C 
BRANCH   9  10
ATOM     10  C   UNL     1     -16.970  -7.959   0.825  1.00  0.00    -0.000 C 
BRANCH  10  11
ATOM     11  C   UNL     1     -15.690  -8.760   0.517  1.00  0.00    -0.000 C 
BRANCH  11  12
ATOM     12  C   UNL     1     -15.159  -8.605  -0.919  1.00  0.00    -0.000 C 
BRANCH  12  13
ATOM     13  C   UNL     1     -15.986  -7.620  -1.757  1.00  0.00    -0.003 C 
ATOM     14  C   UNL     1     -16.322  -8.209  -3.125  1.00  0.00     0.004 C 
ENDBRANCH  12  13
ENDBRANCH  11  12
ENDBRANCH  10  11
ENDBRANCH   9  10
ENDBRANCH   1   9
TORSDOF 10
ENDMDL
MODEL 3
REMARK VINA RESULT:    -5.255      1.325      1.887
REMARK INTER + INTRA:          -9.705
REMARK INTER:                  -8.388
REMARK INTRA:                  -1.318
REMARK UNBOUND:                -1.379
REMARK SMILES CCCCCCCCCCCC(=O)[O-]
REMARK SMILES IDX 7 1 8 2 9 3 10 4 11 5 12 6 13 7 14 8 6 9 5 10 4 11 3 12 2 13
REMARK SMILES IDX 1 14
REMARK H PARENT
REMARK Flexibility Score: inf
ROOT
ATOM      1  C   UNL     1     -17.882  -8.003   1.242  1.00  0.00     0.000 C 
ENDROOT
BRANCH   1   2
ATOM      2  C   UNL     1     -18.280  -9.417   0.787  1.00  0.00     0.000 C 
BRANCH   2   3
ATOM      3  C   UNL     1     -18.996  -9.430  -0.577  1.00  0.00     0.000 C 
BRANCH   3   4
ATOM      4  C   UNL     1     -18.727 -10.670  -1.448  1.00  0.00     0.006 C 
BRANCH   4   5
ATOM      5  C   UNL     1     -18.688 -11.974  -0.640  1.00  0.00     0.053 C 
BRANCH   5   6
ATOM      6  C   UNL     1     -17.357 -12.641  -0.788  1.00  0.00     0.041 C 
ATOM      7  O   UNL     1     -17.064 -13.634  -0.070  1.00  0.00    -0.550 OA
ATOM      8  O   UNL     1     -16.422 -12.136  -1.681  1.00  0.00    -0.550 OA
ENDBRANCH   5   6
ENDBRANCH   4   5
ENDBRANCH   3   4
ENDBRANCH   2   3
ENDBRANCH   1   2
BRANCH   1   9
ATOM      9  C   UNL     1     -16.447  -7.626   0.833  1.00  0.00     0.000 C 
BRANCH   9  10
ATOM     10  C   UNL     1     -15.567  -8.801   0.361  1.00  0.00    -0.000 C 
BRANCH  10  11
ATOM     11  C   UNL     1     -15.237  -8.811  -1.145  1.00  0.00    -0.000 C 
BRANCH  11  12
ATOM     12  C   UNL     1     -16.014  -7.782  -1.985  1.00  0.00    -0.000 C 
BRANCH  12  13
ATOM     13  C   UNL     1     -16.493  -8.351  -3.328  1.00  0.00    -0.003 C 
ATOM     14  C   UNL     1     -15.442  -9.269  -3.943  1.00  0.00     0.004 C 
ENDBRANCH  12  13
ENDBRANCH  11  12
ENDBRANCH  10  11
ENDBRANCH   9  10
ENDBRANCH   1   9
TORSDOF 10
ENDMDL
MODEL 4
REMARK VINA RESULT:    -5.225      3.202      5.713
REMARK INTER + INTRA:          -9.659
REMARK INTER:                  -8.020
REMARK INTRA:                  -1.639
REMARK UNBOUND:                -1.379
REMARK SMILES CCCCCCCCCCCC(=O)[O-]
REMARK SMILES IDX 7 1 8 2 9 3 10 4 11 5 12 6 13 7 14 8 6 9 5 10 4 11 3 12 2 13
REMARK SMILES IDX 1 14
REMARK H PARENT
REMARK Flexibility Score: inf
ROOT
ATOM      1  C   UNL     1     -18.651 -12.984  -1.035  1.00  0.00     0.000 C 
ENDROOT
BRANCH   1   2
ATOM      2  C   UNL     1     -18.273 -11.518  -0.764  1.00  0.00     0.000 C 
BRANCH   2   3
ATOM      3  C   UNL     1     -17.399 -10.908  -1.875  1.00  0.00     0.000 C 
BRANCH   3   4
ATOM      4  C   UNL     1     -15.981 -10.493  -1.442  1.00  0.00     0.006 C 
BRANCH   4   5
ATOM      5  C   UNL     1     -15.894 -10.115   0.042  1.00  0.00     0.053 C 
BRANCH   5   6
ATOM      6  C   UNL     1     -15.901  -8.628   0.204  1.00  0.00     0.041 C 
ATOM      7  O   UNL     1     -15.968  -8.117   1.353  1.00  0.00    -0.550 OA
ATOM      8  O   UNL     1     -15.884  -7.807  -0.916  1.00  0.00    -0.550 OA
ENDBRANCH   5   6
ENDBRANCH   4   5
ENDBRANCH   3   4
ENDBRANCH   2   3
ENDBRANCH   1   2
BRANCH   1   9
ATOM      9  C   UNL     1     -18.321 -13.430  -2.471  1.00  0.00     0.000 C 
BRANCH   9  10
ATOM     10  C   UNL     1     -17.201 -14.484  -2.592  1.00  0.00    -0.000 C 
BRANCH  10  11
ATOM     11  C   UNL     1     -16.402 -14.744  -1.300  1.00  0.00    -0.000 C 
BRANCH  11  12
ATOM     12  C   UNL     1     -14.994 -14.124  -1.273  1.00  0.00    -0.000 C 
BRANCH  12  13
ATOM     13  C   UNL     1     -14.591 -13.622   0.121  1.00  0.00    -0.003 C 
ATOM     14  C   UNL     1     -15.722 -13.820   1.125  1.00  0.00     0.004 C 
ENDBRANCH  12  13
ENDBRANCH  11  12
ENDBRANCH  10  11
ENDBRANCH   9  10
ENDBRANCH   1   9
TORSDOF 10
ENDMDL
MODEL 5
REMARK VINA RESULT:    -5.206      3.132      5.414
REMARK INTER + INTRA:          -9.628
REMARK INTER:                  -8.172
REMARK INTRA:                  -1.456
REMARK UNBOUND:                -1.379
REMARK SMILES CCCCCCCCCCCC(=O)[O-]
REMARK SMILES IDX 7 1 8 2 9 3 10 4 11 5 12 6 13 7 14 8 6 9 5 10 4 11 3 12 2 13
REMARK SMILES IDX 1 14
REMARK H PARENT
REMARK Flexibility Score: inf
ROOT
ATOM      1  C   UNL     1     -18.619 -12.898  -0.915  1.00  0.00     0.000 C 
ENDROOT
BRANCH   1   2
ATOM      2  C   UNL     1     -18.727 -11.370  -0.784  1.00  0.00     0.000 C 
BRANCH   2   3
ATOM      3  C   UNL     1     -17.563 -10.752   0.013  1.00  0.00     0.000 C 
BRANCH   3   4
ATOM      4  C   UNL     1     -16.488 -10.047  -0.835  1.00  0.00     0.006 C 
BRANCH   4   5
ATOM      5  C   UNL     1     -16.905  -9.864  -2.299  1.00  0.00     0.053 C 
BRANCH   5   6
ATOM      6  C   UNL     1     -16.646  -8.459  -2.745  1.00  0.00     0.041 C 
ATOM      7  O   UNL     1     -16.773  -8.147  -3.958  1.00  0.00    -0.550 OA
ATOM      8  O   UNL     1     -16.216  -7.508  -1.830  1.00  0.00    -0.550 OA
ENDBRANCH   5   6
ENDBRANCH   4   5
ENDBRANCH   3   4
ENDBRANCH   2   3
ENDBRANCH   1   2
BRANCH   1   9
ATOM      9  C   UNL     1     -18.338 -13.356  -2.357  1.00  0.00     0.000 C 
BRANCH   9  10
ATOM     10  C   UNL     1     -17.226 -14.415  -2.507  1.00  0.00    -0.000 C 
BRANCH  10  11
ATOM     11  C   UNL     1     -16.400 -14.683  -1.234  1.00  0.00    -0.000 C 
BRANCH  11  12
ATOM     12  C   UNL     1     -15.016 -14.010  -1.206  1.00  0.00    -0.000 C 
BRANCH  12  13
ATOM     13  C   UNL     1     -14.746 -13.259   0.106  1.00  0.00    -0.003 C 
ATOM     14  C   UNL     1     -15.635 -13.779   1.231  1.00  0.00     0.004 C 
ENDBRANCH  12  13
ENDBRANCH  11  12
ENDBRANCH  10  11
ENDBRANCH   9  10
ENDBRANCH   1   9
TORSDOF 10
ENDMDL
MODEL 6
REMARK VINA RESULT:    -5.194      2.422      4.466
REMARK INTER + INTRA:          -9.610
REMARK INTER:                  -8.312
REMARK INTRA:                  -1.298
REMARK UNBOUND:                -1.379
REMARK SMILES CCCCCCCCCCCC(=O)[O-]
REMARK SMILES IDX 7 1 8 2 9 3 10 4 11 5 12 6 13 7 14 8 6 9 5 10 4 11 3 12 2 13
REMARK SMILES IDX 1 14
REMARK H PARENT
REMARK Flexibility Score: inf
ROOT
ATOM      1  C   UNL     1     -17.905  -9.028   0.817  1.00  0.00     0.000 C 
ENDROOT
BRANCH   1   2
ATOM      2  C   UNL     1     -16.835  -7.978   0.477  1.00  0.00     0.000 C 
BRANCH   2   3
ATOM      3  C   UNL     1     -15.643  -8.566  -0.301  1.00  0.00     0.000 C 
BRANCH   3   4
ATOM      4  C   UNL     1     -15.436  -7.994  -1.716  1.00  0.00     0.006 C 
BRANCH   4   5
ATOM      5  C   UNL     1     -16.597  -8.313  -2.667  1.00  0.00     0.053 C 
BRANCH   5   6
ATOM      6  C   UNL     1     -16.084  -8.576  -4.048  1.00  0.00     0.041 C 
ATOM      7  O   UNL     1     -15.112  -9.356  -4.224  1.00  0.00    -0.550 OA
ATOM      8  O   UNL     1     -16.649  -7.921  -5.135  1.00  0.00    -0.550 OA
ENDBRANCH   5   6
ENDBRANCH   4   5
ENDBRANCH   3   4
ENDBRANCH   2   3
ENDBRANCH   1   2
BRANCH   1   9
ATOM      9  C   UNL     1     -19.035  -9.090  -0.226  1.00  0.00     0.000 C 
BRANCH   9  10
ATOM     10  C   UNL     1     -19.105 -10.397  -1.044  1.00  0.00    -0.000 C 
BRANCH  10  11
ATOM     11  C   UNL     1     -19.086 -11.694  -0.211  1.00  0.00    -0.000 C 
BRANCH  11  12
ATOM     12  C   UNL     1     -18.059 -12.744  -0.671  1.00  0.00    -0.000 C 
BRANCH  12  13
ATOM     13  C   UNL     1     -16.609 -12.316  -0.402  1.00  0.00    -0.003 C 
ATOM     14  C   UNL     1     -15.881 -11.991  -1.703  1.00  0.00     0.004 C 
ENDBRANCH  12  13
ENDBRANCH  11  12
ENDBRANCH  10  11
ENDBRANCH   9  10
ENDBRANCH   1   9
TORSDOF 10
ENDMDL
MODEL 7
REMARK VINA RESULT:    -5.185      2.908      4.984
REMARK INTER + INTRA:          -9.594
REMARK INTER:                  -8.167
REMARK INTRA:                  -1.427
REMARK UNBOUND:                -1.379
REMARK SMILES CCCCCCCCCCCC(=O)[O-]
REMARK SMILES IDX 7 1 8 2 9 3 10 4 11 5 12 6 13 7 14 8 6 9 5 10 4 11 3 12 2 13
REMARK SMILES IDX 1 14
REMARK H PARENT
REMARK Flexibility Score: inf
ROOT
ATOM      1  C   UNL     1     -18.151 -11.232  -0.318  1.00  0.00     0.000 C 
ENDROOT
BRANCH   1   2
ATOM      2  C   UNL     1     -18.255 -10.318  -1.550  1.00  0.00     0.000 C 
BRANCH   2   3
ATOM      3  C   UNL     1     -17.040 -10.435  -2.489  1.00  0.00     0.000 C 
BRANCH   3   4
ATOM      4  C   UNL     1     -16.647  -9.138  -3.220  1.00  0.00     0.006 C 
BRANCH   4   5
ATOM      5  C   UNL     1     -16.391  -7.966  -2.264  1.00  0.00     0.053 C 
BRANCH   5   6
ATOM      6  C   UNL     1     -15.215  -8.254  -1.386  1.00  0.00     0.041 C 
ATOM      7  O   UNL     1     -14.077  -8.441  -1.893  1.00  0.00    -0.550 OA
ATOM      8  O   UNL     1     -15.383  -8.366  -0.012  1.00  0.00    -0.550 OA
ENDBRANCH   5   6
ENDBRANCH   4   5
ENDBRANCH   3   4
ENDBRANCH   2   3
ENDBRANCH   1   2
BRANCH   1   9
ATOM      9  C   UNL     1     -16.695 -11.540   0.076  1.00  0.00     0.000 C 
BRANCH   9  10
ATOM     10  C   UNL     1     -16.359 -13.038   0.229  1.00  0.00    -0.000 C 
BRANCH  10  11
ATOM     11  C   UNL     1     -17.144 -13.986  -0.699  1.00  0.00    -0.000 C 
BRANCH  11  12
ATOM     12  C   UNL     1     -16.413 -14.374  -1.997  1.00  0.00    -0.000 C 
BRANCH  12  13
ATOM     13  C   UNL     1     -17.242 -14.084  -3.256  1.00  0.00    -0.003 C 
ATOM     14  C   UNL     1     -18.720 -13.918  -2.916  1.00  0.00     0.004 C 
ENDBRANCH  12  13
ENDBRANCH  11  12
ENDBRANCH  10  11
ENDBRANCH   9  10
ENDBRANCH   1   9
TORSDOF 10
ENDMDL
MODEL 8
REMARK VINA RESULT:    -5.183      2.788      5.059
REMARK INTER + INTRA:          -9.592
REMARK INTER:                  -8.343
REMARK INTRA:                  -1.249
REMARK UNBOUND:                -1.379
REMARK SMILES CCCCCCCCCCCC(=O)[O-]
REMARK SMILES IDX 7 1 8 2 9 3 10 4 11 5 12 6 13 7 14 8 6 9 5 10 4 11 3 12 2 13
REMARK SMILES IDX 1 14
REMARK H PARENT
REMARK Flexibility Score: inf
ROOT
ATOM      1  C   UNL     1     -16.769 -11.862  -0.019  1.00  0.00     0.000 C 
ENDROOT
BRANCH   1   2
ATOM      2  C   UNL     1     -18.218 -11.423  -0.288  1.00  0.00     0.000 C 
BRANCH   2   3
ATOM      3  C   UNL     1     -18.324 -10.335  -1.373  1.00  0.00     0.000 C 
BRANCH   3   4
ATOM      4  C   UNL     1     -17.019 -10.037  -2.134  1.00  0.00     0.006 C 
BRANCH   4   5
ATOM      5  C   UNL     1     -17.001  -8.642  -2.772  1.00  0.00     0.053 C 
BRANCH   5   6
ATOM      6  C   UNL     1     -16.233  -8.664  -4.055  1.00  0.00     0.041 C 
ATOM      7  O   UNL     1     -16.612  -7.965  -5.032  1.00  0.00    -0.550 OA
ATOM      8  O   UNL     1     -15.127  -9.493  -4.189  1.00  0.00    -0.550 OA
ENDBRANCH   5   6
ENDBRANCH   4   5
ENDBRANCH   3   4
ENDBRANCH   2   3
ENDBRANCH   1   2
BRANCH   1   9
ATOM      9  C   UNL     1     -16.642 -13.372   0.249  1.00  0.00     0.000 C 
BRANCH   9  10
ATOM     10  C   UNL     1     -16.018 -14.193  -0.898  1.00  0.00    -0.000 C 
BRANCH  10  11
ATOM     11  C   UNL     1     -15.816 -13.427  -2.220  1.00  0.00    -0.000 C 
BRANCH  11  12
ATOM     12  C   UNL     1     -16.690 -13.912  -3.390  1.00  0.00    -0.000 C 
BRANCH  12  13
ATOM     13  C   UNL     1     -17.898 -14.740  -2.928  1.00  0.00    -0.003 C 
ATOM     14  C   UNL     1     -19.175 -13.905  -2.942  1.00  0.00     0.004 C 
ENDBRANCH  12  13
ENDBRANCH  11  12
ENDBRANCH  10  11
ENDBRANCH   9  10
ENDBRANCH   1   9
TORSDOF 10
ENDMDL
MODEL 9
REMARK VINA RESULT:    -5.112      1.747      3.130
REMARK INTER + INTRA:          -9.480
REMARK INTER:                  -8.363
REMARK INTRA:                  -1.116
REMARK UNBOUND:                -1.379
REMARK SMILES CCCCCCCCCCCC(=O)[O-]
REMARK SMILES IDX 7 1 8 2 9 3 10 4 11 5 12 6 13 7 14 8 6 9 5 10 4 11 3 12 2 13
REMARK SMILES IDX 1 14
REMARK H PARENT
REMARK Flexibility Score: inf
ROOT
ATOM      1  C   UNL     1     -18.257 -11.310  -1.745  1.00  0.00     0.000 C 
ENDROOT
BRANCH   1   2
ATOM      2  C   UNL     1     -18.185 -11.824  -0.297  1.00  0.00     0.000 C 
BRANCH   2   3
ATOM      3  C   UNL     1     -16.742 -12.072   0.181  1.00  0.00     0.000 C 
BRANCH   3   4
ATOM      4  C   UNL     1     -16.383 -13.545   0.447  1.00  0.00     0.006 C 
BRANCH   4   5
ATOM      5  C   UNL     1     -16.276 -14.377  -0.838  1.00  0.00     0.053 C 
BRANCH   5   6
ATOM      6  C   UNL     1     -15.197 -13.836  -1.722  1.00  0.00     0.041 C 
ATOM      7  O   UNL     1     -15.486 -13.351  -2.848  1.00  0.00    -0.550 OA
ATOM      8  O   UNL     1     -13.869 -13.912  -1.324  1.00  0.00    -0.550 OA
ENDBRANCH   5   6
ENDBRANCH   4   5
ENDBRANCH   3   4
ENDBRANCH   2   3
ENDBRANCH   1   2
BRANCH   1   9
ATOM      9  C   UNL     1     -18.278  -9.773  -1.833  1.00  0.00     0.000 C 
BRANCH   9  10
ATOM     10  C   UNL     1     -17.048  -9.136  -2.512  1.00  0.00    -0.000 C 
BRANCH  10  11
ATOM     11  C   UNL     1     -16.369  -8.006  -1.713  1.00  0.00    -0.000 C 
BRANCH  11  12
ATOM     12  C   UNL     1     -15.781  -8.434  -0.357  1.00  0.00    -0.000 C 
BRANCH  12  13
ATOM     13  C   UNL     1     -16.351  -7.631   0.820  1.00  0.00    -0.003 C 
ATOM     14  C   UNL     1     -17.712  -8.173   1.248  1.00  0.00     0.004 C 
ENDBRANCH  12  13
ENDBRANCH  11  12
ENDBRANCH  10  11
ENDBRANCH   9  10
ENDBRANCH   1   9
TORSDOF 10
ENDMDL
