MODEL 1
REMARK VINA RESULT:    -4.965      0.000      0.000
REMARK INTER + INTRA:          -8.132
REMARK INTER:                  -7.577
REMARK INTRA:                  -0.555
REMARK UNBOUND:                -0.555
REMARK SMILES O=C([O-])CCCCCCCCC(=O)[O-]
REMARK SMILES IDX 7 1 6 2 5 3 4 4 2 5 1 6 3 7 8 8 9 9 10 10 11 11 12 12 13 13
REMARK SMILES IDX 14 14
REMARK H PARENT
REMARK Flexibility Score: inf
ROOT
ATOM      1  C   UNL     1       9.782   1.463 -34.766  1.00  0.00     0.000 C 
ENDROOT
BRANCH   1   2
ATOM      2  C   UNL     1       8.303   1.432 -35.167  1.00  0.00     0.000 C 
BRANCH   2   3
ATOM      3  C   UNL     1       8.074   2.182 -36.488  1.00  0.00     0.006 C 
BRANCH   3   4
ATOM      4  C   UNL     1       7.495   1.273 -37.580  1.00  0.00     0.053 C 
BRANCH   4   5
ATOM      5  C   UNL     1       8.422   0.145 -37.911  1.00  0.00     0.041 C 
ATOM      6  O   UNL     1       9.466   0.358 -38.584  1.00  0.00    -0.550 OA
ATOM      7  O   UNL     1       8.151  -1.137 -37.449  1.00  0.00    -0.550 OA
ENDBRANCH   4   5
ENDBRANCH   3   4
ENDBRANCH   2   3
ENDBRANCH   1   2
BRANCH   1   8
ATOM      8  C   UNL     1       9.938   1.466 -33.238  1.00  0.00     0.000 C 
BRANCH   8   9
ATOM      9  C   UNL     1      11.395   1.266 -32.782  1.00  0.00     0.000 C 
BRANCH   9  10
ATOM     10  C   UNL     1      12.191   2.566 -32.546  1.00  0.00     0.006 C 
BRANCH  10  11
ATOM     11  C   UNL     1      13.566   2.605 -33.231  1.00  0.00     0.053 C 
BRANCH  11  12
ATOM     12  C   UNL     1      13.463   2.388 -34.710  1.00  0.00     0.041 C 
ATOM     13  O   UNL     1      13.962   1.358 -35.235  1.00  0.00    -0.550 OA
ATOM     14  O   UNL     1      12.787   3.307 -35.503  1.00  0.00    -0.550 OA
ENDBRANCH  11  12
ENDBRANCH  10  11
ENDBRANCH   9  10
ENDBRANCH   8   9
ENDBRANCH   1   8
TORSDOF 9
ENDMDL
MODEL 2
REMARK VINA RESULT:    -4.815      3.243      4.315
REMARK INTER + INTRA:          -7.904
REMARK INTER:                  -7.322
REMARK INTRA:                  -0.582
REMARK UNBOUND:                -0.555
REMARK SMILES O=C([O-])CCCCCCCCC(=O)[O-]
REMARK SMILES IDX 7 1 6 2 5 3 4 4 2 5 1 6 3 7 8 8 9 9 10 10 11 11 12 12 13 13
REMARK SMILES IDX 14 14
REMARK H PARENT
REMARK Flexibility Score: inf
ROOT
ATOM      1  C   UNL     1       7.337   1.417 -36.260  1.00  0.00     0.000 C 
ENDROOT
BRANCH   1   2
ATOM      2  C   UNL     1       7.078   0.684 -34.939  1.00  0.00     0.000 C 
BRANCH   2   3
ATOM      3  C   UNL     1       6.732   1.675 -33.817  1.00  0.00     0.006 C 
BRANCH   3   4
ATOM      4  C   UNL     1       7.607   1.475 -32.574  1.00  0.00     0.053 C 
BRANCH   4   5
ATOM      5  C   UNL     1       6.781   1.294 -31.337  1.00  0.00     0.041 C 
ATOM      6  O   UNL     1       6.713   2.214 -30.480  1.00  0.00    -0.550 OA
ATOM      7  O   UNL     1       6.061   0.122 -31.147  1.00  0.00    -0.550 OA
ENDBRANCH   4   5
ENDBRANCH   3   4
ENDBRANCH   2   3
ENDBRANCH   1   2
BRANCH   1   8
ATOM      8  C   UNL     1       8.668   2.182 -36.214  1.00  0.00     0.000 C 
BRANCH   8   9
ATOM      9  C   UNL     1       9.819   1.350 -35.620  1.00  0.00     0.000 C 
BRANCH   9  10
ATOM     10  C   UNL     1      11.017   2.170 -35.099  1.00  0.00     0.006 C 
BRANCH  10  11
ATOM     11  C   UNL     1      11.759   1.532 -33.914  1.00  0.00     0.053 C 
BRANCH  11  12
ATOM     12  C   UNL     1      13.214   1.891 -33.904  1.00  0.00     0.041 C 
ATOM     13  O   UNL     1      13.741   2.370 -32.865  1.00  0.00    -0.550 OA
ATOM     14  O   UNL     1      13.994   1.665 -35.031  1.00  0.00    -0.550 OA
ENDBRANCH  11  12
ENDBRANCH  10  11
ENDBRANCH   9  10
ENDBRANCH   8   9
ENDBRANCH   1   8
TORSDOF 9
ENDMDL
MODEL 3
REMARK VINA RESULT:    -4.813      2.951      3.692
REMARK INTER + INTRA:          -7.901
REMARK INTER:                  -7.349
REMARK INTRA:                  -0.552
REMARK UNBOUND:                -0.555
REMARK SMILES O=C([O-])CCCCCCCCC(=O)[O-]
REMARK SMILES IDX 7 1 6 2 5 3 4 4 2 5 1 6 3 7 8 8 9 9 10 10 11 11 12 12 13 13
REMARK SMILES IDX 14 14
REMARK H PARENT
REMARK Flexibility Score: inf
ROOT
ATOM      1  C   UNL     1      11.705   2.199 -34.918  1.00  0.00     0.000 C 
ENDROOT
BRANCH   1   2
ATOM      2  C   UNL     1      10.331   1.523 -34.850  1.00  0.00     0.000 C 
BRANCH   2   3
ATOM      3  C   UNL     1       9.614   1.595 -36.207  1.00  0.00     0.006 C 
BRANCH   3   4
ATOM      4  C   UNL     1       8.230   2.247 -36.100  1.00  0.00     0.053 C 
BRANCH   4   5
ATOM      5  C   UNL     1       7.286   1.412 -35.291  1.00  0.00     0.041 C 
ATOM      6  O   UNL     1       6.929   0.277 -35.704  1.00  0.00    -0.550 OA
ATOM      7  O   UNL     1       6.824   1.874 -34.065  1.00  0.00    -0.550 OA
ENDBRANCH   4   5
ENDBRANCH   3   4
ENDBRANCH   2   3
ENDBRANCH   1   2
BRANCH   1   8
ATOM      8  C   UNL     1      12.688   1.547 -33.934  1.00  0.00     0.000 C 
BRANCH   8   9
ATOM      9  C   UNL     1      13.145   2.504 -32.817  1.00  0.00     0.000 C 
BRANCH   9  10
ATOM     10  C   UNL     1      12.004   3.198 -32.045  1.00  0.00     0.006 C 
BRANCH  10  11
ATOM     11  C   UNL     1      11.786   2.670 -30.618  1.00  0.00     0.053 C 
BRANCH  11  12
ATOM     12  C   UNL     1      10.618   1.736 -30.537  1.00  0.00     0.041 C 
ATOM     13  O   UNL     1       9.749   1.728 -31.449  1.00  0.00    -0.550 OA
ATOM     14  O   UNL     1      10.507   0.851 -29.472  1.00  0.00    -0.550 OA
ENDBRANCH  11  12
ENDBRANCH  10  11
ENDBRANCH   9  10
ENDBRANCH   8   9
ENDBRANCH   1   8
TORSDOF 9
ENDMDL
MODEL 4
REMARK VINA RESULT:    -4.787      1.706      3.068
REMARK INTER + INTRA:          -7.861
REMARK INTER:                  -7.342
REMARK INTRA:                  -0.519
REMARK UNBOUND:                -0.555
REMARK SMILES O=C([O-])CCCCCCCCC(=O)[O-]
REMARK SMILES IDX 7 1 6 2 5 3 4 4 2 5 1 6 3 7 8 8 9 9 10 10 11 11 12 12 13 13
REMARK SMILES IDX 14 14
REMARK H PARENT
REMARK Flexibility Score: inf
ROOT
ATOM      1  C   UNL     1       7.830   1.387 -37.448  1.00  0.00     0.000 C 
ENDROOT
BRANCH   1   2
ATOM      2  C   UNL     1       8.799   0.449 -38.176  1.00  0.00     0.000 C 
BRANCH   2   3
ATOM      3  C   UNL     1       8.130  -0.898 -38.491  1.00  0.00     0.006 C 
BRANCH   3   4
ATOM      4  C   UNL     1       8.553  -2.000 -37.512  1.00  0.00     0.053 C 
BRANCH   4   5
ATOM      5  C   UNL     1       7.419  -2.424 -36.630  1.00  0.00     0.041 C 
ATOM      6  O   UNL     1       6.694  -1.560 -36.069  1.00  0.00    -0.550 OA
ATOM      7  O   UNL     1       7.141  -3.774 -36.455  1.00  0.00    -0.550 OA
ENDBRANCH   4   5
ENDBRANCH   3   4
ENDBRANCH   2   3
ENDBRANCH   1   2
BRANCH   1   8
ATOM      8  C   UNL     1       8.566   2.231 -36.396  1.00  0.00     0.000 C 
BRANCH   8   9
ATOM      9  C   UNL     1       9.543   1.404 -35.540  1.00  0.00     0.000 C 
BRANCH   9  10
ATOM     10  C   UNL     1      10.925   2.053 -35.315  1.00  0.00     0.006 C 
BRANCH  10  11
ATOM     11  C   UNL     1      11.622   1.634 -34.011  1.00  0.00     0.053 C 
BRANCH  11  12
ATOM     12  C   UNL     1      13.088   1.939 -34.036  1.00  0.00     0.041 C 
ATOM     13  O   UNL     1      13.650   2.432 -33.023  1.00  0.00    -0.550 OA
ATOM     14  O   UNL     1      13.841   1.647 -35.168  1.00  0.00    -0.550 OA
ENDBRANCH  11  12
ENDBRANCH  10  11
ENDBRANCH   9  10
ENDBRANCH   8   9
ENDBRANCH   1   8
TORSDOF 9
ENDMDL
MODEL 5
REMARK VINA RESULT:    -4.781      3.982      6.065
REMARK INTER + INTRA:          -7.852
REMARK INTER:                  -7.352
REMARK INTRA:                  -0.499
REMARK UNBOUND:                -0.555
REMARK SMILES O=C([O-])CCCCCCCCC(=O)[O-]
REMARK SMILES IDX 7 1 6 2 5 3 4 4 2 5 1 6 3 7 8 8 9 9 10 10 11 11 12 12 13 13
REMARK SMILES IDX 14 14
REMARK H PARENT
REMARK Flexibility Score: inf
ROOT
ATOM      1  C   UNL     1       7.795   1.783 -35.477  1.00  0.00     0.000 C 
ENDROOT
BRANCH   1   2
ATOM      2  C   UNL     1       9.094   1.082 -35.891  1.00  0.00     0.000 C 
BRANCH   2   3
ATOM      3  C   UNL     1      10.322   1.839 -35.363  1.00  0.00     0.006 C 
BRANCH   3   4
ATOM      4  C   UNL     1      10.683   1.432 -33.930  1.00  0.00     0.053 C 
BRANCH   4   5
ATOM      5  C   UNL     1      12.090   1.813 -33.583  1.00  0.00     0.041 C 
ATOM      6  O   UNL     1      12.312   2.683 -32.700  1.00  0.00    -0.550 OA
ATOM      7  O   UNL     1      13.156   1.184 -34.213  1.00  0.00    -0.550 OA
ENDBRANCH   4   5
ENDBRANCH   3   4
ENDBRANCH   2   3
ENDBRANCH   1   2
BRANCH   1   8
ATOM      8  C   UNL     1       7.091   1.016 -34.348  1.00  0.00     0.000 C 
BRANCH   8   9
ATOM      9  C   UNL     1       6.718   1.912 -33.153  1.00  0.00     0.000 C 
BRANCH   9  10
ATOM     10  C   UNL     1       7.444   1.579 -31.834  1.00  0.00     0.006 C 
BRANCH  10  11
ATOM     11  C   UNL     1       6.637   1.895 -30.565  1.00  0.00     0.053 C 
BRANCH  11  12
ATOM     12  C   UNL     1       6.982   0.971 -29.436  1.00  0.00     0.041 C 
ATOM     13  O   UNL     1       6.086   0.273 -28.893  1.00  0.00    -0.550 OA
ATOM     14  O   UNL     1       8.299   0.858 -29.008  1.00  0.00    -0.550 OA
ENDBRANCH  11  12
ENDBRANCH  10  11
ENDBRANCH   9  10
ENDBRANCH   8   9
ENDBRANCH   1   8
TORSDOF 9
ENDMDL
MODEL 6
REMARK VINA RESULT:    -4.688      3.119      3.614
REMARK INTER + INTRA:          -7.709
REMARK INTER:                  -7.263
REMARK INTRA:                  -0.446
REMARK UNBOUND:                -0.555
REMARK SMILES O=C([O-])CCCCCCCCC(=O)[O-]
REMARK SMILES IDX 7 1 6 2 5 3 4 4 2 5 1 6 3 7 8 8 9 9 10 10 11 11 12 12 13 13
REMARK SMILES IDX 14 14
REMARK H PARENT
REMARK Flexibility Score: inf
ROOT
ATOM      1  C   UNL     1       9.591   1.502 -35.458  1.00  0.00     0.000 C 
ENDROOT
BRANCH   1   2
ATOM      2  C   UNL     1       8.479   2.259 -36.192  1.00  0.00     0.000 C 
BRANCH   2   3
ATOM      3  C   UNL     1       7.368   1.302 -36.648  1.00  0.00     0.006 C 
BRANCH   3   4
ATOM      4  C   UNL     1       7.277   0.053 -35.762  1.00  0.00     0.053 C 
BRANCH   4   5
ATOM      5  C   UNL     1       6.226   0.199 -34.705  1.00  0.00     0.041 C 
ATOM      6  O   UNL     1       6.551   0.496 -33.525  1.00  0.00    -0.550 OA
ATOM      7  O   UNL     1       4.885   0.038 -35.030  1.00  0.00    -0.550 OA
ENDBRANCH   4   5
ENDBRANCH   3   4
ENDBRANCH   2   3
ENDBRANCH   1   2
BRANCH   1   8
ATOM      8  C   UNL     1      10.955   2.170 -35.686  1.00  0.00     0.000 C 
BRANCH   8   9
ATOM      9  C   UNL     1      11.960   1.887 -34.554  1.00  0.00     0.000 C 
BRANCH   9  10
ATOM     10  C   UNL     1      11.340   1.760 -33.147  1.00  0.00     0.006 C 
BRANCH  10  11
ATOM     11  C   UNL     1      11.709   2.899 -32.183  1.00  0.00     0.053 C 
BRANCH  11  12
ATOM     12  C   UNL     1      11.474   2.520 -30.752  1.00  0.00     0.041 C 
ATOM     13  O   UNL     1      12.039   3.160 -29.827  1.00  0.00    -0.550 OA
ATOM     14  O   UNL     1      10.606   1.480 -30.440  1.00  0.00    -0.550 OA
ENDBRANCH  11  12
ENDBRANCH  10  11
ENDBRANCH   9  10
ENDBRANCH   8   9
ENDBRANCH   1   8
TORSDOF 9
ENDMDL
MODEL 7
REMARK VINA RESULT:    -4.606      5.967      7.113
REMARK INTER + INTRA:          -7.584
REMARK INTER:                  -6.869
REMARK INTRA:                  -0.716
REMARK UNBOUND:                -0.555
REMARK SMILES O=C([O-])CCCCCCCCC(=O)[O-]
REMARK SMILES IDX 7 1 6 2 5 3 4 4 2 5 1 6 3 7 8 8 9 9 10 10 11 11 12 12 13 13
REMARK SMILES IDX 14 14
REMARK H PARENT
REMARK Flexibility Score: inf
ROOT
ATOM      1  C   UNL     1       7.740   1.905 -31.599  1.00  0.00     0.000 C 
ENDROOT
BRANCH   1   2
ATOM      2  C   UNL     1       7.186   1.211 -32.848  1.00  0.00     0.000 C 
BRANCH   2   3
ATOM      3  C   UNL     1       5.652   1.158 -32.814  1.00  0.00     0.006 C 
BRANCH   3   4
ATOM      4  C   UNL     1       5.116  -0.269 -32.979  1.00  0.00     0.053 C 
BRANCH   4   5
ATOM      5  C   UNL     1       5.172  -0.721 -34.407  1.00  0.00     0.041 C 
ATOM      6  O   UNL     1       4.795   0.049 -35.331  1.00  0.00    -0.550 OA
ATOM      7  O   UNL     1       5.670  -1.979 -34.719  1.00  0.00    -0.550 OA
ENDBRANCH   4   5
ENDBRANCH   3   4
ENDBRANCH   2   3
ENDBRANCH   1   2
BRANCH   1   8
ATOM      8  C   UNL     1       6.673   1.989 -30.497  1.00  0.00     0.000 C 
BRANCH   8   9
ATOM      9  C   UNL     1       6.936   1.020 -29.330  1.00  0.00     0.000 C 
BRANCH   9  10
ATOM     10  C   UNL     1       6.152  -0.307 -29.393  1.00  0.00     0.006 C 
BRANCH  10  11
ATOM     11  C   UNL     1       6.803  -1.470 -28.628  1.00  0.00     0.053 C 
BRANCH  11  12
ATOM     12  C   UNL     1       6.952  -1.167 -27.168  1.00  0.00     0.041 C 
ATOM     13  O   UNL     1       5.932  -1.029 -26.443  1.00  0.00    -0.550 OA
ATOM     14  O   UNL     1       8.218  -1.072 -26.603  1.00  0.00    -0.550 OA
ENDBRANCH  11  12
ENDBRANCH  10  11
ENDBRANCH   9  10
ENDBRANCH   8   9
ENDBRANCH   1   8
TORSDOF 9
ENDMDL
MODEL 8
REMARK VINA RESULT:    -4.605      2.107      6.550
REMARK INTER + INTRA:          -7.583
REMARK INTER:                  -7.138
REMARK INTRA:                  -0.445
REMARK UNBOUND:                -0.555
REMARK SMILES O=C([O-])CCCCCCCCC(=O)[O-]
REMARK SMILES IDX 7 1 6 2 5 3 4 4 2 5 1 6 3 7 8 8 9 9 10 10 11 11 12 12 13 13
REMARK SMILES IDX 14 14
REMARK H PARENT
REMARK Flexibility Score: inf
ROOT
ATOM      1  C   UNL     1       8.257   1.924 -35.761  1.00  0.00     0.000 C 
ENDROOT
BRANCH   1   2
ATOM      2  C   UNL     1       9.381   1.207 -35.004  1.00  0.00     0.000 C 
BRANCH   2   3
ATOM      3  C   UNL     1      10.738   1.876 -35.269  1.00  0.00     0.006 C 
BRANCH   3   4
ATOM      4  C   UNL     1      11.701   1.727 -34.085  1.00  0.00     0.053 C 
BRANCH   4   5
ATOM      5  C   UNL     1      13.095   2.135 -34.449  1.00  0.00     0.041 C 
ATOM      6  O   UNL     1      13.394   2.368 -35.650  1.00  0.00    -0.550 OA
ATOM      7  O   UNL     1      14.057   2.288 -33.459  1.00  0.00    -0.550 OA
ENDBRANCH   4   5
ENDBRANCH   3   4
ENDBRANCH   2   3
ENDBRANCH   1   2
BRANCH   1   8
ATOM      8  C   UNL     1       7.575   0.977 -36.759  1.00  0.00     0.000 C 
BRANCH   8   9
ATOM      9  C   UNL     1       8.571   0.066 -37.501  1.00  0.00     0.000 C 
BRANCH   9  10
ATOM     10  C   UNL     1       8.246  -1.441 -37.444  1.00  0.00     0.006 C 
BRANCH  10  11
ATOM     11  C   UNL     1       7.116  -1.813 -36.471  1.00  0.00     0.053 C 
BRANCH  11  12
ATOM     12  C   UNL     1       6.846  -3.287 -36.461  1.00  0.00     0.041 C 
ATOM     13  O   UNL     1       7.801  -4.104 -36.392  1.00  0.00    -0.550 OA
ATOM     14  O   UNL     1       5.538  -3.755 -36.495  1.00  0.00    -0.550 OA
ENDBRANCH  11  12
ENDBRANCH  10  11
ENDBRANCH   9  10
ENDBRANCH   8   9
ENDBRANCH   1   8
TORSDOF 9
ENDMDL
MODEL 9
REMARK VINA RESULT:    -4.605      5.142      7.277
REMARK INTER + INTRA:          -7.583
REMARK INTER:                  -7.228
REMARK INTRA:                  -0.355
REMARK UNBOUND:                -0.555
REMARK SMILES O=C([O-])CCCCCCCCC(=O)[O-]
REMARK SMILES IDX 7 1 6 2 5 3 4 4 2 5 1 6 3 7 8 8 9 9 10 10 11 11 12 12 13 13
REMARK SMILES IDX 14 14
REMARK H PARENT
REMARK Flexibility Score: inf
ROOT
ATOM      1  C   UNL     1       6.862   1.826 -32.173  1.00  0.00     0.000 C 
ENDROOT
BRANCH   1   2
ATOM      2  C   UNL     1       6.839   1.815 -30.640  1.00  0.00     0.000 C 
BRANCH   2   3
ATOM      3  C   UNL     1       6.668   0.386 -30.102  1.00  0.00     0.006 C 
BRANCH   3   4
ATOM      4  C   UNL     1       6.794   0.321 -28.575  1.00  0.00     0.053 C 
BRANCH   4   5
ATOM      5  C   UNL     1       5.947  -0.769 -27.994  1.00  0.00     0.041 C 
ATOM      6  O   UNL     1       5.373  -1.597 -28.750  1.00  0.00    -0.550 OA
ATOM      7  O   UNL     1       5.816  -0.889 -26.617  1.00  0.00    -0.550 OA
ENDBRANCH   4   5
ENDBRANCH   3   4
ENDBRANCH   2   3
ENDBRANCH   1   2
BRANCH   1   8
ATOM      8  C   UNL     1       5.764   0.917 -32.747  1.00  0.00     0.000 C 
BRANCH   8   9
ATOM      9  C   UNL     1       6.146   0.295 -34.102  1.00  0.00     0.000 C 
BRANCH   9  10
ATOM     10  C   UNL     1       7.169   1.102 -34.927  1.00  0.00     0.006 C 
BRANCH  10  11
ATOM     11  C   UNL     1       7.784   0.335 -36.109  1.00  0.00     0.053 C 
BRANCH  11  12
ATOM     12  C   UNL     1       8.296   1.259 -37.172  1.00  0.00     0.041 C 
ATOM     13  O   UNL     1       8.195   2.505 -37.030  1.00  0.00    -0.550 OA
ATOM     14  O   UNL     1       8.915   0.741 -38.304  1.00  0.00    -0.550 OA
ENDBRANCH  11  12
ENDBRANCH  10  11
ENDBRANCH   9  10
ENDBRANCH   8   9
ENDBRANCH   1   8
TORSDOF 9
ENDMDL
