MODEL 1
REMARK VINA RESULT:    -3.649      0.000      0.000
REMARK INTER + INTRA:          -5.528
REMARK INTER:                  -5.142
REMARK INTRA:                  -0.386
REMARK UNBOUND:                -0.386
REMARK SMILES C=CCCCCCCC(=O)[O-]
REMARK SMILES IDX 6 1 7 2 8 3 9 4 10 5 11 6 5 7 4 8 3 9 2 10 1 11
REMARK H PARENT
REMARK Flexibility Score: inf
ROOT
ATOM      1  C   UNL     1    -110.353  31.981  27.189  1.00  0.00     0.000 C 
ENDROOT
BRANCH   1   2
ATOM      2  C   UNL     1    -111.251  30.959  27.901  1.00  0.00     0.006 C 
BRANCH   2   3
ATOM      3  C   UNL     1    -110.508  30.211  29.017  1.00  0.00     0.053 C 
BRANCH   3   4
ATOM      4  C   UNL     1    -111.367  30.030  30.230  1.00  0.00     0.041 C 
ATOM      5  O   UNL     1    -111.440  28.906  30.794  1.00  0.00    -0.550 OA
ATOM      6  O   UNL     1    -112.114  31.095  30.718  1.00  0.00    -0.550 OA
ENDBRANCH   3   4
ENDBRANCH   2   3
ENDBRANCH   1   2
BRANCH   1   7
ATOM      7  C   UNL     1    -110.333  31.734  25.674  1.00  0.00     0.000 C 
BRANCH   7   8
ATOM      8  C   UNL     1    -108.922  31.449  25.127  1.00  0.00     0.004 C 
BRANCH   8   9
ATOM      9  C   UNL     1    -107.979  30.784  26.146  1.00  0.00     0.027 C 
BRANCH   9  10
ATOM     10  C   UNL     1    -106.564  31.290  26.055  1.00  0.00    -0.035 C 
ATOM     11  C   UNL     1    -105.786  31.026  25.001  1.00  0.00     0.004 C 
ENDBRANCH   9  10
ENDBRANCH   8   9
ENDBRANCH   7   8
ENDBRANCH   1   7
TORSDOF 7
ENDMDL
MODEL 2
REMARK VINA RESULT:    -3.648     17.068     18.765
REMARK INTER + INTRA:          -5.527
REMARK INTER:                  -5.224
REMARK INTRA:                  -0.303
REMARK UNBOUND:                -0.386
REMARK SMILES C=CCCCCCCC(=O)[O-]
REMARK SMILES IDX 6 1 7 2 8 3 9 4 10 5 11 6 5 7 4 8 3 9 2 10 1 11
REMARK H PARENT
REMARK Flexibility Score: inf
ROOT
ATOM      1  C   UNL     1    -104.864  16.729  16.097  1.00  0.00     0.000 C 
ENDROOT
BRANCH   1   2
ATOM      2  C   UNL     1    -103.844  17.674  15.446  1.00  0.00     0.006 C 
BRANCH   2   3
ATOM      3  C   UNL     1    -104.473  19.012  15.033  1.00  0.00     0.053 C 
BRANCH   3   4
ATOM      4  C   UNL     1    -105.092  18.938  13.671  1.00  0.00     0.041 C 
ATOM      5  O   UNL     1    -104.521  18.300  12.748  1.00  0.00    -0.550 OA
ATOM      6  O   UNL     1    -106.284  19.603  13.413  1.00  0.00    -0.550 OA
ENDBRANCH   3   4
ENDBRANCH   2   3
ENDBRANCH   1   2
BRANCH   1   7
ATOM      7  C   UNL     1    -104.197  15.853  17.167  1.00  0.00     0.000 C 
BRANCH   7   8
ATOM      8  C   UNL     1    -105.030  15.734  18.457  1.00  0.00     0.004 C 
BRANCH   8   9
ATOM      9  C   UNL     1    -105.382  17.087  19.101  1.00  0.00     0.027 C 
BRANCH   9  10
ATOM     10  C   UNL     1    -106.613  17.024  19.965  1.00  0.00    -0.035 C 
ATOM     11  C   UNL     1    -106.578  17.327  21.266  1.00  0.00     0.004 C 
ENDBRANCH   9  10
ENDBRANCH   8   9
ENDBRANCH   7   8
ENDBRANCH   1   7
TORSDOF 7
ENDMDL
MODEL 3
REMARK VINA RESULT:    -3.523     16.192     17.564
REMARK INTER + INTRA:          -5.350
REMARK INTER:                  -5.034
REMARK INTRA:                  -0.316
REMARK UNBOUND:                -0.386
REMARK SMILES C=CCCCCCCC(=O)[O-]
REMARK SMILES IDX 6 1 7 2 8 3 9 4 10 5 11 6 5 7 4 8 3 9 2 10 1 11
REMARK H PARENT
REMARK Flexibility Score: inf
ROOT
ATOM      1  C   UNL     1    -105.030  15.841  18.273  1.00  0.00     0.000 C 
ENDROOT
BRANCH   1   2
ATOM      2  C   UNL     1    -105.295  17.175  18.986  1.00  0.00     0.006 C 
BRANCH   2   3
ATOM      3  C   UNL     1    -106.273  17.021  20.159  1.00  0.00     0.053 C 
BRANCH   3   4
ATOM      4  C   UNL     1    -107.685  17.296  19.744  1.00  0.00     0.041 C 
ATOM      5  O   UNL     1    -108.643  16.964  20.491  1.00  0.00    -0.550 OA
ATOM      6  O   UNL     1    -107.945  17.888  18.514  1.00  0.00    -0.550 OA
ENDBRANCH   3   4
ENDBRANCH   2   3
ENDBRANCH   1   2
BRANCH   1   7
ATOM      7  C   UNL     1    -104.198  16.054  17.000  1.00  0.00     0.000 C 
BRANCH   7   8
ATOM      8  C   UNL     1    -103.887  17.536  16.722  1.00  0.00     0.004 C 
BRANCH   8   9
ATOM      9  C   UNL     1    -103.515  17.833  15.258  1.00  0.00     0.027 C 
BRANCH   9  10
ATOM     10  C   UNL     1    -104.684  18.316  14.441  1.00  0.00    -0.035 C 
ATOM     11  C   UNL     1    -104.679  18.269  13.106  1.00  0.00     0.004 C 
ENDBRANCH   9  10
ENDBRANCH   8   9
ENDBRANCH   7   8
ENDBRANCH   1   7
TORSDOF 7
ENDMDL
MODEL 4
REMARK VINA RESULT:    -3.504     14.852     16.884
REMARK INTER + INTRA:          -5.324
REMARK INTER:                  -4.898
REMARK INTRA:                  -0.426
REMARK UNBOUND:                -0.386
REMARK SMILES C=CCCCCCCC(=O)[O-]
REMARK SMILES IDX 6 1 7 2 8 3 9 4 10 5 11 6 5 7 4 8 3 9 2 10 1 11
REMARK H PARENT
REMARK Flexibility Score: inf
ROOT
ATOM      1  C   UNL     1    -103.099  23.159  14.108  1.00  0.00     0.000 C 
ENDROOT
BRANCH   1   2
ATOM      2  C   UNL     1    -103.126  22.554  15.519  1.00  0.00     0.006 C 
BRANCH   2   3
ATOM      3  C   UNL     1    -102.512  23.494  16.566  1.00  0.00     0.053 C 
BRANCH   3   4
ATOM      4  C   UNL     1    -103.493  24.528  17.025  1.00  0.00     0.041 C 
ATOM      5  O   UNL     1    -104.375  24.234  17.876  1.00  0.00    -0.550 OA
ATOM      6  O   UNL     1    -103.455  25.809  16.488  1.00  0.00    -0.550 OA
ENDBRANCH   3   4
ENDBRANCH   2   3
ENDBRANCH   1   2
BRANCH   1   7
ATOM      7  C   UNL     1    -104.303  22.683  13.282  1.00  0.00     0.000 C 
BRANCH   7   8
ATOM      8  C   UNL     1    -103.898  21.920  12.008  1.00  0.00     0.004 C 
BRANCH   8   9
ATOM      9  C   UNL     1    -104.551  20.532  11.875  1.00  0.00     0.027 C 
BRANCH   9  10
ATOM     10  C   UNL     1    -104.847  19.893  13.205  1.00  0.00    -0.035 C 
ATOM     11  C   UNL     1    -104.772  18.570  13.385  1.00  0.00     0.004 C 
ENDBRANCH   9  10
ENDBRANCH   8   9
ENDBRANCH   7   8
ENDBRANCH   1   7
TORSDOF 7
ENDMDL
MODEL 5
REMARK VINA RESULT:    -3.492     16.910     18.471
REMARK INTER + INTRA:          -5.307
REMARK INTER:                  -4.807
REMARK INTRA:                  -0.499
REMARK UNBOUND:                -0.386
REMARK SMILES C=CCCCCCCC(=O)[O-]
REMARK SMILES IDX 6 1 7 2 8 3 9 4 10 5 11 6 5 7 4 8 3 9 2 10 1 11
REMARK H PARENT
REMARK Flexibility Score: inf
ROOT
ATOM      1  C   UNL     1    -105.364  19.808  12.964  1.00  0.00     0.000 C 
ENDROOT
BRANCH   1   2
ATOM      2  C   UNL     1    -104.611  18.702  13.717  1.00  0.00     0.006 C 
BRANCH   2   3
ATOM      3  C   UNL     1    -104.408  19.042  15.199  1.00  0.00     0.053 C 
BRANCH   3   4
ATOM      4  C   UNL     1    -103.623  17.983  15.910  1.00  0.00     0.041 C 
ATOM      5  O   UNL     1    -103.981  17.584  17.049  1.00  0.00    -0.550 OA
ATOM      6  O   UNL     1    -102.476  17.459  15.327  1.00  0.00    -0.550 OA
ENDBRANCH   3   4
ENDBRANCH   2   3
ENDBRANCH   1   2
BRANCH   1   7
ATOM      7  C   UNL     1    -104.480  20.433  11.875  1.00  0.00     0.000 C 
BRANCH   7   8
ATOM      8  C   UNL     1    -104.515  21.972  11.877  1.00  0.00     0.004 C 
BRANCH   8   9
ATOM      9  C   UNL     1    -103.168  22.627  12.238  1.00  0.00     0.027 C 
BRANCH   9  10
ATOM     10  C   UNL     1    -103.218  23.400  13.528  1.00  0.00    -0.035 C 
ATOM     11  C   UNL     1    -103.287  22.790  14.715  1.00  0.00     0.004 C 
ENDBRANCH   9  10
ENDBRANCH   8   9
ENDBRANCH   7   8
ENDBRANCH   1   7
TORSDOF 7
ENDMDL
MODEL 6
REMARK VINA RESULT:    -3.465     16.929     18.315
REMARK INTER + INTRA:          -5.269
REMARK INTER:                  -4.632
REMARK INTRA:                  -0.637
REMARK UNBOUND:                -0.386
REMARK SMILES C=CCCCCCCC(=O)[O-]
REMARK SMILES IDX 6 1 7 2 8 3 9 4 10 5 11 6 5 7 4 8 3 9 2 10 1 11
REMARK H PARENT
REMARK Flexibility Score: inf
ROOT
ATOM      1  C   UNL     1    -105.227  15.750  18.644  1.00  0.00     0.000 C 
ENDROOT
BRANCH   1   2
ATOM      2  C   UNL     1    -104.642  15.948  17.238  1.00  0.00     0.006 C 
BRANCH   2   3
ATOM      3  C   UNL     1    -104.149  17.384  17.012  1.00  0.00     0.053 C 
BRANCH   3   4
ATOM      4  C   UNL     1    -103.463  17.533  15.689  1.00  0.00     0.041 C 
ATOM      5  O   UNL     1    -102.259  17.186  15.555  1.00  0.00    -0.550 OA
ATOM      6  O   UNL     1    -104.143  18.087  14.612  1.00  0.00    -0.550 OA
ENDBRANCH   3   4
ENDBRANCH   2   3
ENDBRANCH   1   2
BRANCH   1   7
ATOM      7  C   UNL     1    -105.390  17.095  19.367  1.00  0.00     0.000 C 
BRANCH   7   8
ATOM      8  C   UNL     1    -106.672  17.174  20.215  1.00  0.00     0.004 C 
BRANCH   8   9
ATOM      9  C   UNL     1    -107.971  17.167  19.387  1.00  0.00     0.027 C 
BRANCH   9  10
ATOM     10  C   UNL     1    -107.966  18.185  18.278  1.00  0.00    -0.035 C 
ATOM     11  C   UNL     1    -108.431  17.902  17.058  1.00  0.00     0.004 C 
ENDBRANCH   9  10
ENDBRANCH   8   9
ENDBRANCH   7   8
ENDBRANCH   1   7
TORSDOF 7
ENDMDL
MODEL 7
REMARK VINA RESULT:    -3.443     17.040     18.748
REMARK INTER + INTRA:          -5.238
REMARK INTER:                  -4.734
REMARK INTRA:                  -0.504
REMARK UNBOUND:                -0.386
REMARK SMILES C=CCCCCCCC(=O)[O-]
REMARK SMILES IDX 6 1 7 2 8 3 9 4 10 5 11 6 5 7 4 8 3 9 2 10 1 11
REMARK H PARENT
REMARK Flexibility Score: inf
ROOT
ATOM      1  C   UNL     1    -104.184  18.612  15.623  1.00  0.00     0.000 C 
ENDROOT
BRANCH   1   2
ATOM      2  C   UNL     1    -104.531  18.619  14.127  1.00  0.00     0.006 C 
BRANCH   2   3
ATOM      3  C   UNL     1    -106.043  18.707  13.882  1.00  0.00     0.053 C 
BRANCH   3   4
ATOM      4  C   UNL     1    -106.757  17.486  14.376  1.00  0.00     0.041 C 
ATOM      5  O   UNL     1    -107.586  17.573  15.319  1.00  0.00    -0.550 OA
ATOM      6  O   UNL     1    -106.480  16.245  13.816  1.00  0.00    -0.550 OA
ENDBRANCH   3   4
ENDBRANCH   2   3
ENDBRANCH   1   2
BRANCH   1   7
ATOM      7  C   UNL     1    -103.448  17.322  16.011  1.00  0.00     0.000 C 
BRANCH   7   8
ATOM      8  C   UNL     1    -104.202  16.489  17.064  1.00  0.00     0.004 C 
BRANCH   8   9
ATOM      9  C   UNL     1    -105.004  17.333  18.071  1.00  0.00     0.027 C 
BRANCH   9  10
ATOM     10  C   UNL     1    -105.485  16.537  19.254  1.00  0.00    -0.035 C 
ATOM     11  C   UNL     1    -106.189  17.097  20.243  1.00  0.00     0.004 C 
ENDBRANCH   9  10
ENDBRANCH   8   9
ENDBRANCH   7   8
ENDBRANCH   1   7
TORSDOF 7
ENDMDL
MODEL 8
REMARK VINA RESULT:    -3.378     13.855     14.919
REMARK INTER + INTRA:          -5.147
REMARK INTER:                  -4.273
REMARK INTRA:                  -0.874
REMARK UNBOUND:                -0.386
REMARK SMILES C=CCCCCCCC(=O)[O-]
REMARK SMILES IDX 6 1 7 2 8 3 9 4 10 5 11 6 5 7 4 8 3 9 2 10 1 11
REMARK H PARENT
REMARK Flexibility Score: inf
ROOT
ATOM      1  C   UNL     1    -104.555  24.315  17.673  1.00  0.00     0.000 C 
ENDROOT
BRANCH   1   2
ATOM      2  C   UNL     1    -103.121  23.918  17.293  1.00  0.00     0.006 C 
BRANCH   2   3
ATOM      3  C   UNL     1    -102.960  23.702  15.782  1.00  0.00     0.053 C 
BRANCH   3   4
ATOM      4  C   UNL     1    -101.931  24.620  15.197  1.00  0.00     0.041 C 
ATOM      5  O   UNL     1    -102.059  25.050  14.020  1.00  0.00    -0.550 OA
ATOM      6  O   UNL     1    -100.812  24.973  15.941  1.00  0.00    -0.550 OA
ENDBRANCH   3   4
ENDBRANCH   2   3
ENDBRANCH   1   2
BRANCH   1   7
ATOM      7  C   UNL     1    -105.441  24.437  16.425  1.00  0.00     0.000 C 
BRANCH   7   8
ATOM      8  C   UNL     1    -105.948  25.870  16.181  1.00  0.00     0.004 C 
BRANCH   8   9
ATOM      9  C   UNL     1    -105.284  26.571  14.981  1.00  0.00     0.027 C 
BRANCH   9  10
ATOM     10  C   UNL     1    -104.407  27.725  15.387  1.00  0.00    -0.035 C 
ATOM     11  C   UNL     1    -103.721  27.721  16.534  1.00  0.00     0.004 C 
ENDBRANCH   9  10
ENDBRANCH   8   9
ENDBRANCH   7   8
ENDBRANCH   1   7
TORSDOF 7
ENDMDL
MODEL 9
REMARK VINA RESULT:    -3.370     17.486     18.728
REMARK INTER + INTRA:          -5.135
REMARK INTER:                  -4.588
REMARK INTRA:                  -0.546
REMARK UNBOUND:                -0.386
REMARK SMILES C=CCCCCCCC(=O)[O-]
REMARK SMILES IDX 6 1 7 2 8 3 9 4 10 5 11 6 5 7 4 8 3 9 2 10 1 11
REMARK H PARENT
REMARK Flexibility Score: inf
ROOT
ATOM      1  C   UNL     1    -104.720  15.997  17.607  1.00  0.00     0.000 C 
ENDROOT
BRANCH   1   2
ATOM      2  C   UNL     1    -105.339  15.896  19.008  1.00  0.00     0.006 C 
BRANCH   2   3
ATOM      3  C   UNL     1    -105.701  17.271  19.584  1.00  0.00     0.053 C 
BRANCH   3   4
ATOM      4  C   UNL     1    -106.909  17.203  20.468  1.00  0.00     0.041 C 
ATOM      5  O   UNL     1    -108.061  17.129  19.965  1.00  0.00    -0.550 OA
ATOM      6  O   UNL     1    -106.762  17.254  21.849  1.00  0.00    -0.550 OA
ENDBRANCH   3   4
ENDBRANCH   2   3
ENDBRANCH   1   2
BRANCH   1   7
ATOM      7  C   UNL     1    -105.233  14.873  16.695  1.00  0.00     0.000 C 
BRANCH   7   8
ATOM      8  C   UNL     1    -105.849  13.696  17.475  1.00  0.00     0.004 C 
BRANCH   8   9
ATOM      9  C   UNL     1    -105.046  12.387  17.366  1.00  0.00     0.027 C 
BRANCH   9  10
ATOM     10  C   UNL     1    -104.180  12.126  18.569  1.00  0.00    -0.035 C 
ATOM     11  C   UNL     1    -102.958  12.654  18.686  1.00  0.00     0.004 C 
ENDBRANCH   9  10
ENDBRANCH   8   9
ENDBRANCH   7   8
ENDBRANCH   1   7
TORSDOF 7
ENDMDL
