MODEL 1
REMARK VINA RESULT:    -1.060      0.000      0.000
REMARK INTER + INTRA:          -1.216
REMARK INTER:                  -1.153
REMARK INTRA:                  -0.063
REMARK UNBOUND:                -0.063
REMARK SMILES C=C(C)[C@@H]1CC[C@H](C)C[C@H]1O
REMARK SMILES IDX 8 1 7 2 6 3 5 4 4 5 10 6 9 7 11 8 2 10 1 11 3 12
REMARK H PARENT 11 9
REMARK Flexibility Score: inf
ROOT
ATOM      1  C   UNL     1     -33.952  35.934 -10.941  1.00  0.00     0.008 C 
ATOM      2  C   UNL     1     -34.832  35.255 -12.003  1.00  0.00    -0.012 C 
ATOM      3  C   UNL     1     -34.961  33.737 -11.766  1.00  0.00     0.004 C 
ATOM      4  C   UNL     1     -35.876  33.403 -10.579  1.00  0.00     0.011 C 
ATOM      5  C   UNL     1     -37.262  34.054 -10.747  1.00  0.00     0.043 C 
ATOM      6  C   UNL     1     -37.142  35.584 -10.926  1.00  0.00     0.121 C 
ATOM      7  C   UNL     1     -36.221  35.919 -12.116  1.00  0.00     0.035 C 
ENDROOT
BRANCH   6   8
ATOM      8  O   UNL     1     -38.418  36.125 -11.159  1.00  0.00    -0.392 OA
ATOM      9  H   UNL     1     -38.694  36.582 -10.322  1.00  0.00     0.210 HD
ENDBRANCH   6   8
BRANCH   5  10
ATOM     10  C   UNL     1     -38.171  33.698  -9.577  1.00  0.00    -0.075 C 
ATOM     11  C   UNL     1     -38.952  32.608  -9.637  1.00  0.00     0.008 C 
ATOM     12  C   UNL     1     -38.218  34.550  -8.332  1.00  0.00     0.039 C 
ENDBRANCH   5  10
TORSDOF 2
ENDMDL
MODEL 2
REMARK VINA RESULT:    -0.617     19.113     20.874
REMARK INTER + INTRA:          -0.734
REMARK INTER:                  -0.856
REMARK INTRA:                   0.122
REMARK UNBOUND:                -0.063
REMARK SMILES C=C(C)[C@@H]1CC[C@H](C)C[C@H]1O
REMARK SMILES IDX 8 1 7 2 6 3 5 4 4 5 10 6 9 7 11 8 2 10 1 11 3 12
REMARK H PARENT 11 9
REMARK Flexibility Score: inf
ROOT
ATOM      1  C   UNL     1     -37.802  24.369   3.618  1.00  0.00     0.008 C 
ATOM      2  C   UNL     1     -39.038  23.860   4.379  1.00  0.00    -0.012 C 
ATOM      3  C   UNL     1     -39.124  22.320   4.381  1.00  0.00     0.004 C 
ATOM      4  C   UNL     1     -38.096  21.675   5.320  1.00  0.00     0.011 C 
ATOM      5  C   UNL     1     -38.221  22.236   6.750  1.00  0.00     0.043 C 
ATOM      6  C   UNL     1     -38.076  23.774   6.760  1.00  0.00     0.121 C 
ATOM      7  C   UNL     1     -39.107  24.422   5.815  1.00  0.00     0.035 C 
ENDROOT
BRANCH   6   8
ATOM      8  O   UNL     1     -38.280  24.249   8.067  1.00  0.00    -0.392 OA
ATOM      9  H   UNL     1     -37.776  23.647   8.674  1.00  0.00     0.210 HD
ENDBRANCH   6   8
BRANCH   5  10
ATOM     10  C   UNL     1     -37.213  21.573   7.680  1.00  0.00    -0.075 C 
ATOM     11  C   UNL     1     -37.425  20.324   8.125  1.00  0.00     0.008 C 
ATOM     12  C   UNL     1     -35.962  22.292   8.121  1.00  0.00     0.039 C 
ENDBRANCH   5  10
TORSDOF 2
ENDMDL
MODEL 3
REMARK VINA RESULT:    -0.487     18.665     20.612
REMARK INTER + INTRA:          -0.592
REMARK INTER:                  -1.171
REMARK INTRA:                   0.578
REMARK UNBOUND:                -0.063
REMARK SMILES C=C(C)[C@@H]1CC[C@H](C)C[C@H]1O
REMARK SMILES IDX 8 1 7 2 6 3 5 4 4 5 10 6 9 7 11 8 2 10 1 11 3 12
REMARK H PARENT 11 9
REMARK Flexibility Score: inf
ROOT
ATOM      1  C   UNL     1     -36.485  21.947   8.053  1.00  0.00     0.008 C 
ATOM      2  C   UNL     1     -37.893  21.578   7.556  1.00  0.00    -0.012 C 
ATOM      3  C   UNL     1     -38.974  22.519   8.125  1.00  0.00     0.004 C 
ATOM      4  C   UNL     1     -38.947  23.908   7.472  1.00  0.00     0.011 C 
ATOM      5  C   UNL     1     -39.058  23.804   5.939  1.00  0.00     0.043 C 
ATOM      6  C   UNL     1     -37.940  22.909   5.358  1.00  0.00     0.121 C 
ATOM      7  C   UNL     1     -37.967  21.515   6.015  1.00  0.00     0.035 C 
ENDROOT
BRANCH   6   8
ATOM      8  O   UNL     1     -38.128  22.774   3.972  1.00  0.00    -0.392 OA
ATOM      9  H   UNL     1     -38.704  21.977   3.837  1.00  0.00     0.210 HD
ENDBRANCH   6   8
BRANCH   5  10
ATOM     10  C   UNL     1     -39.053  25.188   5.303  1.00  0.00    -0.075 C 
ATOM     11  C   UNL     1     -38.984  25.315   3.968  1.00  0.00     0.008 C 
ATOM     12  C   UNL     1     -39.125  26.439   6.143  1.00  0.00     0.039 C 
ENDBRANCH   5  10
TORSDOF 2
ENDMDL
MODEL 4
REMARK VINA RESULT:     0.828      1.751      2.817
REMARK INTER + INTRA:           0.838
REMARK INTER:                   0.335
REMARK INTRA:                   0.503
REMARK UNBOUND:                -0.063
REMARK SMILES C=C(C)[C@@H]1CC[C@H](C)C[C@H]1O
REMARK SMILES IDX 8 1 7 2 6 3 5 4 4 5 10 6 9 7 11 8 2 10 1 11 3 12
REMARK H PARENT 11 9
REMARK Flexibility Score: inf
ROOT
ATOM      1  C   UNL     1     -35.794  31.832 -11.306  1.00  0.00     0.008 C 
ATOM      2  C   UNL     1     -36.258  33.048 -12.125  1.00  0.00    -0.012 C 
ATOM      3  C   UNL     1     -37.769  33.310 -11.969  1.00  0.00     0.004 C 
ATOM      4  C   UNL     1     -38.124  33.908 -10.600  1.00  0.00     0.011 C 
ATOM      5  C   UNL     1     -37.312  35.188 -10.327  1.00  0.00     0.043 C 
ATOM      6  C   UNL     1     -35.794  34.917 -10.423  1.00  0.00     0.121 C 
ATOM      7  C   UNL     1     -35.438  34.315 -11.797  1.00  0.00     0.035 C 
ENDROOT
BRANCH   6   8
ATOM      8  O   UNL     1     -35.097  36.125 -10.250  1.00  0.00    -0.392 OA
ATOM      9  H   UNL     1     -34.165  35.887 -10.005  1.00  0.00     0.210 HD
ENDBRANCH   6   8
BRANCH   5  10
ATOM     10  C   UNL     1     -37.688  35.787  -8.977  1.00  0.00    -0.075 C 
ATOM     11  C   UNL     1     -36.736  36.045  -8.065  1.00  0.00     0.008 C 
ATOM     12  C   UNL     1     -39.122  36.104  -8.630  1.00  0.00     0.039 C 
ENDBRANCH   5  10
TORSDOF 2
ENDMDL
