MODEL 1
REMARK VINA RESULT:    -3.247      0.000      0.000
REMARK INTER + INTRA:          -5.857
REMARK INTER:                  -4.955
REMARK INTRA:                  -0.902
REMARK UNBOUND:                -0.902
REMARK SMILES CCCCCCCCCCC(=O)[O-]
REMARK SMILES IDX 7 1 8 2 9 3 10 4 11 5 12 6 13 7 6 8 5 9 4 10 3 11 2 12 1 13
REMARK H PARENT
REMARK Flexibility Score: inf
ROOT
ATOM      1  C   UNL     1       9.080  12.167   7.278  1.00  0.00     0.000 C 
ENDROOT
BRANCH   1   2
ATOM      2  C   UNL     1       8.981  10.871   8.097  1.00  0.00     0.000 C 
BRANCH   2   3
ATOM      3  C   UNL     1       9.330   9.620   7.276  1.00  0.00     0.006 C 
BRANCH   3   4
ATOM      4  C   UNL     1       9.895  10.004   5.905  1.00  0.00     0.053 C 
BRANCH   4   5
ATOM      5  C   UNL     1      10.788   8.923   5.384  1.00  0.00     0.041 C 
ATOM      6  O   UNL     1      10.397   7.726   5.377  1.00  0.00    -0.550 OA
ATOM      7  O   UNL     1      12.034   9.243   4.860  1.00  0.00    -0.550 OA
ENDBRANCH   4   5
ENDBRANCH   3   4
ENDBRANCH   2   3
ENDBRANCH   1   2
BRANCH   1   8
ATOM      8  C   UNL     1       7.880  13.104   7.505  1.00  0.00     0.000 C 
BRANCH   8   9
ATOM      9  C   UNL     1       7.360  13.053   8.952  1.00  0.00    -0.000 C 
BRANCH   9  10
ATOM     10  C   UNL     1       5.827  13.148   9.030  1.00  0.00    -0.000 C 
BRANCH  10  11
ATOM     11  C   UNL     1       5.134  12.718   7.724  1.00  0.00    -0.000 C 
BRANCH  11  12
ATOM     12  C   UNL     1       4.420  11.356   7.785  1.00  0.00    -0.003 C 
ATOM     13  C   UNL     1       5.367  10.173   7.589  1.00  0.00     0.004 C 
ENDBRANCH  11  12
ENDBRANCH  10  11
ENDBRANCH   9  10
ENDBRANCH   8   9
ENDBRANCH   1   8
TORSDOF 9
ENDMDL
MODEL 2
REMARK VINA RESULT:    -3.185      1.013      2.078
REMARK INTER + INTRA:          -5.763
REMARK INTER:                  -4.884
REMARK INTRA:                  -0.879
REMARK UNBOUND:                -0.902
REMARK SMILES CCCCCCCCCCC(=O)[O-]
REMARK SMILES IDX 7 1 8 2 9 3 10 4 11 5 12 6 13 7 6 8 5 9 4 10 3 11 2 12 1 13
REMARK H PARENT
REMARK Flexibility Score: inf
ROOT
ATOM      1  C   UNL     1       8.920   9.607   8.565  1.00  0.00     0.000 C 
ENDROOT
BRANCH   1   2
ATOM      2  C   UNL     1       8.932   9.253   7.069  1.00  0.00     0.000 C 
BRANCH   2   3
ATOM      3  C   UNL     1      10.244   8.587   6.626  1.00  0.00     0.006 C 
BRANCH   3   4
ATOM      4  C   UNL     1      10.779   9.231   5.344  1.00  0.00     0.053 C 
BRANCH   4   5
ATOM      5  C   UNL     1      12.058   8.577   4.923  1.00  0.00     0.041 C 
ATOM      6  O   UNL     1      12.915   9.225   4.267  1.00  0.00    -0.550 OA
ATOM      7  O   UNL     1      12.325   7.267   5.298  1.00  0.00    -0.550 OA
ENDBRANCH   4   5
ENDBRANCH   3   4
ENDBRANCH   2   3
ENDBRANCH   1   2
BRANCH   1   8
ATOM      8  C   UNL     1       9.077  11.117   8.817  1.00  0.00     0.000 C 
BRANCH   8   9
ATOM      9  C   UNL     1       8.954  11.945   7.526  1.00  0.00    -0.000 C 
BRANCH   9  10
ATOM     10  C   UNL     1       7.878  13.039   7.628  1.00  0.00    -0.000 C 
BRANCH  10  11
ATOM     11  C   UNL     1       6.704  12.639   8.542  1.00  0.00    -0.000 C 
BRANCH  11  12
ATOM     12  C   UNL     1       5.424  12.208   7.804  1.00  0.00    -0.003 C 
ATOM     13  C   UNL     1       5.284  10.691   7.683  1.00  0.00     0.004 C 
ENDBRANCH  11  12
ENDBRANCH  10  11
ENDBRANCH   9  10
ENDBRANCH   8   9
ENDBRANCH   1   8
TORSDOF 9
ENDMDL
MODEL 3
REMARK VINA RESULT:    -3.157      3.277      5.533
REMARK INTER + INTRA:          -5.719
REMARK INTER:                  -4.753
REMARK INTRA:                  -0.966
REMARK UNBOUND:                -0.902
REMARK SMILES CCCCCCCCCCC(=O)[O-]
REMARK SMILES IDX 7 1 8 2 9 3 10 4 11 5 12 6 13 7 6 8 5 9 4 10 3 11 2 12 1 13
REMARK H PARENT
REMARK Flexibility Score: inf
ROOT
ATOM      1  C   UNL     1       5.229  10.297   7.968  1.00  0.00     0.000 C 
ENDROOT
BRANCH   1   2
ATOM      2  C   UNL     1       4.978  11.813   7.990  1.00  0.00     0.000 C 
BRANCH   2   3
ATOM      3  C   UNL     1       6.238  12.630   7.664  1.00  0.00     0.006 C 
BRANCH   3   4
ATOM      4  C   UNL     1       6.457  13.735   8.701  1.00  0.00     0.053 C 
BRANCH   4   5
ATOM      5  C   UNL     1       7.102  13.179   9.931  1.00  0.00     0.041 C 
ATOM      6  O   UNL     1       6.464  13.134  11.016  1.00  0.00    -0.550 OA
ATOM      7  O   UNL     1       8.390  12.664   9.869  1.00  0.00    -0.550 OA
ENDBRANCH   4   5
ENDBRANCH   3   4
ENDBRANCH   2   3
ENDBRANCH   1   2
BRANCH   1   8
ATOM      8  C   UNL     1       6.623   9.936   7.425  1.00  0.00     0.000 C 
BRANCH   8   9
ATOM      9  C   UNL     1       7.573   9.438   8.527  1.00  0.00    -0.000 C 
BRANCH   9  10
ATOM     10  C   UNL     1       9.054   9.655   8.169  1.00  0.00    -0.000 C 
BRANCH  10  11
ATOM     11  C   UNL     1       9.243  10.501   6.897  1.00  0.00    -0.000 C 
BRANCH  11  12
ATOM     12  C   UNL     1       9.991   9.794   5.752  1.00  0.00    -0.003 C 
ATOM     13  C   UNL     1       9.087   8.893   4.912  1.00  0.00     0.004 C 
ENDBRANCH  11  12
ENDBRANCH  10  11
ENDBRANCH   9  10
ENDBRANCH   8   9
ENDBRANCH   1   8
TORSDOF 9
ENDMDL
MODEL 4
REMARK VINA RESULT:    -3.155      1.084      2.524
REMARK INTER + INTRA:          -5.716
REMARK INTER:                  -4.985
REMARK INTRA:                  -0.731
REMARK UNBOUND:                -0.902
REMARK SMILES CCCCCCCCCCC(=O)[O-]
REMARK SMILES IDX 7 1 8 2 9 3 10 4 11 5 12 6 13 7 6 8 5 9 4 10 3 11 2 12 1 13
REMARK H PARENT
REMARK Flexibility Score: inf
ROOT
ATOM      1  C   UNL     1       7.599   9.329   7.019  1.00  0.00     0.000 C 
ENDROOT
BRANCH   1   2
ATOM      2  C   UNL     1       8.866  10.199   7.042  1.00  0.00     0.000 C 
BRANCH   2   3
ATOM      3  C   UNL     1       9.769   9.968   5.820  1.00  0.00     0.006 C 
BRANCH   3   4
ATOM      4  C   UNL     1      10.037   8.475   5.612  1.00  0.00     0.053 C 
BRANCH   4   5
ATOM      5  C   UNL     1      11.487   8.238   5.327  1.00  0.00     0.041 C 
ATOM      6  O   UNL     1      12.012   7.126   5.599  1.00  0.00    -0.550 OA
ATOM      7  O   UNL     1      12.246   9.226   4.715  1.00  0.00    -0.550 OA
ENDBRANCH   4   5
ENDBRANCH   3   4
ENDBRANCH   2   3
ENDBRANCH   1   2
BRANCH   1   8
ATOM      8  C   UNL     1       6.579   9.742   8.095  1.00  0.00     0.000 C 
BRANCH   8   9
ATOM      9  C   UNL     1       5.163   9.928   7.523  1.00  0.00    -0.000 C 
BRANCH   9  10
ATOM     10  C   UNL     1       4.643  11.365   7.697  1.00  0.00    -0.000 C 
BRANCH  10  11
ATOM     11  C   UNL     1       5.666  12.293   8.376  1.00  0.00    -0.000 C 
BRANCH  11  12
ATOM     12  C   UNL     1       6.125  13.490   7.523  1.00  0.00    -0.003 C 
ATOM     13  C   UNL     1       7.644  13.648   7.480  1.00  0.00     0.004 C 
ENDBRANCH  11  12
ENDBRANCH  10  11
ENDBRANCH   9  10
ENDBRANCH   8   9
ENDBRANCH   1   8
TORSDOF 9
ENDMDL
MODEL 5
REMARK VINA RESULT:    -3.144      3.087      5.342
REMARK INTER + INTRA:          -5.701
REMARK INTER:                  -4.668
REMARK INTRA:                  -1.033
REMARK UNBOUND:                -0.902
REMARK SMILES CCCCCCCCCCC(=O)[O-]
REMARK SMILES IDX 7 1 8 2 9 3 10 4 11 5 12 6 13 7 6 8 5 9 4 10 3 11 2 12 1 13
REMARK H PARENT
REMARK Flexibility Score: inf
ROOT
ATOM      1  C   UNL     1       7.940   9.002   8.191  1.00  0.00     0.000 C 
ENDROOT
BRANCH   1   2
ATOM      2  C   UNL     1       6.889   9.836   7.443  1.00  0.00     0.000 C 
BRANCH   2   3
ATOM      3  C   UNL     1       6.230  10.901   8.333  1.00  0.00     0.006 C 
BRANCH   3   4
ATOM      4  C   UNL     1       6.390  12.298   7.725  1.00  0.00     0.053 C 
BRANCH   4   5
ATOM      5  C   UNL     1       7.693  12.905   8.142  1.00  0.00     0.041 C 
ATOM      6  O   UNL     1       8.322  13.658   7.353  1.00  0.00    -0.550 OA
ATOM      7  O   UNL     1       8.188  12.678   9.420  1.00  0.00    -0.550 OA
ENDBRANCH   4   5
ENDBRANCH   3   4
ENDBRANCH   2   3
ENDBRANCH   1   2
BRANCH   1   8
ATOM      8  C   UNL     1       9.368   9.545   8.006  1.00  0.00     0.000 C 
BRANCH   8   9
ATOM      9  C   UNL     1      10.191   8.710   7.012  1.00  0.00    -0.000 C 
BRANCH   9  10
ATOM     10  C   UNL     1      10.231   9.337   5.608  1.00  0.00    -0.000 C 
BRANCH  10  11
ATOM     11  C   UNL     1       9.133   8.790   4.677  1.00  0.00    -0.000 C 
BRANCH  11  12
ATOM     12  C   UNL     1       8.763   7.314   4.908  1.00  0.00    -0.003 C 
ATOM     13  C   UNL     1       7.254   7.071   4.929  1.00  0.00     0.004 C 
ENDBRANCH  11  12
ENDBRANCH  10  11
ENDBRANCH   9  10
ENDBRANCH   8   9
ENDBRANCH   1   8
TORSDOF 9
ENDMDL
MODEL 6
REMARK VINA RESULT:    -3.088      3.710      5.859
REMARK INTER + INTRA:          -5.615
REMARK INTER:                  -4.853
REMARK INTRA:                  -0.761
REMARK UNBOUND:                -0.902
REMARK SMILES CCCCCCCCCCC(=O)[O-]
REMARK SMILES IDX 7 1 8 2 9 3 10 4 11 5 12 6 13 7 6 8 5 9 4 10 3 11 2 12 1 13
REMARK H PARENT
REMARK Flexibility Score: inf
ROOT
ATOM      1  C   UNL     1       5.921  11.917   7.795  1.00  0.00     0.000 C 
ENDROOT
BRANCH   1   2
ATOM      2  C   UNL     1       6.668  13.249   7.620  1.00  0.00     0.000 C 
BRANCH   2   3
ATOM      3  C   UNL     1       6.382  14.245   8.755  1.00  0.00     0.006 C 
BRANCH   3   4
ATOM      4  C   UNL     1       6.078  13.511  10.064  1.00  0.00     0.053 C 
BRANCH   4   5
ATOM      5  C   UNL     1       7.255  13.573  10.986  1.00  0.00     0.041 C 
ATOM      6  O   UNL     1       7.174  14.198  12.076  1.00  0.00    -0.550 OA
ATOM      7  O   UNL     1       8.426  12.899  10.664  1.00  0.00    -0.550 OA
ENDBRANCH   4   5
ENDBRANCH   3   4
ENDBRANCH   2   3
ENDBRANCH   1   2
BRANCH   1   8
ATOM      8  C   UNL     1       6.866  10.702   7.773  1.00  0.00     0.000 C 
BRANCH   8   9
ATOM      9  C   UNL     1       8.340  11.106   7.602  1.00  0.00    -0.000 C 
BRANCH   9  10
ATOM     10  C   UNL     1       9.241   9.909   7.253  1.00  0.00    -0.000 C 
BRANCH  10  11
ATOM     11  C   UNL     1       9.745   9.944   5.799  1.00  0.00    -0.000 C 
BRANCH  11  12
ATOM     12  C   UNL     1       9.200   8.823   4.896  1.00  0.00    -0.003 C 
ATOM     13  C   UNL     1       8.143   7.961   5.584  1.00  0.00     0.004 C 
ENDBRANCH  11  12
ENDBRANCH  10  11
ENDBRANCH   9  10
ENDBRANCH   8   9
ENDBRANCH   1   8
TORSDOF 9
ENDMDL
MODEL 7
REMARK VINA RESULT:    -3.086      1.225      2.949
REMARK INTER + INTRA:          -5.612
REMARK INTER:                  -4.425
REMARK INTRA:                  -1.186
REMARK UNBOUND:                -0.902
REMARK SMILES CCCCCCCCCCC(=O)[O-]
REMARK SMILES IDX 7 1 8 2 9 3 10 4 11 5 12 6 13 7 6 8 5 9 4 10 3 11 2 12 1 13
REMARK H PARENT
REMARK Flexibility Score: inf
ROOT
ATOM      1  C   UNL     1       5.501  10.220   8.315  1.00  0.00     0.000 C 
ENDROOT
BRANCH   1   2
ATOM      2  C   UNL     1       6.387   9.436   7.335  1.00  0.00     0.000 C 
BRANCH   2   3
ATOM      3  C   UNL     1       7.864   9.409   7.759  1.00  0.00     0.006 C 
BRANCH   3   4
ATOM      4  C   UNL     1       8.700  10.353   6.890  1.00  0.00     0.053 C 
BRANCH   4   5
ATOM      5  C   UNL     1       9.429   9.585   5.833  1.00  0.00     0.041 C 
ATOM      6  O   UNL     1      10.616   9.885   5.536  1.00  0.00    -0.550 OA
ATOM      7  O   UNL     1       8.817   8.505   5.211  1.00  0.00    -0.550 OA
ENDBRANCH   4   5
ENDBRANCH   3   4
ENDBRANCH   2   3
ENDBRANCH   1   2
BRANCH   1   8
ATOM      8  C   UNL     1       4.660  11.304   7.616  1.00  0.00     0.000 C 
BRANCH   8   9
ATOM      9  C   UNL     1       4.920  12.708   8.186  1.00  0.00    -0.000 C 
BRANCH   9  10
ATOM     10  C   UNL     1       6.061  13.438   7.458  1.00  0.00    -0.000 C 
BRANCH  10  11
ATOM     11  C   UNL     1       7.383  13.417   8.247  1.00  0.00    -0.000 C 
BRANCH  11  12
ATOM     12  C   UNL     1       7.231  13.203   9.764  1.00  0.00    -0.003 C 
ATOM     13  C   UNL     1       8.151  12.112  10.311  1.00  0.00     0.004 C 
ENDBRANCH  11  12
ENDBRANCH  10  11
ENDBRANCH   9  10
ENDBRANCH   8   9
ENDBRANCH   1   8
TORSDOF 9
ENDMDL
MODEL 8
REMARK VINA RESULT:    -3.080      3.043      5.953
REMARK INTER + INTRA:          -5.602
REMARK INTER:                  -4.558
REMARK INTRA:                  -1.043
REMARK UNBOUND:                -0.902
REMARK SMILES CCCCCCCCCCC(=O)[O-]
REMARK SMILES IDX 7 1 8 2 9 3 10 4 11 5 12 6 13 7 6 8 5 9 4 10 3 11 2 12 1 13
REMARK H PARENT
REMARK Flexibility Score: inf
ROOT
ATOM      1  C   UNL     1       9.466  10.074   5.952  1.00  0.00     0.000 C 
ENDROOT
BRANCH   1   2
ATOM      2  C   UNL     1       8.447  10.247   7.090  1.00  0.00     0.000 C 
BRANCH   2   3
ATOM      3  C   UNL     1       9.019  11.022   8.287  1.00  0.00     0.006 C 
BRANCH   3   4
ATOM      4  C   UNL     1       8.013  12.057   8.800  1.00  0.00     0.053 C 
BRANCH   4   5
ATOM      5  C   UNL     1       7.757  13.101   7.759  1.00  0.00     0.041 C 
ATOM      6  O   UNL     1       8.721  13.677   7.189  1.00  0.00    -0.550 OA
ATOM      7  O   UNL     1       6.456  13.401   7.381  1.00  0.00    -0.550 OA
ENDBRANCH   4   5
ENDBRANCH   3   4
ENDBRANCH   2   3
ENDBRANCH   1   2
BRANCH   1   8
ATOM      8  C   UNL     1       9.109   8.909   5.011  1.00  0.00     0.000 C 
BRANCH   8   9
ATOM      9  C   UNL     1      10.340   8.080   4.609  1.00  0.00    -0.000 C 
BRANCH   9  10
ATOM     10  C   UNL     1      11.446   8.111   5.679  1.00  0.00    -0.000 C 
BRANCH  10  11
ATOM     11  C   UNL     1      11.368   6.921   6.653  1.00  0.00    -0.000 C 
BRANCH  11  12
ATOM     12  C   UNL     1      10.825   7.261   8.052  1.00  0.00    -0.003 C 
ATOM     13  C   UNL     1       9.368   6.844   8.247  1.00  0.00     0.004 C 
ENDBRANCH  11  12
ENDBRANCH  10  11
ENDBRANCH   9  10
ENDBRANCH   8   9
ENDBRANCH   1   8
TORSDOF 9
ENDMDL
MODEL 9
REMARK VINA RESULT:    -3.040      2.890      5.379
REMARK INTER + INTRA:          -5.541
REMARK INTER:                  -4.833
REMARK INTRA:                  -0.708
REMARK UNBOUND:                -0.902
REMARK SMILES CCCCCCCCCCC(=O)[O-]
REMARK SMILES IDX 7 1 8 2 9 3 10 4 11 5 12 6 13 7 6 8 5 9 4 10 3 11 2 12 1 13
REMARK H PARENT
REMARK Flexibility Score: inf
ROOT
ATOM      1  C   UNL     1       4.346  10.333   7.696  1.00  0.00     0.000 C 
ENDROOT
BRANCH   1   2
ATOM      2  C   UNL     1       5.559  11.270   7.573  1.00  0.00     0.000 C 
BRANCH   2   3
ATOM      3  C   UNL     1       5.286  12.673   8.139  1.00  0.00     0.006 C 
BRANCH   3   4
ATOM      4  C   UNL     1       6.294  13.688   7.592  1.00  0.00     0.053 C 
BRANCH   4   5
ATOM      5  C   UNL     1       7.682  13.335   8.025  1.00  0.00     0.041 C 
ATOM      6  O   UNL     1       8.642  13.432   7.216  1.00  0.00    -0.550 OA
ATOM      7  O   UNL     1       7.923  12.945   9.336  1.00  0.00    -0.550 OA
ENDBRANCH   4   5
ENDBRANCH   3   4
ENDBRANCH   2   3
ENDBRANCH   1   2
BRANCH   1   8
ATOM      8  C   UNL     1       4.753   8.865   7.912  1.00  0.00     0.000 C 
BRANCH   8   9
ATOM      9  C   UNL     1       6.267   8.700   8.128  1.00  0.00    -0.000 C 
BRANCH   9  10
ATOM     10  C   UNL     1       6.895   7.696   7.145  1.00  0.00    -0.000 C 
BRANCH  10  11
ATOM     11  C   UNL     1       7.910   8.351   6.190  1.00  0.00    -0.000 C 
BRANCH  11  12
ATOM     12  C   UNL     1       8.591   9.618   6.735  1.00  0.00    -0.003 C 
ATOM     13  C   UNL     1       9.825  10.029   5.932  1.00  0.00     0.004 C 
ENDBRANCH  11  12
ENDBRANCH  10  11
ENDBRANCH   9  10
ENDBRANCH   8   9
ENDBRANCH   1   8
TORSDOF 9
ENDMDL
