MODEL 1
REMARK VINA RESULT:    -2.397      0.000      0.000
REMARK INTER + INTRA:          -3.271
REMARK INTER:                  -3.098
REMARK INTRA:                  -0.173
REMARK UNBOUND:                -0.173
REMARK SMILES CCCCCCC(=O)[O-]
REMARK SMILES IDX 5 1 6 2 7 3 8 4 9 5 4 6 3 7 2 8 1 9
REMARK H PARENT
REMARK Flexibility Score: inf
ROOT
ATOM      1  C   UNL     1      -0.162  13.274  -6.427  1.00  0.00     0.006 C 
ENDROOT
BRANCH   1   2
ATOM      2  C   UNL     1       0.487  12.750  -7.716  1.00  0.00     0.053 C 
BRANCH   2   3
ATOM      3  C   UNL     1      -0.191  13.332  -8.915  1.00  0.00     0.041 C 
ATOM      4  O   UNL     1       0.419  14.146  -9.656  1.00  0.00    -0.550 OA
ATOM      5  O   UNL     1      -1.516  13.013  -9.188  1.00  0.00    -0.550 OA
ENDBRANCH   2   3
ENDBRANCH   1   2
BRANCH   1   6
ATOM      6  C   UNL     1       0.772  14.196  -5.628  1.00  0.00     0.000 C 
BRANCH   6   7
ATOM      7  C   UNL     1       0.394  14.273  -4.139  1.00  0.00    -0.000 C 
BRANCH   7   8
ATOM      8  C   UNL     1      -0.722  13.284  -3.762  1.00  0.00    -0.003 C 
ATOM      9  C   UNL     1      -1.376  13.618  -2.422  1.00  0.00     0.004 C 
ENDBRANCH   7   8
ENDBRANCH   6   7
ENDBRANCH   1   6
TORSDOF 5
ENDMDL
MODEL 2
REMARK VINA RESULT:    -2.375      1.046      1.703
REMARK INTER + INTRA:          -3.242
REMARK INTER:                  -3.026
REMARK INTRA:                  -0.216
REMARK UNBOUND:                -0.173
REMARK SMILES CCCCCCC(=O)[O-]
REMARK SMILES IDX 5 1 6 2 7 3 8 4 9 5 4 6 3 7 2 8 1 9
REMARK H PARENT
REMARK Flexibility Score: inf
ROOT
ATOM      1  C   UNL     1       0.690  14.394  -5.351  1.00  0.00     0.006 C 
ENDROOT
BRANCH   1   2
ATOM      2  C   UNL     1      -0.103  13.229  -5.959  1.00  0.00     0.053 C 
BRANCH   2   3
ATOM      3  C   UNL     1       0.025  13.234  -7.449  1.00  0.00     0.041 C 
ATOM      4  O   UNL     1       1.124  13.524  -7.990  1.00  0.00    -0.550 OA
ATOM      5  O   UNL     1      -1.082  12.964  -8.244  1.00  0.00    -0.550 OA
ENDBRANCH   2   3
ENDBRANCH   1   2
BRANCH   1   6
ATOM      6  C   UNL     1       0.537  14.478  -3.824  1.00  0.00     0.000 C 
BRANCH   6   7
ATOM      7  C   UNL     1      -0.397  13.392  -3.263  1.00  0.00    -0.000 C 
BRANCH   7   8
ATOM      8  C   UNL     1      -1.383  13.944  -2.222  1.00  0.00    -0.003 C 
ATOM      9  C   UNL     1      -1.183  15.436  -1.954  1.00  0.00     0.004 C 
ENDBRANCH   7   8
ENDBRANCH   6   7
ENDBRANCH   1   6
TORSDOF 5
ENDMDL
MODEL 3
REMARK VINA RESULT:    -2.240      1.974      3.223
REMARK INTER + INTRA:          -3.068
REMARK INTER:                  -2.885
REMARK INTRA:                  -0.183
REMARK UNBOUND:                -0.173
REMARK SMILES CCCCCCC(=O)[O-]
REMARK SMILES IDX 5 1 6 2 7 3 8 4 9 5 4 6 3 7 2 8 1 9
REMARK H PARENT
REMARK Flexibility Score: inf
ROOT
ATOM      1  C   UNL     1       0.023  14.396  -3.554  1.00  0.00     0.006 C 
ENDROOT
BRANCH   1   2
ATOM      2  C   UNL     1      -0.289  13.266  -4.544  1.00  0.00     0.053 C 
BRANCH   2   3
ATOM      3  C   UNL     1       0.157  13.641  -5.921  1.00  0.00     0.041 C 
ATOM      4  O   UNL     1       1.208  14.314  -6.085  1.00  0.00    -0.550 OA
ATOM      5  O   UNL     1      -0.613  13.290  -7.022  1.00  0.00    -0.550 OA
ENDBRANCH   2   3
ENDBRANCH   1   2
BRANCH   1   6
ATOM      6  C   UNL     1      -0.444  14.075  -2.126  1.00  0.00     0.000 C 
BRANCH   6   7
ATOM      7  C   UNL     1      -1.913  13.619  -2.073  1.00  0.00    -0.000 C 
BRANCH   7   8
ATOM      8  C   UNL     1      -2.737  14.406  -1.040  1.00  0.00    -0.003 C 
ATOM      9  C   UNL     1      -2.772  15.905  -1.334  1.00  0.00     0.004 C 
ENDBRANCH   7   8
ENDBRANCH   6   7
ENDBRANCH   1   6
TORSDOF 5
ENDMDL
MODEL 4
REMARK VINA RESULT:    -2.176      4.108      5.698
REMARK INTER + INTRA:          -2.984
REMARK INTER:                  -2.772
REMARK INTRA:                  -0.212
REMARK UNBOUND:                -0.173
REMARK SMILES CCCCCCC(=O)[O-]
REMARK SMILES IDX 5 1 6 2 7 3 8 4 9 5 4 6 3 7 2 8 1 9
REMARK H PARENT
REMARK Flexibility Score: inf
ROOT
ATOM      1  C   UNL     1      -1.728  10.160  -8.221  1.00  0.00     0.006 C 
ENDROOT
BRANCH   1   2
ATOM      2  C   UNL     1      -0.616  11.073  -8.756  1.00  0.00     0.053 C 
BRANCH   2   3
ATOM      3  C   UNL     1      -0.982  12.510  -8.560  1.00  0.00     0.041 C 
ATOM      4  O   UNL     1      -1.528  13.157  -9.491  1.00  0.00    -0.550 OA
ATOM      5  O   UNL     1      -0.675  13.149  -7.365  1.00  0.00    -0.550 OA
ENDBRANCH   2   3
ENDBRANCH   1   2
BRANCH   1   6
ATOM      6  C   UNL     1      -2.386   9.321  -9.327  1.00  0.00     0.000 C 
BRANCH   6   7
ATOM      7  C   UNL     1      -3.550  10.057 -10.013  1.00  0.00    -0.000 C 
BRANCH   7   8
ATOM      8  C   UNL     1      -4.878   9.291  -9.901  1.00  0.00    -0.003 C 
ATOM      9  C   UNL     1      -5.092   8.684  -8.514  1.00  0.00     0.004 C 
ENDBRANCH   7   8
ENDBRANCH   6   7
ENDBRANCH   1   6
TORSDOF 5
ENDMDL
MODEL 5
REMARK VINA RESULT:    -2.143      1.530      2.150
REMARK INTER + INTRA:          -2.942
REMARK INTER:                  -2.661
REMARK INTRA:                  -0.281
REMARK UNBOUND:                -0.173
REMARK SMILES CCCCCCC(=O)[O-]
REMARK SMILES IDX 5 1 6 2 7 3 8 4 9 5 4 6 3 7 2 8 1 9
REMARK H PARENT
REMARK Flexibility Score: inf
ROOT
ATOM      1  C   UNL     1       0.826  14.839  -4.992  1.00  0.00     0.006 C 
ENDROOT
BRANCH   1   2
ATOM      2  C   UNL     1       0.818  13.421  -5.578  1.00  0.00     0.053 C 
BRANCH   2   3
ATOM      3  C   UNL     1       0.479  13.460  -7.034  1.00  0.00     0.041 C 
ATOM      4  O   UNL     1       1.353  13.788  -7.879  1.00  0.00    -0.550 OA
ATOM      5  O   UNL     1      -0.815  13.180  -7.455  1.00  0.00    -0.550 OA
ENDBRANCH   2   3
ENDBRANCH   1   2
BRANCH   1   6
ATOM      6  C   UNL     1       0.351  14.877  -3.532  1.00  0.00     0.000 C 
BRANCH   6   7
ATOM      7  C   UNL     1      -0.604  13.720  -3.190  1.00  0.00    -0.000 C 
BRANCH   7   8
ATOM      8  C   UNL     1      -0.244  13.030  -1.865  1.00  0.00    -0.003 C 
ATOM      9  C   UNL     1       1.189  12.499  -1.848  1.00  0.00     0.004 C 
ENDBRANCH   7   8
ENDBRANCH   6   7
ENDBRANCH   1   6
TORSDOF 5
ENDMDL
MODEL 6
REMARK VINA RESULT:    -2.125      1.486      2.034
REMARK INTER + INTRA:          -2.919
REMARK INTER:                  -2.762
REMARK INTRA:                  -0.156
REMARK UNBOUND:                -0.173
REMARK SMILES CCCCCCC(=O)[O-]
REMARK SMILES IDX 5 1 6 2 7 3 8 4 9 5 4 6 3 7 2 8 1 9
REMARK H PARENT
REMARK Flexibility Score: inf
ROOT
ATOM      1  C   UNL     1       0.234  13.233  -7.428  1.00  0.00     0.006 C 
ENDROOT
BRANCH   1   2
ATOM      2  C   UNL     1      -0.081  11.891  -8.101  1.00  0.00     0.053 C 
BRANCH   2   3
ATOM      3  C   UNL     1      -1.324  12.000  -8.926  1.00  0.00     0.041 C 
ATOM      4  O   UNL     1      -1.646  13.101  -9.444  1.00  0.00    -0.550 OA
ATOM      5  O   UNL     1      -2.154  10.897  -9.083  1.00  0.00    -0.550 OA
ENDBRANCH   2   3
ENDBRANCH   1   2
BRANCH   1   6
ATOM      6  C   UNL     1      -0.286  13.307  -5.984  1.00  0.00     0.000 C 
BRANCH   6   7
ATOM      7  C   UNL     1       0.850  13.361  -4.949  1.00  0.00    -0.000 C 
BRANCH   7   8
ATOM      8  C   UNL     1       0.629  14.451  -3.888  1.00  0.00    -0.003 C 
ATOM      9  C   UNL     1       1.028  15.842  -4.382  1.00  0.00     0.004 C 
ENDBRANCH   7   8
ENDBRANCH   6   7
ENDBRANCH   1   6
TORSDOF 5
ENDMDL
MODEL 7
REMARK VINA RESULT:    -2.118      4.194      6.777
REMARK INTER + INTRA:          -2.910
REMARK INTER:                  -2.702
REMARK INTRA:                  -0.208
REMARK UNBOUND:                -0.173
REMARK SMILES CCCCCCC(=O)[O-]
REMARK SMILES IDX 5 1 6 2 7 3 8 4 9 5 4 6 3 7 2 8 1 9
REMARK H PARENT
REMARK Flexibility Score: inf
ROOT
ATOM      1  C   UNL     1      -2.415  13.174 -10.711  1.00  0.00     0.006 C 
ENDROOT
BRANCH   1   2
ATOM      2  C   UNL     1      -2.033  11.744 -10.308  1.00  0.00     0.053 C 
BRANCH   2   3
ATOM      3  C   UNL     1      -1.535  11.715  -8.898  1.00  0.00     0.041 C 
ATOM      4  O   UNL     1      -1.549  10.641  -8.243  1.00  0.00    -0.550 OA
ATOM      5  O   UNL     1      -1.099  12.886  -8.290  1.00  0.00    -0.550 OA
ENDBRANCH   2   3
ENDBRANCH   1   2
BRANCH   1   6
ATOM      6  C   UNL     1      -1.930  13.540 -12.122  1.00  0.00     0.000 C 
BRANCH   6   7
ATOM      7  C   UNL     1      -3.083  13.937 -13.060  1.00  0.00    -0.000 C 
BRANCH   7   8
ATOM      8  C   UNL     1      -4.440  13.387 -12.590  1.00  0.00    -0.003 C 
ATOM      9  C   UNL     1      -5.507  14.475 -12.472  1.00  0.00     0.004 C 
ENDBRANCH   7   8
ENDBRANCH   6   7
ENDBRANCH   1   6
TORSDOF 5
ENDMDL
MODEL 8
REMARK VINA RESULT:    -2.104      3.563      4.784
REMARK INTER + INTRA:          -2.892
REMARK INTER:                  -2.494
REMARK INTRA:                  -0.397
REMARK UNBOUND:                -0.173
REMARK SMILES CCCCCCC(=O)[O-]
REMARK SMILES IDX 5 1 6 2 7 3 8 4 9 5 4 6 3 7 2 8 1 9
REMARK H PARENT
REMARK Flexibility Score: inf
ROOT
ATOM      1  C   UNL     1       0.495  10.986  -9.754  1.00  0.00     0.006 C 
ENDROOT
BRANCH   1   2
ATOM      2  C   UNL     1       0.758  12.419  -9.272  1.00  0.00     0.053 C 
BRANCH   2   3
ATOM      3  C   UNL     1      -0.496  13.025  -8.728  1.00  0.00     0.041 C 
ATOM      4  O   UNL     1      -0.612  13.240  -7.493  1.00  0.00    -0.550 OA
ATOM      5  O   UNL     1      -1.558  13.308  -9.578  1.00  0.00    -0.550 OA
ENDBRANCH   2   3
ENDBRANCH   1   2
BRANCH   1   6
ATOM      6  C   UNL     1       0.335   9.993  -8.592  1.00  0.00     0.000 C 
BRANCH   6   7
ATOM      7  C   UNL     1      -0.909   9.100  -8.745  1.00  0.00    -0.000 C 
BRANCH   7   8
ATOM      8  C   UNL     1      -2.210   9.839  -8.394  1.00  0.00    -0.003 C 
ATOM      9  C   UNL     1      -3.149   9.978  -9.592  1.00  0.00     0.004 C 
ENDBRANCH   7   8
ENDBRANCH   6   7
ENDBRANCH   1   6
TORSDOF 5
ENDMDL
MODEL 9
REMARK VINA RESULT:    -2.072      4.730      7.352
REMARK INTER + INTRA:          -2.851
REMARK INTER:                  -2.653
REMARK INTRA:                  -0.198
REMARK UNBOUND:                -0.173
REMARK SMILES CCCCCCC(=O)[O-]
REMARK SMILES IDX 5 1 6 2 7 3 8 4 9 5 4 6 3 7 2 8 1 9
REMARK H PARENT
REMARK Flexibility Score: inf
ROOT
ATOM      1  C   UNL     1      -2.295  13.648 -12.448  1.00  0.00     0.006 C 
ENDROOT
BRANCH   1   2
ATOM      2  C   UNL     1      -2.576  13.233 -10.998  1.00  0.00     0.053 C 
BRANCH   2   3
ATOM      3  C   UNL     1      -1.343  13.381 -10.165  1.00  0.00     0.041 C 
ATOM      4  O   UNL     1      -0.306  13.899 -10.654  1.00  0.00    -0.550 OA
ATOM      5  O   UNL     1      -1.323  12.902  -8.861  1.00  0.00    -0.550 OA
ENDBRANCH   2   3
ENDBRANCH   1   2
BRANCH   1   6
ATOM      6  C   UNL     1      -3.563  14.095 -13.191  1.00  0.00     0.000 C 
BRANCH   6   7
ATOM      7  C   UNL     1      -4.850  13.563 -12.537  1.00  0.00    -0.000 C 
BRANCH   7   8
ATOM      8  C   UNL     1      -5.855  14.681 -12.217  1.00  0.00    -0.003 C 
ATOM      9  C   UNL     1      -6.057  15.643 -13.387  1.00  0.00     0.004 C 
ENDBRANCH   7   8
ENDBRANCH   6   7
ENDBRANCH   1   6
TORSDOF 5
ENDMDL
