MODEL 1
REMARK VINA RESULT:    -2.974      0.000      0.000
REMARK INTER + INTRA:          -6.892
REMARK INTER:                  -5.061
REMARK INTRA:                  -1.832
REMARK UNBOUND:                -1.832
REMARK SMILES CCCCCCCCCCCCCC(=O)[O-]
REMARK SMILES IDX 8 1 9 2 10 3 11 4 12 5 13 6 14 7 15 8 16 9 7 10 6 11 5 12
REMARK SMILES IDX 4 13 3 14 2 15 1 16
REMARK H PARENT
REMARK Flexibility Score: inf
ROOT
ATOM      1  C   UNL     1      48.910  30.226  90.097  1.00  0.00     0.000 C 
ENDROOT
BRANCH   1   2
ATOM      2  C   UNL     1      49.990  30.951  90.916  1.00  0.00     0.000 C 
BRANCH   2   3
ATOM      3  C   UNL     1      50.898  31.834  90.046  1.00  0.00     0.000 C 
BRANCH   3   4
ATOM      4  C   UNL     1      51.298  31.151  88.726  1.00  0.00     0.000 C 
BRANCH   4   5
ATOM      5  C   UNL     1      51.912  32.134  87.716  1.00  0.00     0.006 C 
BRANCH   5   6
ATOM      6  C   UNL     1      52.149  33.526  88.316  1.00  0.00     0.053 C 
BRANCH   6   7
ATOM      7  C   UNL     1      53.014  34.345  87.411  1.00  0.00     0.041 C 
ATOM      8  O   UNL     1      54.232  34.512  87.680  1.00  0.00    -0.550 OA
ATOM      9  O   UNL     1      52.484  34.886  86.246  1.00  0.00    -0.550 OA
ENDBRANCH   6   7
ENDBRANCH   5   6
ENDBRANCH   4   5
ENDBRANCH   3   4
ENDBRANCH   2   3
ENDBRANCH   1   2
BRANCH   1  10
ATOM     10  C   UNL     1      47.533  30.869  90.316  1.00  0.00     0.000 C 
BRANCH  10  11
ATOM     11  C   UNL     1      47.186  31.906  89.236  1.00  0.00    -0.000 C 
BRANCH  11  12
ATOM     12  C   UNL     1      47.347  31.349  87.809  1.00  0.00    -0.000 C 
BRANCH  12  13
ATOM     13  C   UNL     1      48.101  32.315  86.880  1.00  0.00    -0.000 C 
BRANCH  13  14
ATOM     14  C   UNL     1      48.565  33.589  87.605  1.00  0.00    -0.000 C 
BRANCH  14  15
ATOM     15  C   UNL     1      48.935  34.719  86.631  1.00  0.00    -0.003 C 
ATOM     16  C   UNL     1      48.934  36.097  87.293  1.00  0.00     0.004 C 
ENDBRANCH  14  15
ENDBRANCH  13  14
ENDBRANCH  12  13
ENDBRANCH  11  12
ENDBRANCH  10  11
ENDBRANCH   1  10
TORSDOF 12
ENDMDL
MODEL 2
REMARK VINA RESULT:    -2.914      1.195      3.951
REMARK INTER + INTRA:          -6.790
REMARK INTER:                  -5.281
REMARK INTRA:                  -1.509
REMARK UNBOUND:                -1.832
REMARK SMILES CCCCCCCCCCCCCC(=O)[O-]
REMARK SMILES IDX 8 1 9 2 10 3 11 4 12 5 13 6 14 7 15 8 16 9 7 10 6 11 5 12
REMARK SMILES IDX 4 13 3 14 2 15 1 16
REMARK H PARENT
REMARK Flexibility Score: inf
ROOT
ATOM      1  C   UNL     1      48.633  32.120  87.035  1.00  0.00     0.000 C 
ENDROOT
BRANCH   1   2
ATOM      2  C   UNL     1      48.347  33.541  87.545  1.00  0.00     0.000 C 
BRANCH   2   3
ATOM      3  C   UNL     1      48.889  34.628  86.603  1.00  0.00     0.000 C 
BRANCH   3   4
ATOM      4  C   UNL     1      49.978  35.492  87.262  1.00  0.00     0.000 C 
BRANCH   4   5
ATOM      5  C   UNL     1      51.393  35.121  86.789  1.00  0.00     0.006 C 
BRANCH   5   6
ATOM      6  C   UNL     1      52.484  35.606  87.753  1.00  0.00     0.053 C 
BRANCH   6   7
ATOM      7  C   UNL     1      53.484  34.521  87.997  1.00  0.00     0.041 C 
ATOM      8  O   UNL     1      53.504  33.914  89.100  1.00  0.00    -0.550 OA
ATOM      9  O   UNL     1      54.366  34.149  86.990  1.00  0.00    -0.550 OA
ENDBRANCH   6   7
ENDBRANCH   5   6
ENDBRANCH   4   5
ENDBRANCH   3   4
ENDBRANCH   2   3
ENDBRANCH   1   2
BRANCH   1  10
ATOM     10  C   UNL     1      50.092  31.724  87.309  1.00  0.00     0.000 C 
BRANCH  10  11
ATOM     11  C   UNL     1      50.529  32.036  88.750  1.00  0.00    -0.000 C 
BRANCH  11  12
ATOM     12  C   UNL     1      50.418  30.812  89.679  1.00  0.00    -0.000 C 
BRANCH  12  13
ATOM     13  C   UNL     1      49.310  30.969  90.733  1.00  0.00    -0.000 C 
BRANCH  13  14
ATOM     14  C   UNL     1      47.993  30.298  90.308  1.00  0.00    -0.000 C 
BRANCH  14  15
ATOM     15  C   UNL     1      46.756  31.078  90.779  1.00  0.00    -0.003 C 
ATOM     16  C   UNL     1      45.957  31.680  89.623  1.00  0.00     0.004 C 
ENDBRANCH  14  15
ENDBRANCH  13  14
ENDBRANCH  12  13
ENDBRANCH  11  12
ENDBRANCH  10  11
ENDBRANCH   1  10
TORSDOF 12
ENDMDL
MODEL 3
REMARK VINA RESULT:    -2.907     16.957     18.378
REMARK INTER + INTRA:          -6.778
REMARK INTER:                  -5.674
REMARK INTRA:                  -1.104
REMARK UNBOUND:                -1.832
REMARK SMILES CCCCCCCCCCCCCC(=O)[O-]
REMARK SMILES IDX 8 1 9 2 10 3 11 4 12 5 13 6 14 7 15 8 16 9 7 10 6 11 5 12
REMARK SMILES IDX 4 13 3 14 2 15 1 16
REMARK H PARENT
REMARK Flexibility Score: inf
ROOT
ATOM      1  C   UNL     1      44.139  21.551  77.936  1.00  0.00     0.000 C 
ENDROOT
BRANCH   1   2
ATOM      2  C   UNL     1      44.332  20.059  78.253  1.00  0.00     0.000 C 
BRANCH   2   3
ATOM      3  C   UNL     1      45.805  19.626  78.180  1.00  0.00     0.000 C 
BRANCH   3   4
ATOM      4  C   UNL     1      45.995  18.299  77.425  1.00  0.00     0.000 C 
BRANCH   4   5
ATOM      5  C   UNL     1      45.999  18.484  75.899  1.00  0.00     0.006 C 
BRANCH   5   6
ATOM      6  C   UNL     1      46.753  19.746  75.460  1.00  0.00     0.053 C 
BRANCH   6   7
ATOM      7  C   UNL     1      46.759  19.859  73.968  1.00  0.00     0.041 C 
ATOM      8  O   UNL     1      47.096  20.939  73.416  1.00  0.00    -0.550 OA
ATOM      9  O   UNL     1      46.437  18.756  73.187  1.00  0.00    -0.550 OA
ENDBRANCH   6   7
ENDBRANCH   5   6
ENDBRANCH   4   5
ENDBRANCH   3   4
ENDBRANCH   2   3
ENDBRANCH   1   2
BRANCH   1  10
ATOM     10  C   UNL     1      43.487  21.738  76.558  1.00  0.00     0.000 C 
BRANCH  10  11
ATOM     11  C   UNL     1      41.952  21.774  76.630  1.00  0.00    -0.000 C 
BRANCH  11  12
ATOM     12  C   UNL     1      41.436  22.579  77.837  1.00  0.00    -0.000 C 
BRANCH  12  13
ATOM     13  C   UNL     1      40.315  21.851  78.597  1.00  0.00    -0.000 C 
BRANCH  13  14
ATOM     14  C   UNL     1      40.545  20.333  78.675  1.00  0.00    -0.000 C 
BRANCH  14  15
ATOM     15  C   UNL     1      40.268  19.766  80.076  1.00  0.00    -0.003 C 
ATOM     16  C   UNL     1      38.899  19.094  80.185  1.00  0.00     0.004 C 
ENDBRANCH  14  15
ENDBRANCH  13  14
ENDBRANCH  12  13
ENDBRANCH  11  12
ENDBRANCH  10  11
ENDBRANCH   1  10
TORSDOF 12
ENDMDL
MODEL 4
REMARK VINA RESULT:    -2.890      2.131      4.659
REMARK INTER + INTRA:          -6.749
REMARK INTER:                  -6.224
REMARK INTRA:                  -0.526
REMARK UNBOUND:                -1.832
REMARK SMILES CCCCCCCCCCCCCC(=O)[O-]
REMARK SMILES IDX 8 1 9 2 10 3 11 4 12 5 13 6 14 7 15 8 16 9 7 10 6 11 5 12
REMARK SMILES IDX 4 13 3 14 2 15 1 16
REMARK H PARENT
REMARK Flexibility Score: inf
ROOT
ATOM      1  C   UNL     1      48.199  32.837  87.878  1.00  0.00     0.000 C 
ENDROOT
BRANCH   1   2
ATOM      2  C   UNL     1      48.673  33.644  86.660  1.00  0.00     0.000 C 
BRANCH   2   3
ATOM      3  C   UNL     1      48.708  35.156  86.930  1.00  0.00     0.000 C 
BRANCH   3   4
ATOM      4  C   UNL     1      50.088  35.639  87.412  1.00  0.00     0.000 C 
BRANCH   4   5
ATOM      5  C   UNL     1      51.245  34.968  86.656  1.00  0.00     0.006 C 
BRANCH   5   6
ATOM      6  C   UNL     1      52.616  35.297  87.262  1.00  0.00     0.053 C 
BRANCH   6   7
ATOM      7  C   UNL     1      53.679  34.448  86.642  1.00  0.00     0.041 C 
ATOM      8  O   UNL     1      54.688  34.105  87.312  1.00  0.00    -0.550 OA
ATOM      9  O   UNL     1      53.534  33.997  85.336  1.00  0.00    -0.550 OA
ENDBRANCH   6   7
ENDBRANCH   5   6
ENDBRANCH   4   5
ENDBRANCH   3   4
ENDBRANCH   2   3
ENDBRANCH   1   2
BRANCH   1  10
ATOM     10  C   UNL     1      47.536  31.522  87.441  1.00  0.00     0.000 C 
BRANCH  10  11
ATOM     11  C   UNL     1      46.444  31.057  88.418  1.00  0.00    -0.000 C 
BRANCH  11  12
ATOM     12  C   UNL     1      46.548  31.746  89.791  1.00  0.00    -0.000 C 
BRANCH  12  13
ATOM     13  C   UNL     1      45.866  30.941  90.909  1.00  0.00    -0.000 C 
BRANCH  13  14
ATOM     14  C   UNL     1      44.850  31.779  91.703  1.00  0.00    -0.000 C 
BRANCH  14  15
ATOM     15  C   UNL     1      44.143  30.966  92.799  1.00  0.00    -0.003 C 
ATOM     16  C   UNL     1      44.536  29.488  92.789  1.00  0.00     0.004 C 
ENDBRANCH  14  15
ENDBRANCH  13  14
ENDBRANCH  12  13
ENDBRANCH  11  12
ENDBRANCH  10  11
ENDBRANCH   1  10
TORSDOF 12
ENDMDL
MODEL 5
REMARK VINA RESULT:    -2.878      3.439      5.481
REMARK INTER + INTRA:          -6.728
REMARK INTER:                  -5.051
REMARK INTRA:                  -1.677
REMARK UNBOUND:                -1.832
REMARK SMILES CCCCCCCCCCCCCC(=O)[O-]
REMARK SMILES IDX 8 1 9 2 10 3 11 4 12 5 13 6 14 7 15 8 16 9 7 10 6 11 5 12
REMARK SMILES IDX 4 13 3 14 2 15 1 16
REMARK H PARENT
REMARK Flexibility Score: inf
ROOT
ATOM      1  C   UNL     1      49.057  33.799  86.558  1.00  0.00     0.000 C 
ENDROOT
BRANCH   1   2
ATOM      2  C   UNL     1      49.094  33.419  85.069  1.00  0.00     0.000 C 
BRANCH   2   3
ATOM      3  C   UNL     1      49.403  34.620  84.161  1.00  0.00     0.000 C 
BRANCH   3   4
ATOM      4  C   UNL     1      50.649  34.395  83.287  1.00  0.00     0.000 C 
BRANCH   4   5
ATOM      5  C   UNL     1      51.787  33.698  84.050  1.00  0.00     0.006 C 
BRANCH   5   6
ATOM      6  C   UNL     1      53.065  34.545  84.108  1.00  0.00     0.053 C 
BRANCH   6   7
ATOM      7  C   UNL     1      53.860  34.378  82.852  1.00  0.00     0.041 C 
ATOM      8  O   UNL     1      53.956  33.248  82.308  1.00  0.00    -0.550 OA
ATOM      9  O   UNL     1      54.458  35.482  82.257  1.00  0.00    -0.550 OA
ENDBRANCH   6   7
ENDBRANCH   5   6
ENDBRANCH   4   5
ENDBRANCH   3   4
ENDBRANCH   2   3
ENDBRANCH   1   2
BRANCH   1  10
ATOM     10  C   UNL     1      48.962  35.322  86.733  1.00  0.00     0.000 C 
BRANCH  10  11
ATOM     11  C   UNL     1      50.162  35.905  87.497  1.00  0.00    -0.000 C 
BRANCH  11  12
ATOM     12  C   UNL     1      51.385  34.969  87.480  1.00  0.00    -0.000 C 
BRANCH  12  13
ATOM     13  C   UNL     1      52.711  35.726  87.656  1.00  0.00    -0.000 C 
BRANCH  13  14
ATOM     14  C   UNL     1      53.900  34.783  87.903  1.00  0.00    -0.000 C 
BRANCH  14  15
ATOM     15  C   UNL     1      53.489  33.302  87.894  1.00  0.00    -0.003 C 
ATOM     16  C   UNL     1      54.250  32.481  86.852  1.00  0.00     0.004 C 
ENDBRANCH  14  15
ENDBRANCH  13  14
ENDBRANCH  12  13
ENDBRANCH  11  12
ENDBRANCH  10  11
ENDBRANCH   1  10
TORSDOF 12
ENDMDL
MODEL 6
REMARK VINA RESULT:    -2.877      1.931      4.245
REMARK INTER + INTRA:          -6.727
REMARK INTER:                  -5.657
REMARK INTRA:                  -1.070
REMARK UNBOUND:                -1.832
REMARK SMILES CCCCCCCCCCCCCC(=O)[O-]
REMARK SMILES IDX 8 1 9 2 10 3 11 4 12 5 13 6 14 7 15 8 16 9 7 10 6 11 5 12
REMARK SMILES IDX 4 13 3 14 2 15 1 16
REMARK H PARENT
REMARK Flexibility Score: inf
ROOT
ATOM      1  C   UNL     1      48.933  31.303  88.100  1.00  0.00     0.000 C 
ENDROOT
BRANCH   1   2
ATOM      2  C   UNL     1      47.853  32.392  88.003  1.00  0.00     0.000 C 
BRANCH   2   3
ATOM      3  C   UNL     1      48.405  33.726  87.476  1.00  0.00     0.000 C 
BRANCH   3   4
ATOM      4  C   UNL     1      49.077  33.585  86.099  1.00  0.00     0.000 C 
BRANCH   4   5
ATOM      5  C   UNL     1      50.207  34.605  85.886  1.00  0.00     0.006 C 
BRANCH   5   6
ATOM      6  C   UNL     1      50.497  35.435  87.143  1.00  0.00     0.053 C 
BRANCH   6   7
ATOM      7  C   UNL     1      51.883  35.169  87.637  1.00  0.00     0.041 C 
ATOM      8  O   UNL     1      52.632  36.124  87.969  1.00  0.00    -0.550 OA
ATOM      9  O   UNL     1      52.332  33.861  87.775  1.00  0.00    -0.550 OA
ENDBRANCH   6   7
ENDBRANCH   5   6
ENDBRANCH   4   5
ENDBRANCH   3   4
ENDBRANCH   2   3
ENDBRANCH   1   2
BRANCH   1  10
ATOM     10  C   UNL     1      49.488  31.207  89.530  1.00  0.00     0.000 C 
BRANCH  10  11
ATOM     11  C   UNL     1      48.378  31.086  90.587  1.00  0.00    -0.000 C 
BRANCH  11  12
ATOM     12  C   UNL     1      47.737  29.686  90.612  1.00  0.00    -0.000 C 
BRANCH  12  13
ATOM     13  C   UNL     1      46.258  29.721  91.028  1.00  0.00    -0.000 C 
BRANCH  13  14
ATOM     14  C   UNL     1      45.537  30.988  90.536  1.00  0.00    -0.000 C 
BRANCH  14  15
ATOM     15  C   UNL     1      44.794  31.719  91.666  1.00  0.00    -0.003 C 
ATOM     16  C   UNL     1      44.014  30.769  92.575  1.00  0.00     0.004 C 
ENDBRANCH  14  15
ENDBRANCH  13  14
ENDBRANCH  12  13
ENDBRANCH  11  12
ENDBRANCH  10  11
ENDBRANCH   1  10
TORSDOF 12
ENDMDL
MODEL 7
REMARK VINA RESULT:    -2.871     17.670     19.558
REMARK INTER + INTRA:          -6.718
REMARK INTER:                  -5.368
REMARK INTRA:                  -1.350
REMARK UNBOUND:                -1.832
REMARK SMILES CCCCCCCCCCCCCC(=O)[O-]
REMARK SMILES IDX 8 1 9 2 10 3 11 4 12 5 13 6 14 7 15 8 16 9 7 10 6 11 5 12
REMARK SMILES IDX 4 13 3 14 2 15 1 16
REMARK H PARENT
REMARK Flexibility Score: inf
ROOT
ATOM      1  C   UNL     1      47.293  21.849  74.222  1.00  0.00     0.000 C 
ENDROOT
BRANCH   1   2
ATOM      2  C   UNL     1      46.449  23.132  74.157  1.00  0.00     0.000 C 
BRANCH   2   3
ATOM      3  C   UNL     1      45.068  22.899  73.525  1.00  0.00     0.000 C 
BRANCH   3   4
ATOM      4  C   UNL     1      43.927  22.962  74.556  1.00  0.00     0.000 C 
BRANCH   4   5
ATOM      5  C   UNL     1      43.171  21.629  74.682  1.00  0.00     0.006 C 
BRANCH   5   6
ATOM      6  C   UNL     1      41.952  21.552  73.754  1.00  0.00     0.053 C 
BRANCH   6   7
ATOM      7  C   UNL     1      40.735  21.143  74.522  1.00  0.00     0.041 C 
ATOM      8  O   UNL     1      40.397  21.776  75.556  1.00  0.00    -0.550 OA
ATOM      9  O   UNL     1      39.950  20.091  74.070  1.00  0.00    -0.550 OA
ENDBRANCH   6   7
ENDBRANCH   5   6
ENDBRANCH   4   5
ENDBRANCH   3   4
ENDBRANCH   2   3
ENDBRANCH   1   2
BRANCH   1  10
ATOM     10  C   UNL     1      46.792  20.812  73.206  1.00  0.00     0.000 C 
BRANCH  10  11
ATOM     11  C   UNL     1      46.361  19.494  73.870  1.00  0.00    -0.000 C 
BRANCH  11  12
ATOM     12  C   UNL     1      46.173  19.634  75.392  1.00  0.00    -0.000 C 
BRANCH  12  13
ATOM     13  C   UNL     1      46.000  18.277  76.094  1.00  0.00    -0.000 C 
BRANCH  13  14
ATOM     14  C   UNL     1      45.651  18.424  77.584  1.00  0.00    -0.000 C 
BRANCH  14  15
ATOM     15  C   UNL     1      45.411  19.887  77.992  1.00  0.00    -0.003 C 
ATOM     16  C   UNL     1      43.963  20.160  78.398  1.00  0.00     0.004 C 
ENDBRANCH  14  15
ENDBRANCH  13  14
ENDBRANCH  12  13
ENDBRANCH  11  12
ENDBRANCH  10  11
ENDBRANCH   1  10
TORSDOF 12
ENDMDL
MODEL 8
REMARK VINA RESULT:    -2.850     15.840     17.666
REMARK INTER + INTRA:          -6.682
REMARK INTER:                  -4.621
REMARK INTRA:                  -2.061
REMARK UNBOUND:                -1.832
REMARK SMILES CCCCCCCCCCCCCC(=O)[O-]
REMARK SMILES IDX 8 1 9 2 10 3 11 4 12 5 13 6 14 7 15 8 16 9 7 10 6 11 5 12
REMARK SMILES IDX 4 13 3 14 2 15 1 16
REMARK H PARENT
REMARK Flexibility Score: inf
ROOT
ATOM      1  C   UNL     1      41.021  21.493  76.397  1.00  0.00     0.000 C 
ENDROOT
BRANCH   1   2
ATOM      2  C   UNL     1      42.272  22.358  76.181  1.00  0.00     0.000 C 
BRANCH   2   3
ATOM      3  C   UNL     1      43.445  21.562  75.586  1.00  0.00     0.000 C 
BRANCH   3   4
ATOM      4  C   UNL     1      44.804  22.244  75.825  1.00  0.00     0.000 C 
BRANCH   4   5
ATOM      5  C   UNL     1      45.838  21.296  76.452  1.00  0.00     0.006 C 
BRANCH   5   6
ATOM      6  C   UNL     1      45.277  19.889  76.696  1.00  0.00     0.053 C 
BRANCH   6   7
ATOM      7  C   UNL     1      45.945  18.896  75.797  1.00  0.00     0.041 C 
ATOM      8  O   UNL     1      46.480  19.275  74.723  1.00  0.00    -0.550 OA
ATOM      9  O   UNL     1      46.017  17.560  76.170  1.00  0.00    -0.550 OA
ENDBRANCH   6   7
ENDBRANCH   5   6
ENDBRANCH   4   5
ENDBRANCH   3   4
ENDBRANCH   2   3
ENDBRANCH   1   2
BRANCH   1  10
ATOM     10  C   UNL     1      40.418  21.739  77.788  1.00  0.00     0.000 C 
BRANCH  10  11
ATOM     11  C   UNL     1      40.510  20.504  78.699  1.00  0.00    -0.000 C 
BRANCH  11  12
ATOM     12  C   UNL     1      41.952  20.212  79.154  1.00  0.00    -0.000 C 
BRANCH  12  13
ATOM     13  C   UNL     1      42.531  21.329  80.037  1.00  0.00    -0.000 C 
BRANCH  13  14
ATOM     14  C   UNL     1      43.961  21.722  79.628  1.00  0.00    -0.000 C 
BRANCH  14  15
ATOM     15  C   UNL     1      44.101  23.226  79.347  1.00  0.00    -0.003 C 
ATOM     16  C   UNL     1      42.786  23.988  79.519  1.00  0.00     0.004 C 
ENDBRANCH  14  15
ENDBRANCH  13  14
ENDBRANCH  12  13
ENDBRANCH  11  12
ENDBRANCH  10  11
ENDBRANCH   1  10
TORSDOF 12
ENDMDL
MODEL 9
REMARK VINA RESULT:    -2.830     16.761     18.362
REMARK INTER + INTRA:          -6.647
REMARK INTER:                  -5.095
REMARK INTRA:                  -1.552
REMARK UNBOUND:                -1.832
REMARK SMILES CCCCCCCCCCCCCC(=O)[O-]
REMARK SMILES IDX 8 1 9 2 10 3 11 4 12 5 13 6 14 7 15 8 16 9 7 10 6 11 5 12
REMARK SMILES IDX 4 13 3 14 2 15 1 16
REMARK H PARENT
REMARK Flexibility Score: inf
ROOT
ATOM      1  C   UNL     1      40.762  21.533  76.704  1.00  0.00     0.000 C 
ENDROOT
BRANCH   1   2
ATOM      2  C   UNL     1      41.204  21.591  75.234  1.00  0.00     0.000 C 
BRANCH   2   3
ATOM      3  C   UNL     1      42.519  22.364  75.042  1.00  0.00     0.000 C 
BRANCH   3   4
ATOM      4  C   UNL     1      43.593  21.534  74.318  1.00  0.00     0.000 C 
BRANCH   4   5
ATOM      5  C   UNL     1      44.906  21.447  75.111  1.00  0.00     0.006 C 
BRANCH   5   6
ATOM      6  C   UNL     1      44.828  20.451  76.276  1.00  0.00     0.053 C 
BRANCH   6   7
ATOM      7  C   UNL     1      46.004  19.527  76.253  1.00  0.00     0.041 C 
ATOM      8  O   UNL     1      46.025  18.548  75.464  1.00  0.00    -0.550 OA
ATOM      9  O   UNL     1      47.097  19.775  77.074  1.00  0.00    -0.550 OA
ENDBRANCH   6   7
ENDBRANCH   5   6
ENDBRANCH   4   5
ENDBRANCH   3   4
ENDBRANCH   2   3
ENDBRANCH   1   2
BRANCH   1  10
ATOM     10  C   UNL     1      41.533  22.558  77.549  1.00  0.00     0.000 C 
BRANCH  10  11
ATOM     11  C   UNL     1      42.249  21.915  78.749  1.00  0.00    -0.000 C 
BRANCH  11  12
ATOM     12  C   UNL     1      42.018  20.395  78.830  1.00  0.00    -0.000 C 
BRANCH  12  13
ATOM     13  C   UNL     1      41.172  19.990  80.048  1.00  0.00    -0.000 C 
BRANCH  13  14
ATOM     14  C   UNL     1      39.687  19.799  79.696  1.00  0.00    -0.000 C 
BRANCH  14  15
ATOM     15  C   UNL     1      38.770  20.753  80.477  1.00  0.00    -0.003 C 
ATOM     16  C   UNL     1      38.243  21.904  79.620  1.00  0.00     0.004 C 
ENDBRANCH  14  15
ENDBRANCH  13  14
ENDBRANCH  12  13
ENDBRANCH  11  12
ENDBRANCH  10  11
ENDBRANCH   1  10
TORSDOF 12
ENDMDL
