MODEL 1
REMARK VINA RESULT:    -2.796      0.000      0.000
REMARK INTER + INTRA:          -3.319
REMARK INTER:                  -3.287
REMARK INTRA:                  -0.033
REMARK UNBOUND:                -0.033
REMARK SMILES O=C([O-])CCC(=O)[O-]
REMARK SMILES IDX 4 1 2 2 1 3 3 4 5 5 6 6 7 7 8 8
REMARK H PARENT
REMARK Flexibility Score: inf
ROOT
ATOM      1  C   UNL     1       3.356  28.379   8.246  1.00  0.00     0.059 C 
ENDROOT
BRANCH   1   2
ATOM      2  C   UNL     1       2.515  29.596   8.483  1.00  0.00     0.042 C 
ATOM      3  O   UNL     1       1.379  29.694   7.948  1.00  0.00    -0.550 OA
ATOM      4  O   UNL     1       3.001  30.639   9.261  1.00  0.00    -0.550 OA
ENDBRANCH   1   2
BRANCH   1   5
ATOM      5  C   UNL     1       4.510  28.285   9.248  1.00  0.00     0.059 C 
BRANCH   5   6
ATOM      6  C   UNL     1       5.331  27.050   9.032  1.00  0.00     0.042 C 
ATOM      7  O   UNL     1       5.724  26.745   7.875  1.00  0.00    -0.550 OA
ATOM      8  O   UNL     1       5.694  26.258  10.114  1.00  0.00    -0.550 OA
ENDBRANCH   5   6
ENDBRANCH   1   5
TORSDOF 3
ENDMDL
MODEL 2
REMARK VINA RESULT:    -2.586      0.534      4.266
REMARK INTER + INTRA:          -3.072
REMARK INTER:                  -3.042
REMARK INTRA:                  -0.030
REMARK UNBOUND:                -0.033
REMARK SMILES O=C([O-])CCC(=O)[O-]
REMARK SMILES IDX 4 1 2 2 1 3 3 4 5 5 6 6 7 7 8 8
REMARK H PARENT
REMARK Flexibility Score: inf
ROOT
ATOM      1  C   UNL     1       3.872  27.745   8.913  1.00  0.00     0.059 C 
ENDROOT
BRANCH   1   2
ATOM      2  C   UNL     1       5.185  27.025   8.944  1.00  0.00     0.042 C 
ATOM      3  O   UNL     1       5.842  26.861   7.883  1.00  0.00    -0.550 OA
ATOM      4  O   UNL     1       5.663  26.499  10.138  1.00  0.00    -0.550 OA
ENDBRANCH   1   2
BRANCH   1   5
ATOM      5  C   UNL     1       3.910  28.951   7.969  1.00  0.00     0.059 C 
BRANCH   5   6
ATOM      6  C   UNL     1       2.908  29.993   8.363  1.00  0.00     0.042 C 
ATOM      7  O   UNL     1       3.263  30.986   9.051  1.00  0.00    -0.550 OA
ATOM      8  O   UNL     1       1.590  29.887   7.935  1.00  0.00    -0.550 OA
ENDBRANCH   5   6
ENDBRANCH   1   5
TORSDOF 3
ENDMDL
MODEL 3
REMARK VINA RESULT:    -2.408     15.700     16.695
REMARK INTER + INTRA:          -2.862
REMARK INTER:                  -2.738
REMARK INTRA:                  -0.124
REMARK UNBOUND:                -0.033
REMARK SMILES O=C([O-])CCC(=O)[O-]
REMARK SMILES IDX 4 1 2 2 1 3 3 4 5 5 6 6 7 7 8 8
REMARK H PARENT
REMARK Flexibility Score: inf
ROOT
ATOM      1  C   UNL     1      -1.396  12.912  11.252  1.00  0.00     0.059 C 
ENDROOT
BRANCH   1   2
ATOM      2  C   UNL     1      -1.222  14.242  10.585  1.00  0.00     0.042 C 
ATOM      3  O   UNL     1      -0.273  14.999  10.921  1.00  0.00    -0.550 OA
ATOM      4  O   UNL     1      -2.130  14.662   9.621  1.00  0.00    -0.550 OA
ENDBRANCH   1   2
BRANCH   1   5
ATOM      5  C   UNL     1      -0.622  11.808  10.525  1.00  0.00     0.059 C 
BRANCH   5   6
ATOM      6  C   UNL     1      -1.422  11.222   9.401  1.00  0.00     0.042 C 
ATOM      7  O   UNL     1      -0.854  10.875   8.333  1.00  0.00    -0.550 OA
ATOM      8  O   UNL     1      -2.789  11.022   9.551  1.00  0.00    -0.550 OA
ENDBRANCH   5   6
ENDBRANCH   1   5
TORSDOF 3
ENDMDL
MODEL 4
REMARK VINA RESULT:    -2.381     14.351     15.461
REMARK INTER + INTRA:          -2.831
REMARK INTER:                  -2.732
REMARK INTRA:                  -0.099
REMARK UNBOUND:                -0.033
REMARK SMILES O=C([O-])CCC(=O)[O-]
REMARK SMILES IDX 4 1 2 2 1 3 3 4 5 5 6 6 7 7 8 8
REMARK H PARENT
REMARK Flexibility Score: inf
ROOT
ATOM      1  C   UNL     1      -2.741  13.721  10.211  1.00  0.00     0.059 C 
ENDROOT
BRANCH   1   2
ATOM      2  C   UNL     1      -1.302  13.589  10.606  1.00  0.00     0.042 C 
ATOM      3  O   UNL     1      -0.735  12.465  10.564  1.00  0.00    -0.550 OA
ATOM      4  O   UNL     1      -0.599  14.698  11.058  1.00  0.00    -0.550 OA
ENDBRANCH   1   2
BRANCH   1   5
ATOM      5  C   UNL     1      -2.890  14.263   8.786  1.00  0.00     0.059 C 
BRANCH   5   6
ATOM      6  C   UNL     1      -2.864  15.762   8.761  1.00  0.00     0.042 C 
ATOM      7  O   UNL     1      -3.678  16.422   9.458  1.00  0.00    -0.550 OA
ATOM      8  O   UNL     1      -1.915  16.427   7.995  1.00  0.00    -0.550 OA
ENDBRANCH   5   6
ENDBRANCH   1   5
TORSDOF 3
ENDMDL
MODEL 5
REMARK VINA RESULT:    -2.348     14.411     15.105
REMARK INTER + INTRA:          -2.792
REMARK INTER:                  -2.699
REMARK INTRA:                  -0.092
REMARK UNBOUND:                -0.033
REMARK SMILES O=C([O-])CCC(=O)[O-]
REMARK SMILES IDX 4 1 2 2 1 3 3 4 5 5 6 6 7 7 8 8
REMARK H PARENT
REMARK Flexibility Score: inf
ROOT
ATOM      1  C   UNL     1      -2.893  14.259   8.766  1.00  0.00     0.059 C 
ENDROOT
BRANCH   1   2
ATOM      2  C   UNL     1      -2.884  15.757   8.741  1.00  0.00     0.042 C 
ATOM      3  O   UNL     1      -1.998  16.374   8.092  1.00  0.00    -0.550 OA
ATOM      4  O   UNL     1      -3.828  16.472   9.466  1.00  0.00    -0.550 OA
ENDBRANCH   1   2
BRANCH   1   5
ATOM      5  C   UNL     1      -2.747  13.717  10.192  1.00  0.00     0.059 C 
BRANCH   5   6
ATOM      6  C   UNL     1      -1.307  13.555  10.576  1.00  0.00     0.042 C 
ATOM      7  O   UNL     1      -0.650  14.540  11.003  1.00  0.00    -0.550 OA
ATOM      8  O   UNL     1      -0.704  12.306  10.499  1.00  0.00    -0.550 OA
ENDBRANCH   5   6
ENDBRANCH   1   5
TORSDOF 3
ENDMDL
MODEL 6
REMARK VINA RESULT:    -2.307     15.902     17.288
REMARK INTER + INTRA:          -2.744
REMARK INTER:                  -2.626
REMARK INTRA:                  -0.118
REMARK UNBOUND:                -0.033
REMARK SMILES O=C([O-])CCC(=O)[O-]
REMARK SMILES IDX 4 1 2 2 1 3 3 4 5 5 6 6 7 7 8 8
REMARK H PARENT
REMARK Flexibility Score: inf
ROOT
ATOM      1  C   UNL     1      14.564  26.935  22.569  1.00  0.00     0.059 C 
ENDROOT
BRANCH   1   2
ATOM      2  C   UNL     1      14.245  27.144  21.121  1.00  0.00     0.042 C 
ATOM      3  O   UNL     1      14.596  26.289  20.265  1.00  0.00    -0.550 OA
ATOM      4  O   UNL     1      13.599  28.303  20.709  1.00  0.00    -0.550 OA
ENDBRANCH   1   2
BRANCH   1   5
ATOM      5  C   UNL     1      13.293  26.760  23.408  1.00  0.00     0.059 C 
BRANCH   5   6
ATOM      6  C   UNL     1      12.980  27.995  24.198  1.00  0.00     0.042 C 
ATOM      7  O   UNL     1      12.140  28.828  23.766  1.00  0.00    -0.550 OA
ATOM      8  O   UNL     1      13.587  28.203  25.430  1.00  0.00    -0.550 OA
ENDBRANCH   5   6
ENDBRANCH   1   5
TORSDOF 3
ENDMDL
MODEL 7
REMARK VINA RESULT:    -2.305     15.919     17.139
REMARK INTER + INTRA:          -2.742
REMARK INTER:                  -2.623
REMARK INTRA:                  -0.119
REMARK UNBOUND:                -0.033
REMARK SMILES O=C([O-])CCC(=O)[O-]
REMARK SMILES IDX 4 1 2 2 1 3 3 4 5 5 6 6 7 7 8 8
REMARK H PARENT
REMARK Flexibility Score: inf
ROOT
ATOM      1  C   UNL     1      13.272  26.798  23.405  1.00  0.00     0.059 C 
ENDROOT
BRANCH   1   2
ATOM      2  C   UNL     1      12.928  28.020  24.200  1.00  0.00     0.042 C 
ATOM      3  O   UNL     1      12.121  28.870  23.737  1.00  0.00    -0.550 OA
ATOM      4  O   UNL     1      13.528  28.242  25.433  1.00  0.00    -0.550 OA
ENDBRANCH   1   2
BRANCH   1   5
ATOM      5  C   UNL     1      14.549  27.000  22.583  1.00  0.00     0.059 C 
BRANCH   5   6
ATOM      6  C   UNL     1      14.246  27.162  21.124  1.00  0.00     0.042 C 
ATOM      7  O   UNL     1      13.653  28.193  20.710  1.00  0.00    -0.550 OA
ATOM      8  O   UNL     1      14.654  26.192  20.217  1.00  0.00    -0.550 OA
ENDBRANCH   5   6
ENDBRANCH   1   5
TORSDOF 3
ENDMDL
MODEL 8
REMARK VINA RESULT:    -2.285     15.707     16.564
REMARK INTER + INTRA:          -2.718
REMARK INTER:                  -2.635
REMARK INTRA:                  -0.083
REMARK UNBOUND:                -0.033
REMARK SMILES O=C([O-])CCC(=O)[O-]
REMARK SMILES IDX 4 1 2 2 1 3 3 4 5 5 6 6 7 7 8 8
REMARK H PARENT
REMARK Flexibility Score: inf
ROOT
ATOM      1  C   UNL     1      -1.489  13.947  10.475  1.00  0.00     0.059 C 
ENDROOT
BRANCH   1   2
ATOM      2  C   UNL     1      -2.737  14.332   9.740  1.00  0.00     0.042 C 
ATOM      3  O   UNL     1      -2.692  15.199   8.827  1.00  0.00    -0.550 OA
ATOM      4  O   UNL     1      -3.955  13.766  10.091  1.00  0.00    -0.550 OA
ENDBRANCH   1   2
BRANCH   1   5
ATOM      5  C   UNL     1      -1.675  12.646  11.262  1.00  0.00     0.059 C 
BRANCH   5   6
ATOM      6  C   UNL     1      -0.804  11.549  10.729  1.00  0.00     0.042 C 
ATOM      7  O   UNL     1      -0.083  10.876  11.511  1.00  0.00    -0.550 OA
ATOM      8  O   UNL     1      -0.818  11.247   9.373  1.00  0.00    -0.550 OA
ENDBRANCH   5   6
ENDBRANCH   1   5
TORSDOF 3
ENDMDL
MODEL 9
REMARK VINA RESULT:    -1.921     15.631     16.895
REMARK INTER + INTRA:          -2.290
REMARK INTER:                  -2.187
REMARK INTRA:                  -0.104
REMARK UNBOUND:                -0.033
REMARK SMILES O=C([O-])CCC(=O)[O-]
REMARK SMILES IDX 4 1 2 2 1 3 3 4 5 5 6 6 7 7 8 8
REMARK H PARENT
REMARK Flexibility Score: inf
ROOT
ATOM      1  C   UNL     1      -1.563  12.672  11.204  1.00  0.00     0.059 C 
ENDROOT
BRANCH   1   2
ATOM      2  C   UNL     1      -0.928  11.547  10.445  1.00  0.00     0.042 C 
ATOM      3  O   UNL     1       0.000  10.875  10.968  1.00  0.00    -0.550 OA
ATOM      4  O   UNL     1      -1.331  11.267   9.146  1.00  0.00    -0.550 OA
ENDBRANCH   1   2
BRANCH   1   5
ATOM      5  C   UNL     1      -1.344  14.018  10.506  1.00  0.00     0.059 C 
BRANCH   5   6
ATOM      6  C   UNL     1      -2.567  14.458   9.759  1.00  0.00     0.042 C 
ATOM      7  O   UNL     1      -2.496  15.398   8.925  1.00  0.00    -0.550 OA
ATOM      8  O   UNL     1      -3.775  13.801   9.956  1.00  0.00    -0.550 OA
ENDBRANCH   5   6
ENDBRANCH   1   5
TORSDOF 3
ENDMDL
