MODEL 1
REMARK VINA RESULT:    -3.579      0.000      0.000
REMARK INTER + INTRA:          -4.172
REMARK INTER:                  -4.103
REMARK INTRA:                  -0.069
REMARK UNBOUND:                -0.069
REMARK SMILES CC(C)[C@@H]([NH3+])C(=O)[O-]
REMARK SMILES IDX 4 1 5 2 6 6 7 7 8 8 2 9 1 10 3 11
REMARK H PARENT 5 3 5 4 5 5
REMARK Flexibility Score: inf
ROOT
ATOM      1  C   UNL     1     195.964 185.677 182.375  1.00  0.00     0.230 C 
ENDROOT
BRANCH   1   2
ATOM      2  N   UNL     1     196.325 184.686 183.398  1.00  0.00    -0.350 N 
ATOM      3  H   UNL     1     197.196 184.173 183.128  1.00  0.00     0.345 HD
ATOM      4  H   UNL     1     195.544 184.004 183.533  1.00  0.00     0.345 HD
ATOM      5  H   UNL     1     196.481 185.159 184.319  1.00  0.00     0.345 HD
ENDBRANCH   1   2
BRANCH   1   6
ATOM      6  C   UNL     1     194.526 186.095 182.563  1.00  0.00     0.099 C 
ATOM      7  O   UNL     1     194.187 186.780 183.564  1.00  0.00    -0.544 OA
ATOM      8  O   UNL     1     193.568 185.729 181.626  1.00  0.00    -0.544 OA
ENDBRANCH   1   6
BRANCH   1   9
ATOM      9  C   UNL     1     196.911 186.916 182.405  1.00  0.00     0.047 C 
ATOM     10  C   UNL     1     196.873 187.679 181.070  1.00  0.00     0.014 C 
ATOM     11  C   UNL     1     198.364 186.520 182.717  1.00  0.00     0.014 C 
ENDBRANCH   1   9
TORSDOF 3
ENDMDL
MODEL 2
REMARK VINA RESULT:    -3.572      2.420      3.166
REMARK INTER + INTRA:          -4.163
REMARK INTER:                  -4.114
REMARK INTRA:                  -0.049
REMARK UNBOUND:                -0.069
REMARK SMILES CC(C)[C@@H]([NH3+])C(=O)[O-]
REMARK SMILES IDX 4 1 5 2 6 6 7 7 8 8 2 9 1 10 3 11
REMARK H PARENT 5 3 5 4 5 5
REMARK Flexibility Score: inf
ROOT
ATOM      1  C   UNL     1     196.132 187.667 182.321  1.00  0.00     0.230 C 
ENDROOT
BRANCH   1   2
ATOM      2  N   UNL     1     194.930 187.833 183.150  1.00  0.00    -0.350 N 
ATOM      3  H   UNL     1     194.600 186.909 183.516  1.00  0.00     0.345 HD
ATOM      4  H   UNL     1     194.167 188.283 182.596  1.00  0.00     0.345 HD
ATOM      5  H   UNL     1     195.135 188.464 183.960  1.00  0.00     0.345 HD
ENDBRANCH   1   2
BRANCH   1   6
ATOM      6  C   UNL     1     197.008 186.591 182.914  1.00  0.00     0.099 C 
ATOM      7  O   UNL     1     196.524 185.740 183.706  1.00  0.00    -0.544 OA
ATOM      8  O   UNL     1     198.356 186.531 182.583  1.00  0.00    -0.544 OA
ENDBRANCH   1   6
BRANCH   1   9
ATOM      9  C   UNL     1     195.776 187.339 180.839  1.00  0.00     0.047 C 
ATOM     10  C   UNL     1     195.715 188.617 179.984  1.00  0.00     0.014 C 
ATOM     11  C   UNL     1     194.437 186.592 180.723  1.00  0.00     0.014 C 
ENDBRANCH   1   9
TORSDOF 3
ENDMDL
MODEL 3
REMARK VINA RESULT:    -3.493      1.999      2.469
REMARK INTER + INTRA:          -4.073
REMARK INTER:                  -4.011
REMARK INTRA:                  -0.062
REMARK UNBOUND:                -0.069
REMARK SMILES CC(C)[C@@H]([NH3+])C(=O)[O-]
REMARK SMILES IDX 4 1 5 2 6 6 7 7 8 8 2 9 1 10 3 11
REMARK H PARENT 5 3 5 4 5 5
REMARK Flexibility Score: inf
ROOT
ATOM      1  C   UNL     1     194.722 186.459 182.613  1.00  0.00     0.230 C 
ENDROOT
BRANCH   1   2
ATOM      2  N   UNL     1     193.549 186.825 183.419  1.00  0.00    -0.350 N 
ATOM      3  H   UNL     1     192.663 186.599 182.909  1.00  0.00     0.345 HD
ATOM      4  H   UNL     1     193.571 187.845 183.648  1.00  0.00     0.345 HD
ATOM      5  H   UNL     1     193.560 186.305 184.328  1.00  0.00     0.345 HD
ENDBRANCH   1   2
BRANCH   1   6
ATOM      6  C   UNL     1     194.330 186.387 181.158  1.00  0.00     0.099 C 
ATOM      7  O   UNL     1     194.987 187.020 180.288  1.00  0.00    -0.544 OA
ATOM      8  O   UNL     1     193.243 185.615 180.768  1.00  0.00    -0.544 OA
ENDBRANCH   1   6
BRANCH   1   9
ATOM      9  C   UNL     1     195.905 187.453 182.821  1.00  0.00     0.047 C 
ATOM     10  C   UNL     1     197.204 186.708 183.175  1.00  0.00     0.014 C 
ATOM     11  C   UNL     1     195.601 188.484 183.922  1.00  0.00     0.014 C 
ENDBRANCH   1   9
TORSDOF 3
ENDMDL
MODEL 4
REMARK VINA RESULT:    -3.414      2.788      3.338
REMARK INTER + INTRA:          -3.982
REMARK INTER:                  -3.934
REMARK INTRA:                  -0.048
REMARK UNBOUND:                -0.069
REMARK SMILES CC(C)[C@@H]([NH3+])C(=O)[O-]
REMARK SMILES IDX 4 1 5 2 6 6 7 7 8 8 2 9 1 10 3 11
REMARK H PARENT 5 3 5 4 5 5
REMARK Flexibility Score: inf
ROOT
ATOM      1  C   UNL     1     195.532 186.913 181.223  1.00  0.00     0.230 C 
ENDROOT
BRANCH   1   2
ATOM      2  N   UNL     1     194.063 186.936 181.279  1.00  0.00    -0.350 N 
ATOM      3  H   UNL     1     193.730 186.943 182.271  1.00  0.00     0.345 HD
ATOM      4  H   UNL     1     193.669 186.104 180.783  1.00  0.00     0.345 HD
ATOM      5  H   UNL     1     193.697 187.787 180.791  1.00  0.00     0.345 HD
ENDBRANCH   1   2
BRANCH   1   6
ATOM      6  C   UNL     1     196.017 188.004 180.301  1.00  0.00     0.099 C 
ATOM      7  O   UNL     1     197.251 188.188 180.124  1.00  0.00    -0.544 OA
ATOM      8  O   UNL     1     195.102 188.809 179.634  1.00  0.00    -0.544 OA
ENDBRANCH   1   6
BRANCH   1   9
ATOM      9  C   UNL     1     196.171 187.056 182.638  1.00  0.00     0.047 C 
ATOM     10  C   UNL     1     196.595 185.688 183.200  1.00  0.00     0.014 C 
ATOM     11  C   UNL     1     195.214 187.733 183.633  1.00  0.00     0.014 C 
ENDBRANCH   1   9
TORSDOF 3
ENDMDL
MODEL 5
REMARK VINA RESULT:    -3.243      7.012      8.004
REMARK INTER + INTRA:          -3.787
REMARK INTER:                  -3.737
REMARK INTRA:                  -0.050
REMARK UNBOUND:                -0.069
REMARK SMILES CC(C)[C@@H]([NH3+])C(=O)[O-]
REMARK SMILES IDX 4 1 5 2 6 6 7 7 8 8 2 9 1 10 3 11
REMARK H PARENT 5 3 5 4 5 5
REMARK Flexibility Score: inf
ROOT
ATOM      1  C   UNL     1     196.131 187.778 174.940  1.00  0.00     0.230 C 
ENDROOT
BRANCH   1   2
ATOM      2  N   UNL     1     196.224 189.125 174.358  1.00  0.00    -0.350 N 
ATOM      3  H   UNL     1     197.142 189.569 174.594  1.00  0.00     0.345 HD
ATOM      4  H   UNL     1     195.444 189.726 174.710  1.00  0.00     0.345 HD
ATOM      5  H   UNL     1     196.128 189.075 173.317  1.00  0.00     0.345 HD
ENDBRANCH   1   2
BRANCH   1   6
ATOM      6  C   UNL     1     196.667 187.801 176.350  1.00  0.00     0.099 C 
ATOM      7  O   UNL     1     197.857 187.462 176.586  1.00  0.00    -0.544 OA
ATOM      8  O   UNL     1     195.849 188.205 177.398  1.00  0.00    -0.544 OA
ENDBRANCH   1   6
BRANCH   1   9
ATOM      9  C   UNL     1     194.671 187.230 174.910  1.00  0.00     0.047 C 
ATOM     10  C   UNL     1     194.636 185.762 174.451  1.00  0.00     0.014 C 
ATOM     11  C   UNL     1     193.764 188.066 173.990  1.00  0.00     0.014 C 
ENDBRANCH   1   9
TORSDOF 3
ENDMDL
MODEL 6
REMARK VINA RESULT:    -3.221      7.078      8.033
REMARK INTER + INTRA:          -3.761
REMARK INTER:                  -3.715
REMARK INTRA:                  -0.047
REMARK UNBOUND:                -0.069
REMARK SMILES CC(C)[C@@H]([NH3+])C(=O)[O-]
REMARK SMILES IDX 4 1 5 2 6 6 7 7 8 8 2 9 1 10 3 11
REMARK H PARENT 5 3 5 4 5 5
REMARK Flexibility Score: inf
ROOT
ATOM      1  C   UNL     1     194.615 187.420 175.034  1.00  0.00     0.230 C 
ENDROOT
BRANCH   1   2
ATOM      2  N   UNL     1     193.992 188.264 174.004  1.00  0.00    -0.350 N 
ATOM      3  H   UNL     1     193.832 189.233 174.366  1.00  0.00     0.345 HD
ATOM      4  H   UNL     1     193.083 187.849 173.698  1.00  0.00     0.345 HD
ATOM      5  H   UNL     1     194.608 188.314 173.159  1.00  0.00     0.345 HD
ENDBRANCH   1   2
BRANCH   1   6
ATOM      6  C   UNL     1     194.497 185.969 174.635  1.00  0.00     0.099 C 
ATOM      7  O   UNL     1     194.994 185.564 173.551  1.00  0.00    -0.544 OA
ATOM      8  O   UNL     1     193.844 185.070 175.468  1.00  0.00    -0.544 OA
ENDBRANCH   1   6
BRANCH   1   9
ATOM      9  C   UNL     1     196.105 187.808 175.282  1.00  0.00     0.047 C 
ATOM     10  C   UNL     1     196.404 187.938 176.786  1.00  0.00     0.014 C 
ATOM     11  C   UNL     1     196.478 189.125 174.580  1.00  0.00     0.014 C 
ENDBRANCH   1   9
TORSDOF 3
ENDMDL
MODEL 7
REMARK VINA RESULT:    -3.174      7.547      8.213
REMARK INTER + INTRA:          -3.707
REMARK INTER:                  -3.652
REMARK INTRA:                  -0.055
REMARK UNBOUND:                -0.069
REMARK SMILES CC(C)[C@@H]([NH3+])C(=O)[O-]
REMARK SMILES IDX 4 1 5 2 6 6 7 7 8 8 2 9 1 10 3 11
REMARK H PARENT 5 3 5 4 5 5
REMARK Flexibility Score: inf
ROOT
ATOM      1  C   UNL     1     195.415 185.813 174.730  1.00  0.00     0.230 C 
ENDROOT
BRANCH   1   2
ATOM      2  N   UNL     1     195.137 185.697 173.291  1.00  0.00    -0.350 N 
ATOM      3  H   UNL     1     194.563 184.845 173.091  1.00  0.00     0.345 HD
ATOM      4  H   UNL     1     196.032 185.650 172.752  1.00  0.00     0.345 HD
ATOM      5  H   UNL     1     194.619 186.542 172.955  1.00  0.00     0.345 HD
ENDBRANCH   1   2
BRANCH   1   6
ATOM      6  C   UNL     1     195.247 187.249 175.160  1.00  0.00     0.099 C 
ATOM      7  O   UNL     1     194.627 188.066 174.428  1.00  0.00    -0.544 OA
ATOM      8  O   UNL     1     195.771 187.677 176.374  1.00  0.00    -0.544 OA
ENDBRANCH   1   6
BRANCH   1   9
ATOM      9  C   UNL     1     194.506 184.870 175.576  1.00  0.00     0.047 C 
ATOM     10  C   UNL     1     194.882 183.393 175.361  1.00  0.00     0.014 C 
ATOM     11  C   UNL     1     193.016 185.062 175.246  1.00  0.00     0.014 C 
ENDBRANCH   1   9
TORSDOF 3
ENDMDL
MODEL 8
REMARK VINA RESULT:    -3.139      7.265      7.920
REMARK INTER + INTRA:          -3.666
REMARK INTER:                  -3.589
REMARK INTRA:                  -0.077
REMARK UNBOUND:                -0.069
REMARK SMILES CC(C)[C@@H]([NH3+])C(=O)[O-]
REMARK SMILES IDX 4 1 5 2 6 6 7 7 8 8 2 9 1 10 3 11
REMARK H PARENT 5 3 5 4 5 5
REMARK Flexibility Score: inf
ROOT
ATOM      1  C   UNL     1     194.197 185.683 174.443  1.00  0.00     0.230 C 
ENDROOT
BRANCH   1   2
ATOM      2  N   UNL     1     195.000 185.377 173.250  1.00  0.00    -0.350 N 
ATOM      3  H   UNL     1     194.448 184.807 172.567  1.00  0.00     0.345 HD
ATOM      4  H   UNL     1     195.866 184.858 173.520  1.00  0.00     0.345 HD
ATOM      5  H   UNL     1     195.305 186.263 172.783  1.00  0.00     0.345 HD
ENDBRANCH   1   2
BRANCH   1   6
ATOM      6  C   UNL     1     194.278 184.531 175.413  1.00  0.00     0.099 C 
ATOM      7  O   UNL     1     195.001 183.532 175.158  1.00  0.00    -0.544 OA
ATOM      8  O   UNL     1     193.556 184.569 176.600  1.00  0.00    -0.544 OA
ENDBRANCH   1   6
BRANCH   1   9
ATOM      9  C   UNL     1     194.648 187.013 175.122  1.00  0.00     0.047 C 
ATOM     10  C   UNL     1     194.431 188.217 174.188  1.00  0.00     0.014 C 
ATOM     11  C   UNL     1     196.125 186.967 175.548  1.00  0.00     0.014 C 
ENDBRANCH   1   9
TORSDOF 3
ENDMDL
