MODEL 1
REMARK VINA RESULT:    -3.573      0.000      0.000
REMARK INTER + INTRA:          -6.796
REMARK INTER:                  -5.453
REMARK INTRA:                  -1.343
REMARK UNBOUND:                -1.343
REMARK SMILES C=CCCCCCCCCCC
REMARK SMILES IDX 7 1 8 2 9 3 10 4 11 5 12 6 6 7 5 8 4 9 3 10 2 11 1 12
REMARK H PARENT
REMARK Flexibility Score: inf
ROOT
ATOM      1  C   UNL     1      31.700   7.014  33.578  1.00  0.00     0.000 C 
ENDROOT
BRANCH   1   2
ATOM      2  C   UNL     1      30.815   7.736  32.555  1.00  0.00    -0.000 C 
BRANCH   2   3
ATOM      3  C   UNL     1      31.177   9.223  32.465  1.00  0.00    -0.000 C 
BRANCH   3   4
ATOM      4  C   UNL     1      32.574   9.485  33.040  1.00  0.00    -0.000 C 
BRANCH   4   5
ATOM      5  C   UNL     1      32.844  10.990  33.164  1.00  0.00    -0.003 C 
ATOM      6  C   UNL     1      32.054  11.778  32.125  1.00  0.00     0.004 C 
ENDBRANCH   4   5
ENDBRANCH   3   4
ENDBRANCH   2   3
ENDBRANCH   1   2
BRANCH   1   7
ATOM      7  C   UNL     1      30.862   6.447  34.731  1.00  0.00     0.000 C 
BRANCH   7   8
ATOM      8  C   UNL     1      31.553   6.584  36.098  1.00  0.00     0.000 C 
BRANCH   8   9
ATOM      9  C   UNL     1      30.830   7.548  37.062  1.00  0.00     0.004 C 
BRANCH   9  10
ATOM     10  C   UNL     1      31.675   8.790  37.383  1.00  0.00     0.027 C 
BRANCH  10  11
ATOM     11  C   UNL     1      31.411   9.896  36.400  1.00  0.00    -0.035 C 
ATOM     12  C   UNL     1      30.185  10.132  35.922  1.00  0.00     0.004 C 
ENDBRANCH  10  11
ENDBRANCH   9  10
ENDBRANCH   8   9
ENDBRANCH   7   8
ENDBRANCH   1   7
TORSDOF 9
ENDMDL
MODEL 2
REMARK VINA RESULT:    -3.542      0.624      4.035
REMARK INTER + INTRA:          -6.749
REMARK INTER:                  -5.523
REMARK INTRA:                  -1.226
REMARK UNBOUND:                -1.343
REMARK SMILES C=CCCCCCCCCCC
REMARK SMILES IDX 7 1 8 2 9 3 10 4 11 5 12 6 6 7 5 8 4 9 3 10 2 11 1 12
REMARK H PARENT
REMARK Flexibility Score: inf
ROOT
ATOM      1  C   UNL     1      30.876   6.583  34.442  1.00  0.00     0.000 C 
ENDROOT
BRANCH   1   2
ATOM      2  C   UNL     1      31.596   6.399  35.783  1.00  0.00    -0.000 C 
BRANCH   2   3
ATOM      3  C   UNL     1      31.214   7.508  36.770  1.00  0.00    -0.000 C 
BRANCH   3   4
ATOM      4  C   UNL     1      30.269   8.525  36.117  1.00  0.00    -0.000 C 
BRANCH   4   5
ATOM      5  C   UNL     1      30.755   9.960  36.355  1.00  0.00    -0.003 C 
ATOM      6  C   UNL     1      32.099   9.973  37.077  1.00  0.00     0.004 C 
ENDBRANCH   4   5
ENDBRANCH   3   4
ENDBRANCH   2   3
ENDBRANCH   1   2
BRANCH   1   7
ATOM      7  C   UNL     1      31.878   6.848  33.310  1.00  0.00     0.000 C 
BRANCH   7   8
ATOM      8  C   UNL     1      31.258   7.611  32.128  1.00  0.00     0.000 C 
BRANCH   8   9
ATOM      9  C   UNL     1      31.294   9.145  32.295  1.00  0.00     0.004 C 
BRANCH   9  10
ATOM     10  C   UNL     1      32.495   9.608  33.134  1.00  0.00     0.027 C 
BRANCH  10  11
ATOM     11  C   UNL     1      32.667  11.100  33.059  1.00  0.00    -0.035 C 
ATOM     12  C   UNL     1      32.097  11.824  32.090  1.00  0.00     0.004 C 
ENDBRANCH  10  11
ENDBRANCH   9  10
ENDBRANCH   8   9
ENDBRANCH   7   8
ENDBRANCH   1   7
TORSDOF 9
ENDMDL
MODEL 3
REMARK VINA RESULT:    -3.388      1.229      2.602
REMARK INTER + INTRA:          -6.514
REMARK INTER:                  -4.723
REMARK INTRA:                  -1.790
REMARK UNBOUND:                -1.343
REMARK SMILES C=CCCCCCCCCCC
REMARK SMILES IDX 7 1 8 2 9 3 10 4 11 5 12 6 6 7 5 8 4 9 3 10 2 11 1 12
REMARK H PARENT
REMARK Flexibility Score: inf
ROOT
ATOM      1  C   UNL     1      31.528   8.296  32.630  1.00  0.00     0.000 C 
ENDROOT
BRANCH   1   2
ATOM      2  C   UNL     1      32.356   9.484  33.132  1.00  0.00    -0.000 C 
BRANCH   2   3
ATOM      3  C   UNL     1      31.451  10.590  33.688  1.00  0.00    -0.000 C 
BRANCH   3   4
ATOM      4  C   UNL     1      29.978  10.312  33.364  1.00  0.00    -0.000 C 
BRANCH   4   5
ATOM      5  C   UNL     1      29.117  10.364  34.632  1.00  0.00    -0.003 C 
ATOM      6  C   UNL     1      28.122   9.208  34.670  1.00  0.00     0.004 C 
ENDBRANCH   4   5
ENDBRANCH   3   4
ENDBRANCH   2   3
ENDBRANCH   1   2
BRANCH   1   7
ATOM      7  C   UNL     1      31.898   7.009  33.380  1.00  0.00     0.000 C 
BRANCH   7   8
ATOM      8  C   UNL     1      30.854   6.609  34.436  1.00  0.00     0.000 C 
BRANCH   8   9
ATOM      9  C   UNL     1      31.402   6.610  35.878  1.00  0.00     0.004 C 
BRANCH   9  10
ATOM     10  C   UNL     1      30.810   7.749  36.723  1.00  0.00     0.027 C 
BRANCH  10  11
ATOM     11  C   UNL     1      31.800   8.868  36.897  1.00  0.00    -0.035 C 
ATOM     12  C   UNL     1      31.466  10.012  37.503  1.00  0.00     0.004 C 
ENDBRANCH  10  11
ENDBRANCH   9  10
ENDBRANCH   8   9
ENDBRANCH   7   8
ENDBRANCH   1   7
TORSDOF 9
ENDMDL
MODEL 4
REMARK VINA RESULT:    -3.386      0.665      1.530
REMARK INTER + INTRA:          -6.511
REMARK INTER:                  -4.814
REMARK INTRA:                  -1.696
REMARK UNBOUND:                -1.343
REMARK SMILES C=CCCCCCCCCCC
REMARK SMILES IDX 7 1 8 2 9 3 10 4 11 5 12 6 6 7 5 8 4 9 3 10 2 11 1 12
REMARK H PARENT
REMARK Flexibility Score: inf
ROOT
ATOM      1  C   UNL     1      30.798   6.580  34.633  1.00  0.00     0.000 C 
ENDROOT
BRANCH   1   2
ATOM      2  C   UNL     1      31.621   7.079  33.440  1.00  0.00    -0.000 C 
BRANCH   2   3
ATOM      3  C   UNL     1      30.768   7.945  32.506  1.00  0.00    -0.000 C 
BRANCH   3   4
ATOM      4  C   UNL     1      31.384   9.339  32.332  1.00  0.00    -0.000 C 
BRANCH   4   5
ATOM      5  C   UNL     1      32.666   9.481  33.160  1.00  0.00    -0.003 C 
ATOM      6  C   UNL     1      32.969  10.946  33.459  1.00  0.00     0.004 C 
ENDBRANCH   4   5
ENDBRANCH   3   4
ENDBRANCH   2   3
ENDBRANCH   1   2
BRANCH   1   7
ATOM      7  C   UNL     1      31.651   6.519  35.906  1.00  0.00     0.000 C 
BRANCH   7   8
ATOM      8  C   UNL     1      31.200   7.524  36.979  1.00  0.00     0.000 C 
BRANCH   8   9
ATOM      9  C   UNL     1      31.738   8.953  36.753  1.00  0.00     0.004 C 
BRANCH   9  10
ATOM     10  C   UNL     1      30.641  10.017  36.914  1.00  0.00     0.027 C 
BRANCH  10  11
ATOM     11  C   UNL     1      29.996  10.336  35.594  1.00  0.00    -0.035 C 
ATOM     12  C   UNL     1      28.857   9.750  35.209  1.00  0.00     0.004 C 
ENDBRANCH  10  11
ENDBRANCH   9  10
ENDBRANCH   8   9
ENDBRANCH   7   8
ENDBRANCH   1   7
TORSDOF 9
ENDMDL
MODEL 5
REMARK VINA RESULT:    -3.299      0.760      3.903
REMARK INTER + INTRA:          -6.377
REMARK INTER:                  -4.870
REMARK INTRA:                  -1.507
REMARK UNBOUND:                -1.343
REMARK SMILES C=CCCCCCCCCCC
REMARK SMILES IDX 7 1 8 2 9 3 10 4 11 5 12 6 6 7 5 8 4 9 3 10 2 11 1 12
REMARK H PARENT
REMARK Flexibility Score: inf
ROOT
ATOM      1  C   UNL     1      31.342   6.682  35.661  1.00  0.00     0.000 C 
ENDROOT
BRANCH   1   2
ATOM      2  C   UNL     1      30.856   6.687  37.115  1.00  0.00    -0.000 C 
BRANCH   2   3
ATOM      3  C   UNL     1      30.907   8.099  37.708  1.00  0.00    -0.000 C 
BRANCH   3   4
ATOM      4  C   UNL     1      31.656   9.061  36.778  1.00  0.00    -0.000 C 
BRANCH   4   5
ATOM      5  C   UNL     1      30.822  10.317  36.498  1.00  0.00    -0.003 C 
ATOM      6  C   UNL     1      29.641  10.002  35.585  1.00  0.00     0.004 C 
ENDBRANCH   4   5
ENDBRANCH   3   4
ENDBRANCH   2   3
ENDBRANCH   1   2
BRANCH   1   7
ATOM      7  C   UNL     1      30.175   6.463  34.689  1.00  0.00     0.000 C 
BRANCH   7   8
ATOM      8  C   UNL     1      30.567   6.694  33.220  1.00  0.00     0.000 C 
BRANCH   8   9
ATOM      9  C   UNL     1      31.875   7.495  33.048  1.00  0.00     0.004 C 
BRANCH   9  10
ATOM     10  C   UNL     1      31.613   8.950  32.631  1.00  0.00     0.027 C 
BRANCH  10  11
ATOM     11  C   UNL     1      32.643   9.877  33.215  1.00  0.00    -0.035 C 
ATOM     12  C   UNL     1      32.543  11.205  33.091  1.00  0.00     0.004 C 
ENDBRANCH  10  11
ENDBRANCH   9  10
ENDBRANCH   8   9
ENDBRANCH   7   8
ENDBRANCH   1   7
TORSDOF 9
ENDMDL
MODEL 6
REMARK VINA RESULT:    -3.277      1.529      3.267
REMARK INTER + INTRA:          -6.343
REMARK INTER:                  -5.096
REMARK INTRA:                  -1.247
REMARK UNBOUND:                -1.343
REMARK SMILES C=CCCCCCCCCCC
REMARK SMILES IDX 7 1 8 2 9 3 10 4 11 5 12 6 6 7 5 8 4 9 3 10 2 11 1 12
REMARK H PARENT
REMARK Flexibility Score: inf
ROOT
ATOM      1  C   UNL     1      31.481   6.720  34.839  1.00  0.00     0.000 C 
ENDROOT
BRANCH   1   2
ATOM      2  C   UNL     1      30.697   6.894  33.533  1.00  0.00    -0.000 C 
BRANCH   2   3
ATOM      3  C   UNL     1      31.644   7.127  32.350  1.00  0.00    -0.000 C 
BRANCH   3   4
ATOM      4  C   UNL     1      31.082   8.188  31.395  1.00  0.00    -0.000 C 
BRANCH   4   5
ATOM      5  C   UNL     1      30.673   7.561  30.056  1.00  0.00    -0.003 C 
ATOM      6  C   UNL     1      31.511   6.325  29.748  1.00  0.00     0.004 C 
ENDBRANCH   4   5
ENDBRANCH   3   4
ENDBRANCH   2   3
ENDBRANCH   1   2
BRANCH   1   7
ATOM      7  C   UNL     1      30.796   7.460  35.996  1.00  0.00     0.000 C 
BRANCH   7   8
ATOM      8  C   UNL     1      31.369   8.868  36.229  1.00  0.00     0.000 C 
BRANCH   8   9
ATOM      9  C   UNL     1      30.461  10.000  35.704  1.00  0.00     0.004 C 
BRANCH   9  10
ATOM     10  C   UNL     1      30.914  10.518  34.331  1.00  0.00     0.027 C 
BRANCH  10  11
ATOM     11  C   UNL     1      32.403  10.383  34.164  1.00  0.00    -0.035 C 
ATOM     12  C   UNL     1      33.042  10.915  33.117  1.00  0.00     0.004 C 
ENDBRANCH  10  11
ENDBRANCH   9  10
ENDBRANCH   8   9
ENDBRANCH   7   8
ENDBRANCH   1   7
TORSDOF 9
ENDMDL
MODEL 7
REMARK VINA RESULT:    -3.267      1.507      4.464
REMARK INTER + INTRA:          -6.328
REMARK INTER:                  -4.959
REMARK INTRA:                  -1.369
REMARK UNBOUND:                -1.343
REMARK SMILES C=CCCCCCCCCCC
REMARK SMILES IDX 7 1 8 2 9 3 10 4 11 5 12 6 6 7 5 8 4 9 3 10 2 11 1 12
REMARK H PARENT
REMARK Flexibility Score: inf
ROOT
ATOM      1  C   UNL     1      30.467   8.911  30.268  1.00  0.00     0.000 C 
ENDROOT
BRANCH   1   2
ATOM      2  C   UNL     1      30.909   7.537  30.785  1.00  0.00    -0.000 C 
BRANCH   2   3
ATOM      3  C   UNL     1      30.627   7.397  32.286  1.00  0.00    -0.000 C 
BRANCH   3   4
ATOM      4  C   UNL     1      31.879   6.934  33.041  1.00  0.00    -0.000 C 
BRANCH   4   5
ATOM      5  C   UNL     1      31.537   6.540  34.483  1.00  0.00    -0.003 C 
ATOM      6  C   UNL     1      30.028   6.438  34.683  1.00  0.00     0.004 C 
ENDBRANCH   4   5
ENDBRANCH   3   4
ENDBRANCH   2   3
ENDBRANCH   1   2
BRANCH   1   7
ATOM      7  C   UNL     1      30.288   9.904  31.423  1.00  0.00     0.000 C 
BRANCH   7   8
ATOM      8  C   UNL     1      30.896  11.285  31.126  1.00  0.00     0.000 C 
BRANCH   8   9
ATOM      9  C   UNL     1      31.982  11.712  32.136  1.00  0.00     0.004 C 
BRANCH   9  10
ATOM     10  C   UNL     1      32.641  10.506  32.823  1.00  0.00     0.027 C 
BRANCH  10  11
ATOM     11  C   UNL     1      32.538  10.609  34.320  1.00  0.00    -0.035 C 
ATOM     12  C   UNL     1      31.483  10.127  34.985  1.00  0.00     0.004 C 
ENDBRANCH  10  11
ENDBRANCH   9  10
ENDBRANCH   8   9
ENDBRANCH   7   8
ENDBRANCH   1   7
TORSDOF 9
ENDMDL
MODEL 8
REMARK VINA RESULT:    -3.222      1.651      3.476
REMARK INTER + INTRA:          -6.261
REMARK INTER:                  -5.400
REMARK INTRA:                  -0.861
REMARK UNBOUND:                -1.343
REMARK SMILES C=CCCCCCCCCCC
REMARK SMILES IDX 7 1 8 2 9 3 10 4 11 5 12 6 6 7 5 8 4 9 3 10 2 11 1 12
REMARK H PARENT
REMARK Flexibility Score: inf
ROOT
ATOM      1  C   UNL     1      32.383   9.373  32.999  1.00  0.00     0.000 C 
ENDROOT
BRANCH   1   2
ATOM      2  C   UNL     1      31.029   8.881  32.473  1.00  0.00    -0.000 C 
BRANCH   2   3
ATOM      3  C   UNL     1      31.028   7.358  32.295  1.00  0.00    -0.000 C 
BRANCH   3   4
ATOM      4  C   UNL     1      31.210   6.976  30.821  1.00  0.00    -0.000 C 
BRANCH   4   5
ATOM      5  C   UNL     1      30.502   7.978  29.901  1.00  0.00    -0.003 C 
ATOM      6  C   UNL     1      30.323   7.406  28.498  1.00  0.00     0.004 C 
ENDBRANCH   4   5
ENDBRANCH   3   4
ENDBRANCH   2   3
ENDBRANCH   1   2
BRANCH   1   7
ATOM      7  C   UNL     1      32.197  10.403  34.121  1.00  0.00     0.000 C 
BRANCH   7   8
ATOM      8  C   UNL     1      31.170   9.961  35.177  1.00  0.00     0.000 C 
BRANCH   8   9
ATOM      9  C   UNL     1      31.734   9.933  36.614  1.00  0.00     0.004 C 
BRANCH   9  10
ATOM     10  C   UNL     1      31.619   8.542  37.255  1.00  0.00     0.027 C 
BRANCH  10  11
ATOM     11  C   UNL     1      31.224   7.506  36.238  1.00  0.00    -0.035 C 
ATOM     12  C   UNL     1      31.612   6.231  36.349  1.00  0.00     0.004 C 
ENDBRANCH  10  11
ENDBRANCH   9  10
ENDBRANCH   8   9
ENDBRANCH   7   8
ENDBRANCH   1   7
TORSDOF 9
ENDMDL
MODEL 9
REMARK VINA RESULT:    -3.191      1.147      3.892
REMARK INTER + INTRA:          -6.213
REMARK INTER:                  -4.626
REMARK INTRA:                  -1.587
REMARK UNBOUND:                -1.343
REMARK SMILES C=CCCCCCCCCCC
REMARK SMILES IDX 7 1 8 2 9 3 10 4 11 5 12 6 6 7 5 8 4 9 3 10 2 11 1 12
REMARK H PARENT
REMARK Flexibility Score: inf
ROOT
ATOM      1  C   UNL     1      30.300   6.622  33.509  1.00  0.00     0.000 C 
ENDROOT
BRANCH   1   2
ATOM      2  C   UNL     1      30.247   6.264  34.999  1.00  0.00    -0.000 C 
BRANCH   2   3
ATOM      3  C   UNL     1      31.490   6.779  35.734  1.00  0.00    -0.000 C 
BRANCH   3   4
ATOM      4  C   UNL     1      31.111   7.425  37.072  1.00  0.00    -0.000 C 
BRANCH   4   5
ATOM      5  C   UNL     1      31.742   8.816  37.210  1.00  0.00    -0.003 C 
ATOM      6  C   UNL     1      30.835   9.757  37.997  1.00  0.00     0.004 C 
ENDBRANCH   4   5
ENDBRANCH   3   4
ENDBRANCH   2   3
ENDBRANCH   1   2
BRANCH   1   7
ATOM      7  C   UNL     1      31.685   7.154  33.118  1.00  0.00     0.000 C 
BRANCH   7   8
ATOM      8  C   UNL     1      31.625   8.509  32.393  1.00  0.00     0.000 C 
BRANCH   8   9
ATOM      9  C   UNL     1      32.393   9.633  33.120  1.00  0.00     0.004 C 
BRANCH   9  10
ATOM     10  C   UNL     1      31.497  10.412  34.093  1.00  0.00     0.027 C 
BRANCH  10  11
ATOM     11  C   UNL     1      30.050  10.322  33.692  1.00  0.00    -0.035 C 
ATOM     12  C   UNL     1      29.093  10.027  34.578  1.00  0.00     0.004 C 
ENDBRANCH  10  11
ENDBRANCH   9  10
ENDBRANCH   8   9
ENDBRANCH   7   8
ENDBRANCH   1   7
TORSDOF 9
ENDMDL
