MODEL 1
REMARK VINA RESULT:    -4.774      0.000      0.000
REMARK INTER + INTRA:          -4.913
REMARK INTER:                  -4.913
REMARK INTRA:                   0.000
REMARK UNBOUND:                 0.000
REMARK SMILES Nc1ncnc2nc[nH]c12
REMARK SMILES IDX 8 1 7 2 6 3 5 4 4 5 3 6 2 7 10 8 9 9 1 11
REMARK H PARENT 9 10 1 12 1 13
REMARK Flexibility Score: inf
ROOT
ATOM      1  C   UNL     1     -19.728  25.935   7.769  1.00  0.00     0.199 A 
ATOM      2  N   UNL     1     -19.196  27.170   7.561  1.00  0.00    -0.217 NA
ATOM      3  C   UNL     1     -19.387  27.346   6.244  1.00  0.00     0.182 A 
ATOM      4  N   UNL     1     -19.033  28.430   5.514  1.00  0.00    -0.215 NA
ATOM      5  C   UNL     1     -19.313  28.426   4.175  1.00  0.00     0.226 A 
ATOM      6  N   UNL     1     -19.935  27.348   3.597  1.00  0.00    -0.217 NA
ATOM      7  C   UNL     1     -20.291  26.253   4.332  1.00  0.00     0.152 A 
ATOM      8  C   UNL     1     -20.000  26.272   5.693  1.00  0.00     0.127 A 
ATOM      9  N   UNL     1     -20.228  25.360   6.645  1.00  0.00    -0.340 N 
ATOM     10  H   UNL     1     -20.682  24.424   6.558  1.00  0.00     0.168 HD
ENDROOT
BRANCH   7  11
ATOM     11  N   UNL     1     -20.939  25.143   3.709  1.00  0.00    -0.382 N 
ATOM     12  H   UNL     1     -21.754  25.276   3.070  1.00  0.00     0.158 HD
ATOM     13  H   UNL     1     -20.600  24.172   3.889  1.00  0.00     0.158 HD
ENDBRANCH   7  11
TORSDOF 1
ENDMDL
MODEL 2
REMARK VINA RESULT:    -4.439      1.315      2.221
REMARK INTER + INTRA:          -4.569
REMARK INTER:                  -4.569
REMARK INTRA:                   0.000
REMARK UNBOUND:                 0.000
REMARK SMILES Nc1ncnc2nc[nH]c12
REMARK SMILES IDX 8 1 7 2 6 3 5 4 4 5 3 6 2 7 10 8 9 9 1 11
REMARK H PARENT 9 10 1 12 1 13
REMARK Flexibility Score: inf
ROOT
ATOM      1  C   UNL     1     -19.282  26.646   7.907  1.00  0.00     0.199 A 
ATOM      2  N   UNL     1     -20.598  26.346   7.734  1.00  0.00    -0.217 NA
ATOM      3  C   UNL     1     -20.707  26.297   6.396  1.00  0.00     0.182 A 
ATOM      4  N   UNL     1     -21.829  26.032   5.686  1.00  0.00    -0.215 NA
ATOM      5  C   UNL     1     -21.744  26.026   4.321  1.00  0.00     0.226 A 
ATOM      6  N   UNL     1     -20.549  26.284   3.698  1.00  0.00    -0.217 NA
ATOM      7  C   UNL     1     -19.416  26.553   4.413  1.00  0.00     0.152 A 
ATOM      8  C   UNL     1     -19.519  26.555   5.801  1.00  0.00     0.127 A 
ATOM      9  N   UNL     1     -18.596  26.779   6.743  1.00  0.00    -0.340 N 
ATOM     10  H   UNL     1     -17.583  27.005   6.624  1.00  0.00     0.168 HD
ENDROOT
BRANCH   7  11
ATOM     11  N   UNL     1     -18.183  26.818   3.742  1.00  0.00    -0.382 N 
ATOM     12  H   UNL     1     -18.128  26.859   2.701  1.00  0.00     0.158 HD
ATOM     13  H   UNL     1     -17.311  26.973   4.295  1.00  0.00     0.158 HD
ENDBRANCH   7  11
TORSDOF 1
ENDMDL
MODEL 3
REMARK VINA RESULT:    -4.310      1.469      3.282
REMARK INTER + INTRA:          -4.436
REMARK INTER:                  -4.436
REMARK INTRA:                   0.000
REMARK UNBOUND:                 0.000
REMARK SMILES Nc1ncnc2nc[nH]c12
REMARK SMILES IDX 8 1 7 2 6 3 5 4 4 5 3 6 2 7 10 8 9 9 1 11
REMARK H PARENT 9 10 1 12 1 13
REMARK Flexibility Score: inf
ROOT
ATOM      1  C   UNL     1     -18.829  28.442   4.343  1.00  0.00     0.199 A 
ATOM      2  N   UNL     1     -20.105  28.571   3.887  1.00  0.00    -0.217 NA
ATOM      3  C   UNL     1     -20.761  27.652   4.613  1.00  0.00     0.182 A 
ATOM      4  N   UNL     1     -22.084  27.366   4.548  1.00  0.00    -0.215 NA
ATOM      5  C   UNL     1     -22.574  26.391   5.373  1.00  0.00     0.226 A 
ATOM      6  N   UNL     1     -21.741  25.726   6.237  1.00  0.00    -0.217 NA
ATOM      7  C   UNL     1     -20.407  26.013   6.303  1.00  0.00     0.152 A 
ATOM      8  C   UNL     1     -19.923  27.008   5.458  1.00  0.00     0.127 A 
ATOM      9  N   UNL     1     -18.686  27.495   5.304  1.00  0.00    -0.340 N 
ATOM     10  H   UNL     1     -17.810  27.219   5.800  1.00  0.00     0.168 HD
ENDROOT
BRANCH   7  11
ATOM     11  N   UNL     1     -19.559  25.309   7.211  1.00  0.00    -0.382 N 
ATOM     12  H   UNL     1     -19.263  24.325   7.028  1.00  0.00     0.158 HD
ATOM     13  H   UNL     1     -19.222  25.777   8.081  1.00  0.00     0.158 HD
ENDBRANCH   7  11
TORSDOF 1
ENDMDL
MODEL 4
REMARK VINA RESULT:    -4.294     15.725     16.044
REMARK INTER + INTRA:          -4.419
REMARK INTER:                  -4.419
REMARK INTRA:                   0.000
REMARK UNBOUND:                 0.000
REMARK SMILES Nc1ncnc2nc[nH]c12
REMARK SMILES IDX 8 1 7 2 6 3 5 4 4 5 3 6 2 7 10 8 9 9 1 11
REMARK H PARENT 9 10 1 12 1 13
REMARK Flexibility Score: inf
ROOT
ATOM      1  C   UNL     1      -3.309  19.498   6.147  1.00  0.00     0.199 A 
ATOM      2  N   UNL     1      -4.350  18.832   6.718  1.00  0.00    -0.217 NA
ATOM      3  C   UNL     1      -5.404  19.316   6.041  1.00  0.00     0.182 A 
ATOM      4  N   UNL     1      -6.703  18.978   6.220  1.00  0.00    -0.215 NA
ATOM      5  C   UNL     1      -7.642  19.582   5.430  1.00  0.00     0.226 A 
ATOM      6  N   UNL     1      -7.268  20.504   4.485  1.00  0.00    -0.217 NA
ATOM      7  C   UNL     1      -5.958  20.847   4.305  1.00  0.00     0.152 A 
ATOM      8  C   UNL     1      -5.014  20.224   5.116  1.00  0.00     0.127 A 
ATOM      9  N   UNL     1      -3.683  20.356   5.164  1.00  0.00    -0.340 N 
ATOM     10  H   UNL     1      -3.067  20.971   4.588  1.00  0.00     0.168 HD
ENDROOT
BRANCH   7  11
ATOM     11  N   UNL     1      -5.592  21.810   3.315  1.00  0.00    -0.382 N 
ATOM     12  H   UNL     1      -5.324  22.784   3.576  1.00  0.00     0.158 HD
ATOM     13  H   UNL     1      -5.590  21.545   2.305  1.00  0.00     0.158 HD
ENDBRANCH   7  11
TORSDOF 1
ENDMDL
MODEL 5
REMARK VINA RESULT:    -4.152      1.819      2.291
REMARK INTER + INTRA:          -4.274
REMARK INTER:                  -4.274
REMARK INTRA:                   0.000
REMARK UNBOUND:                 0.000
REMARK SMILES Nc1ncnc2nc[nH]c12
REMARK SMILES IDX 8 1 7 2 6 3 5 4 4 5 3 6 2 7 10 8 9 9 1 11
REMARK H PARENT 9 10 1 12 1 13
REMARK Flexibility Score: inf
ROOT
ATOM      1  C   UNL     1     -18.871  27.107   6.915  1.00  0.00     0.199 A 
ATOM      2  N   UNL     1     -19.978  27.691   7.448  1.00  0.00    -0.217 NA
ATOM      3  C   UNL     1     -20.951  27.260   6.630  1.00  0.00     0.182 A 
ATOM      4  N   UNL     1     -22.270  27.554   6.718  1.00  0.00    -0.215 NA
ATOM      5  C   UNL     1     -23.115  27.017   5.786  1.00  0.00     0.226 A 
ATOM      6  N   UNL     1     -22.630  26.203   4.793  1.00  0.00    -0.217 NA
ATOM      7  C   UNL     1     -21.300  25.906   4.703  1.00  0.00     0.152 A 
ATOM      8  C   UNL     1     -20.453  26.460   5.659  1.00  0.00     0.127 A 
ATOM      9  N   UNL     1     -19.129  26.347   5.820  1.00  0.00    -0.340 N 
ATOM     10  H   UNL     1     -18.445  25.807   5.245  1.00  0.00     0.168 HD
ENDROOT
BRANCH   7  11
ATOM     11  N   UNL     1     -20.817  25.056   3.661  1.00  0.00    -0.382 N 
ATOM     12  H   UNL     1     -21.402  24.834   2.825  1.00  0.00     0.158 HD
ATOM     13  H   UNL     1     -19.862  24.641   3.727  1.00  0.00     0.158 HD
ENDBRANCH   7  11
TORSDOF 1
ENDMDL
MODEL 6
REMARK VINA RESULT:    -4.138      2.120      2.661
REMARK INTER + INTRA:          -4.259
REMARK INTER:                  -4.259
REMARK INTRA:                   0.000
REMARK UNBOUND:                 0.000
REMARK SMILES Nc1ncnc2nc[nH]c12
REMARK SMILES IDX 8 1 7 2 6 3 5 4 4 5 3 6 2 7 10 8 9 9 1 11
REMARK H PARENT 9 10 1 12 1 13
REMARK Flexibility Score: inf
ROOT
ATOM      1  C   UNL     1     -23.125  28.517   5.268  1.00  0.00     0.199 A 
ATOM      2  N   UNL     1     -22.100  28.997   6.024  1.00  0.00    -0.217 NA
ATOM      3  C   UNL     1     -21.111  28.133   5.746  1.00  0.00     0.182 A 
ATOM      4  N   UNL     1     -19.852  28.158   6.246  1.00  0.00    -0.215 NA
ATOM      5  C   UNL     1     -18.978  27.187   5.842  1.00  0.00     0.226 A 
ATOM      6  N   UNL     1     -19.374  26.218   4.955  1.00  0.00    -0.217 NA
ATOM      7  C   UNL     1     -20.644  26.191   4.451  1.00  0.00     0.152 A 
ATOM      8  C   UNL     1     -21.522  27.186   4.871  1.00  0.00     0.127 A 
ATOM      9  N   UNL     1     -22.802  27.410   4.551  1.00  0.00    -0.340 N 
ATOM     10  H   UNL     1     -23.418  26.869   3.905  1.00  0.00     0.168 HD
ENDROOT
BRANCH   7  11
ATOM     11  N   UNL     1     -21.034  25.173   3.528  1.00  0.00    -0.382 N 
ATOM     12  H   UNL     1     -21.843  25.306   2.881  1.00  0.00     0.158 HD
ATOM     13  H   UNL     1     -20.508  24.272   3.491  1.00  0.00     0.158 HD
ENDBRANCH   7  11
TORSDOF 1
ENDMDL
MODEL 7
REMARK VINA RESULT:    -4.128      1.511      3.250
REMARK INTER + INTRA:          -4.249
REMARK INTER:                  -4.249
REMARK INTRA:                   0.000
REMARK UNBOUND:                 0.000
REMARK SMILES Nc1ncnc2nc[nH]c12
REMARK SMILES IDX 8 1 7 2 6 3 5 4 4 5 3 6 2 7 10 8 9 9 1 11
REMARK H PARENT 9 10 1 12 1 13
REMARK Flexibility Score: inf
ROOT
ATOM      1  C   UNL     1     -21.168  25.663   3.747  1.00  0.00     0.199 A 
ATOM      2  N   UNL     1     -19.921  26.164   3.964  1.00  0.00    -0.217 NA
ATOM      3  C   UNL     1     -19.937  26.407   5.284  1.00  0.00     0.182 A 
ATOM      4  N   UNL     1     -18.925  26.920   6.023  1.00  0.00    -0.215 NA
ATOM      5  C   UNL     1     -19.129  27.097   7.364  1.00  0.00     0.226 A 
ATOM      6  N   UNL     1     -20.330  26.761   7.935  1.00  0.00    -0.217 NA
ATOM      7  C   UNL     1     -21.353  26.244   7.191  1.00  0.00     0.152 A 
ATOM      8  C   UNL     1     -21.130  26.070   5.828  1.00  0.00     0.127 A 
ATOM      9  N   UNL     1     -21.931  25.593   4.868  1.00  0.00    -0.340 N 
ATOM     10  H   UNL     1     -22.912  25.246   4.949  1.00  0.00     0.168 HD
ENDROOT
BRANCH   7  11
ATOM     11  N   UNL     1     -22.595  25.902   7.807  1.00  0.00    -0.382 N 
ATOM     12  H   UNL     1     -23.477  26.408   7.573  1.00  0.00     0.158 HD
ATOM     13  H   UNL     1     -22.634  25.131   8.510  1.00  0.00     0.158 HD
ENDBRANCH   7  11
TORSDOF 1
ENDMDL
MODEL 8
REMARK VINA RESULT:    -4.126     14.550     15.240
REMARK INTER + INTRA:          -4.247
REMARK INTER:                  -4.247
REMARK INTRA:                   0.000
REMARK UNBOUND:                 0.000
REMARK SMILES Nc1ncnc2nc[nH]c12
REMARK SMILES IDX 8 1 7 2 6 3 5 4 4 5 3 6 2 7 10 8 9 9 1 11
REMARK H PARENT 9 10 1 12 1 13
REMARK Flexibility Score: inf
ROOT
ATOM      1  C   UNL     1      -5.256  21.296   4.446  1.00  0.00     0.199 A 
ATOM      2  N   UNL     1      -6.315  20.494   4.152  1.00  0.00    -0.217 NA
ATOM      3  C   UNL     1      -6.775  20.170   5.370  1.00  0.00     0.182 A 
ATOM      4  N   UNL     1      -7.837  19.376   5.648  1.00  0.00    -0.215 NA
ATOM      5  C   UNL     1      -8.156  19.160   6.960  1.00  0.00     0.226 A 
ATOM      6  N   UNL     1      -7.415  19.736   7.961  1.00  0.00    -0.217 NA
ATOM      7  C   UNL     1      -6.343  20.536   7.682  1.00  0.00     0.152 A 
ATOM      8  C   UNL     1      -6.031  20.747   6.342  1.00  0.00     0.127 A 
ATOM      9  N   UNL     1      -5.056  21.470   5.778  1.00  0.00    -0.340 N 
ATOM     10  H   UNL     1      -4.313  22.038   6.241  1.00  0.00     0.168 HD
ENDROOT
BRANCH   7  11
ATOM     11  N   UNL     1      -5.586  21.126   8.740  1.00  0.00    -0.382 N 
ATOM     12  H   UNL     1      -6.001  21.283   9.685  1.00  0.00     0.158 HD
ATOM     13  H   UNL     1      -4.595  21.411   8.577  1.00  0.00     0.158 HD
ENDBRANCH   7  11
TORSDOF 1
ENDMDL
MODEL 9
REMARK VINA RESULT:    -4.064     15.038     15.362
REMARK INTER + INTRA:          -4.182
REMARK INTER:                  -4.182
REMARK INTRA:                   0.000
REMARK UNBOUND:                 0.000
REMARK SMILES Nc1ncnc2nc[nH]c12
REMARK SMILES IDX 8 1 7 2 6 3 5 4 4 5 3 6 2 7 10 8 9 9 1 11
REMARK H PARENT 9 10 1 12 1 13
REMARK Flexibility Score: inf
ROOT
ATOM      1  C   UNL     1      -8.091  19.230   7.054  1.00  0.00     0.199 A 
ATOM      2  N   UNL     1      -6.881  18.889   7.575  1.00  0.00    -0.217 NA
ATOM      3  C   UNL     1      -6.027  19.488   6.731  1.00  0.00     0.182 A 
ATOM      4  N   UNL     1      -4.674  19.464   6.798  1.00  0.00    -0.215 NA
ATOM      5  C   UNL     1      -3.968  20.139   5.841  1.00  0.00     0.226 A 
ATOM      6  N   UNL     1      -4.621  20.820   4.844  1.00  0.00    -0.217 NA
ATOM      7  C   UNL     1      -5.985  20.845   4.775  1.00  0.00     0.152 A 
ATOM      8  C   UNL     1      -6.690  20.153   5.756  1.00  0.00     0.127 A 
ATOM      9  N   UNL     1      -8.007  20.003   5.941  1.00  0.00    -0.340 N 
ATOM     10  H   UNL     1      -8.794  20.386   5.371  1.00  0.00     0.168 HD
ENDROOT
BRANCH   7  11
ATOM     11  N   UNL     1      -6.644  21.560   3.729  1.00  0.00    -0.382 N 
ATOM     12  H   UNL     1      -7.369  22.283   3.935  1.00  0.00     0.158 HD
ATOM     13  H   UNL     1      -6.405  21.365   2.732  1.00  0.00     0.158 HD
ENDBRANCH   7  11
TORSDOF 1
ENDMDL
