MODEL 1
REMARK VINA RESULT:    -3.893      0.000      0.000
REMARK INTER + INTRA:          -5.853
REMARK INTER:                  -5.486
REMARK INTRA:                  -0.368
REMARK UNBOUND:                -0.368
REMARK SMILES CCCCCCCCC(=O)[O-]
REMARK SMILES IDX 6 1 7 2 8 3 9 4 10 5 11 6 5 7 4 8 3 9 2 10 1 11
REMARK H PARENT
REMARK Flexibility Score: inf
ROOT
ATOM      1  C   UNL     1      33.870  30.436  21.960  1.00  0.00     0.000 C 
ENDROOT
BRANCH   1   2
ATOM      2  C   UNL     1      33.175  29.064  22.025  1.00  0.00     0.006 C 
BRANCH   2   3
ATOM      3  C   UNL     1      32.311  28.737  20.795  1.00  0.00     0.053 C 
BRANCH   3   4
ATOM      4  C   UNL     1      33.056  28.950  19.515  1.00  0.00     0.041 C 
ATOM      5  O   UNL     1      33.995  28.176  19.191  1.00  0.00    -0.550 OA
ATOM      6  O   UNL     1      32.738  30.025  18.694  1.00  0.00    -0.550 OA
ENDBRANCH   3   4
ENDBRANCH   2   3
ENDBRANCH   1   2
BRANCH   1   7
ATOM      7  C   UNL     1      32.885  31.609  22.118  1.00  0.00     0.000 C 
BRANCH   7   8
ATOM      8  C   UNL     1      33.318  32.604  23.206  1.00  0.00    -0.000 C 
BRANCH   8   9
ATOM      9  C   UNL     1      34.292  31.980  24.221  1.00  0.00    -0.000 C 
BRANCH   9  10
ATOM     10  C   UNL     1      34.040  32.472  25.656  1.00  0.00    -0.003 C 
ATOM     11  C   UNL     1      34.751  33.791  25.962  1.00  0.00     0.004 C 
ENDBRANCH   9  10
ENDBRANCH   8   9
ENDBRANCH   7   8
ENDBRANCH   1   7
TORSDOF 7
ENDMDL
MODEL 2
REMARK VINA RESULT:    -3.804      6.746      9.627
REMARK INTER + INTRA:          -5.729
REMARK INTER:                  -5.380
REMARK INTRA:                  -0.349
REMARK UNBOUND:                -0.368
REMARK SMILES CCCCCCCCC(=O)[O-]
REMARK SMILES IDX 6 1 7 2 8 3 9 4 10 5 11 6 5 7 4 8 3 9 2 10 1 11
REMARK H PARENT
REMARK Flexibility Score: inf
ROOT
ATOM      1  C   UNL     1      35.774  35.614  27.456  1.00  0.00     0.000 C 
ENDROOT
BRANCH   1   2
ATOM      2  C   UNL     1      35.325  36.312  28.753  1.00  0.00     0.006 C 
BRANCH   2   3
ATOM      3  C   UNL     1      36.429  36.438  29.815  1.00  0.00     0.053 C 
BRANCH   3   4
ATOM      4  C   UNL     1      37.448  37.470  29.445  1.00  0.00     0.041 C 
ATOM      5  O   UNL     1      37.083  38.599  29.021  1.00  0.00    -0.550 OA
ATOM      6  O   UNL     1      38.803  37.175  29.533  1.00  0.00    -0.550 OA
ENDBRANCH   3   4
ENDBRANCH   2   3
ENDBRANCH   1   2
BRANCH   1   7
ATOM      7  C   UNL     1      36.622  34.357  27.722  1.00  0.00     0.000 C 
BRANCH   7   8
ATOM      8  C   UNL     1      36.249  33.185  26.799  1.00  0.00    -0.000 C 
BRANCH   8   9
ATOM      9  C   UNL     1      35.100  33.535  25.838  1.00  0.00    -0.000 C 
BRANCH   9  10
ATOM     10  C   UNL     1      34.143  32.353  25.611  1.00  0.00    -0.003 C 
ATOM     11  C   UNL     1      34.497  31.534  24.370  1.00  0.00     0.004 C 
ENDBRANCH   9  10
ENDBRANCH   8   9
ENDBRANCH   7   8
ENDBRANCH   1   7
TORSDOF 7
ENDMDL
MODEL 3
REMARK VINA RESULT:    -3.777      2.608      4.471
REMARK INTER + INTRA:          -5.690
REMARK INTER:                  -5.383
REMARK INTRA:                  -0.306
REMARK UNBOUND:                -0.368
REMARK SMILES CCCCCCCCC(=O)[O-]
REMARK SMILES IDX 6 1 7 2 8 3 9 4 10 5 11 6 5 7 4 8 3 9 2 10 1 11
REMARK H PARENT
REMARK Flexibility Score: inf
ROOT
ATOM      1  C   UNL     1      33.905  33.108  25.615  1.00  0.00     0.000 C 
ENDROOT
BRANCH   1   2
ATOM      2  C   UNL     1      34.455  31.820  24.975  1.00  0.00     0.006 C 
BRANCH   2   3
ATOM      3  C   UNL     1      34.128  31.671  23.480  1.00  0.00     0.053 C 
BRANCH   3   4
ATOM      4  C   UNL     1      34.600  30.360  22.931  1.00  0.00     0.041 C 
ATOM      5  O   UNL     1      35.827  30.163  22.727  1.00  0.00    -0.550 OA
ATOM      6  O   UNL     1      33.682  29.368  22.611  1.00  0.00    -0.550 OA
ENDBRANCH   3   4
ENDBRANCH   2   3
ENDBRANCH   1   2
BRANCH   1   7
ATOM      7  C   UNL     1      35.020  34.063  26.079  1.00  0.00     0.000 C 
BRANCH   7   8
ATOM      8  C   UNL     1      36.189  33.326  26.752  1.00  0.00    -0.000 C 
BRANCH   8   9
ATOM      9  C   UNL     1      36.806  34.133  27.907  1.00  0.00    -0.000 C 
BRANCH   9  10
ATOM     10  C   UNL     1      36.177  35.527  28.053  1.00  0.00    -0.003 C 
ATOM     11  C   UNL     1      35.823  35.869  29.501  1.00  0.00     0.004 C 
ENDBRANCH   9  10
ENDBRANCH   8   9
ENDBRANCH   7   8
ENDBRANCH   1   7
TORSDOF 7
ENDMDL
MODEL 4
REMARK VINA RESULT:    -3.759      1.299      2.321
REMARK INTER + INTRA:          -5.665
REMARK INTER:                  -5.329
REMARK INTRA:                  -0.336
REMARK UNBOUND:                -0.368
REMARK SMILES CCCCCCCCC(=O)[O-]
REMARK SMILES IDX 6 1 7 2 8 3 9 4 10 5 11 6 5 7 4 8 3 9 2 10 1 11
REMARK H PARENT
REMARK Flexibility Score: inf
ROOT
ATOM      1  C   UNL     1      33.494  32.342  23.192  1.00  0.00     0.000 C 
ENDROOT
BRANCH   1   2
ATOM      2  C   UNL     1      32.911  31.514  22.031  1.00  0.00     0.006 C 
BRANCH   2   3
ATOM      3  C   UNL     1      33.473  30.087  21.933  1.00  0.00     0.053 C 
BRANCH   3   4
ATOM      4  C   UNL     1      32.670  29.232  21.001  1.00  0.00     0.041 C 
ATOM      5  O   UNL     1      31.564  28.756  21.372  1.00  0.00    -0.550 OA
ATOM      6  O   UNL     1      33.158  28.932  19.736  1.00  0.00    -0.550 OA
ENDBRANCH   3   4
ENDBRANCH   2   3
ENDBRANCH   1   2
BRANCH   1   7
ATOM      7  C   UNL     1      34.387  31.508  24.127  1.00  0.00     0.000 C 
BRANCH   7   8
ATOM      8  C   UNL     1      34.348  32.004  25.582  1.00  0.00    -0.000 C 
BRANCH   8   9
ATOM      9  C   UNL     1      34.249  33.536  25.679  1.00  0.00    -0.000 C 
BRANCH   9  10
ATOM     10  C   UNL     1      35.476  34.162  26.360  1.00  0.00    -0.003 C 
ATOM     11  C   UNL     1      36.532  33.126  26.746  1.00  0.00     0.004 C 
ENDBRANCH   9  10
ENDBRANCH   8   9
ENDBRANCH   7   8
ENDBRANCH   1   7
TORSDOF 7
ENDMDL
MODEL 5
REMARK VINA RESULT:    -3.756      3.830      6.240
REMARK INTER + INTRA:          -5.660
REMARK INTER:                  -5.324
REMARK INTRA:                  -0.336
REMARK UNBOUND:                -0.368
REMARK SMILES CCCCCCCCC(=O)[O-]
REMARK SMILES IDX 6 1 7 2 8 3 9 4 10 5 11 6 5 7 4 8 3 9 2 10 1 11
REMARK H PARENT
REMARK Flexibility Score: inf
ROOT
ATOM      1  C   UNL     1      33.279  32.601  23.109  1.00  0.00     0.000 C 
ENDROOT
BRANCH   1   2
ATOM      2  C   UNL     1      34.230  31.977  24.148  1.00  0.00     0.006 C 
BRANCH   2   3
ATOM      3  C   UNL     1      33.974  32.438  25.592  1.00  0.00     0.053 C 
BRANCH   3   4
ATOM      4  C   UNL     1      34.976  33.455  26.042  1.00  0.00     0.041 C 
ATOM      5  O   UNL     1      34.775  34.680  25.828  1.00  0.00    -0.550 OA
ATOM      6  O   UNL     1      36.149  33.049  26.665  1.00  0.00    -0.550 OA
ENDBRANCH   3   4
ENDBRANCH   2   3
ENDBRANCH   1   2
BRANCH   1   7
ATOM      7  C   UNL     1      32.919  31.627  21.973  1.00  0.00     0.000 C 
BRANCH   7   8
ATOM      8  C   UNL     1      33.861  30.414  21.911  1.00  0.00    -0.000 C 
BRANCH   8   9
ATOM      9  C   UNL     1      33.113  29.079  22.066  1.00  0.00    -0.000 C 
BRANCH   9  10
ATOM     10  C   UNL     1      32.466  28.612  20.752  1.00  0.00    -0.003 C 
ATOM     11  C   UNL     1      33.372  28.819  19.539  1.00  0.00     0.004 C 
ENDBRANCH   9  10
ENDBRANCH   8   9
ENDBRANCH   7   8
ENDBRANCH   1   7
TORSDOF 7
ENDMDL
MODEL 6
REMARK VINA RESULT:    -3.723      5.663      8.247
REMARK INTER + INTRA:          -5.615
REMARK INTER:                  -5.314
REMARK INTRA:                  -0.301
REMARK UNBOUND:                -0.368
REMARK SMILES CCCCCCCCC(=O)[O-]
REMARK SMILES IDX 6 1 7 2 8 3 9 4 10 5 11 6 5 7 4 8 3 9 2 10 1 11
REMARK H PARENT
REMARK Flexibility Score: inf
ROOT
ATOM      1  C   UNL     1      36.193  33.346  26.278  1.00  0.00     0.000 C 
ENDROOT
BRANCH   1   2
ATOM      2  C   UNL     1      36.847  34.558  26.967  1.00  0.00     0.006 C 
BRANCH   2   3
ATOM      3  C   UNL     1      36.620  34.616  28.487  1.00  0.00     0.053 C 
BRANCH   3   4
ATOM      4  C   UNL     1      35.921  35.873  28.901  1.00  0.00     0.041 C 
ATOM      5  O   UNL     1      34.842  36.211  28.347  1.00  0.00    -0.550 OA
ATOM      6  O   UNL     1      36.480  36.691  29.875  1.00  0.00    -0.550 OA
ENDBRANCH   3   4
ENDBRANCH   2   3
ENDBRANCH   1   2
BRANCH   1   7
ATOM      7  C   UNL     1      34.692  33.554  26.009  1.00  0.00     0.000 C 
BRANCH   7   8
ATOM      8  C   UNL     1      33.976  32.254  25.609  1.00  0.00    -0.000 C 
BRANCH   8   9
ATOM      9  C   UNL     1      34.333  31.800  24.183  1.00  0.00    -0.000 C 
BRANCH   9  10
ATOM     10  C   UNL     1      33.529  32.550  23.108  1.00  0.00    -0.003 C 
ATOM     11  C   UNL     1      32.823  31.609  22.132  1.00  0.00     0.004 C 
ENDBRANCH   9  10
ENDBRANCH   8   9
ENDBRANCH   7   8
ENDBRANCH   1   7
TORSDOF 7
ENDMDL
MODEL 7
REMARK VINA RESULT:    -3.720      4.426      6.674
REMARK INTER + INTRA:          -5.610
REMARK INTER:                  -5.322
REMARK INTRA:                  -0.288
REMARK UNBOUND:                -0.368
REMARK SMILES CCCCCCCCC(=O)[O-]
REMARK SMILES IDX 6 1 7 2 8 3 9 4 10 5 11 6 5 7 4 8 3 9 2 10 1 11
REMARK H PARENT
REMARK Flexibility Score: inf
ROOT
ATOM      1  C   UNL     1      34.102  32.395  24.079  1.00  0.00     0.000 C 
ENDROOT
BRANCH   1   2
ATOM      2  C   UNL     1      34.207  32.553  25.607  1.00  0.00     0.006 C 
BRANCH   2   3
ATOM      3  C   UNL     1      35.647  32.540  26.145  1.00  0.00     0.053 C 
BRANCH   3   4
ATOM      4  C   UNL     1      36.001  33.824  26.830  1.00  0.00     0.041 C 
ATOM      5  O   UNL     1      37.000  33.880  27.594  1.00  0.00    -0.550 OA
ATOM      6  O   UNL     1      35.207  34.950  26.652  1.00  0.00    -0.550 OA
ENDBRANCH   3   4
ENDBRANCH   2   3
ENDBRANCH   1   2
BRANCH   1   7
ATOM      7  C   UNL     1      34.877  31.173  23.554  1.00  0.00     0.000 C 
BRANCH   7   8
ATOM      8  C   UNL     1      33.996  30.225  22.724  1.00  0.00    -0.000 C 
BRANCH   8   9
ATOM      9  C   UNL     1      32.912  30.973  21.929  1.00  0.00    -0.000 C 
BRANCH   9  10
ATOM     10  C   UNL     1      32.376  30.149  20.747  1.00  0.00    -0.003 C 
ATOM     11  C   UNL     1      32.160  28.678  21.102  1.00  0.00     0.004 C 
ENDBRANCH   9  10
ENDBRANCH   8   9
ENDBRANCH   7   8
ENDBRANCH   1   7
TORSDOF 7
ENDMDL
MODEL 8
REMARK VINA RESULT:    -3.706      4.651      6.900
REMARK INTER + INTRA:          -5.590
REMARK INTER:                  -4.989
REMARK INTRA:                  -0.601
REMARK UNBOUND:                -0.368
REMARK SMILES CCCCCCCCC(=O)[O-]
REMARK SMILES IDX 6 1 7 2 8 3 9 4 10 5 11 6 5 7 4 8 3 9 2 10 1 11
REMARK H PARENT
REMARK Flexibility Score: inf
ROOT
ATOM      1  C   UNL     1      34.001  33.173  25.584  1.00  0.00     0.000 C 
ENDROOT
BRANCH   1   2
ATOM      2  C   UNL     1      35.155  34.149  25.289  1.00  0.00     0.006 C 
BRANCH   2   3
ATOM      3  C   UNL     1      35.667  34.909  26.524  1.00  0.00     0.053 C 
BRANCH   3   4
ATOM      4  C   UNL     1      36.569  34.063  27.368  1.00  0.00     0.041 C 
ATOM      5  O   UNL     1      36.669  34.281  28.604  1.00  0.00    -0.550 OA
ATOM      6  O   UNL     1      37.326  33.056  26.783  1.00  0.00    -0.550 OA
ENDBRANCH   3   4
ENDBRANCH   2   3
ENDBRANCH   1   2
BRANCH   1   7
ATOM      7  C   UNL     1      34.353  31.715  25.239  1.00  0.00     0.000 C 
BRANCH   7   8
ATOM      8  C   UNL     1      34.982  31.572  23.844  1.00  0.00    -0.000 C 
BRANCH   8   9
ATOM      9  C   UNL     1      34.084  30.790  22.870  1.00  0.00    -0.000 C 
BRANCH   9  10
ATOM     10  C   UNL     1      32.963  31.660  22.278  1.00  0.00    -0.003 C 
ATOM     11  C   UNL     1      33.444  33.055  21.878  1.00  0.00     0.004 C 
ENDBRANCH   9  10
ENDBRANCH   8   9
ENDBRANCH   7   8
ENDBRANCH   1   7
TORSDOF 7
ENDMDL
MODEL 9
REMARK VINA RESULT:    -3.628      3.061      6.325
REMARK INTER + INTRA:          -5.480
REMARK INTER:                  -4.832
REMARK INTRA:                  -0.648
REMARK UNBOUND:                -0.368
REMARK SMILES CCCCCCCCC(=O)[O-]
REMARK SMILES IDX 6 1 7 2 8 3 9 4 10 5 11 6 5 7 4 8 3 9 2 10 1 11
REMARK H PARENT
REMARK Flexibility Score: inf
ROOT
ATOM      1  C   UNL     1      33.200  29.741  18.935  1.00  0.00     0.000 C 
ENDROOT
BRANCH   1   2
ATOM      2  C   UNL     1      32.943  28.607  19.944  1.00  0.00     0.006 C 
BRANCH   2   3
ATOM      3  C   UNL     1      32.223  29.056  21.226  1.00  0.00     0.053 C 
BRANCH   3   4
ATOM      4  C   UNL     1      32.993  30.109  21.961  1.00  0.00     0.041 C 
ATOM      5  O   UNL     1      34.055  29.811  22.569  1.00  0.00    -0.550 OA
ATOM      6  O   UNL     1      32.520  31.415  22.005  1.00  0.00    -0.550 OA
ENDBRANCH   3   4
ENDBRANCH   2   3
ENDBRANCH   1   2
BRANCH   1   7
ATOM      7  C   UNL     1      34.588  29.647  18.277  1.00  0.00     0.000 C 
BRANCH   7   8
ATOM      8  C   UNL     1      35.211  28.248  18.405  1.00  0.00    -0.000 C 
BRANCH   8   9
ATOM      9  C   UNL     1      35.187  27.468  17.079  1.00  0.00    -0.000 C 
BRANCH   9  10
ATOM     10  C   UNL     1      34.126  26.355  17.070  1.00  0.00    -0.003 C 
ATOM     11  C   UNL     1      32.762  26.841  16.581  1.00  0.00     0.004 C 
ENDBRANCH   9  10
ENDBRANCH   8   9
ENDBRANCH   7   8
ENDBRANCH   1   7
TORSDOF 7
ENDMDL
