MODEL 1
REMARK VINA RESULT:    -3.296      0.000      0.000
REMARK INTER + INTRA:          -3.719
REMARK INTER:                  -3.681
REMARK INTRA:                  -0.039
REMARK UNBOUND:                -0.039
REMARK SMILES CCCC(=O)[O-]
REMARK SMILES IDX 3 1 4 2 5 3 6 4 2 5 1 6
REMARK H PARENT
REMARK Flexibility Score: inf
ROOT
ATOM      1  C   UNL     1     -34.247  -5.044  -1.059  1.00  0.00     0.052 C 
ENDROOT
BRANCH   1   2
ATOM      2  C   UNL     1     -35.437  -4.234  -0.652  1.00  0.00     0.041 C 
ATOM      3  O   UNL     1     -35.295  -3.035  -0.294  1.00  0.00    -0.550 OA
ATOM      4  O   UNL     1     -36.709  -4.788  -0.715  1.00  0.00    -0.550 OA
ENDBRANCH   1   2
BRANCH   1   5
ATOM      5  C   UNL     1     -34.159  -5.138  -2.585  1.00  0.00     0.003 C 
ATOM      6  C   UNL     1     -33.141  -4.147  -3.140  1.00  0.00     0.004 C 
ENDBRANCH   1   5
TORSDOF 2
ENDMDL
MODEL 2
REMARK VINA RESULT:    -3.265      0.111      1.323
REMARK INTER + INTRA:          -3.686
REMARK INTER:                  -3.651
REMARK INTRA:                  -0.035
REMARK UNBOUND:                -0.039
REMARK SMILES CCCC(=O)[O-]
REMARK SMILES IDX 3 1 4 2 5 3 6 4 2 5 1 6
REMARK H PARENT
REMARK Flexibility Score: inf
ROOT
ATOM      1  C   UNL     1     -34.236  -5.115  -1.094  1.00  0.00     0.052 C 
ENDROOT
BRANCH   1   2
ATOM      2  C   UNL     1     -35.451  -4.342  -0.689  1.00  0.00     0.041 C 
ATOM      3  O   UNL     1     -36.594  -4.859  -0.790  1.00  0.00    -0.550 OA
ATOM      4  O   UNL     1     -35.317  -3.067  -0.153  1.00  0.00    -0.550 OA
ENDBRANCH   1   2
BRANCH   1   5
ATOM      5  C   UNL     1     -34.108  -5.152  -2.619  1.00  0.00     0.003 C 
ATOM      6  C   UNL     1     -33.075  -4.143  -3.110  1.00  0.00     0.004 C 
ENDBRANCH   1   5
TORSDOF 2
ENDMDL
MODEL 3
REMARK VINA RESULT:    -3.027      1.251      1.652
REMARK INTER + INTRA:          -3.420
REMARK INTER:                  -3.383
REMARK INTRA:                  -0.036
REMARK UNBOUND:                -0.039
REMARK SMILES CCCC(=O)[O-]
REMARK SMILES IDX 3 1 4 2 5 3 6 4 2 5 1 6
REMARK H PARENT
REMARK Flexibility Score: inf
ROOT
ATOM      1  C   UNL     1     -35.199  -4.663  -1.166  1.00  0.00     0.052 C 
ENDROOT
BRANCH   1   2
ATOM      2  C   UNL     1     -35.067  -3.643  -0.079  1.00  0.00     0.041 C 
ATOM      3  O   UNL     1     -35.264  -3.968   1.122  1.00  0.00    -0.550 OA
ATOM      4  O   UNL     1     -34.680  -2.345  -0.387  1.00  0.00    -0.550 OA
ENDBRANCH   1   2
BRANCH   1   5
ATOM      5  C   UNL     1     -33.822  -5.203  -1.563  1.00  0.00     0.003 C 
ATOM      6  C   UNL     1     -33.307  -4.519  -2.826  1.00  0.00     0.004 C 
ENDBRANCH   1   5
TORSDOF 2
ENDMDL
MODEL 4
REMARK VINA RESULT:    -2.889      2.252      3.364
REMARK INTER + INTRA:          -3.265
REMARK INTER:                  -3.228
REMARK INTRA:                  -0.037
REMARK UNBOUND:                -0.039
REMARK SMILES CCCC(=O)[O-]
REMARK SMILES IDX 3 1 4 2 5 3 6 4 2 5 1 6
REMARK H PARENT
REMARK Flexibility Score: inf
ROOT
ATOM      1  C   UNL     1     -34.537  -3.389  -1.261  1.00  0.00     0.052 C 
ENDROOT
BRANCH   1   2
ATOM      2  C   UNL     1     -33.647  -4.361  -1.968  1.00  0.00     0.041 C 
ATOM      3  O   UNL     1     -33.472  -5.517  -1.498  1.00  0.00    -0.550 OA
ATOM      4  O   UNL     1     -33.048  -4.009  -3.170  1.00  0.00    -0.550 OA
ENDBRANCH   1   2
BRANCH   1   5
ATOM      5  C   UNL     1     -35.180  -4.044  -0.035  1.00  0.00     0.003 C 
ATOM      6  C   UNL     1     -36.639  -4.399  -0.303  1.00  0.00     0.004 C 
ENDBRANCH   1   5
TORSDOF 2
ENDMDL
MODEL 5
REMARK VINA RESULT:    -2.636      2.602      3.360
REMARK INTER + INTRA:          -2.983
REMARK INTER:                  -2.938
REMARK INTRA:                  -0.045
REMARK UNBOUND:                -0.039
REMARK SMILES CCCC(=O)[O-]
REMARK SMILES IDX 3 1 4 2 5 3 6 4 2 5 1 6
REMARK H PARENT
REMARK Flexibility Score: inf
ROOT
ATOM      1  C   UNL     1     -34.418  -3.258  -1.348  1.00  0.00     0.052 C 
ENDROOT
BRANCH   1   2
ATOM      2  C   UNL     1     -33.618  -4.351  -1.982  1.00  0.00     0.041 C 
ATOM      3  O   UNL     1     -33.605  -5.504  -1.473  1.00  0.00    -0.550 OA
ATOM      4  O   UNL     1     -32.924  -4.112  -3.161  1.00  0.00    -0.550 OA
ENDBRANCH   1   2
BRANCH   1   5
ATOM      5  C   UNL     1     -34.444  -3.425   0.174  1.00  0.00     0.003 C 
ATOM      6  C   UNL     1     -33.231  -2.763   0.821  1.00  0.00     0.004 C 
ENDBRANCH   1   5
TORSDOF 2
ENDMDL
MODEL 6
REMARK VINA RESULT:    -2.494     13.544     14.272
REMARK INTER + INTRA:          -2.824
REMARK INTER:                  -2.776
REMARK INTRA:                  -0.048
REMARK UNBOUND:                -0.039
REMARK SMILES CCCC(=O)[O-]
REMARK SMILES IDX 3 1 4 2 5 3 6 4 2 5 1 6
REMARK H PARENT
REMARK Flexibility Score: inf
ROOT
ATOM      1  C   UNL     1     -24.268   2.176  -9.556  1.00  0.00     0.052 C 
ENDROOT
BRANCH   1   2
ATOM      2  C   UNL     1     -23.983   1.013  -8.660  1.00  0.00     0.041 C 
ATOM      3  O   UNL     1     -24.327   1.046  -7.449  1.00  0.00    -0.550 OA
ATOM      4  O   UNL     1     -23.380  -0.128  -9.173  1.00  0.00    -0.550 OA
ENDBRANCH   1   2
BRANCH   1   5
ATOM      5  C   UNL     1     -25.368   1.822 -10.560  1.00  0.00     0.003 C 
ATOM      6  C   UNL     1     -26.751   2.123  -9.991  1.00  0.00     0.004 C 
ENDBRANCH   1   5
TORSDOF 2
ENDMDL
MODEL 7
REMARK VINA RESULT:    -2.446      6.686      7.430
REMARK INTER + INTRA:          -2.770
REMARK INTER:                  -2.705
REMARK INTRA:                  -0.065
REMARK UNBOUND:                -0.039
REMARK SMILES CCCC(=O)[O-]
REMARK SMILES IDX 3 1 4 2 5 3 6 4 2 5 1 6
REMARK H PARENT
REMARK Flexibility Score: inf
ROOT
ATOM      1  C   UNL     1     -36.243   1.462  -6.096  1.00  0.00     0.052 C 
ENDROOT
BRANCH   1   2
ATOM      2  C   UNL     1     -35.491   0.555  -5.175  1.00  0.00     0.041 C 
ATOM      3  O   UNL     1     -34.716  -0.322  -5.642  1.00  0.00    -0.550 OA
ATOM      4  O   UNL     1     -35.606   0.709  -3.799  1.00  0.00    -0.550 OA
ENDBRANCH   1   2
BRANCH   1   5
ATOM      5  C   UNL     1     -35.273   2.285  -6.948  1.00  0.00     0.003 C 
ATOM      6  C   UNL     1     -34.379   3.159  -6.075  1.00  0.00     0.004 C 
ENDBRANCH   1   5
TORSDOF 2
ENDMDL
MODEL 8
REMARK VINA RESULT:    -2.441     13.142     13.781
REMARK INTER + INTRA:          -2.765
REMARK INTER:                  -2.729
REMARK INTRA:                  -0.037
REMARK UNBOUND:                -0.039
REMARK SMILES CCCC(=O)[O-]
REMARK SMILES IDX 3 1 4 2 5 3 6 4 2 5 1 6
REMARK H PARENT
REMARK Flexibility Score: inf
ROOT
ATOM      1  C   UNL     1     -24.992   3.794   1.301  1.00  0.00     0.052 C 
ENDROOT
BRANCH   1   2
ATOM      2  C   UNL     1     -24.287   4.666   2.290  1.00  0.00     0.041 C 
ATOM      3  O   UNL     1     -23.298   4.224   2.933  1.00  0.00    -0.550 OA
ATOM      4  O   UNL     1     -24.690   5.984   2.468  1.00  0.00    -0.550 OA
ENDBRANCH   1   2
BRANCH   1   5
ATOM      5  C   UNL     1     -26.503   4.041   1.350  1.00  0.00     0.003 C 
ATOM      6  C   UNL     1     -27.029   4.502  -0.006  1.00  0.00     0.004 C 
ENDBRANCH   1   5
TORSDOF 2
ENDMDL
MODEL 9
REMARK VINA RESULT:    -2.402     10.354     10.927
REMARK INTER + INTRA:          -2.722
REMARK INTER:                  -2.713
REMARK INTRA:                  -0.008
REMARK UNBOUND:                -0.039
REMARK SMILES CCCC(=O)[O-]
REMARK SMILES IDX 3 1 4 2 5 3 6 4 2 5 1 6
REMARK H PARENT
REMARK Flexibility Score: inf
ROOT
ATOM      1  C   UNL     1     -34.812   5.720  -1.243  1.00  0.00     0.052 C 
ENDROOT
BRANCH   1   2
ATOM      2  C   UNL     1     -36.226   6.077  -1.577  1.00  0.00     0.041 C 
ATOM      3  O   UNL     1     -36.903   5.339  -2.341  1.00  0.00    -0.550 OA
ATOM      4  O   UNL     1     -36.812   7.200  -1.007  1.00  0.00    -0.550 OA
ENDBRANCH   1   2
BRANCH   1   5
ATOM      5  C   UNL     1     -33.935   6.974  -1.210  1.00  0.00     0.003 C 
ATOM      6  C   UNL     1     -32.538   6.655  -0.686  1.00  0.00     0.004 C 
ENDBRANCH   1   5
TORSDOF 2
ENDMDL
