MODEL 1
REMARK VINA RESULT:    -5.400      0.000      0.000
REMARK INTER + INTRA:          -7.327
REMARK INTER:                  -7.609
REMARK INTRA:                   0.282
REMARK UNBOUND:                 0.282
REMARK SMILES CC1=CCC(=C(C)C)C(=O)CC(C)=CCC1
REMARK SMILES IDX 12 1 14 2 13 3 15 4 16 5 2 6 1 7 3 8 11 10 9 11 10 12 5 13
REMARK SMILES IDX 6 14 7 15 8 16 4 17
REMARK H PARENT
REMARK Flexibility Score: 60.00
ROOT
ATOM      1  C   UNL     1      -7.405  33.986  21.514  1.00  0.00    -0.070 C 
ATOM      2  C   UNL     1      -7.651  35.233  21.996  1.00  0.00    -0.027 C 
ATOM      3  C   UNL     1      -7.229  33.860  20.019  1.00  0.00     0.039 C 
ENDROOT
BRANCH   2   4
ATOM      4  C   UNL     1      -7.748  35.654  23.443  1.00  0.00     0.032 C 
BRANCH   4   5
ATOM      5  C   UNL     1      -8.976  35.108  24.191  1.00  0.00     0.034 C 
BRANCH   5   6
ATOM      6  C   UNL     1      -8.685  34.395  25.500  1.00  0.00    -0.077 C 
ATOM      7  C   UNL     1      -7.909  35.128  26.568  1.00  0.00     0.039 C 
ATOM      8  C   UNL     1      -9.006  33.100  25.733  1.00  0.00    -0.023 CG0
ATOM      9  G   UNL     1      -9.897  32.251  24.864  1.00  0.00     0.000 G0
ENDBRANCH   5   6
ENDBRANCH   4   5
ENDBRANCH   2   4
BRANCH   1  10
ATOM     10  C   UNL     1      -7.413  32.700  22.333  1.00  0.00     0.111 C 
BRANCH  10  11
ATOM     11  C   UNL     1      -8.764  32.083  22.566  1.00  0.00     0.163 C 
ATOM     12  O   UNL     1      -9.665  32.200  21.692  1.00  0.00    -0.294 OA
BRANCH  11  13
ATOM     13  C   UNL     1      -9.082  31.438  23.866  1.00  0.00    -0.002 C 
ATOM     14  C   UNL     1      -8.679  30.160  24.106  1.00  0.00    -0.069 C 
ATOM     15  C   UNL     1      -9.015  29.451  25.397  1.00  0.00     0.039 C 
ATOM     16  C   UNL     1      -7.894  29.393  23.065  1.00  0.00     0.039 C 
BRANCH  13  17
ATOM     17  C   UNL     1      -9.910  32.241  24.860  1.00  0.00     0.066 CG0
ATOM     18  G   UNL     1      -9.006  33.093  25.713  1.00  0.00     0.000 G0
ENDBRANCH  13  17
ENDBRANCH  11  13
ENDBRANCH  10  11
ENDBRANCH   1  10
TORSDOF 0
ENDMDL
MODEL 2
REMARK VINA RESULT:    -5.348      1.691      3.593
REMARK INTER + INTRA:          -7.254
REMARK INTER:                  -7.752
REMARK INTRA:                   0.498
REMARK UNBOUND:                 0.282
REMARK SMILES CC1=CCC(=C(C)C)C(=O)CC(C)=CCC1
REMARK SMILES IDX 12 1 14 2 13 3 15 4 16 5 2 6 1 7 3 8 11 10 9 11 10 12 5 13
REMARK SMILES IDX 6 14 7 15 8 16 4 17
REMARK H PARENT
REMARK Flexibility Score: 60.00
ROOT
ATOM      1  C   UNL     1      -8.340  30.361  22.472  1.00  0.00    -0.070 C 
ATOM      2  C   UNL     1      -8.725  30.990  21.330  1.00  0.00    -0.027 C 
ATOM      3  C   UNL     1      -8.614  28.878  22.554  1.00  0.00     0.039 C 
ENDROOT
BRANCH   2   4
ATOM      4  C   UNL     1      -8.467  32.427  20.943  1.00  0.00     0.032 C 
BRANCH   4   5
ATOM      5  C   UNL     1      -9.200  33.468  21.807  1.00  0.00     0.034 C 
BRANCH   5   6
ATOM      6  C   UNL     1      -8.309  34.398  22.612  1.00  0.00    -0.077 C 
ATOM      7  C   UNL     1      -7.304  35.254  21.879  1.00  0.00     0.039 C 
ATOM      8  C   UNL     1      -8.303  34.440  23.965  1.00  0.00    -0.023 CG0
ATOM      9  G   UNL     1      -9.316  33.780  24.864  1.00  0.00     0.000 G0
ENDBRANCH   5   6
ENDBRANCH   4   5
ENDBRANCH   2   4
BRANCH   1  10
ATOM     10  C   UNL     1      -7.771  31.041  23.712  1.00  0.00     0.111 C 
BRANCH  10  11
ATOM     11  C   UNL     1      -8.748  31.288  24.828  1.00  0.00     0.163 C 
ATOM     12  O   UNL     1      -9.649  30.440  25.069  1.00  0.00    -0.294 OA
BRANCH  11  13
ATOM     13  C   UNL     1      -8.732  32.574  25.571  1.00  0.00    -0.002 C 
ATOM     14  C   UNL     1      -8.254  32.616  26.845  1.00  0.00    -0.069 C 
ATOM     15  C   UNL     1      -8.256  33.893  27.652  1.00  0.00     0.039 C 
ATOM     16  C   UNL     1      -7.720  31.365  27.508  1.00  0.00     0.039 C 
BRANCH  13  17
ATOM     17  C   UNL     1      -9.319  33.792  24.871  1.00  0.00     0.066 CG0
ATOM     18  G   UNL     1      -8.283  34.420  23.975  1.00  0.00     0.000 G0
ENDBRANCH  13  17
ENDBRANCH  11  13
ENDBRANCH  10  11
ENDBRANCH   1  10
TORSDOF 0
ENDMDL
MODEL 3
REMARK VINA RESULT:    -5.018      1.477      3.587
REMARK INTER + INTRA:          -6.790
REMARK INTER:                  -7.408
REMARK INTRA:                   0.618
REMARK UNBOUND:                 0.282
REMARK SMILES CC1=CCC(=C(C)C)C(=O)CC(C)=CCC1
REMARK SMILES IDX 12 1 14 2 13 3 15 4 16 5 2 6 1 7 3 8 11 10 9 11 10 12 5 13
REMARK SMILES IDX 6 14 7 15 8 16 4 17
REMARK H PARENT
REMARK Flexibility Score: 60.00
ROOT
ATOM      1  C   UNL     1      -7.631  34.522  22.300  1.00  0.00    -0.070 C 
ATOM      2  C   UNL     1      -7.625  33.682  21.231  1.00  0.00    -0.027 C 
ATOM      3  C   UNL     1      -7.707  36.000  22.000  1.00  0.00     0.039 C 
ENDROOT
BRANCH   2   4
ATOM      4  C   UNL     1      -7.674  32.173  21.250  1.00  0.00     0.032 C 
BRANCH   4   5
ATOM      5  C   UNL     1      -8.827  31.577  22.076  1.00  0.00     0.034 C 
BRANCH   5   6
ATOM      6  C   UNL     1      -8.413  30.771  23.295  1.00  0.00    -0.077 C 
ATOM      7  C   UNL     1      -7.404  29.662  23.123  1.00  0.00     0.039 C 
ATOM      8  C   UNL     1      -8.968  30.932  24.520  1.00  0.00    -0.023 CG0
ATOM      9  G   UNL     1      -9.874  32.065  24.927  1.00  0.00     0.000 G0
ENDBRANCH   5   6
ENDBRANCH   4   5
ENDBRANCH   2   4
BRANCH   1  10
ATOM     10  C   UNL     1      -7.445  34.107  23.755  1.00  0.00     0.111 C 
BRANCH  10  11
ATOM     11  C   UNL     1      -8.640  34.299  24.647  1.00  0.00     0.163 C 
ATOM     12  O   UNL     1      -9.209  35.423  24.698  1.00  0.00    -0.294 OA
BRANCH  11  13
ATOM     13  C   UNL     1      -9.084  33.210  25.554  1.00  0.00    -0.002 C 
ATOM     14  C   UNL     1      -8.727  33.233  26.867  1.00  0.00    -0.069 C 
ATOM     15  C   UNL     1      -9.121  32.126  27.817  1.00  0.00     0.039 C 
ATOM     16  C   UNL     1      -7.892  34.368  27.418  1.00  0.00     0.039 C 
BRANCH  13  17
ATOM     17  C   UNL     1      -9.887  32.072  24.938  1.00  0.00     0.066 CG0
ATOM     18  G   UNL     1      -8.964  30.953  24.530  1.00  0.00     0.000 G0
ENDBRANCH  13  17
ENDBRANCH  11  13
ENDBRANCH  10  11
ENDBRANCH   1  10
TORSDOF 0
ENDMDL
MODEL 4
REMARK VINA RESULT:    -4.904      1.963      3.928
REMARK INTER + INTRA:          -6.629
REMARK INTER:                  -7.152
REMARK INTRA:                   0.523
REMARK UNBOUND:                 0.282
REMARK SMILES CC1=CCC(=C(C)C)C(=O)CC(C)=CCC1
REMARK SMILES IDX 12 1 14 2 13 3 15 4 16 5 2 6 1 7 3 8 11 10 9 11 10 12 5 13
REMARK SMILES IDX 6 14 7 15 8 16 4 17
REMARK H PARENT
REMARK Flexibility Score: 60.00
ROOT
ATOM      1  C   UNL     1      -8.465  34.523  25.587  1.00  0.00    -0.070 C 
ATOM      2  C   UNL     1      -8.509  33.979  26.832  1.00  0.00    -0.027 C 
ATOM      3  C   UNL     1      -7.864  35.904  25.471  1.00  0.00     0.039 C 
ENDROOT
BRANCH   2   4
ATOM      4  C   UNL     1      -8.945  32.583  27.207  1.00  0.00     0.032 C 
BRANCH   4   5
ATOM      5  C   UNL     1      -7.942  31.476  26.842  1.00  0.00     0.034 C 
BRANCH   5   6
ATOM      6  C   UNL     1      -8.472  30.384  25.928  1.00  0.00    -0.077 C 
ATOM      7  C   UNL     1      -9.481  29.406  26.479  1.00  0.00     0.039 C 
ATOM      8  C   UNL     1      -8.023  30.182  24.667  1.00  0.00    -0.023 CG0
ATOM      9  G   UNL     1      -7.137  31.124  23.894  1.00  0.00     0.000 G0
ENDBRANCH   5   6
ENDBRANCH   4   5
ENDBRANCH   2   4
BRANCH   1  10
ATOM     10  C   UNL     1      -9.076  33.914  24.329  1.00  0.00     0.111 C 
BRANCH  10  11
ATOM     11  C   UNL     1      -8.096  33.439  23.292  1.00  0.00     0.163 C 
ATOM     12  O   UNL     1      -7.432  34.279  22.627  1.00  0.00    -0.294 OA
BRANCH  11  13
ATOM     13  C   UNL     1      -7.991  31.994  22.962  1.00  0.00    -0.002 C 
ATOM     14  C   UNL     1      -8.689  31.485  21.910  1.00  0.00    -0.069 C 
ATOM     15  C   UNL     1      -8.644  30.015  21.564  1.00  0.00     0.039 C 
ATOM     16  C   UNL     1      -9.561  32.382  21.060  1.00  0.00     0.039 C 
BRANCH  13  17
ATOM     17  C   UNL     1      -7.133  31.130  23.876  1.00  0.00     0.066 CG0
ATOM     18  G   UNL     1      -8.005  30.183  24.659  1.00  0.00     0.000 G0
ENDBRANCH  13  17
ENDBRANCH  11  13
ENDBRANCH  10  11
ENDBRANCH   1  10
TORSDOF 0
ENDMDL
MODEL 5
REMARK VINA RESULT:    -4.698      1.232      3.770
REMARK INTER + INTRA:          -6.339
REMARK INTER:                  -6.885
REMARK INTRA:                   0.546
REMARK UNBOUND:                 0.282
REMARK SMILES CC1=CCC(=C(C)C)C(=O)CC(C)=CCC1
REMARK SMILES IDX 12 1 14 2 13 3 15 4 16 5 2 6 1 7 3 8 11 10 9 11 10 12 5 13
REMARK SMILES IDX 6 14 7 15 8 16 4 17
REMARK H PARENT
REMARK Flexibility Score: 60.00
ROOT
ATOM      1  C   UNL     1      -7.880  30.184  23.777  1.00  0.00    -0.070 C 
ATOM      2  C   UNL     1      -7.879  30.229  25.136  1.00  0.00    -0.027 C 
ATOM      3  C   UNL     1      -8.287  28.875  23.143  1.00  0.00     0.039 C 
ENDROOT
BRANCH   2   4
ATOM      4  C   UNL     1      -7.630  31.433  26.013  1.00  0.00     0.032 C 
BRANCH   4   5
ATOM      5  C   UNL     1      -8.844  32.361  26.190  1.00  0.00     0.034 C 
BRANCH   5   6
ATOM      6  C   UNL     1      -8.611  33.821  25.842  1.00  0.00    -0.077 C 
ATOM      7  C   UNL     1      -7.862  34.690  26.824  1.00  0.00     0.039 C 
ATOM      8  C   UNL     1      -9.117  34.415  24.735  1.00  0.00    -0.023 CG0
ATOM      9  G   UNL     1      -9.759  33.699  23.576  1.00  0.00     0.000 G0
ENDBRANCH   5   6
ENDBRANCH   4   5
ENDBRANCH   2   4
BRANCH   1  10
ATOM     10  C   UNL     1      -7.391  31.292  22.851  1.00  0.00     0.111 C 
BRANCH  10  11
ATOM     11  C   UNL     1      -8.463  32.043  22.110  1.00  0.00     0.163 C 
ATOM     12  O   UNL     1      -9.041  31.503  21.129  1.00  0.00    -0.294 OA
BRANCH  11  13
ATOM     13  C   UNL     1      -8.762  33.458  22.450  1.00  0.00    -0.002 C 
ATOM     14  C   UNL     1      -8.110  34.464  21.806  1.00  0.00    -0.069 C 
ATOM     15  C   UNL     1      -8.353  35.915  22.148  1.00  0.00     0.039 C 
ATOM     16  C   UNL     1      -7.090  34.155  20.732  1.00  0.00     0.039 C 
BRANCH  13  17
ATOM     17  C   UNL     1      -9.767  33.710  23.567  1.00  0.00     0.066 CG0
ATOM     18  G   UNL     1      -9.083  34.378  24.732  1.00  0.00     0.000 G0
ENDBRANCH  13  17
ENDBRANCH  11  13
ENDBRANCH  10  11
ENDBRANCH   1  10
TORSDOF 0
ENDMDL
MODEL 6
REMARK VINA RESULT:    -4.541      1.003      1.372
REMARK INTER + INTRA:          -6.117
REMARK INTER:                  -6.315
REMARK INTRA:                   0.198
REMARK UNBOUND:                 0.282
REMARK SMILES CC1=CCC(=C(C)C)C(=O)CC(C)=CCC1
REMARK SMILES IDX 12 1 14 2 13 3 15 4 16 5 2 6 1 7 3 8 11 10 9 11 10 12 5 13
REMARK SMILES IDX 6 14 7 15 8 16 4 17
REMARK H PARENT
REMARK Flexibility Score: 60.00
ROOT
ATOM      1  C   UNL     1      -7.659  35.120  22.870  1.00  0.00    -0.070 C 
ATOM      2  C   UNL     1      -7.804  35.915  23.963  1.00  0.00    -0.027 C 
ATOM      3  C   UNL     1      -7.862  35.775  21.524  1.00  0.00     0.039 C 
ENDROOT
BRANCH   2   4
ATOM      4  C   UNL     1      -7.544  35.548  25.404  1.00  0.00     0.032 C 
BRANCH   4   5
ATOM      5  C   UNL     1      -8.773  35.025  26.167  1.00  0.00     0.034 C 
BRANCH   5   6
ATOM      6  C   UNL     1      -8.605  33.670  26.832  1.00  0.00    -0.077 C 
ATOM      7  C   UNL     1      -7.881  33.596  28.155  1.00  0.00     0.039 C 
ATOM      8  C   UNL     1      -8.992  32.505  26.261  1.00  0.00    -0.023 CG0
ATOM      9  G   UNL     1      -9.849  32.378  25.028  1.00  0.00     0.000 G0
ENDBRANCH   5   6
ENDBRANCH   4   5
ENDBRANCH   2   4
BRANCH   1  10
ATOM     10  C   UNL     1      -7.431  33.613  22.892  1.00  0.00     0.111 C 
BRANCH  10  11
ATOM     11  C   UNL     1      -8.667  32.764  22.779  1.00  0.00     0.163 C 
ATOM     12  O   UNL     1      -9.460  32.938  21.815  1.00  0.00    -0.294 OA
BRANCH  11  13
ATOM     13  C   UNL     1      -9.020  31.804  23.856  1.00  0.00    -0.002 C 
ATOM     14  C   UNL     1      -8.638  30.501  23.756  1.00  0.00    -0.069 C 
ATOM     15  C   UNL     1      -9.010  29.482  24.807  1.00  0.00     0.039 C 
ATOM     16  C   UNL     1      -7.841  30.023  22.563  1.00  0.00     0.039 C 
BRANCH  13  17
ATOM     17  C   UNL     1      -9.859  32.330  25.013  1.00  0.00     0.066 CG0
ATOM     18  G   UNL     1      -8.998  32.500  26.238  1.00  0.00     0.000 G0
ENDBRANCH  13  17
ENDBRANCH  11  13
ENDBRANCH  10  11
ENDBRANCH   1  10
TORSDOF 0
ENDMDL
MODEL 7
REMARK VINA RESULT:    -4.287      1.772      4.775
REMARK INTER + INTRA:          -5.760
REMARK INTER:                  -7.180
REMARK INTRA:                   1.420
REMARK UNBOUND:                 0.282
REMARK SMILES CC1=CCC(=C(C)C)C(=O)CC(C)=CCC1
REMARK SMILES IDX 12 1 14 2 13 3 15 4 16 5 2 6 1 7 3 8 11 10 9 11 10 12 5 13
REMARK SMILES IDX 6 14 7 15 8 16 4 17
REMARK H PARENT
REMARK Flexibility Score: 60.00
ROOT
ATOM      1  C   UNL     1      -8.999  30.224  24.465  1.00  0.00    -0.070 C 
ATOM      2  C   UNL     1      -8.063  30.176  23.481  1.00  0.00    -0.027 C 
ATOM      3  C   UNL     1      -9.401  28.905  25.082  1.00  0.00     0.039 C 
ENDROOT
BRANCH   2   4
ATOM      4  C   UNL     1      -7.404  31.344  22.785  1.00  0.00     0.032 C 
BRANCH   4   5
ATOM      5  C   UNL     1      -8.250  31.993  21.677  1.00  0.00     0.034 C 
BRANCH   5   6
ATOM      6  C   UNL     1      -8.108  33.499  21.539  1.00  0.00    -0.077 C 
ATOM      7  C   UNL     1      -7.186  34.047  20.477  1.00  0.00     0.039 C 
ATOM      8  C   UNL     1      -8.697  34.384  22.378  1.00  0.00    -0.023 CG0
ATOM      9  G   UNL     1      -9.756  34.050  23.397  1.00  0.00     0.000 G0
ENDBRANCH   5   6
ENDBRANCH   4   5
ENDBRANCH   2   4
BRANCH   1  10
ATOM     10  C   UNL     1      -9.759  31.469  24.909  1.00  0.00     0.111 C 
BRANCH  10  11
ATOM     11  C   UNL     1      -8.910  32.621  25.373  1.00  0.00     0.163 C 
ATOM     12  O   UNL     1      -8.109  32.461  26.333  1.00  0.00    -0.294 OA
BRANCH  11  13
ATOM     13  C   UNL     1      -9.094  33.974  24.788  1.00  0.00    -0.002 C 
ATOM     14  C   UNL     1      -8.728  35.076  25.498  1.00  0.00    -0.069 C 
ATOM     15  C   UNL     1      -8.934  36.472  24.959  1.00  0.00     0.039 C 
ATOM     16  C   UNL     1      -8.120  34.936  26.876  1.00  0.00     0.039 C 
BRANCH  13  17
ATOM     17  C   UNL     1      -9.749  34.058  23.415  1.00  0.00     0.066 CG0
ATOM     18  G   UNL     1      -8.717  34.405  22.374  1.00  0.00     0.000 G0
ENDBRANCH  13  17
ENDBRANCH  11  13
ENDBRANCH  10  11
ENDBRANCH   1  10
TORSDOF 0
ENDMDL
MODEL 8
REMARK VINA RESULT:    -4.283      1.710      4.018
REMARK INTER + INTRA:          -5.754
REMARK INTER:                  -6.920
REMARK INTRA:                   1.166
REMARK UNBOUND:                 0.282
REMARK SMILES CC1=CCC(=C(C)C)C(=O)CC(C)=CCC1
REMARK SMILES IDX 12 1 14 2 13 3 15 4 16 5 2 6 1 7 3 8 11 10 9 11 10 12 5 13
REMARK SMILES IDX 6 14 7 15 8 16 4 17
REMARK H PARENT
REMARK Flexibility Score: 60.00
ROOT
ATOM      1  C   UNL     1      -8.188  31.044  26.190  1.00  0.00    -0.070 C 
ATOM      2  C   UNL     1      -8.773  32.043  26.901  1.00  0.00    -0.027 C 
ATOM      3  C   UNL     1      -7.907  29.758  26.932  1.00  0.00     0.039 C 
ENDROOT
BRANCH   2   4
ATOM      4  C   UNL     1      -9.264  33.373  26.380  1.00  0.00     0.032 C 
BRANCH   4   5
ATOM      5  C   UNL     1      -8.188  34.469  26.298  1.00  0.00     0.034 C 
BRANCH   5   6
ATOM      6  C   UNL     1      -8.337  35.451  25.149  1.00  0.00    -0.077 C 
ATOM      7  C   UNL     1      -9.049  36.759  25.401  1.00  0.00     0.039 C 
ATOM      8  C   UNL     1      -7.945  35.182  23.881  1.00  0.00    -0.023 CG0
ATOM      9  G   UNL     1      -7.098  34.011  23.458  1.00  0.00     0.000 G0
ENDBRANCH   5   6
ENDBRANCH   4   5
ENDBRANCH   2   4
BRANCH   1  10
ATOM     10  C   UNL     1      -7.685  31.152  24.754  1.00  0.00     0.111 C 
BRANCH  10  11
ATOM     11  C   UNL     1      -8.558  31.935  23.813  1.00  0.00     0.163 C 
ATOM     12  O   UNL     1      -9.795  31.698  23.764  1.00  0.00    -0.294 OA
BRANCH  11  13
ATOM     13  C   UNL     1      -7.957  32.903  22.860  1.00  0.00    -0.002 C 
ATOM     14  C   UNL     1      -8.151  32.747  21.522  1.00  0.00    -0.069 C 
ATOM     15  C   UNL     1      -7.526  33.683  20.514  1.00  0.00     0.039 C 
ATOM     16  C   UNL     1      -8.988  31.603  20.994  1.00  0.00     0.039 C 
BRANCH  13  17
ATOM     17  C   UNL     1      -7.090  34.011  23.443  1.00  0.00     0.066 CG0
ATOM     18  G   UNL     1      -7.955  35.164  23.882  1.00  0.00     0.000 G0
ENDBRANCH  13  17
ENDBRANCH  11  13
ENDBRANCH  10  11
ENDBRANCH   1  10
TORSDOF 0
ENDMDL
MODEL 9
REMARK VINA RESULT:    -3.220      1.561      2.021
REMARK INTER + INTRA:          -4.256
REMARK INTER:                  -5.953
REMARK INTRA:                   1.697
REMARK UNBOUND:                 0.282
REMARK SMILES CC1=CCC(=C(C)C)C(=O)CC(C)=CCC1
REMARK SMILES IDX 12 1 14 2 13 3 15 4 16 5 2 6 1 7 3 8 11 10 9 11 10 12 5 13
REMARK SMILES IDX 6 14 7 15 8 16 4 17
REMARK H PARENT
REMARK Flexibility Score: 60.00
ROOT
ATOM      1  C   UNL     1      -8.800  32.024  21.396  1.00  0.00    -0.070 C 
ATOM      2  C   UNL     1      -8.514  33.347  21.517  1.00  0.00    -0.027 C 
ATOM      3  C   UNL     1      -9.604  31.612  20.185  1.00  0.00     0.039 C 
ENDROOT
BRANCH   2   4
ATOM      4  C   UNL     1      -7.636  34.004  22.555  1.00  0.00     0.032 C 
BRANCH   4   5
ATOM      5  C   UNL     1      -8.250  35.246  23.224  1.00  0.00     0.034 C 
BRANCH   5   6
ATOM      6  C   UNL     1      -8.369  35.187  24.737  1.00  0.00    -0.077 C 
ATOM      7  C   UNL     1      -7.760  36.299  25.556  1.00  0.00     0.039 C 
ATOM      8  C   UNL     1      -8.914  34.141  25.402  1.00  0.00    -0.023 CG0
ATOM      9  G   UNL     1      -9.695  33.017  24.773  1.00  0.00     0.000 G0
ENDBRANCH   5   6
ENDBRANCH   4   5
ENDBRANCH   2   4
BRANCH   1  10
ATOM     10  C   UNL     1      -8.486  30.949  22.431  1.00  0.00     0.111 C 
BRANCH  10  11
ATOM     11  C   UNL     1      -7.967  31.447  23.752  1.00  0.00     0.163 C 
ATOM     12  O   UNL     1      -6.724  31.528  23.944  1.00  0.00    -0.294 OA
BRANCH  11  13
ATOM     13  C   UNL     1      -8.903  31.731  24.870  1.00  0.00    -0.002 C 
ATOM     14  C   UNL     1      -9.051  30.829  25.878  1.00  0.00    -0.069 C 
ATOM     15  C   UNL     1     -10.021  31.058  27.013  1.00  0.00     0.039 C 
ATOM     16  C   UNL     1      -8.257  29.541  25.880  1.00  0.00     0.039 C 
BRANCH  13  17
ATOM     17  C   UNL     1      -9.707  33.023  24.795  1.00  0.00     0.066 CG0
ATOM     18  G   UNL     1      -8.920  34.155  25.403  1.00  0.00     0.000 G0
ENDBRANCH  13  17
ENDBRANCH  11  13
ENDBRANCH  10  11
ENDBRANCH   1  10
TORSDOF 0
ENDMDL
