MODEL 1
REMARK VINA RESULT:    -4.629      0.000      0.000
REMARK INTER + INTRA:          -5.315
REMARK INTER:                  -5.171
REMARK INTRA:                  -0.144
REMARK UNBOUND:                -0.144
REMARK SMILES O=C([O-])C=Cc1ccccc1
REMARK SMILES IDX 4 1 5 2 2 3 1 4 3 5 6 6 7 7 11 8 8 9 10 10 9 11
REMARK H PARENT
REMARK Flexibility Score: inf
ROOT
ATOM      1  C   UNL     1     -16.982  40.168  31.452  1.00  0.00     0.025 C 
ATOM      2  C   UNL     1     -17.904  40.648  32.301  1.00  0.00     0.010 C 
ENDROOT
BRANCH   1   3
ATOM      3  C   UNL     1     -16.947  38.751  31.051  1.00  0.00     0.064 C 
ATOM      4  O   UNL     1     -17.953  38.006  31.199  1.00  0.00    -0.545 OA
ATOM      5  O   UNL     1     -15.786  38.227  30.500  1.00  0.00    -0.545 OA
ENDBRANCH   1   3
BRANCH   2   6
ATOM      6  C   UNL     1     -17.994  42.066  32.746  1.00  0.00    -0.026 A 
ATOM      7  C   UNL     1     -16.815  42.834  32.753  1.00  0.00     0.008 A 
ATOM      8  C   UNL     1     -19.199  42.675  33.161  1.00  0.00     0.008 A 
ATOM      9  C   UNL     1     -16.837  44.172  33.160  1.00  0.00     0.001 A 
ATOM     10  C   UNL     1     -19.213  44.012  33.567  1.00  0.00     0.001 A 
ATOM     11  C   UNL     1     -18.035  44.760  33.568  1.00  0.00     0.000 A 
ENDBRANCH   2   6
TORSDOF 2
ENDMDL
MODEL 2
REMARK VINA RESULT:    -4.568      0.225      1.768
REMARK INTER + INTRA:          -5.246
REMARK INTER:                  -5.115
REMARK INTRA:                  -0.132
REMARK UNBOUND:                -0.144
REMARK SMILES O=C([O-])C=Cc1ccccc1
REMARK SMILES IDX 4 1 5 2 2 3 1 4 3 5 6 6 7 7 11 8 8 9 10 10 9 11
REMARK H PARENT
REMARK Flexibility Score: inf
ROOT
ATOM      1  C   UNL     1     -16.833  40.068  31.297  1.00  0.00     0.025 C 
ATOM      2  C   UNL     1     -17.701  40.578  32.185  1.00  0.00     0.010 C 
ENDROOT
BRANCH   1   3
ATOM      3  C   UNL     1     -16.838  38.643  30.925  1.00  0.00     0.064 C 
ATOM      4  O   UNL     1     -15.822  38.098  30.415  1.00  0.00    -0.545 OA
ATOM      5  O   UNL     1     -17.981  37.886  31.141  1.00  0.00    -0.545 OA
ENDBRANCH   1   3
BRANCH   2   6
ATOM      6  C   UNL     1     -17.749  42.006  32.604  1.00  0.00    -0.026 A 
ATOM      7  C   UNL     1     -18.981  42.529  33.035  1.00  0.00     0.008 A 
ATOM      8  C   UNL     1     -16.621  42.857  32.588  1.00  0.00     0.008 A 
ATOM      9  C   UNL     1     -19.088  43.864  33.441  1.00  0.00     0.001 A 
ATOM     10  C   UNL     1     -16.736  44.190  32.995  1.00  0.00     0.001 A 
ATOM     11  C   UNL     1     -17.966  44.693  33.420  1.00  0.00     0.000 A 
ENDBRANCH   2   6
TORSDOF 2
ENDMDL
MODEL 3
REMARK VINA RESULT:    -4.511      3.597      5.080
REMARK INTER + INTRA:          -5.183
REMARK INTER:                  -5.053
REMARK INTRA:                  -0.129
REMARK UNBOUND:                -0.144
REMARK SMILES O=C([O-])C=Cc1ccccc1
REMARK SMILES IDX 4 1 5 2 2 3 1 4 3 5 6 6 7 7 11 8 8 9 10 10 9 11
REMARK H PARENT
REMARK Flexibility Score: inf
ROOT
ATOM      1  C   UNL     1     -17.728  43.480  33.057  1.00  0.00     0.025 C 
ATOM      2  C   UNL     1     -16.827  44.385  33.469  1.00  0.00     0.010 C 
ENDROOT
BRANCH   1   3
ATOM      3  C   UNL     1     -19.098  43.436  33.597  1.00  0.00     0.064 C 
ATOM      4  O   UNL     1     -19.753  44.493  33.802  1.00  0.00    -0.545 OA
ATOM      5  O   UNL     1     -19.677  42.208  33.885  1.00  0.00    -0.545 OA
ENDBRANCH   1   3
BRANCH   2   6
ATOM      6  C   UNL     1     -15.429  44.484  32.965  1.00  0.00    -0.026 A 
ATOM      7  C   UNL     1     -14.389  44.568  33.908  1.00  0.00     0.008 A 
ATOM      8  C   UNL     1     -15.098  44.496  31.592  1.00  0.00     0.008 A 
ATOM      9  C   UNL     1     -13.056  44.662  33.496  1.00  0.00     0.001 A 
ATOM     10  C   UNL     1     -13.763  44.591  31.186  1.00  0.00     0.001 A 
ATOM     11  C   UNL     1     -12.743  44.674  32.136  1.00  0.00     0.000 A 
ENDBRANCH   2   6
TORSDOF 2
ENDMDL
MODEL 4
REMARK VINA RESULT:    -4.491      3.612      5.141
REMARK INTER + INTRA:          -5.160
REMARK INTER:                  -5.019
REMARK INTRA:                  -0.141
REMARK UNBOUND:                -0.144
REMARK SMILES O=C([O-])C=Cc1ccccc1
REMARK SMILES IDX 4 1 5 2 2 3 1 4 3 5 6 6 7 7 11 8 8 9 10 10 9 11
REMARK H PARENT
REMARK Flexibility Score: inf
ROOT
ATOM      1  C   UNL     1     -17.759  43.579  32.997  1.00  0.00     0.025 C 
ATOM      2  C   UNL     1     -16.807  44.398  33.470  1.00  0.00     0.010 C 
ENDROOT
BRANCH   1   3
ATOM      3  C   UNL     1     -19.100  43.503  33.602  1.00  0.00     0.064 C 
ATOM      4  O   UNL     1     -19.756  44.546  33.868  1.00  0.00    -0.545 OA
ATOM      5  O   UNL     1     -19.651  42.261  33.884  1.00  0.00    -0.545 OA
ENDBRANCH   1   3
BRANCH   2   6
ATOM      6  C   UNL     1     -15.434  44.521  32.906  1.00  0.00    -0.026 A 
ATOM      7  C   UNL     1     -15.275  44.389  31.515  1.00  0.00     0.008 A 
ATOM      8  C   UNL     1     -14.288  44.763  33.697  1.00  0.00     0.008 A 
ATOM      9  C   UNL     1     -14.011  44.496  30.927  1.00  0.00     0.001 A 
ATOM     10  C   UNL     1     -13.028  44.868  33.102  1.00  0.00     0.001 A 
ATOM     11  C   UNL     1     -12.888  44.734  31.720  1.00  0.00     0.000 A 
ENDBRANCH   2   6
TORSDOF 2
ENDMDL
MODEL 5
REMARK VINA RESULT:    -4.388      3.773      4.701
REMARK INTER + INTRA:          -5.046
REMARK INTER:                  -4.917
REMARK INTRA:                  -0.129
REMARK UNBOUND:                -0.144
REMARK SMILES O=C([O-])C=Cc1ccccc1
REMARK SMILES IDX 4 1 5 2 2 3 1 4 3 5 6 6 7 7 11 8 8 9 10 10 9 11
REMARK H PARENT
REMARK Flexibility Score: inf
ROOT
ATOM      1  C   UNL     1     -14.648  43.742  32.044  1.00  0.00     0.025 C 
ATOM      2  C   UNL     1     -15.620  44.318  32.767  1.00  0.00     0.010 C 
ENDROOT
BRANCH   1   3
ATOM      3  C   UNL     1     -13.433  44.472  31.641  1.00  0.00     0.064 C 
ATOM      4  O   UNL     1     -12.595  44.867  32.496  1.00  0.00    -0.545 OA
ATOM      5  O   UNL     1     -13.207  44.730  30.296  1.00  0.00    -0.545 OA
ENDBRANCH   1   3
BRANCH   2   6
ATOM      6  C   UNL     1     -16.870  43.637  33.205  1.00  0.00    -0.026 A 
ATOM      7  C   UNL     1     -18.086  44.331  33.065  1.00  0.00     0.008 A 
ATOM      8  C   UNL     1     -16.894  42.335  33.753  1.00  0.00     0.008 A 
ATOM      9  C   UNL     1     -19.293  43.743  33.459  1.00  0.00     0.001 A 
ATOM     10  C   UNL     1     -18.104  41.755  34.144  1.00  0.00     0.001 A 
ATOM     11  C   UNL     1     -19.301  42.456  33.999  1.00  0.00     0.000 A 
ENDBRANCH   2   6
TORSDOF 2
ENDMDL
MODEL 6
REMARK VINA RESULT:    -4.383      3.735      4.606
REMARK INTER + INTRA:          -5.040
REMARK INTER:                  -4.911
REMARK INTRA:                  -0.129
REMARK UNBOUND:                -0.144
REMARK SMILES O=C([O-])C=Cc1ccccc1
REMARK SMILES IDX 4 1 5 2 2 3 1 4 3 5 6 6 7 7 11 8 8 9 10 10 9 11
REMARK H PARENT
REMARK Flexibility Score: inf
ROOT
ATOM      1  C   UNL     1     -14.840  44.126  31.726  1.00  0.00     0.025 C 
ATOM      2  C   UNL     1     -15.340  44.003  32.965  1.00  0.00     0.010 C 
ENDROOT
BRANCH   1   3
ATOM      3  C   UNL     1     -13.445  44.528  31.480  1.00  0.00     0.064 C 
ATOM      4  O   UNL     1     -12.685  44.864  32.428  1.00  0.00    -0.545 OA
ATOM      5  O   UNL     1     -12.958  44.538  30.180  1.00  0.00    -0.545 OA
ENDBRANCH   1   3
BRANCH   2   6
ATOM      6  C   UNL     1     -16.739  43.602  33.282  1.00  0.00    -0.026 A 
ATOM      7  C   UNL     1     -16.972  42.274  33.683  1.00  0.00     0.008 A 
ATOM      8  C   UNL     1     -17.838  44.485  33.199  1.00  0.00     0.008 A 
ATOM      9  C   UNL     1     -18.264  41.838  33.994  1.00  0.00     0.001 A 
ATOM     10  C   UNL     1     -19.127  44.043  33.510  1.00  0.00     0.001 A 
ATOM     11  C   UNL     1     -19.341  42.722  33.907  1.00  0.00     0.000 A 
ENDBRANCH   2   6
TORSDOF 2
ENDMDL
MODEL 7
REMARK VINA RESULT:    -4.368      9.576     10.360
REMARK INTER + INTRA:          -5.023
REMARK INTER:                  -4.892
REMARK INTRA:                  -0.131
REMARK UNBOUND:                -0.144
REMARK SMILES O=C([O-])C=Cc1ccccc1
REMARK SMILES IDX 4 1 5 2 2 3 1 4 3 5 6 6 7 7 11 8 8 9 10 10 9 11
REMARK H PARENT
REMARK Flexibility Score: inf
ROOT
ATOM      1  C   UNL     1     -26.031  40.096  25.356  1.00  0.00     0.025 C 
ATOM      2  C   UNL     1     -25.521  40.822  26.362  1.00  0.00     0.010 C 
ENDROOT
BRANCH   1   3
ATOM      3  C   UNL     1     -25.802  40.443  23.943  1.00  0.00     0.064 C 
ATOM      4  O   UNL     1     -25.102  39.708  23.195  1.00  0.00    -0.545 OA
ATOM      5  O   UNL     1     -26.367  41.600  23.425  1.00  0.00    -0.545 OA
ENDBRANCH   1   3
BRANCH   2   6
ATOM      6  C   UNL     1     -25.715  40.526  27.808  1.00  0.00    -0.026 A 
ATOM      7  C   UNL     1     -25.161  39.340  28.322  1.00  0.00     0.008 A 
ATOM      8  C   UNL     1     -26.426  41.375  28.686  1.00  0.00     0.008 A 
ATOM      9  C   UNL     1     -25.310  39.008  29.672  1.00  0.00     0.001 A 
ATOM     10  C   UNL     1     -26.572  41.036  30.034  1.00  0.00     0.001 A 
ATOM     11  C   UNL     1     -26.015  39.855  30.528  1.00  0.00     0.000 A 
ENDBRANCH   2   6
TORSDOF 2
ENDMDL
MODEL 8
REMARK VINA RESULT:    -4.145      5.121      6.267
REMARK INTER + INTRA:          -4.773
REMARK INTER:                  -4.641
REMARK INTRA:                  -0.132
REMARK UNBOUND:                -0.144
REMARK SMILES O=C([O-])C=Cc1ccccc1
REMARK SMILES IDX 4 1 5 2 2 3 1 4 3 5 6 6 7 7 11 8 8 9 10 10 9 11
REMARK H PARENT
REMARK Flexibility Score: inf
ROOT
ATOM      1  C   UNL     1     -12.168  44.450  30.155  1.00  0.00     0.025 C 
ATOM      2  C   UNL     1     -12.249  44.605  31.485  1.00  0.00     0.010 C 
ENDROOT
BRANCH   1   3
ATOM      3  C   UNL     1     -10.880  44.455  29.441  1.00  0.00     0.064 C 
ATOM      4  O   UNL     1     -10.773  44.958  28.290  1.00  0.00    -0.545 OA
ATOM      5  O   UNL     1      -9.763  43.895  30.047  1.00  0.00    -0.545 OA
ENDBRANCH   1   3
BRANCH   2   6
ATOM      6  C   UNL     1     -13.517  44.610  32.266  1.00  0.00    -0.026 A 
ATOM      7  C   UNL     1     -13.477  45.079  33.591  1.00  0.00     0.008 A 
ATOM      8  C   UNL     1     -14.753  44.169  31.742  1.00  0.00     0.008 A 
ATOM      9  C   UNL     1     -14.636  45.108  34.373  1.00  0.00     0.001 A 
ATOM     10  C   UNL     1     -15.907  44.201  32.530  1.00  0.00     0.001 A 
ATOM     11  C   UNL     1     -15.850  44.669  33.843  1.00  0.00     0.000 A 
ENDBRANCH   2   6
TORSDOF 2
ENDMDL
MODEL 9
REMARK VINA RESULT:    -4.137      4.867      5.983
REMARK INTER + INTRA:          -4.765
REMARK INTER:                  -4.633
REMARK INTRA:                  -0.132
REMARK UNBOUND:                -0.144
REMARK SMILES O=C([O-])C=Cc1ccccc1
REMARK SMILES IDX 4 1 5 2 2 3 1 4 3 5 6 6 7 7 11 8 8 9 10 10 9 11
REMARK H PARENT
REMARK Flexibility Score: inf
ROOT
ATOM      1  C   UNL     1     -12.230  44.506  31.168  1.00  0.00     0.025 C 
ATOM      2  C   UNL     1     -13.378  44.491  30.474  1.00  0.00     0.010 C 
ENDROOT
BRANCH   1   3
ATOM      3  C   UNL     1     -10.914  44.533  30.507  1.00  0.00     0.064 C 
ATOM      4  O   UNL     1      -9.895  44.038  31.061  1.00  0.00    -0.545 OA
ATOM      5  O   UNL     1     -10.793  45.112  29.252  1.00  0.00    -0.545 OA
ENDBRANCH   1   3
BRANCH   2   6
ATOM      6  C   UNL     1     -14.738  44.463  31.080  1.00  0.00    -0.026 A 
ATOM      7  C   UNL     1     -15.833  44.806  30.266  1.00  0.00     0.008 A 
ATOM      8  C   UNL     1     -14.980  44.112  32.427  1.00  0.00     0.008 A 
ATOM      9  C   UNL     1     -17.134  44.798  30.780  1.00  0.00     0.001 A 
ATOM     10  C   UNL     1     -16.284  44.107  32.933  1.00  0.00     0.001 A 
ATOM     11  C   UNL     1     -17.359  44.449  32.112  1.00  0.00     0.000 A 
ENDBRANCH   2   6
TORSDOF 2
ENDMDL
