MODEL 1
REMARK VINA RESULT:    -3.781      0.000      0.000
REMARK INTER + INTRA:          -4.733
REMARK INTER:                  -4.665
REMARK INTRA:                  -0.068
REMARK UNBOUND:                -0.068
REMARK SMILES CCCCCC(=O)[O-]
REMARK SMILES IDX 4 1 5 2 6 3 7 4 8 5 3 6 2 7 1 8
REMARK H PARENT
REMARK Flexibility Score: inf
ROOT
ATOM      1  C   UNL     1       0.148  -1.653   1.300  1.00  0.00     0.006 C 
ENDROOT
BRANCH   1   2
ATOM      2  C   UNL     1       1.182  -0.950   0.411  1.00  0.00     0.053 C 
BRANCH   2   3
ATOM      3  C   UNL     1       2.420  -0.591   1.174  1.00  0.00     0.041 C 
ATOM      4  O   UNL     1       2.404  -0.566   2.433  1.00  0.00    -0.550 OA
ATOM      5  O   UNL     1       3.600  -0.314   0.495  1.00  0.00    -0.550 OA
ENDBRANCH   2   3
ENDBRANCH   1   2
BRANCH   1   6
ATOM      6  C   UNL     1      -0.646  -2.721   0.536  1.00  0.00     0.000 C 
BRANCH   6   7
ATOM      7  C   UNL     1      -0.003  -3.015  -0.825  1.00  0.00    -0.003 C 
ATOM      8  C   UNL     1      -0.897  -2.549  -1.970  1.00  0.00     0.004 C 
ENDBRANCH   6   7
ENDBRANCH   1   6
TORSDOF 4
ENDMDL
MODEL 2
REMARK VINA RESULT:    -3.477      2.954      4.266
REMARK INTER + INTRA:          -4.358
REMARK INTER:                  -4.244
REMARK INTRA:                  -0.114
REMARK UNBOUND:                -0.068
REMARK SMILES CCCCCC(=O)[O-]
REMARK SMILES IDX 4 1 5 2 6 3 7 4 8 5 3 6 2 7 1 8
REMARK H PARENT
REMARK Flexibility Score: inf
ROOT
ATOM      1  C   UNL     1       0.054  -1.668   0.769  1.00  0.00     0.006 C 
ENDROOT
BRANCH   1   2
ATOM      2  C   UNL     1       0.613  -1.890  -0.642  1.00  0.00     0.053 C 
BRANCH   2   3
ATOM      3  C   UNL     1      -0.399  -2.525  -1.547  1.00  0.00     0.041 C 
ATOM      4  O   UNL     1      -1.395  -3.125  -1.063  1.00  0.00    -0.550 OA
ATOM      5  O   UNL     1      -0.259  -2.424  -2.925  1.00  0.00    -0.550 OA
ENDBRANCH   2   3
ENDBRANCH   1   2
BRANCH   1   6
ATOM      6  C   UNL     1       1.091  -1.045   1.714  1.00  0.00     0.000 C 
BRANCH   6   7
ATOM      7  C   UNL     1       2.279  -0.478   0.928  1.00  0.00    -0.003 C 
ATOM      8  C   UNL     1       3.565  -0.548   1.747  1.00  0.00     0.004 C 
ENDBRANCH   6   7
ENDBRANCH   1   6
TORSDOF 4
ENDMDL
MODEL 3
REMARK VINA RESULT:    -2.695      2.681      4.290
REMARK INTER + INTRA:          -3.393
REMARK INTER:                  -3.296
REMARK INTRA:                  -0.097
REMARK UNBOUND:                -0.068
REMARK SMILES CCCCCC(=O)[O-]
REMARK SMILES IDX 4 1 5 2 6 3 7 4 8 5 3 6 2 7 1 8
REMARK H PARENT
REMARK Flexibility Score: inf
ROOT
ATOM      1  C   UNL     1       0.953  -0.745   0.695  1.00  0.00     0.006 C 
ENDROOT
BRANCH   1   2
ATOM      2  C   UNL     1       0.793  -1.896  -0.306  1.00  0.00     0.053 C 
BRANCH   2   3
ATOM      3  C   UNL     1      -0.389  -2.757   0.021  1.00  0.00     0.041 C 
ATOM      4  O   UNL     1      -0.598  -3.124   1.207  1.00  0.00    -0.550 OA
ATOM      5  O   UNL     1      -1.279  -3.125  -0.981  1.00  0.00    -0.550 OA
ENDBRANCH   2   3
ENDBRANCH   1   2
BRANCH   1   6
ATOM      6  C   UNL     1       2.098  -0.991   1.688  1.00  0.00     0.000 C 
BRANCH   6   7
ATOM      7  C   UNL     1       3.356  -0.218   1.277  1.00  0.00    -0.003 C 
ATOM      8  C   UNL     1       4.601  -1.093   1.384  1.00  0.00     0.004 C 
ENDBRANCH   6   7
ENDBRANCH   1   6
TORSDOF 4
ENDMDL
