MODEL 1
REMARK VINA RESULT:    -3.656      0.000      0.000
REMARK INTER + INTRA:          -5.422
REMARK INTER:                  -4.938
REMARK INTRA:                  -0.484
REMARK UNBOUND:                -0.484
REMARK SMILES [NH3+]CCCC[C@@H]([NH3+])C(=O)[O-]
REMARK SMILES IDX 4 1 3 2 2 3 1 4 5 8 6 9 7 10 8 14 9 15 10 16
REMARK H PARENT 1 5 1 6 1 7 7 11 7 12 7 13
REMARK Flexibility Score: inf
ROOT
ATOM      1  C   UNL     1     147.680 139.359 152.822  1.00  0.00     0.012 C 
ENDROOT
BRANCH   1   2
ATOM      2  C   UNL     1     148.438 139.638 154.131  1.00  0.00     0.061 C 
BRANCH   2   3
ATOM      3  C   UNL     1     149.929 139.277 154.039  1.00  0.00     0.258 C 
BRANCH   3   4
ATOM      4  N   UNL     1     150.252 138.067 154.798  1.00  0.00    -0.358 N 
ATOM      5  H   UNL     1     150.099 138.227 155.819  1.00  0.00     0.344 HD
ATOM      6  H   UNL     1     149.669 137.264 154.470  1.00  0.00     0.344 HD
ATOM      7  H   UNL     1     151.260 137.832 154.650  1.00  0.00     0.344 HD
ENDBRANCH   3   4
ENDBRANCH   2   3
ENDBRANCH   1   2
BRANCH   1   8
ATOM      8  C   UNL     1     146.371 138.574 153.059  1.00  0.00     0.072 C 
BRANCH   8   9
ATOM      9  C   UNL     1     146.457 137.088 152.640  1.00  0.00     0.227 C 
BRANCH   9  10
ATOM     10  N   UNL     1     147.505 136.860 151.637  1.00  0.00    -0.350 N 
ATOM     11  H   UNL     1     148.192 136.146 151.973  1.00  0.00     0.345 HD
ATOM     12  H   UNL     1     148.003 137.755 151.431  1.00  0.00     0.345 HD
ATOM     13  H   UNL     1     147.076 136.526 150.743  1.00  0.00     0.345 HD
ENDBRANCH   9  10
BRANCH   9  14
ATOM     14  C   UNL     1     146.713 136.238 153.855  1.00  0.00     0.099 C 
ATOM     15  O   UNL     1     145.763 135.624 154.409  1.00  0.00    -0.544 OA
ATOM     16  O   UNL     1     147.993 136.142 154.388  1.00  0.00    -0.544 OA
ENDBRANCH   9  14
ENDBRANCH   8   9
ENDBRANCH   1   8
TORSDOF 7
ENDMDL
MODEL 2
REMARK VINA RESULT:    -3.396      2.327      3.725
REMARK INTER + INTRA:          -5.070
REMARK INTER:                  -4.606
REMARK INTRA:                  -0.464
REMARK UNBOUND:                -0.484
REMARK SMILES [NH3+]CCCC[C@@H]([NH3+])C(=O)[O-]
REMARK SMILES IDX 4 1 3 2 2 3 1 4 5 8 6 9 7 10 8 14 9 15 10 16
REMARK H PARENT 1 5 1 6 1 7 7 11 7 12 7 13
REMARK Flexibility Score: inf
ROOT
ATOM      1  C   UNL     1     145.425 137.120 152.930  1.00  0.00     0.012 C 
ENDROOT
BRANCH   1   2
ATOM      2  C   UNL     1     145.115 136.059 154.000  1.00  0.00     0.061 C 
BRANCH   2   3
ATOM      3  C   UNL     1     146.255 135.042 154.172  1.00  0.00     0.258 C 
BRANCH   3   4
ATOM      4  N   UNL     1     146.868 135.120 155.500  1.00  0.00    -0.358 N 
ATOM      5  H   UNL     1     147.686 134.473 155.560  1.00  0.00     0.344 HD
ATOM      6  H   UNL     1     147.169 136.100 155.706  1.00  0.00     0.344 HD
ATOM      7  H   UNL     1     146.164 134.828 156.216  1.00  0.00     0.344 HD
ENDBRANCH   3   4
ENDBRANCH   2   3
ENDBRANCH   1   2
BRANCH   1   8
ATOM      8  C   UNL     1     146.940 137.252 152.659  1.00  0.00     0.072 C 
BRANCH   8   9
ATOM      9  C   UNL     1     147.494 138.671 152.924  1.00  0.00     0.227 C 
BRANCH   9  10
ATOM     10  N   UNL     1     146.426 139.625 153.250  1.00  0.00    -0.350 N 
ATOM     11  H   UNL     1     146.820 140.486 153.694  1.00  0.00     0.345 HD
ATOM     12  H   UNL     1     145.735 139.182 153.897  1.00  0.00     0.345 HD
ATOM     13  H   UNL     1     145.912 139.895 152.379  1.00  0.00     0.345 HD
ENDBRANCH   9  10
BRANCH   9  14
ATOM     14  C   UNL     1     148.496 138.617 154.046  1.00  0.00     0.099 C 
ATOM     15  O   UNL     1     148.607 137.576 154.746  1.00  0.00    -0.544 OA
ATOM     16  O   UNL     1     149.290 139.722 154.331  1.00  0.00    -0.544 OA
ENDBRANCH   9  14
ENDBRANCH   8   9
ENDBRANCH   1   8
TORSDOF 7
ENDMDL
MODEL 3
REMARK VINA RESULT:    -3.316      1.366      1.507
REMARK INTER + INTRA:          -4.962
REMARK INTER:                  -4.530
REMARK INTRA:                  -0.432
REMARK UNBOUND:                -0.484
REMARK SMILES [NH3+]CCCC[C@@H]([NH3+])C(=O)[O-]
REMARK SMILES IDX 4 1 3 2 2 3 1 4 5 8 6 9 7 10 8 14 9 15 10 16
REMARK H PARENT 1 5 1 6 1 7 7 11 7 12 7 13
REMARK Flexibility Score: inf
ROOT
ATOM      1  C   UNL     1     147.664 139.378 153.251  1.00  0.00     0.012 C 
ENDROOT
BRANCH   1   2
ATOM      2  C   UNL     1     149.143 139.522 152.850  1.00  0.00     0.061 C 
BRANCH   2   3
ATOM      3  C   UNL     1     150.101 139.260 154.022  1.00  0.00     0.258 C 
BRANCH   3   4
ATOM      4  N   UNL     1     149.802 138.003 154.711  1.00  0.00    -0.358 N 
ATOM      5  H   UNL     1     150.641 137.667 155.235  1.00  0.00     0.344 HD
ATOM      6  H   UNL     1     148.997 138.129 155.366  1.00  0.00     0.344 HD
ATOM      7  H   UNL     1     149.547 137.280 154.000  1.00  0.00     0.344 HD
ENDBRANCH   3   4
ENDBRANCH   2   3
ENDBRANCH   1   2
BRANCH   1   8
ATOM      8  C   UNL     1     146.938 138.292 152.429  1.00  0.00     0.072 C 
BRANCH   8   9
ATOM      9  C   UNL     1     146.227 137.230 153.300  1.00  0.00     0.227 C 
BRANCH   9  10
ATOM     10  N   UNL     1     144.898 136.890 152.774  1.00  0.00    -0.350 N 
ATOM     11  H   UNL     1     144.975 136.441 151.832  1.00  0.00     0.345 HD
ATOM     12  H   UNL     1     144.310 137.751 152.705  1.00  0.00     0.345 HD
ATOM     13  H   UNL     1     144.415 136.231 153.428  1.00  0.00     0.345 HD
ENDBRANCH   9  10
BRANCH   9  14
ATOM     14  C   UNL     1     147.081 135.993 153.380  1.00  0.00     0.099 C 
ATOM     15  O   UNL     1     147.794 135.782 154.396  1.00  0.00    -0.544 OA
ATOM     16  O   UNL     1     147.106 135.088 152.325  1.00  0.00    -0.544 OA
ENDBRANCH   9  14
ENDBRANCH   8   9
ENDBRANCH   1   8
TORSDOF 7
ENDMDL
MODEL 4
REMARK VINA RESULT:    -3.177      7.710      9.150
REMARK INTER + INTRA:          -4.775
REMARK INTER:                  -4.628
REMARK INTRA:                  -0.147
REMARK UNBOUND:                -0.484
REMARK SMILES [NH3+]CCCC[C@@H]([NH3+])C(=O)[O-]
REMARK SMILES IDX 4 1 3 2 2 3 1 4 5 8 6 9 7 10 8 14 9 15 10 16
REMARK H PARENT 1 5 1 6 1 7 7 11 7 12 7 13
REMARK Flexibility Score: inf
ROOT
ATOM      1  C   UNL     1     140.474 136.758 155.789  1.00  0.00     0.012 C 
ENDROOT
BRANCH   1   2
ATOM      2  C   UNL     1     138.986 136.377 155.713  1.00  0.00     0.061 C 
BRANCH   2   3
ATOM      3  C   UNL     1     138.762 134.988 155.093  1.00  0.00     0.258 C 
BRANCH   3   4
ATOM      4  N   UNL     1     137.893 134.147 155.920  1.00  0.00    -0.358 N 
ATOM      5  H   UNL     1     138.366 133.914 156.822  1.00  0.00     0.344 HD
ATOM      6  H   UNL     1     136.986 134.632 156.106  1.00  0.00     0.344 HD
ATOM      7  H   UNL     1     137.700 133.255 155.410  1.00  0.00     0.344 HD
ENDBRANCH   3   4
ENDBRANCH   2   3
ENDBRANCH   1   2
BRANCH   1   8
ATOM      8  C   UNL     1     140.874 137.774 154.698  1.00  0.00     0.072 C 
BRANCH   8   9
ATOM      9  C   UNL     1     140.810 139.245 155.169  1.00  0.00     0.227 C 
BRANCH   9  10
ATOM     10  N   UNL     1     142.005 140.001 154.772  1.00  0.00    -0.350 N 
ATOM     11  H   UNL     1     142.028 140.934 155.246  1.00  0.00     0.345 HD
ATOM     12  H   UNL     1     142.016 140.134 153.736  1.00  0.00     0.345 HD
ATOM     13  H   UNL     1     142.867 139.466 155.030  1.00  0.00     0.345 HD
ENDBRANCH   9  10
BRANCH   9  14
ATOM     14  C   UNL     1     139.576 139.899 154.607  1.00  0.00     0.099 C 
ATOM     15  O   UNL     1     138.554 140.046 155.327  1.00  0.00    -0.544 OA
ATOM     16  O   UNL     1     139.549 140.325 153.284  1.00  0.00    -0.544 OA
ENDBRANCH   9  14
ENDBRANCH   8   9
ENDBRANCH   1   8
TORSDOF 7
ENDMDL
MODEL 5
REMARK VINA RESULT:    -3.164      1.982      2.368
REMARK INTER + INTRA:          -4.757
REMARK INTER:                  -4.577
REMARK INTRA:                  -0.180
REMARK UNBOUND:                -0.484
REMARK SMILES [NH3+]CCCC[C@@H]([NH3+])C(=O)[O-]
REMARK SMILES IDX 4 1 3 2 2 3 1 4 5 8 6 9 7 10 8 14 9 15 10 16
REMARK H PARENT 1 5 1 6 1 7 7 11 7 12 7 13
REMARK Flexibility Score: inf
ROOT
ATOM      1  C   UNL     1     146.844 137.903 152.216  1.00  0.00     0.012 C 
ENDROOT
BRANCH   1   2
ATOM      2  C   UNL     1     147.017 139.086 153.184  1.00  0.00     0.061 C 
BRANCH   2   3
ATOM      3  C   UNL     1     148.353 139.039 153.942  1.00  0.00     0.258 C 
BRANCH   3   4
ATOM      4  N   UNL     1     148.640 140.297 154.635  1.00  0.00    -0.358 N 
ATOM      5  H   UNL     1     149.581 140.658 154.358  1.00  0.00     0.344 HD
ATOM      6  H   UNL     1     147.905 141.009 154.417  1.00  0.00     0.344 HD
ATOM      7  H   UNL     1     148.644 140.123 155.666  1.00  0.00     0.344 HD
ENDBRANCH   3   4
ENDBRANCH   2   3
ENDBRANCH   1   2
BRANCH   1   8
ATOM      8  C   UNL     1     145.531 137.129 152.467  1.00  0.00     0.072 C 
BRANCH   8   9
ATOM      9  C   UNL     1     145.327 136.719 153.944  1.00  0.00     0.227 C 
BRANCH   9  10
ATOM     10  N   UNL     1     143.908 136.711 154.320  1.00  0.00    -0.350 N 
ATOM     11  H   UNL     1     143.367 137.396 153.743  1.00  0.00     0.345 HD
ATOM     12  H   UNL     1     143.805 136.947 155.333  1.00  0.00     0.345 HD
ATOM     13  H   UNL     1     143.508 135.754 154.179  1.00  0.00     0.345 HD
ENDBRANCH   9  10
BRANCH   9  14
ATOM     14  C   UNL     1     145.930 135.359 154.174  1.00  0.00     0.099 C 
ATOM     15  O   UNL     1     146.701 135.166 155.151  1.00  0.00    -0.544 OA
ATOM     16  O   UNL     1     145.657 134.314 153.299  1.00  0.00    -0.544 OA
ENDBRANCH   9  14
ENDBRANCH   8   9
ENDBRANCH   1   8
TORSDOF 7
ENDMDL
MODEL 6
REMARK VINA RESULT:    -3.119      2.903      4.058
REMARK INTER + INTRA:          -4.697
REMARK INTER:                  -4.211
REMARK INTRA:                  -0.486
REMARK UNBOUND:                -0.484
REMARK SMILES [NH3+]CCCC[C@@H]([NH3+])C(=O)[O-]
REMARK SMILES IDX 4 1 3 2 2 3 1 4 5 8 6 9 7 10 8 14 9 15 10 16
REMARK H PARENT 1 5 1 6 1 7 7 11 7 12 7 13
REMARK Flexibility Score: inf
ROOT
ATOM      1  C   UNL     1     146.897 136.344 152.380  1.00  0.00     0.012 C 
ENDROOT
BRANCH   1   2
ATOM      2  C   UNL     1     147.340 136.102 153.833  1.00  0.00     0.061 C 
BRANCH   2   3
ATOM      3  C   UNL     1     146.235 135.459 154.688  1.00  0.00     0.258 C 
BRANCH   3   4
ATOM      4  N   UNL     1     144.903 135.954 154.331  1.00  0.00    -0.358 N 
ATOM      5  H   UNL     1     144.973 136.898 153.891  1.00  0.00     0.344 HD
ATOM      6  H   UNL     1     144.429 135.288 153.679  1.00  0.00     0.344 HD
ATOM      7  H   UNL     1     144.329 136.038 155.201  1.00  0.00     0.344 HD
ENDBRANCH   3   4
ENDBRANCH   2   3
ENDBRANCH   1   2
BRANCH   1   8
ATOM      8  C   UNL     1     147.141 137.800 151.929  1.00  0.00     0.072 C 
BRANCH   8   9
ATOM      9  C   UNL     1     146.591 138.854 152.918  1.00  0.00     0.227 C 
BRANCH   9  10
ATOM     10  N   UNL     1     147.473 140.023 153.021  1.00  0.00    -0.350 N 
ATOM     11  H   UNL     1     148.441 139.787 152.702  1.00  0.00     0.345 HD
ATOM     12  H   UNL     1     147.503 140.362 154.009  1.00  0.00     0.345 HD
ATOM     13  H   UNL     1     147.100 140.803 152.432  1.00  0.00     0.345 HD
ENDBRANCH   9  10
BRANCH   9  14
ATOM     14  C   UNL     1     145.216 139.283 152.481  1.00  0.00     0.099 C 
ATOM     15  O   UNL     1     144.209 138.594 152.793  1.00  0.00    -0.544 OA
ATOM     16  O   UNL     1     145.050 140.429 151.713  1.00  0.00    -0.544 OA
ENDBRANCH   9  14
ENDBRANCH   8   9
ENDBRANCH   1   8
TORSDOF 7
ENDMDL
MODEL 7
REMARK VINA RESULT:    -3.118      2.475      4.322
REMARK INTER + INTRA:          -4.695
REMARK INTER:                  -4.258
REMARK INTRA:                  -0.437
REMARK UNBOUND:                -0.484
REMARK SMILES [NH3+]CCCC[C@@H]([NH3+])C(=O)[O-]
REMARK SMILES IDX 4 1 3 2 2 3 1 4 5 8 6 9 7 10 8 14 9 15 10 16
REMARK H PARENT 1 5 1 6 1 7 7 11 7 12 7 13
REMARK Flexibility Score: inf
ROOT
ATOM      1  C   UNL     1     146.469 135.938 154.400  1.00  0.00     0.012 C 
ENDROOT
BRANCH   1   2
ATOM      2  C   UNL     1     145.132 135.896 153.640  1.00  0.00     0.061 C 
BRANCH   2   3
ATOM      3  C   UNL     1     144.148 136.977 154.116  1.00  0.00     0.258 C 
BRANCH   3   4
ATOM      4  N   UNL     1     144.380 138.263 153.455  1.00  0.00    -0.358 N 
ATOM      5  H   UNL     1     145.240 138.717 153.836  1.00  0.00     0.344 HD
ATOM      6  H   UNL     1     144.471 138.132 152.422  1.00  0.00     0.344 HD
ATOM      7  H   UNL     1     143.566 138.892 153.643  1.00  0.00     0.344 HD
ENDBRANCH   3   4
ENDBRANCH   2   3
ENDBRANCH   1   2
BRANCH   1   8
ATOM      8  C   UNL     1     147.585 136.625 153.584  1.00  0.00     0.072 C 
BRANCH   8   9
ATOM      9  C   UNL     1     148.140 137.905 154.250  1.00  0.00     0.227 C 
BRANCH   9  10
ATOM     10  N   UNL     1     149.519 137.726 154.721  1.00  0.00    -0.350 N 
ATOM     11  H   UNL     1     149.841 138.566 155.255  1.00  0.00     0.345 HD
ATOM     12  H   UNL     1     150.155 137.561 153.909  1.00  0.00     0.345 HD
ATOM     13  H   UNL     1     149.577 136.885 155.341  1.00  0.00     0.345 HD
ENDBRANCH   9  10
BRANCH   9  14
ATOM     14  C   UNL     1     148.073 139.048 153.273  1.00  0.00     0.099 C 
ATOM     15  O   UNL     1     146.958 139.497 152.898  1.00  0.00    -0.544 OA
ATOM     16  O   UNL     1     149.241 139.602 152.761  1.00  0.00    -0.544 OA
ENDBRANCH   9  14
ENDBRANCH   8   9
ENDBRANCH   1   8
TORSDOF 7
ENDMDL
MODEL 8
REMARK VINA RESULT:    -3.017      2.680      3.932
REMARK INTER + INTRA:          -4.558
REMARK INTER:                  -4.031
REMARK INTRA:                  -0.528
REMARK UNBOUND:                -0.484
REMARK SMILES [NH3+]CCCC[C@@H]([NH3+])C(=O)[O-]
REMARK SMILES IDX 4 1 3 2 2 3 1 4 5 8 6 9 7 10 8 14 9 15 10 16
REMARK H PARENT 1 5 1 6 1 7 7 11 7 12 7 13
REMARK Flexibility Score: inf
ROOT
ATOM      1  C   UNL     1     144.536 135.546 153.461  1.00  0.00     0.012 C 
ENDROOT
BRANCH   1   2
ATOM      2  C   UNL     1     145.819 134.731 153.695  1.00  0.00     0.061 C 
BRANCH   2   3
ATOM      3  C   UNL     1     146.714 135.340 154.787  1.00  0.00     0.258 C 
BRANCH   3   4
ATOM      4  N   UNL     1     148.058 135.646 154.292  1.00  0.00    -0.358 N 
ATOM      5  H   UNL     1     148.675 135.948 155.079  1.00  0.00     0.344 HD
ATOM      6  H   UNL     1     148.470 134.812 153.814  1.00  0.00     0.344 HD
ATOM      7  H   UNL     1     147.996 136.431 153.604  1.00  0.00     0.344 HD
ENDBRANCH   3   4
ENDBRANCH   2   3
ENDBRANCH   1   2
BRANCH   1   8
ATOM      8  C   UNL     1     144.686 137.016 153.908  1.00  0.00     0.072 C 
BRANCH   8   9
ATOM      9  C   UNL     1     144.841 138.007 152.731  1.00  0.00     0.227 C 
BRANCH   9  10
ATOM     10  N   UNL     1     144.055 139.230 152.936  1.00  0.00    -0.350 N 
ATOM     11  H   UNL     1     143.288 139.302 152.228  1.00  0.00     0.345 HD
ATOM     12  H   UNL     1     144.674 140.069 152.868  1.00  0.00     0.345 HD
ATOM     13  H   UNL     1     143.635 139.227 153.895  1.00  0.00     0.345 HD
ENDBRANCH   9  10
BRANCH   9  14
ATOM     14  C   UNL     1     146.296 138.353 152.555  1.00  0.00     0.099 C 
ATOM     15  O   UNL     1     146.744 139.446 152.994  1.00  0.00    -0.544 OA
ATOM     16  O   UNL     1     147.149 137.481 151.889  1.00  0.00    -0.544 OA
ENDBRANCH   9  14
ENDBRANCH   8   9
ENDBRANCH   1   8
TORSDOF 7
ENDMDL
MODEL 9
REMARK VINA RESULT:    -2.984      7.772      9.231
REMARK INTER + INTRA:          -4.515
REMARK INTER:                  -4.313
REMARK INTRA:                  -0.202
REMARK UNBOUND:                -0.484
REMARK SMILES [NH3+]CCCC[C@@H]([NH3+])C(=O)[O-]
REMARK SMILES IDX 4 1 3 2 2 3 1 4 5 8 6 9 7 10 8 14 9 15 10 16
REMARK H PARENT 1 5 1 6 1 7 7 11 7 12 7 13
REMARK Flexibility Score: inf
ROOT
ATOM      1  C   UNL     1     138.666 136.482 153.489  1.00  0.00     0.012 C 
ENDROOT
BRANCH   1   2
ATOM      2  C   UNL     1     137.832 135.892 154.639  1.00  0.00     0.061 C 
BRANCH   2   3
ATOM      3  C   UNL     1     138.142 134.408 154.893  1.00  0.00     0.258 C 
BRANCH   3   4
ATOM      4  N   UNL     1     137.683 133.965 156.212  1.00  0.00    -0.358 N 
ATOM      5  H   UNL     1     138.228 133.131 156.524  1.00  0.00     0.344 HD
ATOM      6  H   UNL     1     137.779 134.738 156.909  1.00  0.00     0.344 HD
ATOM      7  H   UNL     1     136.675 133.694 156.146  1.00  0.00     0.344 HD
ENDBRANCH   3   4
ENDBRANCH   2   3
ENDBRANCH   1   2
BRANCH   1   8
ATOM      8  C   UNL     1     140.126 136.761 153.908  1.00  0.00     0.072 C 
BRANCH   8   9
ATOM      9  C   UNL     1     140.251 137.500 155.260  1.00  0.00     0.227 C 
BRANCH   9  10
ATOM     10  N   UNL     1     141.065 136.748 156.224  1.00  0.00    -0.350 N 
ATOM     11  H   UNL     1     140.618 136.751 157.170  1.00  0.00     0.345 HD
ATOM     12  H   UNL     1     142.021 137.165 156.286  1.00  0.00     0.345 HD
ATOM     13  H   UNL     1     141.174 135.758 155.902  1.00  0.00     0.345 HD
ENDBRANCH   9  10
BRANCH   9  14
ATOM     14  C   UNL     1     140.849 138.863 155.034  1.00  0.00     0.099 C 
ATOM     15  O   UNL     1     141.693 139.326 155.845  1.00  0.00    -0.544 OA
ATOM     16  O   UNL     1     140.457 139.628 153.941  1.00  0.00    -0.544 OA
ENDBRANCH   9  14
ENDBRANCH   8   9
ENDBRANCH   1   8
TORSDOF 7
ENDMDL
