MODEL 1
REMARK VINA RESULT:    -3.714      0.000      0.000
REMARK INTER + INTRA:          -3.259
REMARK INTER:                  -5.667
REMARK INTRA:                   2.408
REMARK UNBOUND:                 2.408
REMARK SMILES CC1=CCC[C@H](C)C(=O)C[C@@H](C(C)C)C(=O)C1
REMARK SMILES IDX 8 1 9 2 6 3 7 4 5 5 4 6 3 7 2 8 1 9 10 11 11 12 15 13 16 14
REMARK SMILES IDX 17 15 12 17 13 18 14 19
REMARK H PARENT
REMARK Flexibility Score: 70.00
ROOT
ATOM      1  C   UNL     1      -2.471 -14.134  -8.470  1.00  0.00     0.136 C 
ATOM      2  O   UNL     1      -1.282 -14.351  -8.659  1.00  0.00    -0.299 OA
ENDROOT
BRANCH   1   3
ATOM      3  C   UNL     1      -2.924 -12.803  -7.895  1.00  0.00     0.053 C 
ATOM      4  C   UNL     1      -1.943 -12.253  -6.846  1.00  0.00     0.016 C 
BRANCH   3   5
ATOM      5  C   UNL     1      -3.199 -11.772  -9.008  1.00  0.00     0.015 C 
BRANCH   5   6
ATOM      6  C   UNL     1      -4.681 -11.363  -9.125  1.00  0.00     0.028 C 
BRANCH   6   7
ATOM      7  C   UNL     1      -5.345 -11.376  -7.772  1.00  0.00    -0.028 C 
ATOM      8  C   UNL     1      -5.832 -12.483  -7.164  1.00  0.00    -0.070 CG0
ATOM      9  C   UNL     1      -6.407 -12.334  -5.778  1.00  0.00     0.039 C 
ATOM     10  G   UNL     1      -5.840 -13.856  -7.821  1.00  0.00     0.000 G0
ENDBRANCH   6   7
ENDBRANCH   5   6
ENDBRANCH   3   5
ENDBRANCH   1   3
BRANCH   1  11
ATOM     11  C   UNL     1      -3.473 -15.208  -8.823  1.00  0.00     0.087 C 
BRANCH  11  12
ATOM     12  C   UNL     1      -4.122 -15.840  -7.564  1.00  0.00     0.066 C 
BRANCH  12  13
ATOM     13  C   UNL     1      -5.195 -14.934  -6.977  1.00  0.00     0.140 C 
ATOM     14  O   UNL     1      -5.570 -15.100  -5.825  1.00  0.00    -0.299 OA
BRANCH  13  15
ATOM     15  C   UNL     1      -5.857 -13.871  -7.821  1.00  0.00     0.106 CG0
ATOM     16  G   UNL     1      -5.819 -12.499  -7.163  1.00  0.00     0.000 G0
ENDBRANCH  13  15
ENDBRANCH  12  13
BRANCH  12  17
ATOM     17  C   UNL     1      -3.054 -16.267  -6.509  1.00  0.00    -0.006 C 
ATOM     18  C   UNL     1      -2.902 -15.286  -5.333  1.00  0.00     0.008 C 
ATOM     19  C   UNL     1      -3.318 -17.686  -5.983  1.00  0.00     0.008 C 
ENDBRANCH  12  17
ENDBRANCH  11  12
ENDBRANCH   1  11
TORSDOF 1
ENDMDL
MODEL 2
REMARK VINA RESULT:    -3.688      1.727      2.321
REMARK INTER + INTRA:          -3.220
REMARK INTER:                  -4.844
REMARK INTRA:                   1.624
REMARK UNBOUND:                 2.408
REMARK SMILES CC1=CCC[C@H](C)C(=O)C[C@@H](C(C)C)C(=O)C1
REMARK SMILES IDX 8 1 9 2 6 3 7 4 5 5 4 6 3 7 2 8 1 9 10 11 11 12 15 13 16 14
REMARK SMILES IDX 17 15 12 17 13 18 14 19
REMARK H PARENT
REMARK Flexibility Score: 70.00
ROOT
ATOM      1  C   UNL     1      -2.446 -14.294  -6.014  1.00  0.00     0.136 C 
ATOM      2  O   UNL     1      -3.013 -13.803  -5.048  1.00  0.00    -0.299 OA
ENDROOT
BRANCH   1   3
ATOM      3  C   UNL     1      -1.828 -13.399  -7.075  1.00  0.00     0.053 C 
ATOM      4  C   UNL     1      -1.297 -14.196  -8.277  1.00  0.00     0.016 C 
BRANCH   3   5
ATOM      5  C   UNL     1      -2.806 -12.291  -7.518  1.00  0.00     0.015 C 
BRANCH   5   6
ATOM      6  C   UNL     1      -3.222 -12.385  -8.999  1.00  0.00     0.028 C 
BRANCH   6   7
ATOM      7  C   UNL     1      -4.719 -12.510  -9.125  1.00  0.00    -0.028 C 
ATOM      8  C   UNL     1      -5.410 -13.667  -8.984  1.00  0.00    -0.070 CG0
ATOM      9  C   UNL     1      -6.913 -13.607  -9.074  1.00  0.00     0.039 C 
ATOM     10  G   UNL     1      -4.737 -15.013  -8.760  1.00  0.00     0.000 G0
ENDBRANCH   6   7
ENDBRANCH   5   6
ENDBRANCH   3   5
ENDBRANCH   1   3
BRANCH   1  11
ATOM     11  C   UNL     1      -2.367 -15.798  -6.127  1.00  0.00     0.087 C 
BRANCH  11  12
ATOM     12  C   UNL     1      -3.640 -16.405  -6.771  1.00  0.00     0.066 C 
BRANCH  12  13
ATOM     13  C   UNL     1      -4.590 -15.318  -7.255  1.00  0.00     0.140 C 
ATOM     14  O   UNL     1      -5.262 -14.692  -6.449  1.00  0.00    -0.299 OA
BRANCH  13  15
ATOM     15  C   UNL     1      -4.767 -15.045  -8.730  1.00  0.00     0.106 CG0
ATOM     16  G   UNL     1      -5.383 -13.680  -8.999  1.00  0.00     0.000 G0
ENDBRANCH  13  15
ENDBRANCH  12  13
BRANCH  12  17
ATOM     17  C   UNL     1      -4.338 -17.434  -5.829  1.00  0.00    -0.006 C 
ATOM     18  C   UNL     1      -3.741 -18.851  -5.889  1.00  0.00     0.008 C 
ATOM     19  C   UNL     1      -4.370 -16.935  -4.376  1.00  0.00     0.008 C 
ENDBRANCH  12  17
ENDBRANCH  11  12
ENDBRANCH   1  11
TORSDOF 1
ENDMDL
MODEL 3
REMARK VINA RESULT:    -3.687      1.767      3.393
REMARK INTER + INTRA:          -3.219
REMARK INTER:                  -4.017
REMARK INTRA:                   0.799
REMARK UNBOUND:                 2.408
REMARK SMILES CC1=CCC[C@H](C)C(=O)C[C@@H](C(C)C)C(=O)C1
REMARK SMILES IDX 8 1 9 2 6 3 7 4 5 5 4 6 3 7 2 8 1 9 10 11 11 12 15 13 16 14
REMARK SMILES IDX 17 15 12 17 13 18 14 19
REMARK H PARENT
REMARK Flexibility Score: 70.00
ROOT
ATOM      1  C   UNL     1      -5.724 -13.571  -6.850  1.00  0.00     0.136 C 
ATOM      2  O   UNL     1      -6.087 -13.551  -5.682  1.00  0.00    -0.299 OA
ENDROOT
BRANCH   1   3
ATOM      3  C   UNL     1      -6.003 -12.386  -7.759  1.00  0.00     0.053 C 
ATOM      4  C   UNL     1      -5.779 -11.040  -7.050  1.00  0.00     0.016 C 
BRANCH   3   5
ATOM      5  C   UNL     1      -5.196 -12.477  -9.069  1.00  0.00     0.015 C 
BRANCH   5   6
ATOM      6  C   UNL     1      -3.819 -11.788  -9.001  1.00  0.00     0.028 C 
BRANCH   6   7
ATOM      7  C   UNL     1      -2.710 -12.805  -9.075  1.00  0.00    -0.028 C 
ATOM      8  C   UNL     1      -2.232 -13.503  -8.017  1.00  0.00    -0.070 CG0
ATOM      9  C   UNL     1      -1.163 -14.534  -8.275  1.00  0.00     0.039 C 
ATOM     10  G   UNL     1      -2.712 -13.278  -6.590  1.00  0.00     0.000 G0
ENDBRANCH   6   7
ENDBRANCH   5   6
ENDBRANCH   3   5
ENDBRANCH   1   3
BRANCH   1  11
ATOM     11  C   UNL     1      -4.993 -14.788  -7.366  1.00  0.00     0.087 C 
BRANCH  11  12
ATOM     12  C   UNL     1      -4.132 -15.464  -6.268  1.00  0.00     0.066 C 
BRANCH  12  13
ATOM     13  C   UNL     1      -2.967 -14.577  -5.851  1.00  0.00     0.140 C 
ATOM     14  O   UNL     1      -2.282 -14.883  -4.885  1.00  0.00    -0.299 OA
BRANCH  13  15
ATOM     15  C   UNL     1      -2.684 -13.280  -6.572  1.00  0.00     0.106 CG0
ATOM     16  G   UNL     1      -2.234 -13.501  -8.009  1.00  0.00     0.000 G0
ENDBRANCH  13  15
ENDBRANCH  12  13
BRANCH  12  17
ATOM     17  C   UNL     1      -3.676 -16.897  -6.682  1.00  0.00    -0.006 C 
ATOM     18  C   UNL     1      -3.960 -17.980  -5.627  1.00  0.00     0.008 C 
ATOM     19  C   UNL     1      -4.274 -17.308  -8.036  1.00  0.00     0.008 C 
ENDBRANCH  12  17
ENDBRANCH  11  12
ENDBRANCH   1  11
TORSDOF 1
ENDMDL
MODEL 4
REMARK VINA RESULT:    -3.627      1.776      3.344
REMARK INTER + INTRA:          -3.127
REMARK INTER:                  -4.664
REMARK INTRA:                   1.537
REMARK UNBOUND:                 2.408
REMARK SMILES CC1=CCC[C@H](C)C(=O)C[C@@H](C(C)C)C(=O)C1
REMARK SMILES IDX 8 1 9 2 6 3 7 4 5 5 4 6 3 7 2 8 1 9 10 11 11 12 15 13 16 14
REMARK SMILES IDX 17 15 12 17 13 18 14 19
REMARK H PARENT
REMARK Flexibility Score: 70.00
ROOT
ATOM      1  C   UNL     1      -5.784 -13.375  -6.804  1.00  0.00     0.136 C 
ATOM      2  O   UNL     1      -6.132 -12.588  -5.934  1.00  0.00    -0.299 OA
ENDROOT
BRANCH   1   3
ATOM      3  C   UNL     1      -5.690 -12.924  -8.251  1.00  0.00     0.053 C 
ATOM      4  C   UNL     1      -7.020 -13.090  -9.004  1.00  0.00     0.016 C 
BRANCH   3   5
ATOM      5  C   UNL     1      -5.155 -11.481  -8.359  1.00  0.00     0.015 C 
BRANCH   5   6
ATOM      6  C   UNL     1      -3.757 -11.383  -9.001  1.00  0.00     0.028 C 
BRANCH   6   7
ATOM      7  C   UNL     1      -2.708 -11.952  -8.081  1.00  0.00    -0.028 C 
ATOM      8  C   UNL     1      -2.272 -13.234  -8.110  1.00  0.00    -0.070 CG0
ATOM      9  C   UNL     1      -1.166 -13.627  -7.163  1.00  0.00     0.039 C 
ATOM     10  G   UNL     1      -2.859 -14.290  -9.036  1.00  0.00     0.000 G0
ENDBRANCH   6   7
ENDBRANCH   5   6
ENDBRANCH   3   5
ENDBRANCH   1   3
BRANCH   1  11
ATOM     11  C   UNL     1      -5.447 -14.794  -6.411  1.00  0.00     0.087 C 
BRANCH  11  12
ATOM     12  C   UNL     1      -4.012 -15.196  -6.841  1.00  0.00     0.066 C 
BRANCH  12  13
ATOM     13  C   UNL     1      -3.867 -15.201  -8.356  1.00  0.00     0.140 C 
ATOM     14  O   UNL     1      -4.532 -15.976  -9.030  1.00  0.00    -0.299 OA
BRANCH  13  15
ATOM     15  C   UNL     1      -2.859 -14.309  -9.041  1.00  0.00     0.106 CG0
ATOM     16  G   UNL     1      -2.298 -13.244  -8.110  1.00  0.00     0.000 G0
ENDBRANCH  13  15
ENDBRANCH  12  13
BRANCH  12  17
ATOM     17  C   UNL     1      -3.562 -16.541  -6.191  1.00  0.00    -0.006 C 
ATOM     18  C   UNL     1      -2.103 -16.549  -5.701  1.00  0.00     0.008 C 
ATOM     19  C   UNL     1      -4.504 -16.958  -5.051  1.00  0.00     0.008 C 
ENDBRANCH  12  17
ENDBRANCH  11  12
ENDBRANCH   1  11
TORSDOF 1
ENDMDL
MODEL 5
REMARK VINA RESULT:    -3.575      1.567      3.166
REMARK INTER + INTRA:          -3.047
REMARK INTER:                  -4.341
REMARK INTRA:                   1.294
REMARK UNBOUND:                 2.408
REMARK SMILES CC1=CCC[C@H](C)C(=O)C[C@@H](C(C)C)C(=O)C1
REMARK SMILES IDX 8 1 9 2 6 3 7 4 5 5 4 6 3 7 2 8 1 9 10 11 11 12 15 13 16 14
REMARK SMILES IDX 17 15 12 17 13 18 14 19
REMARK H PARENT
REMARK Flexibility Score: 70.00
ROOT
ATOM      1  C   UNL     1      -4.932 -14.828  -8.053  1.00  0.00     0.136 C 
ATOM      2  O   UNL     1      -4.347 -15.437  -8.938  1.00  0.00    -0.299 OA
ENDROOT
BRANCH   1   3
ATOM      3  C   UNL     1      -5.853 -13.671  -8.401  1.00  0.00     0.053 C 
ATOM      4  C   UNL     1      -7.129 -14.134  -9.122  1.00  0.00     0.016 C 
BRANCH   3   5
ATOM      5  C   UNL     1      -6.182 -12.819  -7.158  1.00  0.00     0.015 C 
BRANCH   5   6
ATOM      6  C   UNL     1      -5.688 -11.362  -7.254  1.00  0.00     0.028 C 
BRANCH   6   7
ATOM      7  C   UNL     1      -4.533 -11.254  -8.216  1.00  0.00    -0.028 C 
ATOM      8  C   UNL     1      -3.306 -11.787  -8.009  1.00  0.00    -0.070 CG0
ATOM      9  C   UNL     1      -2.279 -11.645  -9.103  1.00  0.00     0.039 C 
ATOM     10  G   UNL     1      -2.918 -12.501  -6.721  1.00  0.00     0.000 G0
ENDBRANCH   6   7
ENDBRANCH   5   6
ENDBRANCH   3   5
ENDBRANCH   1   3
BRANCH   1  11
ATOM     11  C   UNL     1      -4.727 -15.251  -6.617  1.00  0.00     0.087 C 
BRANCH  11  12
ATOM     12  C   UNL     1      -3.256 -15.075  -6.160  1.00  0.00     0.066 C 
BRANCH  12  13
ATOM     13  C   UNL     1      -2.557 -13.975  -6.947  1.00  0.00     0.140 C 
ATOM     14  O   UNL     1      -1.673 -14.262  -7.742  1.00  0.00    -0.299 OA
BRANCH  13  15
ATOM     15  C   UNL     1      -2.890 -12.522  -6.710  1.00  0.00     0.106 CG0
ATOM     16  G   UNL     1      -3.261 -11.793  -7.994  1.00  0.00     0.000 G0
ENDBRANCH  13  15
ENDBRANCH  12  13
BRANCH  12  17
ATOM     17  C   UNL     1      -2.470 -16.423  -6.187  1.00  0.00    -0.006 C 
ATOM     18  C   UNL     1      -1.304 -16.495  -5.184  1.00  0.00     0.008 C 
ATOM     19  C   UNL     1      -3.408 -17.624  -5.993  1.00  0.00     0.008 C 
ENDBRANCH  12  17
ENDBRANCH  11  12
ENDBRANCH   1  11
TORSDOF 1
ENDMDL
MODEL 6
REMARK VINA RESULT:    -3.215      1.211      1.818
REMARK INTER + INTRA:          -2.499
REMARK INTER:                  -5.308
REMARK INTRA:                   2.809
REMARK UNBOUND:                 2.408
REMARK SMILES CC1=CCC[C@H](C)C(=O)C[C@@H](C(C)C)C(=O)C1
REMARK SMILES IDX 8 1 9 2 6 3 7 4 5 5 4 6 3 7 2 8 1 9 10 11 11 12 15 13 16 14
REMARK SMILES IDX 17 15 12 17 13 18 14 19
REMARK H PARENT
REMARK Flexibility Score: 70.00
ROOT
ATOM      1  C   UNL     1      -2.519 -13.005  -7.947  1.00  0.00     0.136 C 
ATOM      2  O   UNL     1      -2.347 -13.509  -9.048  1.00  0.00    -0.299 OA
ENDROOT
BRANCH   1   3
ATOM      3  C   UNL     1      -2.902 -11.539  -7.828  1.00  0.00     0.053 C 
ATOM      4  C   UNL     1      -2.582 -10.745  -9.104  1.00  0.00     0.016 C 
BRANCH   3   5
ATOM      5  C   UNL     1      -4.378 -11.373  -7.413  1.00  0.00     0.015 C 
BRANCH   5   6
ATOM      6  C   UNL     1      -5.361 -11.371  -8.599  1.00  0.00     0.028 C 
BRANCH   6   7
ATOM      7  C   UNL     1      -5.584 -12.772  -9.108  1.00  0.00    -0.028 C 
ATOM      8  C   UNL     1      -5.658 -13.873  -8.324  1.00  0.00    -0.070 CG0
ATOM      9  C   UNL     1      -5.953 -15.195  -8.987  1.00  0.00     0.039 C 
ATOM     10  G   UNL     1      -5.440 -13.836  -6.818  1.00  0.00     0.000 G0
ENDBRANCH   6   7
ENDBRANCH   5   6
ENDBRANCH   3   5
ENDBRANCH   1   3
BRANCH   1  11
ATOM     11  C   UNL     1      -2.352 -13.865  -6.716  1.00  0.00     0.087 C 
BRANCH  11  12
ATOM     12  C   UNL     1      -3.171 -15.179  -6.804  1.00  0.00     0.066 C 
BRANCH  12  13
ATOM     13  C   UNL     1      -4.597 -14.979  -6.311  1.00  0.00     0.140 C 
ATOM     14  O   UNL     1      -5.095 -15.787  -5.541  1.00  0.00    -0.299 OA
BRANCH  13  15
ATOM     15  C   UNL     1      -5.436 -13.829  -6.815  1.00  0.00     0.106 CG0
ATOM     16  G   UNL     1      -5.663 -13.889  -8.319  1.00  0.00     0.000 G0
ENDBRANCH  13  15
ENDBRANCH  12  13
BRANCH  12  17
ATOM     17  C   UNL     1      -2.450 -16.364  -6.089  1.00  0.00    -0.006 C 
ATOM     18  C   UNL     1      -1.852 -16.005  -4.717  1.00  0.00     0.008 C 
ATOM     19  C   UNL     1      -3.371 -17.587  -5.961  1.00  0.00     0.008 C 
ENDBRANCH  12  17
ENDBRANCH  11  12
ENDBRANCH   1  11
TORSDOF 1
ENDMDL
MODEL 7
REMARK VINA RESULT:    -2.922      1.525      3.873
REMARK INTER + INTRA:          -2.050
REMARK INTER:                  -4.225
REMARK INTRA:                   2.174
REMARK UNBOUND:                 2.408
REMARK SMILES CC1=CCC[C@H](C)C(=O)C[C@@H](C(C)C)C(=O)C1
REMARK SMILES IDX 8 1 9 2 6 3 7 4 5 5 4 6 3 7 2 8 1 9 10 11 11 12 15 13 16 14
REMARK SMILES IDX 17 15 12 17 13 18 14 19
REMARK H PARENT
REMARK Flexibility Score: 70.00
ROOT
ATOM      1  C   UNL     1      -2.380 -13.701  -8.524  1.00  0.00     0.136 C 
ATOM      2  O   UNL     1      -1.621 -14.482  -9.081  1.00  0.00    -0.299 OA
ENDROOT
BRANCH   1   3
ATOM      3  C   UNL     1      -1.855 -12.745  -7.466  1.00  0.00     0.053 C 
ATOM      4  C   UNL     1      -2.787 -11.542  -7.250  1.00  0.00     0.016 C 
BRANCH   3   5
ATOM      5  C   UNL     1      -1.559 -13.477  -6.142  1.00  0.00     0.015 C 
BRANCH   5   6
ATOM      6  C   UNL     1      -2.810 -14.073  -5.467  1.00  0.00     0.028 C 
BRANCH   6   7
ATOM      7  C   UNL     1      -2.666 -15.564  -5.302  1.00  0.00    -0.028 C 
ATOM      8  C   UNL     1      -3.192 -16.486  -6.143  1.00  0.00    -0.070 CG0
ATOM      9  C   UNL     1      -2.898 -17.940  -5.871  1.00  0.00     0.039 C 
ATOM     10  G   UNL     1      -4.074 -16.121  -7.328  1.00  0.00     0.000 G0
ENDBRANCH   6   7
ENDBRANCH   5   6
ENDBRANCH   3   5
ENDBRANCH   1   3
BRANCH   1  11
ATOM     11  C   UNL     1      -3.841 -13.702  -8.912  1.00  0.00     0.087 C 
BRANCH  11  12
ATOM     12  C   UNL     1      -4.774 -13.600  -7.678  1.00  0.00     0.066 C 
BRANCH  12  13
ATOM     13  C   UNL     1      -5.008 -14.964  -7.043  1.00  0.00     0.140 C 
ATOM     14  O   UNL     1      -5.917 -15.115  -6.239  1.00  0.00    -0.299 OA
BRANCH  13  15
ATOM     15  C   UNL     1      -4.088 -16.124  -7.339  1.00  0.00     0.106 CG0
ATOM     16  G   UNL     1      -3.186 -16.466  -6.162  1.00  0.00     0.000 G0
ENDBRANCH  13  15
ENDBRANCH  12  13
BRANCH  12  17
ATOM     17  C   UNL     1      -6.106 -12.859  -8.013  1.00  0.00    -0.006 C 
ATOM     18  C   UNL     1      -5.929 -11.371  -8.368  1.00  0.00     0.008 C 
ATOM     19  C   UNL     1      -6.886 -13.578  -9.125  1.00  0.00     0.008 C 
ENDBRANCH  12  17
ENDBRANCH  11  12
ENDBRANCH   1  11
TORSDOF 1
ENDMDL
MODEL 8
REMARK VINA RESULT:    -2.201      1.398      3.849
REMARK INTER + INTRA:          -0.951
REMARK INTER:                  -3.762
REMARK INTRA:                   2.811
REMARK UNBOUND:                 2.408
REMARK SMILES CC1=CCC[C@H](C)C(=O)C[C@@H](C(C)C)C(=O)C1
REMARK SMILES IDX 8 1 9 2 6 3 7 4 5 5 4 6 3 7 2 8 1 9 10 11 11 12 15 13 16 14
REMARK SMILES IDX 17 15 12 17 13 18 14 19
REMARK H PARENT
REMARK Flexibility Score: 70.00
ROOT
ATOM      1  C   UNL     1      -2.271 -14.104  -7.028  1.00  0.00     0.136 C 
ATOM      2  O   UNL     1      -1.841 -13.872  -8.150  1.00  0.00    -0.299 OA
ENDROOT
BRANCH   1   3
ATOM      3  C   UNL     1      -2.488 -15.536  -6.572  1.00  0.00     0.053 C 
ATOM      4  C   UNL     1      -2.282 -15.707  -5.059  1.00  0.00     0.016 C 
BRANCH   3   5
ATOM      5  C   UNL     1      -3.864 -16.069  -7.020  1.00  0.00     0.015 C 
BRANCH   5   6
ATOM      6  C   UNL     1      -4.008 -16.213  -8.548  1.00  0.00     0.028 C 
BRANCH   6   7
ATOM      7  C   UNL     1      -5.110 -15.324  -9.065  1.00  0.00    -0.028 C 
ATOM      8  C   UNL     1      -5.659 -14.297  -8.374  1.00  0.00    -0.070 CG0
ATOM      9  C   UNL     1      -6.708 -13.462  -9.062  1.00  0.00     0.039 C 
ATOM     10  G   UNL     1      -5.277 -13.964  -6.938  1.00  0.00     0.000 G0
ENDBRANCH   6   7
ENDBRANCH   5   6
ENDBRANCH   3   5
ENDBRANCH   1   3
BRANCH   1  11
ATOM     11  C   UNL     1      -2.573 -12.943  -6.109  1.00  0.00     0.087 C 
BRANCH  11  12
ATOM     12  C   UNL     1      -3.575 -11.942  -6.740  1.00  0.00     0.066 C 
BRANCH  12  13
ATOM     13  C   UNL     1      -4.997 -12.482  -6.706  1.00  0.00     0.140 C 
ATOM     14  O   UNL     1      -5.929 -11.732  -6.452  1.00  0.00    -0.299 OA
BRANCH  13  15
ATOM     15  C   UNL     1      -5.272 -13.953  -6.912  1.00  0.00     0.106 CG0
ATOM     16  G   UNL     1      -5.669 -14.275  -8.346  1.00  0.00     0.000 G0
ENDBRANCH  13  15
ENDBRANCH  12  13
BRANCH  12  17
ATOM     17  C   UNL     1      -3.136 -11.501  -8.172  1.00  0.00    -0.006 C 
ATOM     18  C   UNL     1      -4.284 -10.968  -9.048  1.00  0.00     0.008 C 
ATOM     19  C   UNL     1      -1.993 -10.477  -8.119  1.00  0.00     0.008 C 
ENDBRANCH  12  17
ENDBRANCH  11  12
ENDBRANCH   1  11
TORSDOF 1
ENDMDL
MODEL 9
REMARK VINA RESULT:    -1.896      2.118      4.457
REMARK INTER + INTRA:          -0.485
REMARK INTER:                  -3.242
REMARK INTRA:                   2.757
REMARK UNBOUND:                 2.408
REMARK SMILES CC1=CCC[C@H](C)C(=O)C[C@@H](C(C)C)C(=O)C1
REMARK SMILES IDX 8 1 9 2 6 3 7 4 5 5 4 6 3 7 2 8 1 9 10 11 11 12 15 13 16 14
REMARK SMILES IDX 17 15 12 17 13 18 14 19
REMARK H PARENT
REMARK Flexibility Score: 70.00
ROOT
ATOM      1  C   UNL     1      -5.608 -12.937  -6.652  1.00  0.00     0.136 C 
ATOM      2  O   UNL     1      -6.428 -12.900  -5.745  1.00  0.00    -0.299 OA
ENDROOT
BRANCH   1   3
ATOM      3  C   UNL     1      -6.047 -13.264  -8.069  1.00  0.00     0.053 C 
ATOM      4  C   UNL     1      -5.293 -12.437  -9.122  1.00  0.00     0.016 C 
BRANCH   3   5
ATOM      5  C   UNL     1      -5.945 -14.776  -8.357  1.00  0.00     0.015 C 
BRANCH   5   6
ATOM      6  C   UNL     1      -4.524 -15.347  -8.184  1.00  0.00     0.028 C 
BRANCH   6   7
ATOM      7  C   UNL     1      -4.563 -16.652  -7.430  1.00  0.00    -0.028 C 
ATOM      8  C   UNL     1      -3.684 -17.010  -6.465  1.00  0.00    -0.070 CG0
ATOM      9  C   UNL     1      -3.904 -18.325  -5.760  1.00  0.00     0.039 C 
ATOM     10  G   UNL     1      -2.483 -16.158  -6.078  1.00  0.00     0.000 G0
ENDBRANCH   6   7
ENDBRANCH   5   6
ENDBRANCH   3   5
ENDBRANCH   1   3
BRANCH   1  11
ATOM     11  C   UNL     1      -4.159 -12.646  -6.337  1.00  0.00     0.087 C 
BRANCH  11  12
ATOM     12  C   UNL     1      -3.212 -13.760  -6.854  1.00  0.00     0.066 C 
BRANCH  12  13
ATOM     13  C   UNL     1      -2.836 -14.730  -5.743  1.00  0.00     0.140 C 
ATOM     14  O   UNL     1      -2.775 -14.338  -4.586  1.00  0.00    -0.299 OA
BRANCH  13  15
ATOM     15  C   UNL     1      -2.468 -16.161  -6.056  1.00  0.00     0.106 CG0
ATOM     16  G   UNL     1      -3.672 -16.995  -6.468  1.00  0.00     0.000 G0
ENDBRANCH  13  15
ENDBRANCH  12  13
BRANCH  12  17
ATOM     17  C   UNL     1      -1.965 -13.174  -7.586  1.00  0.00    -0.006 C 
ATOM     18  C   UNL     1      -1.497 -14.000  -8.797  1.00  0.00     0.008 C 
ATOM     19  C   UNL     1      -2.190 -11.712  -7.998  1.00  0.00     0.008 C 
ENDBRANCH  12  17
ENDBRANCH  11  12
ENDBRANCH   1  11
TORSDOF 1
ENDMDL
