MODEL 1
REMARK VINA RESULT:    -3.186      0.000      0.000
REMARK INTER + INTRA:          -2.912
REMARK INTER:                  -3.559
REMARK INTRA:                   0.647
REMARK UNBOUND:                 0.647
REMARK SMILES O=C([O-])c1ccccc1C(=O)[O-]
REMARK SMILES IDX 4 1 9 2 5 3 8 4 6 5 7 6 2 7 1 8 3 9 10 10 11 11 12 12
REMARK H PARENT
REMARK Flexibility Score: inf
ROOT
ATOM      1  C   UNL     1      22.777   5.843   6.468  1.00  0.00     0.006 A 
ATOM      2  C   UNL     1      21.524   5.638   7.110  1.00  0.00     0.006 A 
ATOM      3  C   UNL     1      23.580   4.727   6.163  1.00  0.00     0.010 A 
ATOM      4  C   UNL     1      21.092   4.323   7.364  1.00  0.00     0.010 A 
ATOM      5  C   UNL     1      23.141   3.434   6.444  1.00  0.00     0.001 A 
ATOM      6  C   UNL     1      21.895   3.231   7.033  1.00  0.00     0.001 A 
ENDROOT
BRANCH   1   7
ATOM      7  C   UNL     1      23.247   7.180   6.039  1.00  0.00     0.072 C 
ATOM      8  O   UNL     1      22.423   8.119   5.875  1.00  0.00    -0.545 OA
ATOM      9  O   UNL     1      24.604   7.436   5.875  1.00  0.00    -0.545 OA
ENDBRANCH   1   7
BRANCH   2  10
ATOM     10  C   UNL     1      20.674   6.751   7.592  1.00  0.00     0.072 C 
ATOM     11  O   UNL     1      20.666   7.076   8.809  1.00  0.00    -0.545 OA
ATOM     12  O   UNL     1      19.820   7.407   6.713  1.00  0.00    -0.545 OA
ENDBRANCH   2  10
TORSDOF 2
ENDMDL
MODEL 2
REMARK VINA RESULT:    -3.177     11.732     13.071
REMARK INTER + INTRA:          -2.901
REMARK INTER:                  -2.778
REMARK INTRA:                  -0.124
REMARK UNBOUND:                 0.647
REMARK SMILES O=C([O-])c1ccccc1C(=O)[O-]
REMARK SMILES IDX 4 1 9 2 5 3 8 4 6 5 7 6 2 7 1 8 3 9 10 10 11 11 12 12
REMARK H PARENT
REMARK Flexibility Score: inf
ROOT
ATOM      1  C   UNL     1      21.289   5.105  19.555  1.00  0.00     0.006 A 
ATOM      2  C   UNL     1      20.177   4.580  18.839  1.00  0.00     0.006 A 
ATOM      3  C   UNL     1      22.327   5.734  18.841  1.00  0.00     0.010 A 
ATOM      4  C   UNL     1      20.114   4.758  17.445  1.00  0.00     0.010 A 
ATOM      5  C   UNL     1      22.253   5.880  17.455  1.00  0.00     0.001 A 
ATOM      6  C   UNL     1      21.144   5.404  16.760  1.00  0.00     0.001 A 
ENDROOT
BRANCH   1   7
ATOM      7  C   UNL     1      21.371   5.085  21.033  1.00  0.00     0.072 C 
ATOM      8  O   UNL     1      21.627   4.010  21.639  1.00  0.00    -0.545 OA
ATOM      9  O   UNL     1      21.235   6.258  21.768  1.00  0.00    -0.545 OA
ENDBRANCH   1   7
BRANCH   2  10
ATOM     10  C   UNL     1      19.107   3.785  19.485  1.00  0.00     0.072 C 
ATOM     11  O   UNL     1      19.273   2.562  19.735  1.00  0.00    -0.545 OA
ATOM     12  O   UNL     1      17.875   4.367  19.760  1.00  0.00    -0.545 OA
ENDBRANCH   2  10
TORSDOF 2
ENDMDL
MODEL 3
REMARK VINA RESULT:    -3.111      0.087      3.054
REMARK INTER + INTRA:          -2.828
REMARK INTER:                  -3.578
REMARK INTRA:                   0.750
REMARK UNBOUND:                 0.647
REMARK SMILES O=C([O-])c1ccccc1C(=O)[O-]
REMARK SMILES IDX 4 1 9 2 5 3 8 4 6 5 7 6 2 7 1 8 3 9 10 10 11 11 12 12
REMARK H PARENT
REMARK Flexibility Score: inf
ROOT
ATOM      1  C   UNL     1      21.463   5.640   7.112  1.00  0.00     0.006 A 
ATOM      2  C   UNL     1      22.735   5.836   6.505  1.00  0.00     0.006 A 
ATOM      3  C   UNL     1      21.014   4.327   7.349  1.00  0.00     0.010 A 
ATOM      4  C   UNL     1      23.537   4.716   6.218  1.00  0.00     0.010 A 
ATOM      5  C   UNL     1      21.817   3.230   7.035  1.00  0.00     0.001 A 
ATOM      6  C   UNL     1      23.080   3.424   6.483  1.00  0.00     0.001 A 
ENDROOT
BRANCH   1   7
ATOM      7  C   UNL     1      20.614   6.762   7.573  1.00  0.00     0.072 C 
ATOM      8  O   UNL     1      19.927   7.418   6.746  1.00  0.00    -0.545 OA
ATOM      9  O   UNL     1      20.512   7.065   8.926  1.00  0.00    -0.545 OA
ENDBRANCH   1   7
BRANCH   2  10
ATOM     10  C   UNL     1      23.234   7.169   6.093  1.00  0.00     0.072 C 
ATOM     11  O   UNL     1      22.435   8.117   5.875  1.00  0.00    -0.545 OA
ATOM     12  O   UNL     1      24.592   7.368   5.875  1.00  0.00    -0.545 OA
ENDBRANCH   2  10
TORSDOF 2
ENDMDL
MODEL 4
REMARK VINA RESULT:    -2.750     11.613     13.029
REMARK INTER + INTRA:          -2.424
REMARK INTER:                  -2.481
REMARK INTRA:                   0.057
REMARK UNBOUND:                 0.647
REMARK SMILES O=C([O-])c1ccccc1C(=O)[O-]
REMARK SMILES IDX 4 1 9 2 5 3 8 4 6 5 7 6 2 7 1 8 3 9 10 10 11 11 12 12
REMARK H PARENT
REMARK Flexibility Score: inf
ROOT
ATOM      1  C   UNL     1      20.546   4.841  19.797  1.00  0.00     0.006 A 
ATOM      2  C   UNL     1      21.137   5.253  18.570  1.00  0.00     0.006 A 
ATOM      3  C   UNL     1      19.279   4.227  19.774  1.00  0.00     0.010 A 
ATOM      4  C   UNL     1      20.469   4.979  17.362  1.00  0.00     0.010 A 
ATOM      5  C   UNL     1      18.625   3.985  18.566  1.00  0.00     0.001 A 
ATOM      6  C   UNL     1      19.223   4.349  17.363  1.00  0.00     0.001 A 
ENDROOT
BRANCH   1   7
ATOM      7  C   UNL     1      21.239   4.965  21.100  1.00  0.00     0.072 C 
ATOM      8  O   UNL     1      21.860   3.981  21.583  1.00  0.00    -0.545 OA
ATOM      9  O   UNL     1      21.272   6.180  21.774  1.00  0.00    -0.545 OA
ENDBRANCH   1   7
BRANCH   2  10
ATOM     10  C   UNL     1      22.399   6.026  18.502  1.00  0.00     0.072 C 
ATOM     11  O   UNL     1      23.441   5.610  19.073  1.00  0.00    -0.545 OA
ATOM     12  O   UNL     1      22.428   7.259  17.862  1.00  0.00    -0.545 OA
ENDBRANCH   2  10
TORSDOF 2
ENDMDL
MODEL 5
REMARK VINA RESULT:    -2.737     11.679     12.855
REMARK INTER + INTRA:          -2.410
REMARK INTER:                  -2.459
REMARK INTRA:                   0.050
REMARK UNBOUND:                 0.647
REMARK SMILES O=C([O-])c1ccccc1C(=O)[O-]
REMARK SMILES IDX 4 1 9 2 5 3 8 4 6 5 7 6 2 7 1 8 3 9 10 10 11 11 12 12
REMARK H PARENT
REMARK Flexibility Score: inf
ROOT
ATOM      1  C   UNL     1      21.104   5.266  18.632  1.00  0.00     0.006 A 
ATOM      2  C   UNL     1      20.564   4.839  19.877  1.00  0.00     0.006 A 
ATOM      3  C   UNL     1      20.396   4.988  17.448  1.00  0.00     0.010 A 
ATOM      4  C   UNL     1      19.306   4.207  19.897  1.00  0.00     0.010 A 
ATOM      5  C   UNL     1      19.161   4.341  17.490  1.00  0.00     0.001 A 
ATOM      6  C   UNL     1      18.612   3.962  18.711  1.00  0.00     0.001 A 
ENDROOT
BRANCH   1   7
ATOM      7  C   UNL     1      22.352   6.058  18.531  1.00  0.00     0.072 C 
ATOM      8  O   UNL     1      23.420   5.624  19.038  1.00  0.00    -0.545 OA
ATOM      9  O   UNL     1      22.377   7.253  17.821  1.00  0.00    -0.545 OA
ENDBRANCH   1   7
BRANCH   2  10
ATOM     10  C   UNL     1      21.296   4.963  21.159  1.00  0.00     0.072 C 
ATOM     11  O   UNL     1      21.850   3.961  21.685  1.00  0.00    -0.545 OA
ATOM     12  O   UNL     1      21.322   6.179  21.832  1.00  0.00    -0.545 OA
ENDBRANCH   2  10
TORSDOF 2
ENDMDL
MODEL 6
REMARK VINA RESULT:    -2.718     11.711     13.217
REMARK INTER + INTRA:          -2.389
REMARK INTER:                  -2.206
REMARK INTRA:                  -0.183
REMARK UNBOUND:                 0.647
REMARK SMILES O=C([O-])c1ccccc1C(=O)[O-]
REMARK SMILES IDX 4 1 9 2 5 3 8 4 6 5 7 6 2 7 1 8 3 9 10 10 11 11 12 12
REMARK H PARENT
REMARK Flexibility Score: inf
ROOT
ATOM      1  C   UNL     1      20.171   4.623  18.805  1.00  0.00     0.006 A 
ATOM      2  C   UNL     1      21.229   5.214  19.550  1.00  0.00     0.006 A 
ATOM      3  C   UNL     1      20.163   4.754  17.404  1.00  0.00     0.010 A 
ATOM      4  C   UNL     1      22.274   5.858  18.861  1.00  0.00     0.010 A 
ATOM      5  C   UNL     1      21.199   5.416  16.744  1.00  0.00     0.001 A 
ATOM      6  C   UNL     1      22.257   5.956  17.469  1.00  0.00     0.001 A 
ENDROOT
BRANCH   1   7
ATOM      7  C   UNL     1      19.106   3.810  19.436  1.00  0.00     0.072 C 
ATOM      8  O   UNL     1      19.326   2.610  19.749  1.00  0.00    -0.545 OA
ATOM      9  O   UNL     1      17.875   4.375  19.752  1.00  0.00    -0.545 OA
ENDBRANCH   1   7
BRANCH   2  10
ATOM     10  C   UNL     1      21.253   5.247  21.030  1.00  0.00     0.072 C 
ATOM     11  O   UNL     1      20.994   6.310  21.655  1.00  0.00    -0.545 OA
ATOM     12  O   UNL     1      21.629   4.118  21.747  1.00  0.00    -0.545 OA
ENDBRANCH   2  10
TORSDOF 2
ENDMDL
MODEL 7
REMARK VINA RESULT:    -2.627     11.131     12.712
REMARK INTER + INTRA:          -2.288
REMARK INTER:                  -2.272
REMARK INTRA:                  -0.016
REMARK UNBOUND:                 0.647
REMARK SMILES O=C([O-])c1ccccc1C(=O)[O-]
REMARK SMILES IDX 4 1 9 2 5 3 8 4 6 5 7 6 2 7 1 8 3 9 10 10 11 11 12 12
REMARK H PARENT
REMARK Flexibility Score: inf
ROOT
ATOM      1  C   UNL     1      20.043   4.758  19.322  1.00  0.00     0.006 A 
ATOM      2  C   UNL     1      20.851   5.271  18.269  1.00  0.00     0.006 A 
ATOM      3  C   UNL     1      20.258   5.217  20.635  1.00  0.00     0.010 A 
ATOM      4  C   UNL     1      21.799   6.270  18.559  1.00  0.00     0.010 A 
ATOM      5  C   UNL     1      21.218   6.193  20.902  1.00  0.00     0.001 A 
ATOM      6  C   UNL     1      21.979   6.727  19.865  1.00  0.00     0.001 A 
ENDROOT
BRANCH   1   7
ATOM      7  C   UNL     1      18.931   3.809  19.087  1.00  0.00     0.072 C 
ATOM      8  O   UNL     1      18.873   2.728  19.733  1.00  0.00    -0.545 OA
ATOM      9  O   UNL     1      17.904   4.123  18.205  1.00  0.00    -0.545 OA
ENDBRANCH   1   7
BRANCH   2  10
ATOM     10  C   UNL     1      20.793   4.752  16.883  1.00  0.00     0.072 C 
ATOM     11  O   UNL     1      21.638   3.912  16.474  1.00  0.00    -0.545 OA
ATOM     12  O   UNL     1      19.843   5.241  15.995  1.00  0.00    -0.545 OA
ENDBRANCH   2  10
TORSDOF 2
ENDMDL
MODEL 8
REMARK VINA RESULT:    -2.499     11.130     12.403
REMARK INTER + INTRA:          -2.144
REMARK INTER:                  -2.186
REMARK INTRA:                   0.043
REMARK UNBOUND:                 0.647
REMARK SMILES O=C([O-])c1ccccc1C(=O)[O-]
REMARK SMILES IDX 4 1 9 2 5 3 8 4 6 5 7 6 2 7 1 8 3 9 10 10 11 11 12 12
REMARK H PARENT
REMARK Flexibility Score: inf
ROOT
ATOM      1  C   UNL     1      20.824   5.250  18.254  1.00  0.00     0.006 A 
ATOM      2  C   UNL     1      19.976   4.757  19.285  1.00  0.00     0.006 A 
ATOM      3  C   UNL     1      21.793   6.221  18.570  1.00  0.00     0.010 A 
ATOM      4  C   UNL     1      20.172   5.206  20.605  1.00  0.00     0.010 A 
ATOM      5  C   UNL     1      21.954   6.668  19.882  1.00  0.00     0.001 A 
ATOM      6  C   UNL     1      21.154   6.154  20.898  1.00  0.00     0.001 A 
ENDROOT
BRANCH   1   7
ATOM      7  C   UNL     1      20.781   4.732  16.867  1.00  0.00     0.072 C 
ATOM      8  O   UNL     1      19.973   5.220  16.033  1.00  0.00    -0.545 OA
ATOM      9  O   UNL     1      21.673   3.750  16.448  1.00  0.00    -0.545 OA
ENDBRANCH   1   7
BRANCH   2  10
ATOM     10  C   UNL     1      18.843   3.840  19.027  1.00  0.00     0.072 C 
ATOM     11  O   UNL     1      17.950   4.138  18.190  1.00  0.00    -0.545 OA
ATOM     12  O   UNL     1      18.715   2.665  19.759  1.00  0.00    -0.545 OA
ENDBRANCH   2  10
TORSDOF 2
ENDMDL
MODEL 9
REMARK VINA RESULT:    -2.484      2.125      4.053
REMARK INTER + INTRA:          -2.127
REMARK INTER:                  -2.876
REMARK INTRA:                   0.749
REMARK UNBOUND:                 0.647
REMARK SMILES O=C([O-])c1ccccc1C(=O)[O-]
REMARK SMILES IDX 4 1 9 2 5 3 8 4 6 5 7 6 2 7 1 8 3 9 10 10 11 11 12 12
REMARK H PARENT
REMARK Flexibility Score: inf
ROOT
ATOM      1  C   UNL     1      21.795   5.518   7.334  1.00  0.00     0.006 A 
ATOM      2  C   UNL     1      22.495   6.631   6.790  1.00  0.00     0.006 A 
ATOM      3  C   UNL     1      20.604   5.743   8.050  1.00  0.00     0.010 A 
ATOM      4  C   UNL     1      21.945   7.919   6.926  1.00  0.00     0.010 A 
ATOM      5  C   UNL     1      20.089   7.032   8.191  1.00  0.00     0.001 A 
ATOM      6  C   UNL     1      20.751   8.115   7.621  1.00  0.00     0.001 A 
ENDROOT
BRANCH   1   7
ATOM      7  C   UNL     1      22.227   4.118   7.120  1.00  0.00     0.072 C 
ATOM      8  O   UNL     1      21.680   3.415   6.229  1.00  0.00    -0.545 OA
ATOM      9  O   UNL     1      23.283   3.582   7.849  1.00  0.00    -0.545 OA
ENDBRANCH   1   7
BRANCH   2  10
ATOM     10  C   UNL     1      23.822   6.509   6.142  1.00  0.00     0.072 C 
ATOM     11  O   UNL     1      24.308   5.379   5.875  1.00  0.00    -0.545 OA
ATOM     12  O   UNL     1      24.577   7.647   5.882  1.00  0.00    -0.545 OA
ENDBRANCH   2  10
TORSDOF 2
ENDMDL
