MODEL 1
REMARK VINA RESULT:    -3.028      0.000      0.000
REMARK INTER + INTRA:          -3.028
REMARK INTER:                  -3.028
REMARK INTRA:                   0.000
REMARK UNBOUND:                 0.000
REMARK SMILES CC(=O)[O-]
REMARK SMILES IDX 1 1 2 2 3 3 4 4
REMARK H PARENT
REMARK Flexibility Score: inf
ROOT
ATOM      1  C   UNL     1    -141.811 105.725  35.348  1.00  0.00     0.063 C 
ATOM      2  C   UNL     1    -142.414 104.716  34.432  1.00  0.00     0.038 C 
ATOM      3  O   UNL     1    -142.541 104.973  33.206  1.00  0.00    -0.550 OA
ATOM      4  O   UNL     1    -142.788 103.469  34.917  1.00  0.00    -0.550 OA
ENDROOT
TORSDOF 0
ENDMDL
MODEL 2
REMARK VINA RESULT:    -2.602      1.325      1.778
REMARK INTER + INTRA:          -2.602
REMARK INTER:                  -2.602
REMARK INTRA:                   0.000
REMARK UNBOUND:                 0.000
REMARK SMILES CC(=O)[O-]
REMARK SMILES IDX 1 1 2 2 3 3 4 4
REMARK H PARENT
REMARK Flexibility Score: inf
ROOT
ATOM      1  C   UNL     1    -142.824 103.137  34.580  1.00  0.00     0.063 C 
ATOM      2  C   UNL     1    -142.491 104.587  34.493  1.00  0.00     0.038 C 
ATOM      3  O   UNL     1    -142.467 105.163  33.375  1.00  0.00    -0.550 OA
ATOM      4  O   UNL     1    -142.259 105.319  35.651  1.00  0.00    -0.550 OA
ENDROOT
TORSDOF 0
ENDMDL
MODEL 3
REMARK VINA RESULT:    -2.474     12.328     12.582
REMARK INTER + INTRA:          -2.474
REMARK INTER:                  -2.474
REMARK INTRA:                   0.000
REMARK UNBOUND:                 0.000
REMARK SMILES CC(=O)[O-]
REMARK SMILES IDX 1 1 2 2 3 3 4 4
REMARK H PARENT
REMARK Flexibility Score: inf
ROOT
ATOM      1  C   UNL     1    -134.667 113.376  32.611  1.00  0.00     0.063 C 
ATOM      2  C   UNL     1    -133.421 113.281  33.424  1.00  0.00     0.038 C 
ATOM      3  O   UNL     1    -132.460 112.571  33.028  1.00  0.00    -0.550 OA
ATOM      4  O   UNL     1    -133.296 114.019  34.595  1.00  0.00    -0.550 OA
ENDROOT
TORSDOF 0
ENDMDL
MODEL 4
REMARK VINA RESULT:    -2.459     20.380     20.797
REMARK INTER + INTRA:          -2.459
REMARK INTER:                  -2.459
REMARK INTRA:                   0.000
REMARK UNBOUND:                 0.000
REMARK SMILES CC(=O)[O-]
REMARK SMILES IDX 1 1 2 2 3 3 4 4
REMARK H PARENT
REMARK Flexibility Score: inf
ROOT
ATOM      1  C   UNL     1    -128.702 118.784  43.942  1.00  0.00     0.063 C 
ATOM      2  C   UNL     1    -129.530 117.624  44.378  1.00  0.00     0.038 C 
ATOM      3  O   UNL     1    -130.097 117.639  45.501  1.00  0.00    -0.550 OA
ATOM      4  O   UNL     1    -129.724 116.547  43.523  1.00  0.00    -0.550 OA
ENDROOT
TORSDOF 0
ENDMDL
MODEL 5
REMARK VINA RESULT:    -2.419     20.343     20.673
REMARK INTER + INTRA:          -2.419
REMARK INTER:                  -2.419
REMARK INTRA:                   0.000
REMARK UNBOUND:                 0.000
REMARK SMILES CC(=O)[O-]
REMARK SMILES IDX 1 1 2 2 3 3 4 4
REMARK H PARENT
REMARK Flexibility Score: inf
ROOT
ATOM      1  C   UNL     1    -130.877 117.650  46.639  1.00  0.00     0.063 C 
ATOM      2  C   UNL     1    -130.094 117.105  45.493  1.00  0.00     0.038 C 
ATOM      3  O   UNL     1    -129.654 117.879  44.604  1.00  0.00    -0.550 OA
ATOM      4  O   UNL     1    -129.801 115.748  45.433  1.00  0.00    -0.550 OA
ENDROOT
TORSDOF 0
ENDMDL
MODEL 6
REMARK VINA RESULT:    -2.387      2.465      3.144
REMARK INTER + INTRA:          -2.387
REMARK INTER:                  -2.387
REMARK INTRA:                   0.000
REMARK UNBOUND:                 0.000
REMARK SMILES CC(=O)[O-]
REMARK SMILES IDX 1 1 2 2 3 3 4 4
REMARK H PARENT
REMARK Flexibility Score: inf
ROOT
ATOM      1  C   UNL     1    -142.516 103.396  34.299  1.00  0.00     0.063 C 
ATOM      2  C   UNL     1    -143.251 102.198  33.802  1.00  0.00     0.038 C 
ATOM      3  O   UNL     1    -143.730 101.368  34.618  1.00  0.00    -0.550 OA
ATOM      4  O   UNL     1    -143.456 102.022  32.439  1.00  0.00    -0.550 OA
ENDROOT
TORSDOF 0
ENDMDL
MODEL 7
REMARK VINA RESULT:    -2.384     14.047     14.373
REMARK INTER + INTRA:          -2.384
REMARK INTER:                  -2.384
REMARK INTRA:                   0.000
REMARK UNBOUND:                 0.000
REMARK SMILES CC(=O)[O-]
REMARK SMILES IDX 1 1 2 2 3 3 4 4
REMARK H PARENT
REMARK Flexibility Score: inf
ROOT
ATOM      1  C   UNL     1    -129.776 106.269  38.899  1.00  0.00     0.063 C 
ATOM      2  C   UNL     1    -129.252 105.570  40.105  1.00  0.00     0.038 C 
ATOM      3  O   UNL     1    -128.854 106.234  41.098  1.00  0.00    -0.550 OA
ATOM      4  O   UNL     1    -129.252 104.181  40.161  1.00  0.00    -0.550 OA
ENDROOT
TORSDOF 0
ENDMDL
MODEL 8
REMARK VINA RESULT:    -2.373      2.702      3.189
REMARK INTER + INTRA:          -2.373
REMARK INTER:                  -2.373
REMARK INTRA:                   0.000
REMARK UNBOUND:                 0.000
REMARK SMILES CC(=O)[O-]
REMARK SMILES IDX 1 1 2 2 3 3 4 4
REMARK H PARENT
REMARK Flexibility Score: inf
ROOT
ATOM      1  C   UNL     1    -143.611 101.163  34.631  1.00  0.00     0.063 C 
ATOM      2  C   UNL     1    -143.122 102.262  33.751  1.00  0.00     0.038 C 
ATOM      3  O   UNL     1    -143.388 102.253  32.521  1.00  0.00    -0.550 OA
ATOM      4  O   UNL     1    -142.418 103.329  34.296  1.00  0.00    -0.550 OA
ENDROOT
TORSDOF 0
ENDMDL
MODEL 9
REMARK VINA RESULT:    -2.366     13.449     13.707
REMARK INTER + INTRA:          -2.366
REMARK INTER:                  -2.366
REMARK INTRA:                   0.000
REMARK UNBOUND:                 0.000
REMARK SMILES CC(=O)[O-]
REMARK SMILES IDX 1 1 2 2 3 3 4 4
REMARK H PARENT
REMARK Flexibility Score: inf
ROOT
ATOM      1  C   UNL     1    -129.112 105.504  40.267  1.00  0.00     0.063 C 
ATOM      2  C   UNL     1    -129.616 106.004  38.956  1.00  0.00     0.038 C 
ATOM      3  O   UNL     1    -129.704 105.223  37.973  1.00  0.00    -0.550 OA
ATOM      4  O   UNL     1    -130.043 107.320  38.830  1.00  0.00    -0.550 OA
ENDROOT
TORSDOF 0
ENDMDL
