MODEL 1
REMARK VINA RESULT:    -5.832      0.000      0.000
REMARK INTER + INTRA:          -8.415
REMARK INTER:                  -7.877
REMARK INTRA:                  -0.538
REMARK UNBOUND:                -0.538
REMARK SMILES CC(=O)CCC=C(C)CCC=C(C)C
REMARK SMILES IDX 7 1 6 2 8 3 9 4 10 5 11 6 13 7 12 8 14 9 5 10 4 11 2 12 3 13
REMARK SMILES IDX 1 14
REMARK H PARENT
REMARK Flexibility Score: inf
ROOT
ATOM      1  C   UNL     1      -3.501  29.131 -22.192  1.00  0.00    -0.077 C 
ATOM      2  C   UNL     1      -4.743  28.753 -22.573  1.00  0.00    -0.028 C 
ATOM      3  C   UNL     1      -2.443  29.527 -23.196  1.00  0.00     0.039 C 
ENDROOT
BRANCH   1   4
ATOM      4  C   UNL     1      -3.162  29.151 -20.718  1.00  0.00     0.034 C 
BRANCH   4   5
ATOM      5  C   UNL     1      -4.280  28.504 -19.892  1.00  0.00     0.032 C 
BRANCH   5   6
ATOM      6  C   UNL     1      -3.726  27.427 -18.993  1.00  0.00    -0.028 C 
ATOM      7  C   UNL     1      -5.643  27.562 -17.385  1.00  0.00     0.039 C 
ATOM      8  C   UNL     1      -4.315  27.010 -17.850  1.00  0.00    -0.080 C 
ATOM      9  C   UNL     1      -3.624  25.948 -17.033  1.00  0.00     0.039 C 
ENDBRANCH   5   6
ENDBRANCH   4   5
ENDBRANCH   1   4
BRANCH   2  10
ATOM     10  C   UNL     1      -5.228  28.727 -24.002  1.00  0.00     0.035 C 
BRANCH  10  11
ATOM     11  C   UNL     1      -6.009  30.008 -24.332  1.00  0.00     0.079 C 
BRANCH  11  12
ATOM     12  C   UNL     1      -5.681  30.610 -25.679  1.00  0.00     0.130 C 
ATOM     13  O   UNL     1      -4.554  30.455 -26.124  1.00  0.00    -0.300 OA
ATOM     14  C   UNL     1      -6.679  31.381 -26.498  1.00  0.00     0.087 C 
ENDBRANCH  11  12
ENDBRANCH  10  11
ENDBRANCH   2  10
TORSDOF 6
ENDMDL
MODEL 2
REMARK VINA RESULT:    -5.788      2.663      4.512
REMARK INTER + INTRA:          -8.356
REMARK INTER:                  -7.898
REMARK INTRA:                  -0.458
REMARK UNBOUND:                -0.538
REMARK SMILES CC(=O)CCC=C(C)CCC=C(C)C
REMARK SMILES IDX 7 1 6 2 8 3 9 4 10 5 11 6 13 7 12 8 14 9 5 10 4 11 2 12 3 13
REMARK SMILES IDX 1 14
REMARK H PARENT
REMARK Flexibility Score: inf
ROOT
ATOM      1  C   UNL     1      -3.360  29.211 -22.564  1.00  0.00    -0.077 C 
ATOM      2  C   UNL     1      -2.125  29.643 -22.215  1.00  0.00    -0.028 C 
ATOM      3  C   UNL     1      -3.836  29.229 -23.997  1.00  0.00     0.039 C 
ENDROOT
BRANCH   1   4
ATOM      4  C   UNL     1      -4.289  28.702 -21.484  1.00  0.00     0.034 C 
BRANCH   4   5
ATOM      5  C   UNL     1      -3.612  28.759 -20.110  1.00  0.00     0.032 C 
BRANCH   5   6
ATOM      6  C   UNL     1      -4.637  28.688 -19.005  1.00  0.00    -0.028 C 
ATOM      7  C   UNL     1      -3.982  26.366 -18.329  1.00  0.00     0.039 C 
ATOM      8  C   UNL     1      -4.832  27.611 -18.213  1.00  0.00    -0.080 C 
ATOM      9  C   UNL     1      -5.921  27.672 -17.173  1.00  0.00     0.039 C 
ENDBRANCH   5   6
ENDBRANCH   4   5
ENDBRANCH   1   4
BRANCH   2  10
ATOM     10  C   UNL     1      -1.085  30.136 -23.190  1.00  0.00     0.035 C 
BRANCH  10  11
ATOM     11  C   UNL     1       0.308  29.616 -22.804  1.00  0.00     0.079 C 
BRANCH  11  12
ATOM     12  C   UNL     1       1.451  30.302 -23.519  1.00  0.00     0.130 C 
ATOM     13  O   UNL     1       1.467  30.280 -24.740  1.00  0.00    -0.300 OA
ATOM     14  C   UNL     1       2.560  31.014 -22.796  1.00  0.00     0.087 C 
ENDBRANCH  11  12
ENDBRANCH  10  11
ENDBRANCH   2  10
TORSDOF 6
ENDMDL
MODEL 3
REMARK VINA RESULT:    -5.747      2.454      7.456
REMARK INTER + INTRA:          -8.301
REMARK INTER:                  -7.954
REMARK INTRA:                  -0.348
REMARK UNBOUND:                -0.538
REMARK SMILES CC(=O)CCC=C(C)CCC=C(C)C
REMARK SMILES IDX 7 1 6 2 8 3 9 4 10 5 11 6 13 7 12 8 14 9 5 10 4 11 2 12 3 13
REMARK SMILES IDX 1 14
REMARK H PARENT
REMARK Flexibility Score: inf
ROOT
ATOM      1  C   UNL     1      -3.907  29.076 -22.886  1.00  0.00    -0.077 C 
ATOM      2  C   UNL     1      -4.429  28.699 -21.695  1.00  0.00    -0.028 C 
ATOM      3  C   UNL     1      -2.469  29.517 -23.022  1.00  0.00     0.039 C 
ENDROOT
BRANCH   1   4
ATOM      4  C   UNL     1      -4.794  29.061 -24.111  1.00  0.00     0.034 C 
BRANCH   4   5
ATOM      5  C   UNL     1      -4.422  30.200 -25.068  1.00  0.00     0.032 C 
BRANCH   5   6
ATOM      6  C   UNL     1      -5.611  30.608 -25.900  1.00  0.00    -0.028 C 
ATOM      7  C   UNL     1      -4.200  31.469 -27.782  1.00  0.00     0.039 C 
ATOM      8  C   UNL     1      -5.527  31.202 -27.112  1.00  0.00    -0.080 C 
ATOM      9  C   UNL     1      -6.805  31.589 -27.812  1.00  0.00     0.039 C 
ENDBRANCH   5   6
ENDBRANCH   4   5
ENDBRANCH   1   4
BRANCH   2  10
ATOM     10  C   UNL     1      -3.651  28.626 -20.404  1.00  0.00     0.035 C 
BRANCH  10  11
ATOM     11  C   UNL     1      -4.594  28.728 -19.197  1.00  0.00     0.079 C 
BRANCH  11  12
ATOM     12  C   UNL     1      -4.796  27.429 -18.450  1.00  0.00     0.130 C 
ATOM     13  O   UNL     1      -4.508  26.385 -19.015  1.00  0.00    -0.300 OA
ATOM     14  C   UNL     1      -5.327  27.365 -17.044  1.00  0.00     0.087 C 
ENDBRANCH  11  12
ENDBRANCH  10  11
ENDBRANCH   2  10
TORSDOF 6
ENDMDL
MODEL 4
REMARK VINA RESULT:    -5.651      3.691      8.030
REMARK INTER + INTRA:          -8.171
REMARK INTER:                  -7.591
REMARK INTRA:                  -0.580
REMARK UNBOUND:                -0.538
REMARK SMILES CC(=O)CCC=C(C)CCC=C(C)C
REMARK SMILES IDX 7 1 6 2 8 3 9 4 10 5 11 6 13 7 12 8 14 9 5 10 4 11 2 12 3 13
REMARK SMILES IDX 1 14
REMARK H PARENT
REMARK Flexibility Score: inf
ROOT
ATOM      1  C   UNL     1      -4.861  27.752 -18.160  1.00  0.00    -0.077 C 
ATOM      2  C   UNL     1      -3.829  26.886 -18.036  1.00  0.00    -0.028 C 
ATOM      3  C   UNL     1      -6.161  27.556 -17.415  1.00  0.00     0.039 C 
ENDROOT
BRANCH   1   4
ATOM      4  C   UNL     1      -4.709  28.946 -19.076  1.00  0.00     0.034 C 
BRANCH   4   5
ATOM      5  C   UNL     1      -3.734  28.637 -20.218  1.00  0.00     0.032 C 
BRANCH   5   6
ATOM      6  C   UNL     1      -4.459  28.569 -21.538  1.00  0.00    -0.028 C 
ATOM      7  C   UNL     1      -2.560  29.586 -22.816  1.00  0.00     0.039 C 
ATOM      8  C   UNL     1      -3.954  29.014 -22.710  1.00  0.00    -0.080 C 
ATOM      9  C   UNL     1      -4.813  28.915 -23.946  1.00  0.00     0.039 C 
ENDBRANCH   5   6
ENDBRANCH   4   5
ENDBRANCH   1   4
BRANCH   2  10
ATOM     10  C   UNL     1      -3.828  25.680 -17.129  1.00  0.00     0.035 C 
BRANCH  10  11
ATOM     11  C   UNL     1      -2.798  25.851 -16.003  1.00  0.00     0.079 C 
BRANCH  11  12
ATOM     12  C   UNL     1      -3.397  26.152 -14.648  1.00  0.00     0.130 C 
ATOM     13  O   UNL     1      -4.497  25.690 -14.386  1.00  0.00    -0.300 OA
ATOM     14  C   UNL     1      -2.699  26.985 -13.608  1.00  0.00     0.087 C 
ENDBRANCH  11  12
ENDBRANCH  10  11
ENDBRANCH   2  10
TORSDOF 6
ENDMDL
MODEL 5
REMARK VINA RESULT:    -5.378      4.445      7.886
REMARK INTER + INTRA:          -7.802
REMARK INTER:                  -7.207
REMARK INTRA:                  -0.596
REMARK UNBOUND:                -0.538
REMARK SMILES CC(=O)CCC=C(C)CCC=C(C)C
REMARK SMILES IDX 7 1 6 2 8 3 9 4 10 5 11 6 13 7 12 8 14 9 5 10 4 11 2 12 3 13
REMARK SMILES IDX 1 14
REMARK H PARENT
REMARK Flexibility Score: inf
ROOT
ATOM      1  C   UNL     1       0.006  30.628 -23.880  1.00  0.00    -0.077 C 
ATOM      2  C   UNL     1      -0.718  29.848 -23.044  1.00  0.00    -0.028 C 
ATOM      3  C   UNL     1      -0.609  31.798 -24.612  1.00  0.00     0.039 C 
ENDROOT
BRANCH   1   4
ATOM      4  C   UNL     1       1.470  30.312 -24.092  1.00  0.00     0.034 C 
BRANCH   4   5
ATOM      5  C   UNL     1       2.150  31.406 -24.924  1.00  0.00     0.032 C 
BRANCH   5   6
ATOM      6  C   UNL     1       2.678  30.842 -26.219  1.00  0.00    -0.028 C 
ATOM      7  C   UNL     1       1.379  32.449 -27.635  1.00  0.00     0.039 C 
ATOM      8  C   UNL     1       2.322  31.284 -27.446  1.00  0.00    -0.080 C 
ATOM      9  C   UNL     1       2.906  30.597 -28.654  1.00  0.00     0.039 C 
ENDBRANCH   5   6
ENDBRANCH   4   5
ENDBRANCH   1   4
BRANCH   2  10
ATOM     10  C   UNL     1      -2.172  30.072 -22.709  1.00  0.00     0.035 C 
BRANCH  10  11
ATOM     11  C   UNL     1      -3.041  28.944 -23.284  1.00  0.00     0.079 C 
BRANCH  11  12
ATOM     12  C   UNL     1      -4.410  28.825 -22.654  1.00  0.00     0.130 C 
ATOM     13  O   UNL     1      -4.480  28.494 -21.480  1.00  0.00    -0.300 OA
ATOM     14  C   UNL     1      -5.684  29.104 -23.402  1.00  0.00     0.087 C 
ENDBRANCH  11  12
ENDBRANCH  10  11
ENDBRANCH   2  10
TORSDOF 6
ENDMDL
MODEL 6
REMARK VINA RESULT:    -5.351      2.266      4.511
REMARK INTER + INTRA:          -7.766
REMARK INTER:                  -7.391
REMARK INTRA:                  -0.375
REMARK UNBOUND:                -0.538
REMARK SMILES CC(=O)CCC=C(C)CCC=C(C)C
REMARK SMILES IDX 7 1 6 2 8 3 9 4 10 5 11 6 13 7 12 8 14 9 5 10 4 11 2 12 3 13
REMARK SMILES IDX 1 14
REMARK H PARENT
REMARK Flexibility Score: inf
ROOT
ATOM      1  C   UNL     1      -4.261  27.158 -18.133  1.00  0.00    -0.077 C 
ATOM      2  C   UNL     1      -3.783  27.629 -19.309  1.00  0.00    -0.028 C 
ATOM      3  C   UNL     1      -5.539  27.684 -17.523  1.00  0.00     0.039 C 
ENDROOT
BRANCH   1   4
ATOM      4  C   UNL     1      -3.486  26.080 -17.408  1.00  0.00     0.034 C 
BRANCH   4   5
ATOM      5  C   UNL     1      -3.893  26.016 -15.931  1.00  0.00     0.032 C 
BRANCH   5   6
ATOM      6  C   UNL     1      -2.857  25.275 -15.123  1.00  0.00    -0.028 C 
ATOM      7  C   UNL     1      -2.577  27.141 -13.475  1.00  0.00     0.039 C 
ATOM      8  C   UNL     1      -2.238  25.777 -14.031  1.00  0.00    -0.080 C 
ATOM      9  C   UNL     1      -1.194  24.933 -13.345  1.00  0.00     0.039 C 
ENDBRANCH   5   6
ENDBRANCH   4   5
ENDBRANCH   1   4
BRANCH   2  10
ATOM     10  C   UNL     1      -4.472  28.669 -20.157  1.00  0.00     0.035 C 
BRANCH  10  11
ATOM     11  C   UNL     1      -3.732  28.859 -21.489  1.00  0.00     0.079 C 
BRANCH  11  12
ATOM     12  C   UNL     1      -4.636  28.971 -22.696  1.00  0.00     0.130 C 
ATOM     13  O   UNL     1      -5.840  29.067 -22.511  1.00  0.00    -0.300 OA
ATOM     14  C   UNL     1      -4.121  28.977 -24.109  1.00  0.00     0.087 C 
ENDBRANCH  11  12
ENDBRANCH  10  11
ENDBRANCH   2  10
TORSDOF 6
ENDMDL
MODEL 7
REMARK VINA RESULT:    -5.278      6.196      7.840
REMARK INTER + INTRA:          -7.667
REMARK INTER:                  -7.273
REMARK INTRA:                  -0.394
REMARK UNBOUND:                -0.538
REMARK SMILES CC(=O)CCC=C(C)CCC=C(C)C
REMARK SMILES IDX 7 1 6 2 8 3 9 4 10 5 11 6 13 7 12 8 14 9 5 10 4 11 2 12 3 13
REMARK SMILES IDX 1 14
REMARK H PARENT
REMARK Flexibility Score: inf
ROOT
ATOM      1  C   UNL     1      -1.034  33.370 -28.298  1.00  0.00    -0.077 C 
ATOM      2  C   UNL     1      -2.031  32.479 -28.506  1.00  0.00    -0.028 C 
ATOM      3  C   UNL     1      -1.266  34.860 -28.377  1.00  0.00     0.039 C 
ENDROOT
BRANCH   1   4
ATOM      4  C   UNL     1       0.354  32.855 -27.986  1.00  0.00     0.034 C 
BRANCH   4   5
ATOM      5  C   UNL     1       0.485  32.505 -26.499  1.00  0.00     0.032 C 
BRANCH   5   6
ATOM      6  C   UNL     1       1.819  31.861 -26.216  1.00  0.00    -0.028 C 
ATOM      7  C   UNL     1       0.994  30.680 -24.167  1.00  0.00     0.039 C 
ATOM      8  C   UNL     1       2.070  31.058 -25.158  1.00  0.00    -0.080 C 
ATOM      9  C   UNL     1       3.466  30.515 -24.985  1.00  0.00     0.039 C 
ENDBRANCH   5   6
ENDBRANCH   4   5
ENDBRANCH   1   4
BRANCH   2  10
ATOM     10  C   UNL     1      -3.467  32.851 -28.783  1.00  0.00     0.035 C 
BRANCH  10  11
ATOM     11  C   UNL     1      -4.335  31.592 -28.927  1.00  0.00     0.079 C 
BRANCH  11  12
ATOM     12  C   UNL     1      -5.330  31.389 -27.808  1.00  0.00     0.130 C 
ATOM     13  O   UNL     1      -4.959  30.803 -26.802  1.00  0.00    -0.300 OA
ATOM     14  C   UNL     1      -6.750  31.879 -27.874  1.00  0.00     0.087 C 
ENDBRANCH  11  12
ENDBRANCH  10  11
ENDBRANCH   2  10
TORSDOF 6
ENDMDL
MODEL 8
REMARK VINA RESULT:    -5.270     13.855     16.538
REMARK INTER + INTRA:          -7.657
REMARK INTER:                  -7.241
REMARK INTRA:                  -0.416
REMARK UNBOUND:                -0.538
REMARK SMILES CC(=O)CCC=C(C)CCC=C(C)C
REMARK SMILES IDX 7 1 6 2 8 3 9 4 10 5 11 6 13 7 12 8 14 9 5 10 4 11 2 12 3 13
REMARK SMILES IDX 1 14
REMARK H PARENT
REMARK Flexibility Score: inf
ROOT
ATOM      1  C   UNL     1       5.095  31.259  -9.093  1.00  0.00    -0.077 C 
ATOM      2  C   UNL     1       4.030  32.088  -8.986  1.00  0.00    -0.028 C 
ATOM      3  C   UNL     1       4.933  29.791  -9.412  1.00  0.00     0.039 C 
ENDROOT
BRANCH   1   4
ATOM      4  C   UNL     1       6.483  31.820  -8.881  1.00  0.00     0.034 C 
BRANCH   4   5
ATOM      5  C   UNL     1       7.517  31.045  -9.706  1.00  0.00     0.032 C 
BRANCH   5   6
ATOM      6  C   UNL     1       8.747  31.884  -9.947  1.00  0.00    -0.028 C 
ATOM      7  C   UNL     1      10.314  30.105  -9.139  1.00  0.00     0.039 C 
ATOM      8  C   UNL     1      10.009  31.485  -9.674  1.00  0.00    -0.080 C 
ATOM      9  C   UNL     1      11.139  32.448  -9.934  1.00  0.00     0.039 C 
ENDBRANCH   5   6
ENDBRANCH   4   5
ENDBRANCH   1   4
BRANCH   2  10
ATOM     10  C   UNL     1       2.597  31.674  -9.213  1.00  0.00     0.035 C 
BRANCH  10  11
ATOM     11  C   UNL     1       2.209  31.853 -10.688  1.00  0.00     0.079 C 
BRANCH  11  12
ATOM     12  C   UNL     1       1.194  32.945 -10.940  1.00  0.00     0.130 C 
ATOM     13  O   UNL     1       1.145  33.444 -12.053  1.00  0.00    -0.300 OA
ATOM     14  C   UNL     1       0.241  33.437  -9.886  1.00  0.00     0.087 C 
ENDBRANCH  11  12
ENDBRANCH  10  11
ENDBRANCH   2  10
TORSDOF 6
ENDMDL
MODEL 9
REMARK VINA RESULT:    -5.248      7.330     10.190
REMARK INTER + INTRA:          -7.626
REMARK INTER:                  -7.183
REMARK INTRA:                  -0.444
REMARK UNBOUND:                -0.538
REMARK SMILES CC(=O)CCC=C(C)CCC=C(C)C
REMARK SMILES IDX 7 1 6 2 8 3 9 4 10 5 11 6 13 7 12 8 14 9 5 10 4 11 2 12 3 13
REMARK SMILES IDX 1 14
REMARK H PARENT
REMARK Flexibility Score: inf
ROOT
ATOM      1  C   UNL     1       1.999  31.603 -26.646  1.00  0.00    -0.077 C 
ATOM      2  C   UNL     1       2.449  31.309 -25.403  1.00  0.00    -0.028 C 
ATOM      3  C   UNL     1       2.644  31.026 -27.884  1.00  0.00     0.039 C 
ENDROOT
BRANCH   1   4
ATOM      4  C   UNL     1       0.823  32.542 -26.795  1.00  0.00     0.034 C 
BRANCH   4   5
ATOM      5  C   UNL     1       0.532  32.821 -28.274  1.00  0.00     0.032 C 
BRANCH   5   6
ATOM      6  C   UNL     1      -0.921  32.570 -28.590  1.00  0.00    -0.028 C 
ATOM      7  C   UNL     1      -1.522  35.001 -28.517  1.00  0.00     0.039 C 
ATOM      8  C   UNL     1      -1.862  33.537 -28.678  1.00  0.00    -0.080 C 
ATOM      9  C   UNL     1      -3.285  33.131 -28.964  1.00  0.00     0.039 C 
ENDBRANCH   5   6
ENDBRANCH   4   5
ENDBRANCH   1   4
BRANCH   2  10
ATOM     10  C   UNL     1       3.582  30.358 -25.106  1.00  0.00     0.035 C 
BRANCH  10  11
ATOM     11  C   UNL     1       3.291  29.549 -23.834  1.00  0.00     0.079 C 
BRANCH  11  12
ATOM     12  C   UNL     1       2.700  30.358 -22.701  1.00  0.00     0.130 C 
ATOM     13  O   UNL     1       1.567  30.093 -22.330  1.00  0.00    -0.300 OA
ATOM     14  C   UNL     1       3.445  31.466 -22.008  1.00  0.00     0.087 C 
ENDBRANCH  11  12
ENDBRANCH  10  11
ENDBRANCH   2  10
TORSDOF 6
ENDMDL
