MODEL 1
REMARK VINA RESULT:    -5.858      0.000      0.000
REMARK INTER + INTRA:          -5.858
REMARK INTER:                  -5.858
REMARK INTRA:                   0.000
REMARK UNBOUND:                 0.000
REMARK SMILES Cc1cc2cc3c(C)cc(=O)oc3c(C)c2o1
REMARK SMILES IDX 8 1 7 2 9 3 10 4 11 5 12 6 13 7 6 8 5 9 4 10 3 11 2 12 17 13
REMARK SMILES IDX 16 14 14 15 15 16 1 17
REMARK H PARENT
REMARK Flexibility Score: inf
ROOT
ATOM      1  C   UNL     1     -10.124  -4.703  -3.506  1.00  0.00     0.045 C 
ATOM      2  C   UNL     1      -9.366  -4.266  -4.733  1.00  0.00    -0.033 A 
ATOM      3  C   UNL     1      -9.226  -5.157  -5.805  1.00  0.00     0.098 A 
ATOM      4  C   UNL     1      -8.524  -4.760  -6.944  1.00  0.00     0.336 A 
ATOM      5  O   UNL     1      -8.394  -5.558  -7.909  1.00  0.00    -0.246 OA
ATOM      6  O   UNL     1      -7.990  -3.548  -7.020  1.00  0.00    -0.422 OA
ATOM      7  C   UNL     1      -8.085  -2.652  -6.041  1.00  0.00     0.145 A 
ATOM      8  C   UNL     1      -8.787  -2.982  -4.837  1.00  0.00     0.022 A 
ATOM      9  C   UNL     1      -8.875  -2.026  -3.796  1.00  0.00     0.024 A 
ATOM     10  C   UNL     1      -8.265  -0.791  -3.988  1.00  0.00     0.022 A 
ATOM     11  C   UNL     1      -8.183   0.303  -3.157  1.00  0.00     0.054 A 
ATOM     12  C   UNL     1      -7.445   1.229  -3.885  1.00  0.00     0.102 A 
ATOM     13  O   UNL     1      -7.109   0.739  -5.064  1.00  0.00    -0.461 OA
ATOM     14  C   UNL     1      -7.596  -0.477  -5.139  1.00  0.00     0.140 A 
ATOM     15  C   UNL     1      -7.490  -1.379  -6.201  1.00  0.00     0.036 A 
ATOM     16  C   UNL     1      -6.727  -1.026  -7.446  1.00  0.00     0.052 C 
ATOM     17  C   UNL     1      -7.085   2.600  -3.420  1.00  0.00     0.087 C 
ENDROOT
TORSDOF 0
ENDMDL
MODEL 2
REMARK VINA RESULT:    -5.735      1.305      3.024
REMARK INTER + INTRA:          -5.735
REMARK INTER:                  -5.735
REMARK INTRA:                   0.000
REMARK UNBOUND:                 0.000
REMARK SMILES Cc1cc2cc3c(C)cc(=O)oc3c(C)c2o1
REMARK SMILES IDX 8 1 7 2 9 3 10 4 11 5 12 6 13 7 6 8 5 9 4 10 3 11 2 12 17 13
REMARK SMILES IDX 16 14 14 15 15 16 1 17
REMARK H PARENT
REMARK Flexibility Score: inf
ROOT
ATOM      1  C   UNL     1      -6.796  -1.670  -9.428  1.00  0.00     0.045 C 
ATOM      2  C   UNL     1      -7.451  -2.516  -8.367  1.00  0.00    -0.033 A 
ATOM      3  C   UNL     1      -7.906  -3.799  -8.699  1.00  0.00     0.098 A 
ATOM      4  C   UNL     1      -8.515  -4.589  -7.722  1.00  0.00     0.336 A 
ATOM      5  O   UNL     1      -8.926  -5.742  -8.015  1.00  0.00    -0.246 OA
ATOM      6  O   UNL     1      -8.667  -4.135  -6.485  1.00  0.00    -0.422 OA
ATOM      7  C   UNL     1      -8.259  -2.928  -6.101  1.00  0.00     0.145 A 
ATOM      8  C   UNL     1      -7.625  -2.055  -7.044  1.00  0.00     0.022 A 
ATOM      9  C   UNL     1      -7.203  -0.768  -6.629  1.00  0.00     0.024 A 
ATOM     10  C   UNL     1      -7.426  -0.400  -5.307  1.00  0.00     0.022 A 
ATOM     11  C   UNL     1      -7.135   0.771  -4.645  1.00  0.00     0.054 A 
ATOM     12  C   UNL     1      -7.600   0.555  -3.352  1.00  0.00     0.102 A 
ATOM     13  O   UNL     1      -8.127  -0.650  -3.238  1.00  0.00    -0.461 OA
ATOM     14  C   UNL     1      -8.030  -1.236  -4.408  1.00  0.00     0.140 A 
ATOM     15  C   UNL     1      -8.454  -2.519  -4.761  1.00  0.00     0.036 A 
ATOM     16  C   UNL     1      -9.141  -3.412  -3.766  1.00  0.00     0.052 C 
ATOM     17  C   UNL     1      -7.511   1.535  -2.232  1.00  0.00     0.087 C 
ENDROOT
TORSDOF 0
ENDMDL
MODEL 3
REMARK VINA RESULT:    -5.431     11.201     12.680
REMARK INTER + INTRA:          -5.431
REMARK INTER:                  -5.431
REMARK INTRA:                   0.000
REMARK UNBOUND:                 0.000
REMARK SMILES Cc1cc2cc3c(C)cc(=O)oc3c(C)c2o1
REMARK SMILES IDX 8 1 7 2 9 3 10 4 11 5 12 6 13 7 6 8 5 9 4 10 3 11 2 12 17 13
REMARK SMILES IDX 16 14 14 15 15 16 1 17
REMARK H PARENT
REMARK Flexibility Score: inf
ROOT
ATOM      1  C   UNL     1      -2.799  -5.763   6.703  1.00  0.00     0.045 C 
ATOM      2  C   UNL     1      -2.800  -6.449   5.362  1.00  0.00    -0.033 A 
ATOM      3  C   UNL     1      -1.706  -6.278   4.504  1.00  0.00     0.098 A 
ATOM      4  C   UNL     1      -1.701  -6.908   3.259  1.00  0.00     0.336 A 
ATOM      5  O   UNL     1      -0.721  -6.756   2.483  1.00  0.00    -0.246 OA
ATOM      6  O   UNL     1      -2.721  -7.668   2.882  1.00  0.00    -0.422 OA
ATOM      7  C   UNL     1      -3.790  -7.875   3.646  1.00  0.00     0.145 A 
ATOM      8  C   UNL     1      -3.875  -7.262   4.938  1.00  0.00     0.022 A 
ATOM      9  C   UNL     1      -5.022  -7.479   5.740  1.00  0.00     0.024 A 
ATOM     10  C   UNL     1      -6.032  -8.288   5.232  1.00  0.00     0.022 A 
ATOM     11  C   UNL     1      -7.241  -8.656   5.779  1.00  0.00     0.054 A 
ATOM     12  C   UNL     1      -7.823  -9.461   4.807  1.00  0.00     0.102 A 
ATOM     13  O   UNL     1      -7.031  -9.576   3.757  1.00  0.00    -0.461 OA
ATOM     14  C   UNL     1      -5.949  -8.874   3.999  1.00  0.00     0.140 A 
ATOM     15  C   UNL     1      -4.836  -8.702   3.173  1.00  0.00     0.036 A 
ATOM     16  C   UNL     1      -4.776  -9.331   1.810  1.00  0.00     0.052 C 
ATOM     17  C   UNL     1      -9.153 -10.125   4.923  1.00  0.00     0.087 C 
ENDROOT
TORSDOF 0
ENDMDL
MODEL 4
REMARK VINA RESULT:    -5.370     13.615     15.922
REMARK INTER + INTRA:          -5.370
REMARK INTER:                  -5.370
REMARK INTRA:                   0.000
REMARK UNBOUND:                 0.000
REMARK SMILES Cc1cc2cc3c(C)cc(=O)oc3c(C)c2o1
REMARK SMILES IDX 8 1 7 2 9 3 10 4 11 5 12 6 13 7 6 8 5 9 4 10 3 11 2 12 17 13
REMARK SMILES IDX 16 14 14 15 15 16 1 17
REMARK H PARENT
REMARK Flexibility Score: inf
ROOT
ATOM      1  C   UNL     1      -4.984   5.708   4.502  1.00  0.00     0.045 C 
ATOM      2  C   UNL     1      -3.962   6.811   4.400  1.00  0.00    -0.033 A 
ATOM      3  C   UNL     1      -4.263   7.956   3.650  1.00  0.00     0.098 A 
ATOM      4  C   UNL     1      -3.321   8.981   3.550  1.00  0.00     0.336 A 
ATOM      5  O   UNL     1      -3.585  10.011   2.876  1.00  0.00    -0.246 OA
ATOM      6  O   UNL     1      -2.146   8.880   4.157  1.00  0.00    -0.422 OA
ATOM      7  C   UNL     1      -1.795   7.823   4.885  1.00  0.00     0.145 A 
ATOM      8  C   UNL     1      -2.704   6.726   5.037  1.00  0.00     0.022 A 
ATOM      9  C   UNL     1      -2.319   5.601   5.805  1.00  0.00     0.024 A 
ATOM     10  C   UNL     1      -1.056   5.606   6.386  1.00  0.00     0.022 A 
ATOM     11  C   UNL     1      -0.426   4.659   7.160  1.00  0.00     0.054 A 
ATOM     12  C   UNL     1       0.817   5.217   7.437  1.00  0.00     0.102 A 
ATOM     13  O   UNL     1       0.931   6.408   6.878  1.00  0.00    -0.461 OA
ATOM     14  C   UNL     1      -0.189   6.655   6.241  1.00  0.00     0.140 A 
ATOM     15  C   UNL     1      -0.524   7.793   5.505  1.00  0.00     0.036 A 
ATOM     16  C   UNL     1       0.453   8.923   5.334  1.00  0.00     0.052 C 
ATOM     17  C   UNL     1       1.883   4.579   8.262  1.00  0.00     0.087 C 
ENDROOT
TORSDOF 0
ENDMDL
MODEL 5
REMARK VINA RESULT:    -5.326      2.110      5.797
REMARK INTER + INTRA:          -5.326
REMARK INTER:                  -5.326
REMARK INTRA:                   0.000
REMARK UNBOUND:                 0.000
REMARK SMILES Cc1cc2cc3c(C)cc(=O)oc3c(C)c2o1
REMARK SMILES IDX 8 1 7 2 9 3 10 4 11 5 12 6 13 7 6 8 5 9 4 10 3 11 2 12 17 13
REMARK SMILES IDX 16 14 14 15 15 16 1 17
REMARK H PARENT
REMARK Flexibility Score: inf
ROOT
ATOM      1  C   UNL     1      -7.213   0.748  -1.888  1.00  0.00     0.045 C 
ATOM      2  C   UNL     1      -7.920   1.363  -3.067  1.00  0.00    -0.033 A 
ATOM      3  C   UNL     1      -8.280   2.716  -3.020  1.00  0.00     0.098 A 
ATOM      4  C   UNL     1      -8.937   3.293  -4.108  1.00  0.00     0.336 A 
ATOM      5  O   UNL     1      -9.263   4.509  -4.070  1.00  0.00    -0.246 OA
ATOM      6  O   UNL     1      -9.223   2.573  -5.184  1.00  0.00    -0.422 OA
ATOM      7  C   UNL     1      -8.910   1.284  -5.297  1.00  0.00     0.145 A 
ATOM      8  C   UNL     1      -8.236   0.616  -4.223  1.00  0.00     0.022 A 
ATOM      9  C   UNL     1      -7.916  -0.758  -4.347  1.00  0.00     0.024 A 
ATOM     10  C   UNL     1      -8.276  -1.410  -5.521  1.00  0.00     0.022 A 
ATOM     11  C   UNL     1      -8.103  -2.721  -5.903  1.00  0.00     0.054 A 
ATOM     12  C   UNL     1      -8.673  -2.786  -7.169  1.00  0.00     0.102 A 
ATOM     13  O   UNL     1      -9.150  -1.608  -7.529  1.00  0.00    -0.461 OA
ATOM     14  C   UNL     1      -8.918  -0.771  -6.546  1.00  0.00     0.140 A 
ATOM     15  C   UNL     1      -9.246   0.586  -6.480  1.00  0.00     0.036 A 
ATOM     16  C   UNL     1      -9.976   1.264  -7.604  1.00  0.00     0.052 C 
ATOM     17  C   UNL     1      -8.734  -4.005  -8.025  1.00  0.00     0.087 C 
ENDROOT
TORSDOF 0
ENDMDL
MODEL 6
REMARK VINA RESULT:    -5.138     13.828     15.804
REMARK INTER + INTRA:          -5.138
REMARK INTER:                  -5.138
REMARK INTRA:                   0.000
REMARK UNBOUND:                 0.000
REMARK SMILES Cc1cc2cc3c(C)cc(=O)oc3c(C)c2o1
REMARK SMILES IDX 8 1 7 2 9 3 10 4 11 5 12 6 13 7 6 8 5 9 4 10 3 11 2 12 17 13
REMARK SMILES IDX 16 14 14 15 15 16 1 17
REMARK H PARENT
REMARK Flexibility Score: inf
ROOT
ATOM      1  C   UNL     1      -3.326   7.131   2.945  1.00  0.00     0.045 C 
ATOM      2  C   UNL     1      -3.851   6.813   4.321  1.00  0.00    -0.033 A 
ATOM      3  C   UNL     1      -5.209   7.012   4.599  1.00  0.00     0.098 A 
ATOM      4  C   UNL     1      -5.703   6.722   5.872  1.00  0.00     0.336 A 
ATOM      5  O   UNL     1      -6.923   6.900   6.127  1.00  0.00    -0.246 OA
ATOM      6  O   UNL     1      -4.897   6.260   6.820  1.00  0.00    -0.422 OA
ATOM      7  C   UNL     1      -3.599   6.047   6.625  1.00  0.00     0.145 A 
ATOM      8  C   UNL     1      -3.013   6.322   5.347  1.00  0.00     0.022 A 
ATOM      9  C   UNL     1      -1.627   6.102   5.151  1.00  0.00     0.024 A 
ATOM     10  C   UNL     1      -0.883   5.625   6.224  1.00  0.00     0.022 A 
ATOM     11  C   UNL     1       0.459   5.336   6.321  1.00  0.00     0.054 A 
ATOM     12  C   UNL     1       0.622   4.907   7.633  1.00  0.00     0.102 A 
ATOM     13  O   UNL     1      -0.529   4.931   8.280  1.00  0.00    -0.461 OA
ATOM     14  C   UNL     1      -1.444   5.362   7.444  1.00  0.00     0.140 A 
ATOM     15  C   UNL     1      -2.806   5.549   7.686  1.00  0.00     0.036 A 
ATOM     16  C   UNL     1      -3.399   5.281   9.041  1.00  0.00     0.052 C 
ATOM     17  C   UNL     1       1.910   4.464   8.241  1.00  0.00     0.087 C 
ENDROOT
TORSDOF 0
ENDMDL
MODEL 7
REMARK VINA RESULT:    -5.080     11.161     12.189
REMARK INTER + INTRA:          -5.080
REMARK INTER:                  -5.080
REMARK INTRA:                   0.000
REMARK UNBOUND:                 0.000
REMARK SMILES Cc1cc2cc3c(C)cc(=O)oc3c(C)c2o1
REMARK SMILES IDX 8 1 7 2 9 3 10 4 11 5 12 6 13 7 6 8 5 9 4 10 3 11 2 12 17 13
REMARK SMILES IDX 16 14 14 15 15 16 1 17
REMARK H PARENT
REMARK Flexibility Score: inf
ROOT
ATOM      1  C   UNL     1      -7.044 -10.125   3.741  1.00  0.00     0.045 C 
ATOM      2  C   UNL     1      -5.769  -9.476   3.268  1.00  0.00    -0.033 A 
ATOM      3  C   UNL     1      -5.302  -9.746   1.976  1.00  0.00     0.098 A 
ATOM      4  C   UNL     1      -4.121  -9.150   1.531  1.00  0.00     0.336 A 
ATOM      5  O   UNL     1      -3.696  -9.390   0.370  1.00  0.00    -0.246 OA
ATOM      6  O   UNL     1      -3.438  -8.332   2.321  1.00  0.00    -0.422 OA
ATOM      7  C   UNL     1      -3.823  -8.032   3.558  1.00  0.00     0.145 A 
ATOM      8  C   UNL     1      -5.024  -8.603   4.092  1.00  0.00     0.022 A 
ATOM      9  C   UNL     1      -5.421  -8.286   5.414  1.00  0.00     0.024 A 
ATOM     10  C   UNL     1      -4.617  -7.423   6.150  1.00  0.00     0.022 A 
ATOM     11  C   UNL     1      -4.752  -6.958   7.438  1.00  0.00     0.054 A 
ATOM     12  C   UNL     1      -3.643  -6.141   7.623  1.00  0.00     0.102 A 
ATOM     13  O   UNL     1      -2.897  -6.108   6.534  1.00  0.00    -0.461 OA
ATOM     14  C   UNL     1      -3.471  -6.877   5.638  1.00  0.00     0.140 A 
ATOM     15  C   UNL     1      -3.041  -7.147   4.338  1.00  0.00     0.036 A 
ATOM     16  C   UNL     1      -1.765  -6.560   3.804  1.00  0.00     0.052 C 
ATOM     17  C   UNL     1      -3.329  -5.384   8.869  1.00  0.00     0.087 C 
ENDROOT
TORSDOF 0
ENDMDL
MODEL 8
REMARK VINA RESULT:    -5.007     12.934     15.589
REMARK INTER + INTRA:          -5.007
REMARK INTER:                  -5.007
REMARK INTRA:                   0.000
REMARK UNBOUND:                 0.000
REMARK SMILES Cc1cc2cc3c(C)cc(=O)oc3c(C)c2o1
REMARK SMILES IDX 8 1 7 2 9 3 10 4 11 5 12 6 13 7 6 8 5 9 4 10 3 11 2 12 17 13
REMARK SMILES IDX 16 14 14 15 15 16 1 17
REMARK H PARENT
REMARK Flexibility Score: inf
ROOT
ATOM      1  C   UNL     1      -6.543   8.703   5.600  1.00  0.00     0.045 C 
ATOM      2  C   UNL     1      -5.617   7.525   5.444  1.00  0.00    -0.033 A 
ATOM      3  C   UNL     1      -6.145   6.285   5.062  1.00  0.00     0.098 A 
ATOM      4  C   UNL     1      -5.293   5.189   4.917  1.00  0.00     0.336 A 
ATOM      5  O   UNL     1      -5.763   4.072   4.575  1.00  0.00    -0.246 OA
ATOM      6  O   UNL     1      -3.991   5.311   5.137  1.00  0.00    -0.422 OA
ATOM      7  C   UNL     1      -3.423   6.457   5.501  1.00  0.00     0.145 A 
ATOM      8  C   UNL     1      -4.227   7.630   5.674  1.00  0.00     0.022 A 
ATOM      9  C   UNL     1      -3.615   8.844   6.072  1.00  0.00     0.024 A 
ATOM     10  C   UNL     1      -2.241   8.846   6.283  1.00  0.00     0.022 A 
ATOM     11  C   UNL     1      -1.400   9.862   6.677  1.00  0.00     0.054 A 
ATOM     12  C   UNL     1      -0.145   9.265   6.725  1.00  0.00     0.102 A 
ATOM     13  O   UNL     1      -0.218   7.992   6.384  1.00  0.00    -0.461 OA
ATOM     14  C   UNL     1      -1.474   7.725   6.116  1.00  0.00     0.140 A 
ATOM     15  C   UNL     1      -2.025   6.507   5.714  1.00  0.00     0.036 A 
ATOM     16  C   UNL     1      -1.170   5.280   5.563  1.00  0.00     0.052 C 
ATOM     17  C   UNL     1       1.123   9.957   7.095  1.00  0.00     0.087 C 
ENDROOT
TORSDOF 0
ENDMDL
MODEL 9
REMARK VINA RESULT:    -4.973     11.992     13.135
REMARK INTER + INTRA:          -4.973
REMARK INTER:                  -4.973
REMARK INTRA:                   0.000
REMARK UNBOUND:                 0.000
REMARK SMILES Cc1cc2cc3c(C)cc(=O)oc3c(C)c2o1
REMARK SMILES IDX 8 1 7 2 9 3 10 4 11 5 12 6 13 7 6 8 5 9 4 10 3 11 2 12 17 13
REMARK SMILES IDX 16 14 14 15 15 16 1 17
REMARK H PARENT
REMARK Flexibility Score: inf
ROOT
ATOM      1  C   UNL     1      -1.122  -7.123   3.368  1.00  0.00     0.045 C 
ATOM      2  C   UNL     1      -2.477  -7.753   3.563  1.00  0.00    -0.033 A 
ATOM      3  C   UNL     1      -2.986  -8.603   2.573  1.00  0.00     0.098 A 
ATOM      4  C   UNL     1      -4.241  -9.188   2.745  1.00  0.00     0.336 A 
ATOM      5  O   UNL     1      -4.703  -9.952   1.858  1.00  0.00    -0.246 OA
ATOM      6  O   UNL     1      -4.955  -8.946   3.837  1.00  0.00    -0.422 OA
ATOM      7  C   UNL     1      -4.533  -8.151   4.816  1.00  0.00     0.145 A 
ATOM      8  C   UNL     1      -3.256  -7.509   4.716  1.00  0.00     0.022 A 
ATOM      9  C   UNL     1      -2.819  -6.656   5.758  1.00  0.00     0.024 A 
ATOM     10  C   UNL     1      -3.662  -6.472   6.849  1.00  0.00     0.022 A 
ATOM     11  C   UNL     1      -3.502  -5.704   7.980  1.00  0.00     0.054 A 
ATOM     12  C   UNL     1      -4.672  -5.912   8.701  1.00  0.00     0.102 A 
ATOM     13  O   UNL     1      -5.476  -6.742   8.062  1.00  0.00    -0.461 OA
ATOM     14  C   UNL     1      -4.880  -7.086   6.945  1.00  0.00     0.140 A 
ATOM     15  C   UNL     1      -5.353  -7.946   5.951  1.00  0.00     0.036 A 
ATOM     16  C   UNL     1      -6.706  -8.590   6.060  1.00  0.00     0.052 C 
ATOM     17  C   UNL     1      -4.988  -5.301  10.025  1.00  0.00     0.087 C 
ENDROOT
TORSDOF 0
ENDMDL
