MODEL 1
REMARK VINA RESULT:    -5.021      0.000      0.000
REMARK INTER + INTRA:          -5.021
REMARK INTER:                  -5.021
REMARK INTRA:                   0.000
REMARK UNBOUND:                 0.000
REMARK SMILES CC1=CC=CC(C)(C)[C@H]1C
REMARK SMILES IDX 10 1 9 2 2 3 3 4 4 5 5 6 6 7 7 8 8 9 1 10
REMARK H PARENT
REMARK Flexibility Score: inf
ROOT
ATOM      1  C   UNL     1     110.165 110.884 113.736  1.00  0.00     0.013 C 
ATOM      2  C   UNL     1     111.204 110.963 114.875  1.00  0.00     0.021 C 
ATOM      3  C   UNL     1     112.439 111.780 114.480  1.00  0.00    -0.070 C 
ATOM      4  C   UNL     1     113.263 112.226 115.442  1.00  0.00    -0.001 C 
ATOM      5  C   UNL     1     112.936 112.058 116.866  1.00  0.00    -0.004 C 
ATOM      6  C   UNL     1     111.722 111.657 117.247  1.00  0.00    -0.020 C 
ATOM      7  C   UNL     1     110.600 111.462 116.242  1.00  0.00    -0.011 C 
ATOM      8  C   UNL     1     109.619 110.419 116.824  1.00  0.00     0.016 C 
ATOM      9  C   UNL     1     109.865 112.811 116.084  1.00  0.00     0.016 C 
ATOM     10  C   UNL     1     112.837 111.950 113.034  1.00  0.00     0.040 C 
ENDROOT
TORSDOF 0
ENDMDL
MODEL 2
REMARK VINA RESULT:    -5.009      3.619      4.848
REMARK INTER + INTRA:          -5.009
REMARK INTER:                  -5.009
REMARK INTRA:                   0.000
REMARK UNBOUND:                 0.000
REMARK SMILES CC1=CC=CC(C)(C)[C@H]1C
REMARK SMILES IDX 10 1 9 2 2 3 3 4 4 5 5 6 6 7 7 8 8 9 1 10
REMARK H PARENT
REMARK Flexibility Score: inf
ROOT
ATOM      1  C   UNL     1     110.195 110.823 108.879  1.00  0.00     0.013 C 
ATOM      2  C   UNL     1     111.210 110.945 110.036  1.00  0.00     0.021 C 
ATOM      3  C   UNL     1     112.436 111.780 109.648  1.00  0.00    -0.070 C 
ATOM      4  C   UNL     1     113.233 112.260 110.616  1.00  0.00    -0.001 C 
ATOM      5  C   UNL     1     112.883 112.112 112.037  1.00  0.00    -0.004 C 
ATOM      6  C   UNL     1     111.670 111.694 112.403  1.00  0.00    -0.020 C 
ATOM      7  C   UNL     1     110.571 111.457 111.382  1.00  0.00    -0.011 C 
ATOM      8  C   UNL     1     109.601 110.405 111.966  1.00  0.00     0.016 C 
ATOM      9  C   UNL     1     109.812 112.788 111.185  1.00  0.00     0.016 C 
ATOM     10  C   UNL     1     112.857 111.930 108.207  1.00  0.00     0.040 C 
ENDROOT
TORSDOF 0
ENDMDL
MODEL 3
REMARK VINA RESULT:    -5.001      1.215      3.151
REMARK INTER + INTRA:          -5.001
REMARK INTER:                  -5.001
REMARK INTRA:                   0.000
REMARK UNBOUND:                 0.000
REMARK SMILES CC1=CC=CC(C)(C)[C@H]1C
REMARK SMILES IDX 10 1 9 2 2 3 3 4 4 5 5 6 6 7 7 8 8 9 1 10
REMARK H PARENT
REMARK Flexibility Score: inf
ROOT
ATOM      1  C   UNL     1     112.208 111.252 113.927  1.00  0.00     0.013 C 
ATOM      2  C   UNL     1     111.145 111.245 115.046  1.00  0.00     0.021 C 
ATOM      3  C   UNL     1     109.882 110.475 114.643  1.00  0.00    -0.070 C 
ATOM      4  C   UNL     1     109.020 110.088 115.598  1.00  0.00    -0.001 C 
ATOM      5  C   UNL     1     109.327 110.272 117.024  1.00  0.00    -0.004 C 
ATOM      6  C   UNL     1     110.551 110.627 117.421  1.00  0.00    -0.020 C 
ATOM      7  C   UNL     1     111.700 110.750 116.435  1.00  0.00    -0.011 C 
ATOM      8  C   UNL     1     112.715 111.760 117.015  1.00  0.00     0.016 C 
ATOM      9  C   UNL     1     112.376 109.366 116.321  1.00  0.00     0.016 C 
ATOM     10  C   UNL     1     109.505 110.291 113.194  1.00  0.00     0.040 C 
ENDROOT
TORSDOF 0
ENDMDL
MODEL 4
REMARK VINA RESULT:    -4.973      1.581      4.206
REMARK INTER + INTRA:          -4.973
REMARK INTER:                  -4.973
REMARK INTRA:                   0.000
REMARK UNBOUND:                 0.000
REMARK SMILES CC1=CC=CC(C)(C)[C@H]1C
REMARK SMILES IDX 10 1 9 2 2 3 3 4 4 5 5 6 6 7 7 8 8 9 1 10
REMARK H PARENT
REMARK Flexibility Score: inf
ROOT
ATOM      1  C   UNL     1     112.750 111.470 115.248  1.00  0.00     0.013 C 
ATOM      2  C   UNL     1     111.598 111.085 114.295  1.00  0.00     0.021 C 
ATOM      3  C   UNL     1     110.455 112.106 114.322  1.00  0.00    -0.070 C 
ATOM      4  C   UNL     1     109.553 112.104 113.326  1.00  0.00    -0.001 C 
ATOM      5  C   UNL     1     109.715 111.234 112.151  1.00  0.00    -0.004 C 
ATOM      6  C   UNL     1     110.860 110.584 111.933  1.00  0.00    -0.020 C 
ATOM      7  C   UNL     1     112.074 110.795 112.821  1.00  0.00    -0.011 C 
ATOM      8  C   UNL     1     112.933 109.512 112.761  1.00  0.00     0.016 C 
ATOM      9  C   UNL     1     112.886 111.973 112.240  1.00  0.00     0.016 C 
ATOM     10  C   UNL     1     110.226 112.995 115.519  1.00  0.00     0.040 C 
ENDROOT
TORSDOF 0
ENDMDL
MODEL 5
REMARK VINA RESULT:    -4.971      3.477      5.592
REMARK INTER + INTRA:          -4.971
REMARK INTER:                  -4.971
REMARK INTRA:                   0.000
REMARK UNBOUND:                 0.000
REMARK SMILES CC1=CC=CC(C)(C)[C@H]1C
REMARK SMILES IDX 10 1 9 2 2 3 3 4 4 5 5 6 6 7 7 8 8 9 1 10
REMARK H PARENT
REMARK Flexibility Score: inf
ROOT
ATOM      1  C   UNL     1     112.224 111.229 109.067  1.00  0.00     0.013 C 
ATOM      2  C   UNL     1     111.202 111.226 110.224  1.00  0.00     0.021 C 
ATOM      3  C   UNL     1     109.932 110.441 109.877  1.00  0.00    -0.070 C 
ATOM      4  C   UNL     1     109.109 110.059 110.867  1.00  0.00    -0.001 C 
ATOM      5  C   UNL     1     109.465 110.262 112.278  1.00  0.00    -0.004 C 
ATOM      6  C   UNL     1     110.700 110.632 112.627  1.00  0.00    -0.020 C 
ATOM      7  C   UNL     1     111.811 110.752 111.598  1.00  0.00    -0.011 C 
ATOM      8  C   UNL     1     112.838 111.778 112.129  1.00  0.00     0.016 C 
ATOM      9  C   UNL     1     112.494 109.373 111.476  1.00  0.00     0.016 C 
ATOM     10  C   UNL     1     109.504 110.237 108.444  1.00  0.00     0.040 C 
ENDROOT
TORSDOF 0
ENDMDL
MODEL 6
REMARK VINA RESULT:    -4.967      4.932      6.830
REMARK INTER + INTRA:          -4.967
REMARK INTER:                  -4.967
REMARK INTRA:                   0.000
REMARK UNBOUND:                 0.000
REMARK SMILES CC1=CC=CC(C)(C)[C@H]1C
REMARK SMILES IDX 10 1 9 2 2 3 3 4 4 5 5 6 6 7 7 8 8 9 1 10
REMARK H PARENT
REMARK Flexibility Score: inf
ROOT
ATOM      1  C   UNL     1     109.874 111.798 110.698  1.00  0.00     0.013 C 
ATOM      2  C   UNL     1     110.831 111.239 109.622  1.00  0.00     0.021 C 
ATOM      3  C   UNL     1     110.658 111.938 108.270  1.00  0.00    -0.070 C 
ATOM      4  C   UNL     1     111.621 111.814 107.342  1.00  0.00    -0.001 C 
ATOM      5  C   UNL     1     112.889 111.135 107.643  1.00  0.00    -0.004 C 
ATOM      6  C   UNL     1     113.212 110.812 108.898  1.00  0.00    -0.020 C 
ATOM      7  C   UNL     1     112.341 111.225 110.072  1.00  0.00    -0.011 C 
ATOM      8  C   UNL     1     112.568 110.206 111.211  1.00  0.00     0.016 C 
ATOM      9  C   UNL     1     112.811 112.619 110.542  1.00  0.00     0.016 C 
ATOM     10  C   UNL     1     109.362 112.618 107.899  1.00  0.00     0.040 C 
ENDROOT
TORSDOF 0
ENDMDL
MODEL 7
REMARK VINA RESULT:    -4.966      2.006      3.495
REMARK INTER + INTRA:          -4.966
REMARK INTER:                  -4.966
REMARK INTRA:                   0.000
REMARK UNBOUND:                 0.000
REMARK SMILES CC1=CC=CC(C)(C)[C@H]1C
REMARK SMILES IDX 10 1 9 2 2 3 3 4 4 5 5 6 6 7 7 8 8 9 1 10
REMARK H PARENT
REMARK Flexibility Score: inf
ROOT
ATOM      1  C   UNL     1     109.541 110.542 115.440  1.00  0.00     0.013 C 
ATOM      2  C   UNL     1     110.714 111.073 114.589  1.00  0.00     0.021 C 
ATOM      3  C   UNL     1     111.921 110.128 114.608  1.00  0.00    -0.070 C 
ATOM      4  C   UNL     1     112.874 110.265 113.671  1.00  0.00    -0.001 C 
ATOM      5  C   UNL     1     112.719 111.213 112.557  1.00  0.00    -0.004 C 
ATOM      6  C   UNL     1     111.546 111.805 112.320  1.00  0.00    -0.020 C 
ATOM      7  C   UNL     1     110.302 111.447 113.115  1.00  0.00    -0.011 C 
ATOM      8  C   UNL     1     109.363 112.675 113.100  1.00  0.00     0.016 C 
ATOM      9  C   UNL     1     109.604 110.270 112.399  1.00  0.00     0.016 C 
ATOM     10  C   UNL     1     112.144 109.163 115.747  1.00  0.00     0.040 C 
ENDROOT
TORSDOF 0
ENDMDL
MODEL 8
REMARK VINA RESULT:    -4.959      1.339      3.072
REMARK INTER + INTRA:          -4.959
REMARK INTER:                  -4.959
REMARK INTRA:                   0.000
REMARK UNBOUND:                 0.000
REMARK SMILES CC1=CC=CC(C)(C)[C@H]1C
REMARK SMILES IDX 10 1 9 2 2 3 3 4 4 5 5 6 6 7 7 8 8 9 1 10
REMARK H PARENT
REMARK Flexibility Score: inf
ROOT
ATOM      1  C   UNL     1     109.871 111.789 115.549  1.00  0.00     0.013 C 
ATOM      2  C   UNL     1     110.815 111.237 114.459  1.00  0.00     0.021 C 
ATOM      3  C   UNL     1     110.659 111.975 113.125  1.00  0.00    -0.070 C 
ATOM      4  C   UNL     1     111.619 111.854 112.194  1.00  0.00    -0.001 C 
ATOM      5  C   UNL     1     112.872 111.138 112.478  1.00  0.00    -0.004 C 
ATOM      6  C   UNL     1     113.186 110.775 113.723  1.00  0.00    -0.020 C 
ATOM      7  C   UNL     1     112.324 111.177 114.908  1.00  0.00    -0.011 C 
ATOM      8  C   UNL     1     112.528 110.123 116.020  1.00  0.00     0.016 C 
ATOM      9  C   UNL     1     112.825 112.547 115.414  1.00  0.00     0.016 C 
ATOM     10  C   UNL     1     109.379 112.693 112.772  1.00  0.00     0.040 C 
ENDROOT
TORSDOF 0
ENDMDL
MODEL 9
REMARK VINA RESULT:    -4.952      5.670      7.566
REMARK INTER + INTRA:          -4.952
REMARK INTER:                  -4.952
REMARK INTRA:                   0.000
REMARK UNBOUND:                 0.000
REMARK SMILES CC1=CC=CC(C)(C)[C@H]1C
REMARK SMILES IDX 10 1 9 2 2 3 3 4 4 5 5 6 6 7 7 8 8 9 1 10
REMARK H PARENT
REMARK Flexibility Score: inf
ROOT
ATOM      1  C   UNL     1     109.444 110.575 110.251  1.00  0.00     0.013 C 
ATOM      2  C   UNL     1     110.578 111.160 109.381  1.00  0.00     0.021 C 
ATOM      3  C   UNL     1     111.838 110.287 109.404  1.00  0.00    -0.070 C 
ATOM      4  C   UNL     1     112.773 110.465 108.457  1.00  0.00    -0.001 C 
ATOM      5  C   UNL     1     112.553 111.383 107.329  1.00  0.00    -0.004 C 
ATOM      6  C   UNL     1     111.346 111.902 107.093  1.00  0.00    -0.020 C 
ATOM      7  C   UNL     1     110.132 111.485 107.906  1.00  0.00    -0.011 C 
ATOM      8  C   UNL     1     109.122 112.655 107.880  1.00  0.00     0.016 C 
ATOM      9  C   UNL     1     109.498 110.258 107.216  1.00  0.00     0.016 C 
ATOM     10  C   UNL     1     112.126 109.356 110.556  1.00  0.00     0.040 C 
ENDROOT
TORSDOF 0
ENDMDL
