MODEL 1
REMARK VINA RESULT:   144.094      0.000      0.000
REMARK INTER + INTRA:         220.201
REMARK INTER:                 215.696
REMARK INTRA:                   4.505
REMARK UNBOUND:                 4.505
REMARK SMILES C[C@H]1O[C@@H](O[C@H]2CC[C@]3(C)[C@@H](CC[C@@]4(C)[C@@H]3C=C[C@@]35OC[C@]6(CCC(C)(C)C[C@H]63)[C@@H](O)C[C@]45C)[C@@]2(C)CO)[C@@H](O)[C@@H](O[C@H]2O[C@@H](CO)[C@H](O)[C@H](O)[C@H]2O)[C@H]1O
REMARK SMILES IDX 1 1 2 2 54 3 41 4 39 5 4 6 3 7 55 8 42 10 43 11 52 12 44 13
REMARK SMILES IDX 50 14 45 15 48 16 53 17 51 19 46 21 47 22 49 24 5 26 6 27
REMARK SMILES IDX 7 28 35 29 8 30 11 31 36 32 9 33 12 34 10 35 16 36 13 37
REMARK SMILES IDX 14 38 17 39 15 40 33 41 18 42 19 43 32 44 34 45 29 46 20 47
REMARK SMILES IDX 30 48 22 49 28 50 21 51 23 52 25 53 24 54 26 55 27 56 37 57
REMARK SMILES IDX 38 58 31 60 40 62
REMARK H PARENT 55 9 53 18 51 20 47 23 49 25 38 59 31 61 40 63
REMARK Flexibility Score: inf
ROOT
ATOM      1  C   UNL     1      19.115  24.285   4.125  1.00  0.00     0.041 C 
ATOM      2  C   UNL     1      18.261  23.372   3.355  1.00  0.00     0.150 C 
ATOM      3  C   UNL     1      16.711  23.835   3.399  1.00  0.00     0.175 C 
ATOM      4  C   UNL     1      15.902  22.651   3.821  1.00  0.00     0.186 C 
ATOM      5  C   UNL     1      16.443  21.439   3.008  1.00  0.00     0.202 C 
ATOM      6  C   UNL     1      17.662  20.982   3.733  1.00  0.00     0.282 C 
ATOM      7  O   UNL     1      18.673  21.995   3.642  1.00  0.00    -0.344 OA
ENDROOT
BRANCH   3   8
ATOM      8  O   UNL     1      16.276  24.971   4.127  1.00  0.00    -0.388 OA
ATOM      9  H   UNL     1      16.947  25.393   4.710  1.00  0.00     0.211 HD
ENDBRANCH   3   8
BRANCH   4  10
ATOM     10  O   UNL     1      15.548  22.658   5.256  1.00  0.00    -0.341 OA
BRANCH  10  11
ATOM     11  C   UNL     1      16.090  22.380   6.664  1.00  0.00     0.282 C 
ATOM     12  C   UNL     1      15.435  22.485   8.125  1.00  0.00     0.202 C 
ATOM     13  O   UNL     1      17.422  22.718   6.703  1.00  0.00    -0.341 OA
ATOM     14  C   UNL     1      16.394  22.075   9.297  1.00  0.00     0.179 C 
ATOM     15  C   UNL     1      18.106  23.316   7.772  1.00  0.00     0.178 C 
ATOM     16  C   UNL     1      17.936  22.573   9.104  1.00  0.00     0.177 C 
BRANCH  12  17
ATOM     17  O   UNL     1      15.073  23.795   8.338  1.00  0.00    -0.385 OA
ATOM     18  H   UNL     1      15.676  24.214   9.082  1.00  0.00     0.211 HD
ENDBRANCH  12  17
BRANCH  14  19
ATOM     19  O   UNL     1      16.255  20.705   9.464  1.00  0.00    -0.387 OA
ATOM     20  H   UNL     1      16.123  20.276   8.554  1.00  0.00     0.211 HD
ENDBRANCH  14  19
BRANCH  15  21
ATOM     21  C   UNL     1      17.855  24.825   7.918  1.00  0.00     0.191 C 
BRANCH  21  22
ATOM     22  O   UNL     1      16.527  25.096   8.368  1.00  0.00    -0.394 OA
ATOM     23  H   UNL     1      16.413  24.633   9.257  1.00  0.00     0.210 HD
ENDBRANCH  21  22
ENDBRANCH  15  21
BRANCH  16  24
ATOM     24  O   UNL     1      18.969  21.595   9.089  1.00  0.00    -0.387 OA
ATOM     25  H   UNL     1      19.908  21.963   9.354  1.00  0.00     0.211 HD
ENDBRANCH  16  24
ENDBRANCH  10  11
ENDBRANCH   4  10
BRANCH   6  26
ATOM     26  O   UNL     1      17.361  20.703   5.138  1.00  0.00    -0.346 OA
BRANCH  26  27
ATOM     27  C   UNL     1      17.226  19.318   5.614  1.00  0.00     0.130 C 
ATOM     28  C   UNL     1      17.644  18.342   4.520  1.00  0.00     0.033 C 
ATOM     29  C   UNL     1      17.090  18.489   7.221  1.00  0.00     0.020 C 
ATOM     30  C   UNL     1      16.551  17.246   4.490  1.00  0.00     0.010 C 
ATOM     31  C   UNL     1      16.566  16.829   7.037  1.00  0.00     0.006 C 
ATOM     32  C   UNL     1      15.798  18.990   7.877  1.00  0.00     0.017 C 
ATOM     33  C   UNL     1      16.414  16.176   5.627  1.00  0.00    -0.022 C 
ATOM     34  C   UNL     1      17.523  16.161   7.861  1.00  0.00     0.005 C 
ATOM     35  C   UNL     1      14.875  15.812   5.447  1.00  0.00     0.012 C 
ATOM     36  C   UNL     1      17.314  14.849   5.459  1.00  0.00     0.024 C 
ATOM     37  C   UNL     1      18.961  16.146   6.927  1.00  0.00     0.008 C 
ATOM     38  C   UNL     1      18.848  14.904   5.978  1.00  0.00    -0.017 C 
ATOM     39  C   UNL     1      17.115  14.309   4.065  1.00  0.00    -0.024 C 
ATOM     40  C   UNL     1      19.024  13.738   7.057  1.00  0.00     0.013 C 
ATOM     41  C   UNL     1      19.924  14.717   4.677  1.00  0.00     0.009 C 
ATOM     42  C   UNL     1      18.082  13.761   3.344  1.00  0.00     0.005 C 
ATOM     43  C   UNL     1      19.424  13.418   3.889  1.00  0.00     0.096 C 
ATOM     44  C   UNL     1      21.459  14.537   5.075  1.00  0.00     0.043 C 
ATOM     45  C   UNL     1      19.897  15.934   3.668  1.00  0.00     0.015 C 
ATOM     46  C   UNL     1      20.366  12.764   2.889  1.00  0.00     0.037 C 
ATOM     47  O   UNL     1      19.245  12.418   4.807  1.00  0.00    -0.369 OA
ATOM     48  C   UNL     1      22.300  13.436   4.260  1.00  0.00     0.124 C 
ATOM     49  C   UNL     1      21.439  12.180   3.864  1.00  0.00     0.026 C 
ATOM     50  C   UNL     1      19.647  11.613   1.999  1.00  0.00     0.014 C 
ATOM     51  C   UNL     1      20.489  11.821   5.076  1.00  0.00     0.171 C 
ATOM     52  C   UNL     1      22.048  10.973   3.130  1.00  0.00     0.013 C 
ATOM     53  C   UNL     1      20.629  10.941   0.946  1.00  0.00    -0.035 C 
ATOM     54  C   UNL     1      22.066  10.779   1.584  1.00  0.00     0.007 C 
ATOM     55  C   UNL     1      20.466  11.770  -0.391  1.00  0.00     0.011 C 
ATOM     56  C   UNL     1      20.052   9.487   0.672  1.00  0.00     0.011 C 
BRANCH  29  57
ATOM     57  C   UNL     1      18.472  18.544   8.485  1.00  0.00     0.165 C 
BRANCH  57  58
ATOM     58  O   UNL     1      18.605  19.689   9.272  1.00  0.00    -0.396 OA
ATOM     59  H   UNL     1      19.322  20.331   8.769  1.00  0.00     0.210 HD
ENDBRANCH  57  58
ENDBRANCH  29  57
BRANCH  48  60
ATOM     60  O   UNL     1      22.910  14.042   3.138  1.00  0.00    -0.392 OA
ATOM     61  H   UNL     1      23.421  13.315   2.698  1.00  0.00     0.210 HD
ENDBRANCH  48  60
ENDBRANCH  26  27
ENDBRANCH   6  26
BRANCH   5  62
ATOM     62  O   UNL     1      15.408  20.553   2.643  1.00  0.00    -0.385 OA
ATOM     63  H   UNL     1      14.582  21.105   2.371  1.00  0.00     0.211 HD
ENDBRANCH   5  62
TORSDOF 14
ENDMDL
