MODEL 1
REMARK VINA RESULT:    -5.561      0.000      0.000
REMARK INTER + INTRA:          -5.561
REMARK INTER:                  -5.561
REMARK INTRA:                   0.000
REMARK UNBOUND:                 0.000
REMARK SMILES CC1=CC(=O)[C@@H]2C[C@H]1C2(C)C
REMARK SMILES IDX 1 1 2 2 3 3 4 4 5 5 6 6 7 7 8 8 9 9 10 10 11 11
REMARK H PARENT
REMARK Flexibility Score: inf
ROOT
ATOM      1  C   UNL     1      11.676 -28.389  23.609  1.00  0.00     0.040 C 
ATOM      2  C   UNL     1      12.464 -29.503  22.995  1.00  0.00    -0.066 C 
ATOM      3  C   UNL     1      12.107 -30.081  21.813  1.00  0.00     0.047 C 
ATOM      4  C   UNL     1      12.995 -31.185  21.322  1.00  0.00     0.159 C 
ATOM      5  O   UNL     1      12.797 -31.769  20.224  1.00  0.00    -0.295 OA
ATOM      6  C   UNL     1      14.156 -31.552  22.247  1.00  0.00     0.067 C 
ATOM      7  C   UNL     1      13.514 -31.622  23.649  1.00  0.00     0.021 C 
ATOM      8  C   UNL     1      13.698 -30.088  23.713  1.00  0.00     0.022 C 
ATOM      9  C   UNL     1      14.865 -30.242  22.696  1.00  0.00    -0.019 C 
ATOM     10  C   UNL     1      15.075 -29.118  21.642  1.00  0.00     0.012 C 
ATOM     11  C   UNL     1      16.222 -30.514  23.391  1.00  0.00     0.012 C 
ENDROOT
TORSDOF 0
ENDMDL
MODEL 2
REMARK VINA RESULT:    -5.312      1.689      3.516
REMARK INTER + INTRA:          -5.312
REMARK INTER:                  -5.312
REMARK INTRA:                   0.000
REMARK UNBOUND:                 0.000
REMARK SMILES CC1=CC(=O)[C@@H]2C[C@H]1C2(C)C
REMARK SMILES IDX 1 1 2 2 3 3 4 4 5 5 6 6 7 7 8 8 9 9 10 10 11 11
REMARK H PARENT
REMARK Flexibility Score: inf
ROOT
ATOM      1  C   UNL     1      14.790 -33.227  24.103  1.00  0.00     0.040 C 
ATOM      2  C   UNL     1      14.559 -31.923  23.406  1.00  0.00    -0.066 C 
ATOM      3  C   UNL     1      15.581 -31.186  22.885  1.00  0.00     0.047 C 
ATOM      4  C   UNL     1      15.195 -29.902  22.214  1.00  0.00     0.159 C 
ATOM      5  O   UNL     1      16.041 -29.155  21.656  1.00  0.00    -0.295 OA
ATOM      6  C   UNL     1      13.705 -29.565  22.255  1.00  0.00     0.067 C 
ATOM      7  C   UNL     1      13.294 -29.844  23.717  1.00  0.00     0.021 C 
ATOM      8  C   UNL     1      13.141 -31.325  23.298  1.00  0.00     0.022 C 
ATOM      9  C   UNL     1      12.898 -30.830  21.843  1.00  0.00    -0.019 C 
ATOM     10  C   UNL     1      13.435 -31.699  20.671  1.00  0.00     0.012 C 
ATOM     11  C   UNL     1      11.406 -30.515  21.569  1.00  0.00     0.012 C 
ENDROOT
TORSDOF 0
ENDMDL
MODEL 3
REMARK VINA RESULT:    -5.146      1.670      2.985
REMARK INTER + INTRA:          -5.146
REMARK INTER:                  -5.146
REMARK INTRA:                   0.000
REMARK UNBOUND:                 0.000
REMARK SMILES CC1=CC(=O)[C@@H]2C[C@H]1C2(C)C
REMARK SMILES IDX 1 1 2 2 3 3 4 4 5 5 6 6 7 7 8 8 9 9 10 10 11 11
REMARK H PARENT
REMARK Flexibility Score: inf
ROOT
ATOM      1  C   UNL     1      12.778 -31.724  20.121  1.00  0.00     0.040 C 
ATOM      2  C   UNL     1      13.195 -30.868  21.275  1.00  0.00    -0.066 C 
ATOM      3  C   UNL     1      12.294 -30.182  22.035  1.00  0.00     0.047 C 
ATOM      4  C   UNL     1      12.861 -29.368  23.158  1.00  0.00     0.159 C 
ATOM      5  O   UNL     1      12.130 -28.725  23.957  1.00  0.00    -0.295 OA
ATOM      6  C   UNL     1      14.386 -29.374  23.267  1.00  0.00     0.067 C 
ATOM      7  C   UNL     1      14.868 -29.158  21.816  1.00  0.00     0.021 C 
ATOM      8  C   UNL     1      14.686 -30.681  21.622  1.00  0.00     0.022 C 
ATOM      9  C   UNL     1      14.885 -30.843  23.156  1.00  0.00    -0.019 C 
ATOM     10  C   UNL     1      14.080 -31.953  23.889  1.00  0.00     0.012 C 
ATOM     11  C   UNL     1      16.378 -30.989  23.546  1.00  0.00     0.012 C 
ENDROOT
TORSDOF 0
ENDMDL
MODEL 4
REMARK VINA RESULT:    -5.058      1.678      3.411
REMARK INTER + INTRA:          -5.058
REMARK INTER:                  -5.058
REMARK INTRA:                   0.000
REMARK UNBOUND:                 0.000
REMARK SMILES CC1=CC(=O)[C@@H]2C[C@H]1C2(C)C
REMARK SMILES IDX 1 1 2 2 3 3 4 4 5 5 6 6 7 7 8 8 9 9 10 10 11 11
REMARK H PARENT
REMARK Flexibility Score: inf
ROOT
ATOM      1  C   UNL     1      16.346 -29.374  21.912  1.00  0.00     0.040 C 
ATOM      2  C   UNL     1      15.163 -30.195  22.319  1.00  0.00    -0.066 C 
ATOM      3  C   UNL     1      15.239 -31.151  23.288  1.00  0.00     0.047 C 
ATOM      4  C   UNL     1      13.971 -31.891  23.588  1.00  0.00     0.159 C 
ATOM      5  O   UNL     1      13.901 -32.766  24.491  1.00  0.00    -0.295 OA
ATOM      6  C   UNL     1      12.769 -31.508  22.724  1.00  0.00     0.067 C 
ATOM      7  C   UNL     1      13.336 -31.465  21.288  1.00  0.00     0.021 C 
ATOM      8  C   UNL     1      13.804 -30.027  21.609  1.00  0.00     0.022 C 
ATOM      9  C   UNL     1      12.670 -29.956  22.672  1.00  0.00    -0.019 C 
ATOM     10  C   UNL     1      12.936 -29.155  23.978  1.00  0.00     0.012 C 
ATOM     11  C   UNL     1      11.327 -29.471  22.071  1.00  0.00     0.012 C 
ENDROOT
TORSDOF 0
ENDMDL
MODEL 5
REMARK VINA RESULT:    -5.001      8.890     10.575
REMARK INTER + INTRA:          -5.001
REMARK INTER:                  -5.001
REMARK INTRA:                   0.000
REMARK UNBOUND:                 0.000
REMARK SMILES CC1=CC(=O)[C@@H]2C[C@H]1C2(C)C
REMARK SMILES IDX 1 1 2 2 3 3 4 4 5 5 6 6 7 7 8 8 9 9 10 10 11 11
REMARK H PARENT
REMARK Flexibility Score: inf
ROOT
ATOM      1  C   UNL     1      23.416 -27.639  22.621  1.00  0.00     0.040 C 
ATOM      2  C   UNL     1      22.805 -26.769  21.569  1.00  0.00    -0.066 C 
ATOM      3  C   UNL     1      21.458 -26.711  21.367  1.00  0.00     0.047 C 
ATOM      4  C   UNL     1      20.992 -25.792  20.277  1.00  0.00     0.159 C 
ATOM      5  O   UNL     1      19.771 -25.618  20.021  1.00  0.00    -0.295 OA
ATOM      6  C   UNL     1      22.101 -25.083  19.501  1.00  0.00     0.067 C 
ATOM      7  C   UNL     1      23.128 -26.198  19.206  1.00  0.00     0.021 C 
ATOM      8  C   UNL     1      23.690 -25.934  20.622  1.00  0.00     0.022 C 
ATOM      9  C   UNL     1      23.118 -24.490  20.518  1.00  0.00    -0.019 C 
ATOM     10  C   UNL     1      22.567 -23.823  21.809  1.00  0.00     0.012 C 
ATOM     11  C   UNL     1      24.114 -23.508  19.852  1.00  0.00     0.012 C 
ENDROOT
TORSDOF 0
ENDMDL
MODEL 6
REMARK VINA RESULT:    -4.985      1.147      3.432
REMARK INTER + INTRA:          -4.985
REMARK INTER:                  -4.985
REMARK INTRA:                   0.000
REMARK UNBOUND:                 0.000
REMARK SMILES CC1=CC(=O)[C@@H]2C[C@H]1C2(C)C
REMARK SMILES IDX 1 1 2 2 3 3 4 4 5 5 6 6 7 7 8 8 9 9 10 10 11 11
REMARK H PARENT
REMARK Flexibility Score: inf
ROOT
ATOM      1  C   UNL     1      17.477 -31.231  23.770  1.00  0.00     0.040 C 
ATOM      2  C   UNL     1      16.225 -31.240  22.951  1.00  0.00    -0.066 C 
ATOM      3  C   UNL     1      15.925 -32.255  22.093  1.00  0.00     0.047 C 
ATOM      4  C   UNL     1      14.635 -32.127  21.341  1.00  0.00     0.159 C 
ATOM      5  O   UNL     1      14.225 -33.018  20.551  1.00  0.00    -0.295 OA
ATOM      6  C   UNL     1      13.852 -30.839  21.600  1.00  0.00     0.067 C 
ATOM      7  C   UNL     1      14.921 -29.727  21.528  1.00  0.00     0.021 C 
ATOM      8  C   UNL     1      15.237 -30.056  23.005  1.00  0.00     0.022 C 
ATOM      9  C   UNL     1      13.785 -30.600  23.136  1.00  0.00    -0.019 C 
ATOM     10  C   UNL     1      13.539 -31.823  24.063  1.00  0.00     0.012 C 
ATOM     11  C   UNL     1      12.772 -29.491  23.517  1.00  0.00     0.012 C 
ENDROOT
TORSDOF 0
ENDMDL
MODEL 7
REMARK VINA RESULT:    -4.914      4.030      5.413
REMARK INTER + INTRA:          -4.914
REMARK INTER:                  -4.914
REMARK INTRA:                   0.000
REMARK UNBOUND:                 0.000
REMARK SMILES CC1=CC(=O)[C@@H]2C[C@H]1C2(C)C
REMARK SMILES IDX 1 1 2 2 3 3 4 4 5 5 6 6 7 7 8 8 9 9 10 10 11 11
REMARK H PARENT
REMARK Flexibility Score: inf
ROOT
ATOM      1  C   UNL     1      17.250 -34.662  23.540  1.00  0.00     0.040 C 
ATOM      2  C   UNL     1      16.590 -34.365  22.230  1.00  0.00    -0.066 C 
ATOM      3  C   UNL     1      15.425 -33.663  22.145  1.00  0.00     0.047 C 
ATOM      4  C   UNL     1      14.885 -33.442  20.765  1.00  0.00     0.159 C 
ATOM      5  O   UNL     1      13.840 -32.772  20.551  1.00  0.00    -0.295 OA
ATOM      6  C   UNL     1      15.690 -34.085  19.636  1.00  0.00     0.067 C 
ATOM      7  C   UNL     1      15.984 -35.512  20.148  1.00  0.00     0.021 C 
ATOM      8  C   UNL     1      17.182 -34.897  20.909  1.00  0.00     0.022 C 
ATOM      9  C   UNL     1      17.195 -33.756  19.851  1.00  0.00    -0.019 C 
ATOM     10  C   UNL     1      17.578 -32.324  20.319  1.00  0.00     0.012 C 
ATOM     11  C   UNL     1      18.059 -34.109  18.614  1.00  0.00     0.012 C 
ENDROOT
TORSDOF 0
ENDMDL
MODEL 8
REMARK VINA RESULT:    -4.893      8.590     10.525
REMARK INTER + INTRA:          -4.893
REMARK INTER:                  -4.893
REMARK INTRA:                   0.000
REMARK UNBOUND:                 0.000
REMARK SMILES CC1=CC(=O)[C@@H]2C[C@H]1C2(C)C
REMARK SMILES IDX 1 1 2 2 3 3 4 4 5 5 6 6 7 7 8 8 9 9 10 10 11 11
REMARK H PARENT
REMARK Flexibility Score: inf
ROOT
ATOM      1  C   UNL     1      23.618 -24.320  18.749  1.00  0.00     0.040 C 
ATOM      2  C   UNL     1      23.098 -24.929  20.013  1.00  0.00    -0.066 C 
ATOM      3  C   UNL     1      22.889 -24.194  21.142  1.00  0.00     0.047 C 
ATOM      4  C   UNL     1      22.364 -24.942  22.330  1.00  0.00     0.159 C 
ATOM      5  O   UNL     1      22.089 -24.369  23.417  1.00  0.00    -0.295 OA
ATOM      6  C   UNL     1      22.186 -26.447  22.129  1.00  0.00     0.067 C 
ATOM      7  C   UNL     1      23.489 -26.892  21.431  1.00  0.00     0.021 C 
ATOM      8  C   UNL     1      22.829 -26.445  20.107  1.00  0.00     0.022 C 
ATOM      9  C   UNL     1      21.447 -26.684  20.781  1.00  0.00    -0.019 C 
ATOM     10  C   UNL     1      20.272 -25.736  20.407  1.00  0.00     0.012 C 
ATOM     11  C   UNL     1      20.959 -28.146  20.625  1.00  0.00     0.012 C 
ENDROOT
TORSDOF 0
ENDMDL
MODEL 9
REMARK VINA RESULT:    -4.824      8.172      9.979
REMARK INTER + INTRA:          -4.824
REMARK INTER:                  -4.824
REMARK INTRA:                   0.000
REMARK UNBOUND:                 0.000
REMARK SMILES CC1=CC(=O)[C@@H]2C[C@H]1C2(C)C
REMARK SMILES IDX 1 1 2 2 3 3 4 4 5 5 6 6 7 7 8 8 9 9 10 10 11 11
REMARK H PARENT
REMARK Flexibility Score: inf
ROOT
ATOM      1  C   UNL     1      19.443 -27.387  20.227  1.00  0.00     0.040 C 
ATOM      2  C   UNL     1      20.693 -26.813  20.816  1.00  0.00    -0.066 C 
ATOM      3  C   UNL     1      21.383 -27.439  21.812  1.00  0.00     0.047 C 
ATOM      4  C   UNL     1      22.617 -26.744  22.300  1.00  0.00     0.159 C 
ATOM      5  O   UNL     1      23.363 -27.241  23.185  1.00  0.00    -0.295 OA
ATOM      6  C   UNL     1      22.907 -25.391  21.649  1.00  0.00     0.067 C 
ATOM      7  C   UNL     1      21.542 -24.670  21.654  1.00  0.00     0.021 C 
ATOM      8  C   UNL     1      21.228 -25.442  20.353  1.00  0.00     0.022 C 
ATOM      9  C   UNL     1      22.761 -25.541  20.108  1.00  0.00    -0.019 C 
ATOM     10  C   UNL     1      23.317 -26.828  19.435  1.00  0.00     0.012 C 
ATOM     11  C   UNL     1      23.317 -24.315  19.341  1.00  0.00     0.012 C 
ENDROOT
TORSDOF 0
ENDMDL
