MODEL 1
REMARK VINA RESULT:    -4.676      0.000      0.000
REMARK INTER + INTRA:          -5.807
REMARK INTER:                  -5.633
REMARK INTRA:                  -0.174
REMARK UNBOUND:                -0.174
REMARK SMILES [NH3+][C@@H](Cc1cnc[nH]1)C(=O)[O-]
REMARK SMILES IDX 3 1 2 2 1 3 9 7 10 8 11 9 4 10 5 11 8 12 6 13 7 14
REMARK H PARENT 1 4 1 5 1 6 8 15
REMARK Flexibility Score: inf
ROOT
ATOM      1  C   UNL     1     -13.509 -28.267 -12.812  1.00  0.00     0.127 C 
ENDROOT
BRANCH   1   2
ATOM      2  C   UNL     1     -14.263 -27.231 -13.670  1.00  0.00     0.233 C 
BRANCH   2   3
ATOM      3  N   UNL     1     -13.569 -27.019 -14.947  1.00  0.00    -0.350 N 
ATOM      4  H   UNL     1     -12.964 -27.840 -15.181  1.00  0.00     0.345 HD
ATOM      5  H   UNL     1     -12.977 -26.159 -14.891  1.00  0.00     0.345 HD
ATOM      6  H   UNL     1     -14.270 -26.883 -15.712  1.00  0.00     0.345 HD
ENDBRANCH   2   3
BRANCH   2   7
ATOM      7  C   UNL     1     -14.411 -25.923 -12.935  1.00  0.00     0.099 C 
ATOM      8  O   UNL     1     -14.226 -25.864 -11.691  1.00  0.00    -0.544 OA
ATOM      9  O   UNL     1     -14.776 -24.776 -13.629  1.00  0.00    -0.544 OA
ENDBRANCH   2   7
ENDBRANCH   1   2
BRANCH   1  10
ATOM     10  C   UNL     1     -14.405 -29.398 -12.400  1.00  0.00     0.041 A 
ATOM     11  C   UNL     1     -14.724 -29.764 -11.111  1.00  0.00     0.134 A 
ATOM     12  N   UNL     1     -15.094 -30.173 -13.250  1.00  0.00    -0.348 N 
ATOM     13  N   UNL     1     -15.606 -30.782 -11.148  1.00  0.00    -0.245 NA
ATOM     14  C   UNL     1     -15.807 -31.003 -12.466  1.00  0.00     0.196 A 
ATOM     15  H   UNL     1     -15.090 -30.137 -14.294  1.00  0.00     0.167 HD
ENDBRANCH   1  10
TORSDOF 4
ENDMDL
MODEL 2
REMARK VINA RESULT:    -4.358      2.877      3.460
REMARK INTER + INTRA:          -5.424
REMARK INTER:                  -5.294
REMARK INTRA:                  -0.130
REMARK UNBOUND:                -0.174
REMARK SMILES [NH3+][C@@H](Cc1cnc[nH]1)C(=O)[O-]
REMARK SMILES IDX 3 1 2 2 1 3 9 7 10 8 11 9 4 10 5 11 8 12 6 13 7 14
REMARK H PARENT 1 4 1 5 1 6 8 15
REMARK Flexibility Score: inf
ROOT
ATOM      1  C   UNL     1     -13.951 -27.828 -11.330  1.00  0.00     0.127 C 
ENDROOT
BRANCH   1   2
ATOM      2  C   UNL     1     -15.083 -27.329 -12.251  1.00  0.00     0.233 C 
BRANCH   2   3
ATOM      3  N   UNL     1     -15.758 -28.462 -12.895  1.00  0.00    -0.350 N 
ATOM      4  H   UNL     1     -16.587 -28.767 -12.333  1.00  0.00     0.345 HD
ATOM      5  H   UNL     1     -15.094 -29.264 -12.992  1.00  0.00     0.345 HD
ATOM      6  H   UNL     1     -16.078 -28.186 -13.852  1.00  0.00     0.345 HD
ENDBRANCH   2   3
BRANCH   2   7
ATOM      7  C   UNL     1     -14.554 -26.377 -13.293  1.00  0.00     0.099 C 
ATOM      8  O   UNL     1     -14.867 -25.157 -13.263  1.00  0.00    -0.544 OA
ATOM      9  O   UNL     1     -13.732 -26.849 -14.309  1.00  0.00    -0.544 OA
ENDBRANCH   2   7
ENDBRANCH   1   2
BRANCH   1  10
ATOM     10  C   UNL     1     -14.287 -27.621  -9.882  1.00  0.00     0.041 A 
ATOM     11  C   UNL     1     -14.217 -28.565  -8.881  1.00  0.00     0.134 A 
ATOM     12  N   UNL     1     -14.633 -26.444  -9.340  1.00  0.00    -0.348 N 
ATOM     13  N   UNL     1     -14.534 -27.984  -7.706  1.00  0.00    -0.245 NA
ATOM     14  C   UNL     1     -14.780 -26.695  -8.026  1.00  0.00     0.196 A 
ATOM     15  H   UNL     1     -14.752 -25.528  -9.827  1.00  0.00     0.167 HD
ENDBRANCH   1  10
TORSDOF 4
ENDMDL
MODEL 3
REMARK VINA RESULT:    -4.346      1.922      2.200
REMARK INTER + INTRA:          -5.410
REMARK INTER:                  -5.157
REMARK INTRA:                  -0.253
REMARK UNBOUND:                -0.174
REMARK SMILES [NH3+][C@@H](Cc1cnc[nH]1)C(=O)[O-]
REMARK SMILES IDX 3 1 2 2 1 3 9 7 10 8 11 9 4 10 5 11 8 12 6 13 7 14
REMARK H PARENT 1 4 1 5 1 6 8 15
REMARK Flexibility Score: inf
ROOT
ATOM      1  C   UNL     1     -12.703 -26.992 -11.985  1.00  0.00     0.127 C 
ENDROOT
BRANCH   1   2
ATOM      2  C   UNL     1     -13.372 -26.742 -13.351  1.00  0.00     0.233 C 
BRANCH   2   3
ATOM      3  N   UNL     1     -12.516 -25.901 -14.197  1.00  0.00    -0.350 N 
ATOM      4  H   UNL     1     -12.276 -25.008 -13.708  1.00  0.00     0.345 HD
ATOM      5  H   UNL     1     -13.008 -25.683 -15.094  1.00  0.00     0.345 HD
ATOM      6  H   UNL     1     -11.633 -26.413 -14.426  1.00  0.00     0.345 HD
ENDBRANCH   2   3
BRANCH   2   7
ATOM      7  C   UNL     1     -14.727 -26.103 -13.183  1.00  0.00     0.099 C 
ATOM      8  O   UNL     1     -14.883 -24.871 -13.390  1.00  0.00    -0.544 OA
ATOM      9  O   UNL     1     -15.810 -26.872 -12.777  1.00  0.00    -0.544 OA
ENDBRANCH   2   7
ENDBRANCH   1   2
BRANCH   1  10
ATOM     10  C   UNL     1     -13.203 -28.256 -11.348  1.00  0.00     0.041 A 
ATOM     11  C   UNL     1     -12.674 -29.517 -11.503  1.00  0.00     0.134 A 
ATOM     12  N   UNL     1     -14.208 -28.317 -10.462  1.00  0.00    -0.348 N 
ATOM     13  N   UNL     1     -13.355 -30.380 -10.722  1.00  0.00    -0.245 NA
ATOM     14  C   UNL     1     -14.280 -29.613 -10.105  1.00  0.00     0.196 A 
ATOM     15  H   UNL     1     -14.800 -27.530 -10.114  1.00  0.00     0.167 HD
ENDBRANCH   1  10
TORSDOF 4
ENDMDL
MODEL 4
REMARK VINA RESULT:    -4.298      3.707      5.104
REMARK INTER + INTRA:          -5.351
REMARK INTER:                  -5.213
REMARK INTRA:                  -0.138
REMARK UNBOUND:                -0.174
REMARK SMILES [NH3+][C@@H](Cc1cnc[nH]1)C(=O)[O-]
REMARK SMILES IDX 3 1 2 2 1 3 9 7 10 8 11 9 4 10 5 11 8 12 6 13 7 14
REMARK H PARENT 1 4 1 5 1 6 8 15
REMARK Flexibility Score: inf
ROOT
ATOM      1  C   UNL     1     -13.420 -27.012  -9.908  1.00  0.00     0.127 C 
ENDROOT
BRANCH   1   2
ATOM      2  C   UNL     1     -14.463 -27.144  -8.781  1.00  0.00     0.233 C 
BRANCH   2   3
ATOM      3  N   UNL     1     -14.533 -25.905  -7.997  1.00  0.00    -0.350 N 
ATOM      4  H   UNL     1     -13.760 -25.868  -7.292  1.00  0.00     0.345 HD
ATOM      5  H   UNL     1     -15.453 -25.847  -7.504  1.00  0.00     0.345 HD
ATOM      6  H   UNL     1     -14.452 -25.079  -8.634  1.00  0.00     0.345 HD
ENDBRANCH   2   3
BRANCH   2   7
ATOM      7  C   UNL     1     -14.144 -28.311  -7.881  1.00  0.00     0.099 C 
ATOM      8  O   UNL     1     -14.597 -29.459  -8.137  1.00  0.00    -0.544 OA
ATOM      9  O   UNL     1     -13.363 -28.120  -6.748  1.00  0.00    -0.544 OA
ENDBRANCH   2   7
ENDBRANCH   1   2
BRANCH   1  10
ATOM     10  C   UNL     1     -14.072 -26.752 -11.235  1.00  0.00     0.041 A 
ATOM     11  C   UNL     1     -14.824 -27.642 -11.968  1.00  0.00     0.134 A 
ATOM     12  N   UNL     1     -14.076 -25.567 -11.863  1.00  0.00    -0.348 N 
ATOM     13  N   UNL     1     -15.294 -27.020 -13.068  1.00  0.00    -0.245 NA
ATOM     14  C   UNL     1     -14.817 -25.760 -12.970  1.00  0.00     0.196 A 
ATOM     15  H   UNL     1     -13.615 -24.681 -11.556  1.00  0.00     0.167 HD
ENDBRANCH   1  10
TORSDOF 4
ENDMDL
MODEL 5
REMARK VINA RESULT:    -4.271      1.781      2.009
REMARK INTER + INTRA:          -5.319
REMARK INTER:                  -5.098
REMARK INTRA:                  -0.221
REMARK UNBOUND:                -0.174
REMARK SMILES [NH3+][C@@H](Cc1cnc[nH]1)C(=O)[O-]
REMARK SMILES IDX 3 1 2 2 1 3 9 7 10 8 11 9 4 10 5 11 8 12 6 13 7 14
REMARK H PARENT 1 4 1 5 1 6 8 15
REMARK Flexibility Score: inf
ROOT
ATOM      1  C   UNL     1     -14.066 -27.547 -13.262  1.00  0.00     0.127 C 
ENDROOT
BRANCH   1   2
ATOM      2  C   UNL     1     -14.597 -26.447 -12.320  1.00  0.00     0.233 C 
BRANCH   2   3
ATOM      3  N   UNL     1     -14.453 -25.125 -12.942  1.00  0.00    -0.350 N 
ATOM      4  H   UNL     1     -14.535 -24.367 -12.225  1.00  0.00     0.345 HD
ATOM      5  H   UNL     1     -15.192 -24.992 -13.669  1.00  0.00     0.345 HD
ATOM      6  H   UNL     1     -13.520 -25.053 -13.409  1.00  0.00     0.345 HD
ENDBRANCH   2   3
BRANCH   2   7
ATOM      7  C   UNL     1     -13.883 -26.478 -10.993  1.00  0.00     0.099 C 
ATOM      8  O   UNL     1     -12.628 -26.379 -10.938  1.00  0.00    -0.544 OA
ATOM      9  O   UNL     1     -14.609 -26.638  -9.819  1.00  0.00    -0.544 OA
ENDBRANCH   2   7
ENDBRANCH   1   2
BRANCH   1  10
ATOM     10  C   UNL     1     -14.526 -28.910 -12.832  1.00  0.00     0.041 A 
ATOM     11  C   UNL     1     -13.735 -29.930 -12.355  1.00  0.00     0.134 A 
ATOM     12  N   UNL     1     -15.809 -29.299 -12.781  1.00  0.00    -0.348 N 
ATOM     13  N   UNL     1     -14.519 -30.972 -12.013  1.00  0.00    -0.245 NA
ATOM     14  C   UNL     1     -15.773 -30.551 -12.287  1.00  0.00     0.196 A 
ATOM     15  H   UNL     1     -16.654 -28.750 -13.053  1.00  0.00     0.167 HD
ENDBRANCH   1  10
TORSDOF 4
ENDMDL
MODEL 6
REMARK VINA RESULT:    -4.229      1.668      1.804
REMARK INTER + INTRA:          -5.268
REMARK INTER:                  -5.032
REMARK INTRA:                  -0.237
REMARK UNBOUND:                -0.174
REMARK SMILES [NH3+][C@@H](Cc1cnc[nH]1)C(=O)[O-]
REMARK SMILES IDX 3 1 2 2 1 3 9 7 10 8 11 9 4 10 5 11 8 12 6 13 7 14
REMARK H PARENT 1 4 1 5 1 6 8 15
REMARK Flexibility Score: inf
ROOT
ATOM      1  C   UNL     1     -14.755 -27.967 -11.737  1.00  0.00     0.127 C 
ENDROOT
BRANCH   1   2
ATOM      2  C   UNL     1     -13.553 -27.246 -12.380  1.00  0.00     0.233 C 
BRANCH   2   3
ATOM      3  N   UNL     1     -12.946 -26.309 -11.426  1.00  0.00    -0.350 N 
ATOM      4  H   UNL     1     -12.200 -25.739 -11.890  1.00  0.00     0.345 HD
ATOM      5  H   UNL     1     -12.529 -26.836 -10.625  1.00  0.00     0.345 HD
ATOM      6  H   UNL     1     -13.679 -25.666 -11.047  1.00  0.00     0.345 HD
ENDBRANCH   2   3
BRANCH   2   7
ATOM      7  C   UNL     1     -13.965 -26.518 -13.634  1.00  0.00     0.099 C 
ATOM      8  O   UNL     1     -13.721 -27.009 -14.768  1.00  0.00    -0.544 OA
ATOM      9  O   UNL     1     -14.599 -25.286 -13.544  1.00  0.00    -0.544 OA
ENDBRANCH   2   7
ENDBRANCH   1   2
BRANCH   1  10
ATOM     10  C   UNL     1     -14.796 -29.418 -12.121  1.00  0.00     0.041 A 
ATOM     11  C   UNL     1     -15.277 -30.455 -11.354  1.00  0.00     0.134 A 
ATOM     12  N   UNL     1     -14.433 -29.900 -13.319  1.00  0.00    -0.348 N 
ATOM     13  N   UNL     1     -15.206 -31.598 -12.066  1.00  0.00    -0.245 NA
ATOM     14  C   UNL     1     -14.688 -31.220 -13.255  1.00  0.00     0.196 A 
ATOM     15  H   UNL     1     -14.048 -29.368 -14.131  1.00  0.00     0.167 HD
ENDBRANCH   1  10
TORSDOF 4
ENDMDL
MODEL 7
REMARK VINA RESULT:    -4.165      3.588      4.767
REMARK INTER + INTRA:          -5.191
REMARK INTER:                  -5.016
REMARK INTRA:                  -0.175
REMARK UNBOUND:                -0.174
REMARK SMILES [NH3+][C@@H](Cc1cnc[nH]1)C(=O)[O-]
REMARK SMILES IDX 3 1 2 2 1 3 9 7 10 8 11 9 4 10 5 11 8 12 6 13 7 14
REMARK H PARENT 1 4 1 5 1 6 8 15
REMARK Flexibility Score: inf
ROOT
ATOM      1  C   UNL     1     -15.523 -31.030 -12.067  1.00  0.00     0.127 C 
ENDROOT
BRANCH   1   2
ATOM      2  C   UNL     1     -14.742 -31.719 -13.205  1.00  0.00     0.233 C 
BRANCH   2   3
ATOM      3  N   UNL     1     -15.528 -32.820 -13.774  1.00  0.00    -0.350 N 
ATOM      4  H   UNL     1     -15.585 -33.621 -13.102  1.00  0.00     0.345 HD
ATOM      5  H   UNL     1     -15.089 -33.147 -14.664  1.00  0.00     0.345 HD
ATOM      6  H   UNL     1     -16.497 -32.488 -13.991  1.00  0.00     0.345 HD
ENDBRANCH   2   3
BRANCH   2   7
ATOM      7  C   UNL     1     -13.410 -32.228 -12.717  1.00  0.00     0.099 C 
ATOM      8  O   UNL     1     -13.283 -32.668 -11.544  1.00  0.00    -0.544 OA
ATOM      9  O   UNL     1     -12.305 -32.195 -13.559  1.00  0.00    -0.544 OA
ENDBRANCH   2   7
ENDBRANCH   1   2
BRANCH   1  10
ATOM     10  C   UNL     1     -15.265 -29.551 -12.038  1.00  0.00     0.041 A 
ATOM     11  C   UNL     1     -14.428 -28.882 -11.174  1.00  0.00     0.134 A 
ATOM     12  N   UNL     1     -15.765 -28.673 -12.920  1.00  0.00    -0.348 N 
ATOM     13  N   UNL     1     -14.411 -27.574 -11.503  1.00  0.00    -0.245 NA
ATOM     14  C   UNL     1     -15.236 -27.486 -12.569  1.00  0.00     0.196 A 
ATOM     15  H   UNL     1     -16.415 -28.866 -13.714  1.00  0.00     0.167 HD
ENDBRANCH   1  10
TORSDOF 4
ENDMDL
MODEL 8
REMARK VINA RESULT:    -4.150      3.170      3.669
REMARK INTER + INTRA:          -5.173
REMARK INTER:                  -4.940
REMARK INTRA:                  -0.233
REMARK UNBOUND:                -0.174
REMARK SMILES [NH3+][C@@H](Cc1cnc[nH]1)C(=O)[O-]
REMARK SMILES IDX 3 1 2 2 1 3 9 7 10 8 11 9 4 10 5 11 8 12 6 13 7 14
REMARK H PARENT 1 4 1 5 1 6 8 15
REMARK Flexibility Score: inf
ROOT
ATOM      1  C   UNL     1     -13.688 -26.244 -10.684  1.00  0.00     0.127 C 
ENDROOT
BRANCH   1   2
ATOM      2  C   UNL     1     -13.543 -27.206 -11.879  1.00  0.00     0.233 C 
BRANCH   2   3
ATOM      3  N   UNL     1     -12.984 -26.503 -13.041  1.00  0.00    -0.350 N 
ATOM      4  H   UNL     1     -12.315 -27.118 -13.560  1.00  0.00     0.345 HD
ATOM      5  H   UNL     1     -12.486 -25.639 -12.727  1.00  0.00     0.345 HD
ATOM      6  H   UNL     1     -13.756 -26.218 -13.687  1.00  0.00     0.345 HD
ENDBRANCH   2   3
BRANCH   2   7
ATOM      7  C   UNL     1     -14.868 -27.830 -12.237  1.00  0.00     0.099 C 
ATOM      8  O   UNL     1     -15.082 -29.050 -12.010  1.00  0.00    -0.544 OA
ATOM      9  O   UNL     1     -15.855 -27.062 -12.841  1.00  0.00    -0.544 OA
ENDBRANCH   2   7
ENDBRANCH   1   2
BRANCH   1  10
ATOM     10  C   UNL     1     -14.023 -26.981  -9.420  1.00  0.00     0.041 A 
ATOM     11  C   UNL     1     -14.775 -26.506  -8.368  1.00  0.00     0.134 A 
ATOM     12  N   UNL     1     -13.694 -28.257  -9.172  1.00  0.00    -0.348 N 
ATOM     13  N   UNL     1     -14.909 -27.482  -7.448  1.00  0.00    -0.245 NA
ATOM     14  C   UNL     1     -14.238 -28.531  -7.972  1.00  0.00     0.196 A 
ATOM     15  H   UNL     1     -13.144 -28.904  -9.780  1.00  0.00     0.167 HD
ENDBRANCH   1  10
TORSDOF 4
ENDMDL
MODEL 9
REMARK VINA RESULT:    -4.080      3.044      3.556
REMARK INTER + INTRA:          -5.090
REMARK INTER:                  -4.902
REMARK INTRA:                  -0.187
REMARK UNBOUND:                -0.174
REMARK SMILES [NH3+][C@@H](Cc1cnc[nH]1)C(=O)[O-]
REMARK SMILES IDX 3 1 2 2 1 3 9 7 10 8 11 9 4 10 5 11 8 12 6 13 7 14
REMARK H PARENT 1 4 1 5 1 6 8 15
REMARK Flexibility Score: inf
ROOT
ATOM      1  C   UNL     1     -12.966 -26.671 -12.575  1.00  0.00     0.127 C 
ENDROOT
BRANCH   1   2
ATOM      2  C   UNL     1     -13.629 -27.854 -13.309  1.00  0.00     0.233 C 
BRANCH   2   3
ATOM      3  N   UNL     1     -13.652 -27.611 -14.757  1.00  0.00    -0.350 N 
ATOM      4  H   UNL     1     -12.685 -27.443 -15.120  1.00  0.00     0.345 HD
ATOM      5  H   UNL     1     -14.250 -26.780 -14.969  1.00  0.00     0.345 HD
ATOM      6  H   UNL     1     -14.061 -28.440 -15.248  1.00  0.00     0.345 HD
ENDBRANCH   2   3
BRANCH   2   7
ATOM      7  C   UNL     1     -15.027 -28.095 -12.799  1.00  0.00     0.099 C 
ATOM      8  O   UNL     1     -15.384 -29.245 -12.430  1.00  0.00    -0.544 OA
ATOM      9  O   UNL     1     -15.938 -27.047 -12.753  1.00  0.00    -0.544 OA
ENDBRANCH   2   7
ENDBRANCH   1   2
BRANCH   1  10
ATOM     10  C   UNL     1     -13.037 -26.838 -11.085  1.00  0.00     0.041 A 
ATOM     11  C   UNL     1     -12.141 -27.521 -10.293  1.00  0.00     0.134 A 
ATOM     12  N   UNL     1     -13.960 -26.267 -10.297  1.00  0.00    -0.348 N 
ATOM     13  N   UNL     1     -12.507 -27.391  -9.002  1.00  0.00    -0.245 NA
ATOM     14  C   UNL     1     -13.617 -26.622  -9.044  1.00  0.00     0.196 A 
ATOM     15  H   UNL     1     -14.763 -25.667 -10.587  1.00  0.00     0.167 HD
ENDBRANCH   1  10
TORSDOF 4
ENDMDL
