MODEL 1
REMARK VINA RESULT:    -3.022      0.000      0.000
REMARK INTER + INTRA:          -3.775
REMARK INTER:                  -3.729
REMARK INTRA:                  -0.046
REMARK UNBOUND:                -0.046
REMARK SMILES CCCCCC(=O)[O-]
REMARK SMILES IDX 4 1 5 2 6 3 7 4 8 5 3 6 2 7 1 8
REMARK H PARENT
REMARK Flexibility Score: inf
ROOT
ATOM      1  C   UNL     1      48.220  21.072  15.708  1.00  0.00     0.006 C 
ENDROOT
BRANCH   1   2
ATOM      2  C   UNL     1      47.382  21.785  16.773  1.00  0.00     0.053 C 
BRANCH   2   3
ATOM      3  C   UNL     1      45.937  21.790  16.389  1.00  0.00     0.041 C 
ATOM      4  O   UNL     1      45.467  20.862  15.679  1.00  0.00    -0.550 OA
ATOM      5  O   UNL     1      45.096  22.792  16.857  1.00  0.00    -0.550 OA
ENDBRANCH   2   3
ENDBRANCH   1   2
BRANCH   1   6
ATOM      6  C   UNL     1      49.645  21.640  15.657  1.00  0.00     0.000 C 
BRANCH   6   7
ATOM      7  C   UNL     1      50.508  20.977  14.572  1.00  0.00    -0.003 C 
ATOM      8  C   UNL     1      52.005  21.195  14.793  1.00  0.00     0.004 C 
ENDBRANCH   6   7
ENDBRANCH   1   6
TORSDOF 4
ENDMDL
MODEL 2
REMARK VINA RESULT:    -3.010      1.243      1.743
REMARK INTER + INTRA:          -3.760
REMARK INTER:                  -3.674
REMARK INTRA:                  -0.086
REMARK UNBOUND:                -0.046
REMARK SMILES CCCCCC(=O)[O-]
REMARK SMILES IDX 4 1 5 2 6 3 7 4 8 5 3 6 2 7 1 8
REMARK H PARENT
REMARK Flexibility Score: inf
ROOT
ATOM      1  C   UNL     1      49.575  21.520  15.525  1.00  0.00     0.006 C 
ENDROOT
BRANCH   1   2
ATOM      2  C   UNL     1      48.214  20.819  15.483  1.00  0.00     0.053 C 
BRANCH   2   3
ATOM      3  C   UNL     1      47.278  21.430  16.476  1.00  0.00     0.041 C 
ATOM      4  O   UNL     1      46.036  21.421  16.266  1.00  0.00    -0.550 OA
ATOM      5  O   UNL     1      47.772  21.966  17.659  1.00  0.00    -0.550 OA
ENDBRANCH   2   3
ENDBRANCH   1   2
BRANCH   1   6
ATOM      6  C   UNL     1      50.537  20.916  14.492  1.00  0.00     0.000 C 
BRANCH   6   7
ATOM      7  C   UNL     1      52.013  21.096  14.882  1.00  0.00    -0.003 C 
ATOM      8  C   UNL     1      52.185  21.724  16.265  1.00  0.00     0.004 C 
ENDBRANCH   6   7
ENDBRANCH   1   6
TORSDOF 4
ENDMDL
MODEL 3
REMARK VINA RESULT:    -2.977     11.014     13.081
REMARK INTER + INTRA:          -3.719
REMARK INTER:                  -3.602
REMARK INTRA:                  -0.118
REMARK UNBOUND:                -0.046
REMARK SMILES CCCCCC(=O)[O-]
REMARK SMILES IDX 4 1 5 2 6 3 7 4 8 5 3 6 2 7 1 8
REMARK H PARENT
REMARK Flexibility Score: inf
ROOT
ATOM      1  C   UNL     1      35.899  20.164  15.933  1.00  0.00     0.006 C 
ENDROOT
BRANCH   1   2
ATOM      2  C   UNL     1      36.242  20.923  14.648  1.00  0.00     0.053 C 
BRANCH   2   3
ATOM      3  C   UNL     1      37.141  22.080  14.945  1.00  0.00     0.041 C 
ATOM      4  O   UNL     1      36.677  23.125  15.474  1.00  0.00    -0.550 OA
ATOM      5  O   UNL     1      38.503  21.987  14.685  1.00  0.00    -0.550 OA
ENDBRANCH   2   3
ENDBRANCH   1   2
BRANCH   1   6
ATOM      6  C   UNL     1      34.379  20.058  16.121  1.00  0.00     0.000 C 
BRANCH   6   7
ATOM      7  C   UNL     1      33.832  18.674  15.738  1.00  0.00    -0.003 C 
ATOM      8  C   UNL     1      33.330  18.617  14.295  1.00  0.00     0.004 C 
ENDBRANCH   6   7
ENDBRANCH   1   6
TORSDOF 4
ENDMDL
MODEL 4
REMARK VINA RESULT:    -2.914     11.418     13.087
REMARK INTER + INTRA:          -3.642
REMARK INTER:                  -3.568
REMARK INTRA:                  -0.074
REMARK UNBOUND:                -0.046
REMARK SMILES CCCCCC(=O)[O-]
REMARK SMILES IDX 4 1 5 2 6 3 7 4 8 5 3 6 2 7 1 8
REMARK H PARENT
REMARK Flexibility Score: inf
ROOT
ATOM      1  C   UNL     1      35.773  20.064  15.949  1.00  0.00     0.006 C 
ENDROOT
BRANCH   1   2
ATOM      2  C   UNL     1      34.249  20.027  16.086  1.00  0.00     0.053 C 
BRANCH   2   3
ATOM      3  C   UNL     1      33.697  18.778  15.475  1.00  0.00     0.041 C 
ATOM      4  O   UNL     1      33.336  17.820  16.207  1.00  0.00    -0.550 OA
ATOM      5  O   UNL     1      33.535  18.691  14.097  1.00  0.00    -0.550 OA
ENDBRANCH   2   3
ENDBRANCH   1   2
BRANCH   1   6
ATOM      6  C   UNL     1      36.196  20.907  14.738  1.00  0.00     0.000 C 
BRANCH   6   7
ATOM      7  C   UNL     1      36.823  22.251  15.142  1.00  0.00    -0.003 C 
ATOM      8  C   UNL     1      38.206  22.466  14.529  1.00  0.00     0.004 C 
ENDBRANCH   6   7
ENDBRANCH   1   6
TORSDOF 4
ENDMDL
MODEL 5
REMARK VINA RESULT:    -2.815     12.494     13.828
REMARK INTER + INTRA:          -3.519
REMARK INTER:                  -3.256
REMARK INTRA:                  -0.263
REMARK UNBOUND:                -0.046
REMARK SMILES CCCCCC(=O)[O-]
REMARK SMILES IDX 4 1 5 2 6 3 7 4 8 5 3 6 2 7 1 8
REMARK H PARENT
REMARK Flexibility Score: inf
ROOT
ATOM      1  C   UNL     1      35.735  19.908  15.903  1.00  0.00     0.006 C 
ENDROOT
BRANCH   1   2
ATOM      2  C   UNL     1      36.183  21.013  14.943  1.00  0.00     0.053 C 
BRANCH   2   3
ATOM      3  C   UNL     1      35.251  21.106  13.778  1.00  0.00     0.041 C 
ATOM      4  O   UNL     1      34.980  20.080  13.099  1.00  0.00    -0.550 OA
ATOM      5  O   UNL     1      34.641  22.316  13.470  1.00  0.00    -0.550 OA
ENDBRANCH   2   3
ENDBRANCH   1   2
BRANCH   1   6
ATOM      6  C   UNL     1      34.650  20.418  16.862  1.00  0.00     0.000 C 
BRANCH   6   7
ATOM      7  C   UNL     1      33.305  19.700  16.670  1.00  0.00    -0.003 C 
ATOM      8  C   UNL     1      33.436  18.411  15.858  1.00  0.00     0.004 C 
ENDBRANCH   6   7
ENDBRANCH   1   6
TORSDOF 4
ENDMDL
MODEL 6
REMARK VINA RESULT:    -2.621      3.746      4.919
REMARK INTER + INTRA:          -3.280
REMARK INTER:                  -3.089
REMARK INTRA:                  -0.191
REMARK UNBOUND:                -0.046
REMARK SMILES CCCCCC(=O)[O-]
REMARK SMILES IDX 4 1 5 2 6 3 7 4 8 5 3 6 2 7 1 8
REMARK H PARENT
REMARK Flexibility Score: inf
ROOT
ATOM      1  C   UNL     1      52.965  21.312  16.706  1.00  0.00     0.006 C 
ENDROOT
BRANCH   1   2
ATOM      2  C   UNL     1      52.889  22.500  17.669  1.00  0.00     0.053 C 
BRANCH   2   3
ATOM      3  C   UNL     1      51.657  22.415  18.512  1.00  0.00     0.041 C 
ATOM      4  O   UNL     1      51.723  21.968  19.687  1.00  0.00    -0.550 OA
ATOM      5  O   UNL     1      50.443  22.876  18.018  1.00  0.00    -0.550 OA
ENDBRANCH   2   3
ENDBRANCH   1   2
BRANCH   1   6
ATOM      6  C   UNL     1      52.767  21.768  15.253  1.00  0.00     0.000 C 
BRANCH   6   7
ATOM      7  C   UNL     1      51.756  20.895  14.492  1.00  0.00    -0.003 C 
ATOM      8  C   UNL     1      50.309  21.185  14.891  1.00  0.00     0.004 C 
ENDBRANCH   6   7
ENDBRANCH   1   6
TORSDOF 4
ENDMDL
MODEL 7
REMARK VINA RESULT:    -2.582     12.398     13.102
REMARK INTER + INTRA:          -3.232
REMARK INTER:                  -3.109
REMARK INTRA:                  -0.123
REMARK UNBOUND:                -0.046
REMARK SMILES CCCCCC(=O)[O-]
REMARK SMILES IDX 4 1 5 2 6 3 7 4 8 5 3 6 2 7 1 8
REMARK H PARENT
REMARK Flexibility Score: inf
ROOT
ATOM      1  C   UNL     1      34.565  21.300  12.640  1.00  0.00     0.006 C 
ENDROOT
BRANCH   1   2
ATOM      2  C   UNL     1      34.822  20.139  13.604  1.00  0.00     0.053 C 
BRANCH   2   3
ATOM      3  C   UNL     1      35.846  20.521  14.625  1.00  0.00     0.041 C 
ATOM      4  O   UNL     1      36.618  21.495  14.416  1.00  0.00    -0.550 OA
ATOM      5  O   UNL     1      35.917  19.835  15.831  1.00  0.00    -0.550 OA
ENDBRANCH   2   3
ENDBRANCH   1   2
BRANCH   1   6
ATOM      6  C   UNL     1      34.950  20.917  11.203  1.00  0.00     0.000 C 
BRANCH   6   7
ATOM      7  C   UNL     1      36.062  21.811  10.631  1.00  0.00    -0.003 C 
ATOM      8  C   UNL     1      36.669  21.247   9.347  1.00  0.00     0.004 C 
ENDBRANCH   6   7
ENDBRANCH   1   6
TORSDOF 4
ENDMDL
MODEL 8
REMARK VINA RESULT:    -2.568     12.205     14.137
REMARK INTER + INTRA:          -3.214
REMARK INTER:                  -2.998
REMARK INTRA:                  -0.216
REMARK UNBOUND:                -0.046
REMARK SMILES CCCCCC(=O)[O-]
REMARK SMILES IDX 4 1 5 2 6 3 7 4 8 5 3 6 2 7 1 8
REMARK H PARENT
REMARK Flexibility Score: inf
ROOT
ATOM      1  C   UNL     1      33.703  20.236  14.306  1.00  0.00     0.006 C 
ENDROOT
BRANCH   1   2
ATOM      2  C   UNL     1      35.125  20.438  13.778  1.00  0.00     0.053 C 
BRANCH   2   3
ATOM      3  C   UNL     1      36.031  20.902  14.874  1.00  0.00     0.041 C 
ATOM      4  O   UNL     1      36.642  21.998  14.771  1.00  0.00    -0.550 OA
ATOM      5  O   UNL     1      36.162  20.148  16.034  1.00  0.00    -0.550 OA
ENDBRANCH   2   3
ENDBRANCH   1   2
BRANCH   1   6
ATOM      6  C   UNL     1      33.355  18.742  14.393  1.00  0.00     0.000 C 
BRANCH   6   7
ATOM      7  C   UNL     1      33.246  18.244  15.843  1.00  0.00    -0.003 C 
ATOM      8  C   UNL     1      32.876  19.358  16.823  1.00  0.00     0.004 C 
ENDBRANCH   6   7
ENDBRANCH   1   6
TORSDOF 4
ENDMDL
MODEL 9
REMARK VINA RESULT:    -2.509     12.656     14.295
REMARK INTER + INTRA:          -3.141
REMARK INTER:                  -2.890
REMARK INTRA:                  -0.251
REMARK UNBOUND:                -0.046
REMARK SMILES CCCCCC(=O)[O-]
REMARK SMILES IDX 4 1 5 2 6 3 7 4 8 5 3 6 2 7 1 8
REMARK H PARENT
REMARK Flexibility Score: inf
ROOT
ATOM      1  C   UNL     1      33.000  19.518  14.541  1.00  0.00     0.006 C 
ENDROOT
BRANCH   1   2
ATOM      2  C   UNL     1      33.552  19.301  13.130  1.00  0.00     0.053 C 
BRANCH   2   3
ATOM      3  C   UNL     1      34.146  20.566  12.599  1.00  0.00     0.041 C 
ATOM      4  O   UNL     1      33.875  21.670  13.140  1.00  0.00    -0.550 OA
ATOM      5  O   UNL     1      35.041  20.522  11.537  1.00  0.00    -0.550 OA
ENDBRANCH   2   3
ENDBRANCH   1   2
BRANCH   1   6
ATOM      6  C   UNL     1      33.987  19.011  15.603  1.00  0.00     0.000 C 
BRANCH   6   7
ATOM      7  C   UNL     1      34.742  20.153  16.301  1.00  0.00    -0.003 C 
ATOM      8  C   UNL     1      36.131  20.392  15.709  1.00  0.00     0.004 C 
ENDBRANCH   6   7
ENDBRANCH   1   6
TORSDOF 4
ENDMDL
