MODEL 1
REMARK VINA RESULT:    -3.102      0.000      0.000
REMARK INTER + INTRA:         -13.250
REMARK INTER:                  -8.180
REMARK INTRA:                  -5.070
REMARK UNBOUND:                -5.070
REMARK SMILES CCCCCCCCCCCCCCCCCCCCCCCCCCCCCC(=O)[O-]
REMARK SMILES IDX 16 1 17 2 18 3 19 4 20 5 21 6 22 7 23 8 24 9 25 10 26 11
REMARK SMILES IDX 27 12 28 13 29 14 30 15 31 16 32 17 15 18 14 19 13 20 12 21
REMARK SMILES IDX 11 22 10 23 9 24 8 25 7 26 6 27 5 28 4 29 3 30 2 31 1 32
REMARK H PARENT
REMARK Flexibility Score: inf
ROOT
ATOM      1  C   UNL     1    -111.783  38.741 -12.962  1.00  0.00     0.000 C 
ENDROOT
BRANCH   1   2
ATOM      2  C   UNL     1    -112.089  38.040 -14.297  1.00  0.00     0.000 C 
BRANCH   2   3
ATOM      3  C   UNL     1    -110.818  37.680 -15.083  1.00  0.00     0.000 C 
BRANCH   3   4
ATOM      4  C   UNL     1    -110.318  38.838 -15.961  1.00  0.00     0.000 C 
BRANCH   4   5
ATOM      5  C   UNL     1    -108.938  39.325 -15.490  1.00  0.00     0.000 C 
BRANCH   5   6
ATOM      6  C   UNL     1    -109.013  40.619 -14.662  1.00  0.00     0.000 C 
BRANCH   6   7
ATOM      7  C   UNL     1    -110.213  41.504 -15.047  1.00  0.00     0.000 C 
BRANCH   7   8
ATOM      8  C   UNL     1    -110.930  42.098 -13.821  1.00  0.00     0.000 C 
BRANCH   8   9
ATOM      9  C   UNL     1    -112.444  42.319 -14.002  1.00  0.00     0.000 C 
BRANCH   9  10
ATOM     10  C   UNL     1    -113.135  42.813 -12.718  1.00  0.00     0.000 C 
BRANCH  10  11
ATOM     11  C   UNL     1    -112.236  42.669 -11.473  1.00  0.00     0.000 C 
BRANCH  11  12
ATOM     12  C   UNL     1    -113.013  42.631 -10.142  1.00  0.00     0.000 C 
BRANCH  12  13
ATOM     13  C   UNL     1    -114.367  41.904 -10.203  1.00  0.00     0.006 C 
BRANCH  13  14
ATOM     14  C   UNL     1    -114.457  40.734  -9.214  1.00  0.00     0.053 C 
BRANCH  14  15
ATOM     15  C   UNL     1    -115.206  41.142  -7.985  1.00  0.00     0.041 C 
ATOM     16  O   UNL     1    -114.820  40.753  -6.851  1.00  0.00    -0.550 OA
ATOM     17  O   UNL     1    -116.350  41.926  -8.093  1.00  0.00    -0.550 OA
ENDBRANCH  14  15
ENDBRANCH  13  14
ENDBRANCH  12  13
ENDBRANCH  11  12
ENDBRANCH  10  11
ENDBRANCH   9  10
ENDBRANCH   8   9
ENDBRANCH   7   8
ENDBRANCH   6   7
ENDBRANCH   5   6
ENDBRANCH   4   5
ENDBRANCH   3   4
ENDBRANCH   2   3
ENDBRANCH   1   2
BRANCH   1  18
ATOM     18  C   UNL     1    -113.054  39.080 -12.165  1.00  0.00     0.000 C 
BRANCH  18  19
ATOM     19  C   UNL     1    -114.346  39.156 -13.002  1.00  0.00     0.000 C 
BRANCH  19  20
ATOM     20  C   UNL     1    -115.610  38.619 -12.307  1.00  0.00     0.000 C 
BRANCH  20  21
ATOM     21  C   UNL     1    -115.306  37.478 -11.319  1.00  0.00     0.000 C 
BRANCH  21  22
ATOM     22  C   UNL     1    -116.108  37.599 -10.010  1.00  0.00     0.000 C 
BRANCH  22  23
ATOM     23  C   UNL     1    -115.326  37.184  -8.750  1.00  0.00     0.000 C 
BRANCH  23  24
ATOM     24  C   UNL     1    -116.068  36.122  -7.916  1.00  0.00    -0.000 C 
BRANCH  24  25
ATOM     25  C   UNL     1    -115.187  34.905  -7.591  1.00  0.00    -0.000 C 
BRANCH  25  26
ATOM     26  C   UNL     1    -115.127  33.888  -8.741  1.00  0.00    -0.000 C 
BRANCH  26  27
ATOM     27  C   UNL     1    -116.525  33.656  -9.337  1.00  0.00    -0.000 C 
BRANCH  27  28
ATOM     28  C   UNL     1    -116.566  33.853 -10.863  1.00  0.00    -0.000 C 
BRANCH  28  29
ATOM     29  C   UNL     1    -115.190  33.857 -11.559  1.00  0.00    -0.000 C 
BRANCH  29  30
ATOM     30  C   UNL     1    -115.229  33.695 -13.092  1.00  0.00    -0.000 C 
BRANCH  30  31
ATOM     31  C   UNL     1    -115.070  35.004 -13.885  1.00  0.00    -0.003 C 
ATOM     32  C   UNL     1    -113.925  34.953 -14.895  1.00  0.00     0.004 C 
ENDBRANCH  30  31
ENDBRANCH  29  30
ENDBRANCH  28  29
ENDBRANCH  27  28
ENDBRANCH  26  27
ENDBRANCH  25  26
ENDBRANCH  24  25
ENDBRANCH  23  24
ENDBRANCH  22  23
ENDBRANCH  21  22
ENDBRANCH  20  21
ENDBRANCH  19  20
ENDBRANCH  18  19
ENDBRANCH   1  18
TORSDOF 28
ENDMDL
MODEL 2
REMARK VINA RESULT:    -3.022      2.408      7.963
REMARK INTER + INTRA:         -13.039
REMARK INTER:                  -7.905
REMARK INTRA:                  -5.134
REMARK UNBOUND:                -5.070
REMARK SMILES CCCCCCCCCCCCCCCCCCCCCCCCCCCCCC(=O)[O-]
REMARK SMILES IDX 16 1 17 2 18 3 19 4 20 5 21 6 22 7 23 8 24 9 25 10 26 11
REMARK SMILES IDX 27 12 28 13 29 14 30 15 31 16 32 17 15 18 14 19 13 20 12 21
REMARK SMILES IDX 11 22 10 23 9 24 8 25 7 26 6 27 5 28 4 29 3 30 2 31 1 32
REMARK H PARENT
REMARK Flexibility Score: inf
ROOT
ATOM      1  C   UNL     1    -116.396  35.667  -7.190  1.00  0.00     0.000 C 
ENDROOT
BRANCH   1   2
ATOM      2  C   UNL     1    -115.067  34.964  -7.518  1.00  0.00     0.000 C 
BRANCH   2   3
ATOM      3  C   UNL     1    -115.214  33.902  -8.619  1.00  0.00     0.000 C 
BRANCH   3   4
ATOM      4  C   UNL     1    -116.674  33.692  -9.048  1.00  0.00     0.000 C 
BRANCH   4   5
ATOM      5  C   UNL     1    -116.902  34.205 -10.479  1.00  0.00     0.000 C 
BRANCH   5   6
ATOM      6  C   UNL     1    -115.609  34.253 -11.309  1.00  0.00     0.000 C 
BRANCH   6   7
ATOM      7  C   UNL     1    -115.682  35.264 -12.468  1.00  0.00     0.000 C 
BRANCH   7   8
ATOM      8  C   UNL     1    -115.026  34.736 -13.757  1.00  0.00     0.000 C 
BRANCH   8   9
ATOM      9  C   UNL     1    -114.325  35.809 -14.612  1.00  0.00     0.000 C 
BRANCH   9  10
ATOM     10  C   UNL     1    -113.078  35.275 -15.341  1.00  0.00     0.000 C 
BRANCH  10  11
ATOM     11  C   UNL     1    -111.971  36.340 -15.471  1.00  0.00     0.000 C 
BRANCH  11  12
ATOM     12  C   UNL     1    -112.331  37.697 -14.833  1.00  0.00     0.000 C 
BRANCH  12  13
ATOM     13  C   UNL     1    -111.140  38.475 -14.250  1.00  0.00     0.006 C 
BRANCH  13  14
ATOM     14  C   UNL     1    -110.686  39.629 -15.153  1.00  0.00     0.053 C 
BRANCH  14  15
ATOM     15  C   UNL     1    -110.039  40.708 -14.342  1.00  0.00     0.041 C 
ATOM     16  O   UNL     1    -109.489  40.430 -13.244  1.00  0.00    -0.550 OA
ATOM     17  O   UNL     1    -110.072  42.027 -14.783  1.00  0.00    -0.550 OA
ENDBRANCH  14  15
ENDBRANCH  13  14
ENDBRANCH  12  13
ENDBRANCH  11  12
ENDBRANCH  10  11
ENDBRANCH   9  10
ENDBRANCH   8   9
ENDBRANCH   7   8
ENDBRANCH   6   7
ENDBRANCH   5   6
ENDBRANCH   4   5
ENDBRANCH   3   4
ENDBRANCH   2   3
ENDBRANCH   1   2
BRANCH   1  18
ATOM     18  C   UNL     1    -116.488  37.076  -7.799  1.00  0.00     0.000 C 
BRANCH  18  19
ATOM     19  C   UNL     1    -115.275  37.496  -8.652  1.00  0.00     0.000 C 
BRANCH  19  20
ATOM     20  C   UNL     1    -115.614  38.027 -10.058  1.00  0.00     0.000 C 
BRANCH  20  21
ATOM     21  C   UNL     1    -114.426  38.741 -10.725  1.00  0.00     0.000 C 
BRANCH  21  22
ATOM     22  C   UNL     1    -114.490  38.686 -12.263  1.00  0.00     0.000 C 
BRANCH  22  23
ATOM     23  C   UNL     1    -115.700  39.421 -12.871  1.00  0.00     0.000 C 
BRANCH  23  24
ATOM     24  C   UNL     1    -115.321  40.785 -13.477  1.00  0.00    -0.000 C 
BRANCH  24  25
ATOM     25  C   UNL     1    -113.799  40.995 -13.553  1.00  0.00    -0.000 C 
BRANCH  25  26
ATOM     26  C   UNL     1    -113.403  42.478 -13.593  1.00  0.00    -0.000 C 
BRANCH  26  27
ATOM     27  C   UNL     1    -112.497  42.833 -12.403  1.00  0.00    -0.000 C 
BRANCH  27  28
ATOM     28  C   UNL     1    -112.540  41.780 -11.282  1.00  0.00    -0.000 C 
BRANCH  28  29
ATOM     29  C   UNL     1    -113.262  42.224  -9.995  1.00  0.00    -0.000 C 
BRANCH  29  30
ATOM     30  C   UNL     1    -114.802  42.256 -10.083  1.00  0.00    -0.000 C 
BRANCH  30  31
ATOM     31  C   UNL     1    -115.532  41.774  -8.817  1.00  0.00    -0.003 C 
ATOM     32  C   UNL     1    -114.617  41.024  -7.851  1.00  0.00     0.004 C 
ENDBRANCH  30  31
ENDBRANCH  29  30
ENDBRANCH  28  29
ENDBRANCH  27  28
ENDBRANCH  26  27
ENDBRANCH  25  26
ENDBRANCH  24  25
ENDBRANCH  23  24
ENDBRANCH  22  23
ENDBRANCH  21  22
ENDBRANCH  20  21
ENDBRANCH  19  20
ENDBRANCH  18  19
ENDBRANCH   1  18
TORSDOF 28
ENDMDL
MODEL 3
REMARK VINA RESULT:    -2.993      2.509      8.032
REMARK INTER + INTRA:         -12.963
REMARK INTER:                  -8.612
REMARK INTRA:                  -4.351
REMARK UNBOUND:                -5.070
REMARK SMILES CCCCCCCCCCCCCCCCCCCCCCCCCCCCCC(=O)[O-]
REMARK SMILES IDX 16 1 17 2 18 3 19 4 20 5 21 6 22 7 23 8 24 9 25 10 26 11
REMARK SMILES IDX 27 12 28 13 29 14 30 15 31 16 32 17 15 18 14 19 13 20 12 21
REMARK SMILES IDX 11 22 10 23 9 24 8 25 7 26 6 27 5 28 4 29 3 30 2 31 1 32
REMARK H PARENT
REMARK Flexibility Score: inf
ROOT
ATOM      1  C   UNL     1    -116.437  35.549  -7.189  1.00  0.00     0.000 C 
ENDROOT
BRANCH   1   2
ATOM      2  C   UNL     1    -115.083  34.887  -7.497  1.00  0.00     0.000 C 
BRANCH   2   3
ATOM      3  C   UNL     1    -115.163  33.888  -8.663  1.00  0.00     0.000 C 
BRANCH   3   4
ATOM      4  C   UNL     1    -116.604  33.649  -9.138  1.00  0.00     0.000 C 
BRANCH   4   5
ATOM      5  C   UNL     1    -116.711  33.817 -10.663  1.00  0.00     0.000 C 
BRANCH   5   6
ATOM      6  C   UNL     1    -115.360  34.134 -11.325  1.00  0.00     0.000 C 
BRANCH   6   7
ATOM      7  C   UNL     1    -115.243  33.557 -12.747  1.00  0.00     0.000 C 
BRANCH   7   8
ATOM      8  C   UNL     1    -115.254  34.649 -13.832  1.00  0.00     0.000 C 
BRANCH   8   9
ATOM      9  C   UNL     1    -114.126  34.535 -14.876  1.00  0.00     0.000 C 
BRANCH   9  10
ATOM     10  C   UNL     1    -113.391  35.867 -15.112  1.00  0.00     0.000 C 
BRANCH  10  11
ATOM     11  C   UNL     1    -112.008  35.668 -15.767  1.00  0.00     0.000 C 
BRANCH  11  12
ATOM     12  C   UNL     1    -110.926  36.635 -15.248  1.00  0.00     0.000 C 
BRANCH  12  13
ATOM     13  C   UNL     1    -111.454  37.798 -14.391  1.00  0.00     0.006 C 
BRANCH  13  14
ATOM     14  C   UNL     1    -111.217  39.168 -15.041  1.00  0.00     0.053 C 
BRANCH  14  15
ATOM     15  C   UNL     1    -110.886  40.192 -14.001  1.00  0.00     0.041 C 
ATOM     16  O   UNL     1    -110.331  39.844 -12.925  1.00  0.00    -0.550 OA
ATOM     17  O   UNL     1    -111.218  41.527 -14.206  1.00  0.00    -0.550 OA
ENDBRANCH  14  15
ENDBRANCH  13  14
ENDBRANCH  12  13
ENDBRANCH  11  12
ENDBRANCH  10  11
ENDBRANCH   9  10
ENDBRANCH   8   9
ENDBRANCH   7   8
ENDBRANCH   6   7
ENDBRANCH   5   6
ENDBRANCH   4   5
ENDBRANCH   3   4
ENDBRANCH   2   3
ENDBRANCH   1   2
BRANCH   1  18
ATOM     18  C   UNL     1    -116.475  37.035  -7.580  1.00  0.00     0.000 C 
BRANCH  18  19
ATOM     19  C   UNL     1    -116.830  37.310  -9.055  1.00  0.00     0.000 C 
BRANCH  19  20
ATOM     20  C   UNL     1    -115.630  37.588  -9.978  1.00  0.00     0.000 C 
BRANCH  20  21
ATOM     21  C   UNL     1    -116.044  37.794 -11.446  1.00  0.00     0.000 C 
BRANCH  21  22
ATOM     22  C   UNL     1    -114.835  37.903 -12.393  1.00  0.00     0.000 C 
BRANCH  22  23
ATOM     23  C   UNL     1    -113.853  39.034 -12.034  1.00  0.00     0.000 C 
BRANCH  23  24
ATOM     24  C   UNL     1    -114.315  40.408 -12.558  1.00  0.00    -0.000 C 
BRANCH  24  25
ATOM     25  C   UNL     1    -114.495  41.439 -11.431  1.00  0.00    -0.000 C 
BRANCH  25  26
ATOM     26  C   UNL     1    -114.026  40.916 -10.065  1.00  0.00    -0.000 C 
BRANCH  26  27
ATOM     27  C   UNL     1    -115.147  41.035  -9.021  1.00  0.00    -0.000 C 
BRANCH  27  28
ATOM     28  C   UNL     1    -114.747  40.473  -7.646  1.00  0.00    -0.000 C 
BRANCH  28  29
ATOM     29  C   UNL     1    -115.361  41.205  -6.436  1.00  0.00    -0.000 C 
BRANCH  29  30
ATOM     30  C   UNL     1    -116.068  40.298  -5.409  1.00  0.00    -0.000 C 
BRANCH  30  31
ATOM     31  C   UNL     1    -116.303  40.941  -4.031  1.00  0.00    -0.003 C 
ATOM     32  C   UNL     1    -115.528  40.250  -2.910  1.00  0.00     0.004 C 
ENDBRANCH  30  31
ENDBRANCH  29  30
ENDBRANCH  28  29
ENDBRANCH  27  28
ENDBRANCH  26  27
ENDBRANCH  25  26
ENDBRANCH  24  25
ENDBRANCH  23  24
ENDBRANCH  22  23
ENDBRANCH  21  22
ENDBRANCH  20  21
ENDBRANCH  19  20
ENDBRANCH  18  19
ENDBRANCH   1  18
TORSDOF 28
ENDMDL
MODEL 4
REMARK VINA RESULT:    -2.986      1.524      3.041
REMARK INTER + INTRA:         -12.943
REMARK INTER:                  -7.971
REMARK INTRA:                  -4.972
REMARK UNBOUND:                -5.070
REMARK SMILES CCCCCCCCCCCCCCCCCCCCCCCCCCCCCC(=O)[O-]
REMARK SMILES IDX 16 1 17 2 18 3 19 4 20 5 21 6 22 7 23 8 24 9 25 10 26 11
REMARK SMILES IDX 27 12 28 13 29 14 30 15 31 16 32 17 15 18 14 19 13 20 12 21
REMARK SMILES IDX 11 22 10 23 9 24 8 25 7 26 6 27 5 28 4 29 3 30 2 31 1 32
REMARK H PARENT
REMARK Flexibility Score: inf
ROOT
ATOM      1  C   UNL     1    -111.496  38.374 -13.906  1.00  0.00     0.000 C 
ENDROOT
BRANCH   1   2
ATOM      2  C   UNL     1    -110.821  39.526 -13.144  1.00  0.00     0.000 C 
BRANCH   2   3
ATOM      3  C   UNL     1    -110.203  40.576 -14.081  1.00  0.00     0.000 C 
BRANCH   3   4
ATOM      4  C   UNL     1    -110.758  41.987 -13.836  1.00  0.00     0.000 C 
BRANCH   4   5
ATOM      5  C   UNL     1    -112.249  42.059 -14.201  1.00  0.00     0.000 C 
BRANCH   5   6
ATOM      6  C   UNL     1    -113.125  42.554 -13.037  1.00  0.00     0.000 C 
BRANCH   6   7
ATOM      7  C   UNL     1    -112.333  42.729 -11.729  1.00  0.00     0.000 C 
BRANCH   7   8
ATOM      8  C   UNL     1    -112.799  41.765 -10.621  1.00  0.00     0.000 C 
BRANCH   8   9
ATOM      9  C   UNL     1    -112.934  42.403  -9.225  1.00  0.00     0.000 C 
BRANCH   9  10
ATOM     10  C   UNL     1    -114.177  43.302  -9.094  1.00  0.00     0.000 C 
BRANCH  10  11
ATOM     11  C   UNL     1    -115.484  42.549  -9.420  1.00  0.00     0.000 C 
BRANCH  11  12
ATOM     12  C   UNL     1    -116.132  41.865  -8.201  1.00  0.00     0.000 C 
BRANCH  12  13
ATOM     13  C   UNL     1    -115.220  41.736  -6.969  1.00  0.00     0.006 C 
BRANCH  13  14
ATOM     14  C   UNL     1    -115.970  41.957  -5.649  1.00  0.00     0.053 C 
BRANCH  14  15
ATOM     15  C   UNL     1    -116.020  40.689  -4.855  1.00  0.00     0.041 C 
ATOM     16  O   UNL     1    -115.329  40.570  -3.809  1.00  0.00    -0.550 OA
ATOM     17  O   UNL     1    -116.807  39.626  -5.287  1.00  0.00    -0.550 OA
ENDBRANCH  14  15
ENDBRANCH  13  14
ENDBRANCH  12  13
ENDBRANCH  11  12
ENDBRANCH  10  11
ENDBRANCH   9  10
ENDBRANCH   8   9
ENDBRANCH   7   8
ENDBRANCH   6   7
ENDBRANCH   5   6
ENDBRANCH   4   5
ENDBRANCH   3   4
ENDBRANCH   2   3
ENDBRANCH   1   2
BRANCH   1  18
ATOM     18  C   UNL     1    -113.025  38.366 -13.739  1.00  0.00     0.000 C 
BRANCH  18  19
ATOM     19  C   UNL     1    -113.533  38.883 -12.379  1.00  0.00     0.000 C 
BRANCH  19  20
ATOM     20  C   UNL     1    -114.999  39.355 -12.362  1.00  0.00     0.000 C 
BRANCH  20  21
ATOM     21  C   UNL     1    -115.668  39.164 -10.989  1.00  0.00     0.000 C 
BRANCH  21  22
ATOM     22  C   UNL     1    -114.702  38.595  -9.933  1.00  0.00     0.000 C 
BRANCH  22  23
ATOM     23  C   UNL     1    -115.313  38.462  -8.525  1.00  0.00     0.000 C 
BRANCH  23  24
ATOM     24  C   UNL     1    -116.562  37.560  -8.504  1.00  0.00    -0.000 C 
BRANCH  24  25
ATOM     25  C   UNL     1    -116.702  36.776  -7.189  1.00  0.00    -0.000 C 
BRANCH  25  26
ATOM     26  C   UNL     1    -116.546  35.260  -7.378  1.00  0.00    -0.000 C 
BRANCH  26  27
ATOM     27  C   UNL     1    -115.075  34.888  -7.619  1.00  0.00    -0.000 C 
BRANCH  27  28
ATOM     28  C   UNL     1    -114.904  33.760  -8.652  1.00  0.00    -0.000 C 
BRANCH  28  29
ATOM     29  C   UNL     1    -116.041  33.643  -9.687  1.00  0.00    -0.000 C 
BRANCH  29  30
ATOM     30  C   UNL     1    -115.647  33.987 -11.138  1.00  0.00    -0.000 C 
BRANCH  30  31
ATOM     31  C   UNL     1    -115.771  35.476 -11.505  1.00  0.00    -0.003 C 
ATOM     32  C   UNL     1    -115.664  35.729 -13.009  1.00  0.00     0.004 C 
ENDBRANCH  30  31
ENDBRANCH  29  30
ENDBRANCH  28  29
ENDBRANCH  27  28
ENDBRANCH  26  27
ENDBRANCH  25  26
ENDBRANCH  24  25
ENDBRANCH  23  24
ENDBRANCH  22  23
ENDBRANCH  21  22
ENDBRANCH  20  21
ENDBRANCH  19  20
ENDBRANCH  18  19
ENDBRANCH   1  18
TORSDOF 28
ENDMDL
MODEL 5
REMARK VINA RESULT:    -2.948      3.078      5.441
REMARK INTER + INTRA:         -12.844
REMARK INTER:                  -8.396
REMARK INTRA:                  -4.448
REMARK UNBOUND:                -5.070
REMARK SMILES CCCCCCCCCCCCCCCCCCCCCCCCCCCCCC(=O)[O-]
REMARK SMILES IDX 16 1 17 2 18 3 19 4 20 5 21 6 22 7 23 8 24 9 25 10 26 11
REMARK SMILES IDX 27 12 28 13 29 14 30 15 31 16 32 17 15 18 14 19 13 20 12 21
REMARK SMILES IDX 11 22 10 23 9 24 8 25 7 26 6 27 5 28 4 29 3 30 2 31 1 32
REMARK H PARENT
REMARK Flexibility Score: inf
ROOT
ATOM      1  C   UNL     1    -113.344  38.359 -13.865  1.00  0.00     0.000 C 
ENDROOT
BRANCH   1   2
ATOM      2  C   UNL     1    -112.390  38.878 -12.776  1.00  0.00     0.000 C 
BRANCH   2   3
ATOM      3  C   UNL     1    -112.931  40.126 -12.059  1.00  0.00     0.000 C 
BRANCH   3   4
ATOM      4  C   UNL     1    -114.066  40.809 -12.836  1.00  0.00     0.000 C 
BRANCH   4   5
ATOM      5  C   UNL     1    -114.796  41.832 -11.950  1.00  0.00     0.000 C 
BRANCH   5   6
ATOM      6  C   UNL     1    -113.914  42.374 -10.814  1.00  0.00     0.000 C 
BRANCH   6   7
ATOM      7  C   UNL     1    -113.472  43.831 -11.047  1.00  0.00     0.000 C 
BRANCH   7   8
ATOM      8  C   UNL     1    -111.945  44.007 -10.964  1.00  0.00     0.000 C 
BRANCH   8   9
ATOM      9  C   UNL     1    -111.193  43.757 -12.286  1.00  0.00     0.000 C 
BRANCH   9  10
ATOM     10  C   UNL     1    -111.927  44.331 -13.511  1.00  0.00     0.000 C 
BRANCH  10  11
ATOM     11  C   UNL     1    -112.102  43.288 -14.633  1.00  0.00     0.000 C 
BRANCH  11  12
ATOM     12  C   UNL     1    -110.777  42.682 -15.137  1.00  0.00     0.000 C 
BRANCH  12  13
ATOM     13  C   UNL     1    -110.732  41.145 -15.153  1.00  0.00     0.006 C 
BRANCH  13  14
ATOM     14  C   UNL     1    -109.564  40.577 -14.336  1.00  0.00     0.053 C 
BRANCH  14  15
ATOM     15  C   UNL     1    -108.445  40.160 -15.239  1.00  0.00     0.041 C 
ATOM     16  O   UNL     1    -108.502  39.060 -15.850  1.00  0.00    -0.550 OA
ATOM     17  O   UNL     1    -107.325  40.972 -15.383  1.00  0.00    -0.550 OA
ENDBRANCH  14  15
ENDBRANCH  13  14
ENDBRANCH  12  13
ENDBRANCH  11  12
ENDBRANCH  10  11
ENDBRANCH   9  10
ENDBRANCH   8   9
ENDBRANCH   7   8
ENDBRANCH   6   7
ENDBRANCH   5   6
ENDBRANCH   4   5
ENDBRANCH   3   4
ENDBRANCH   2   3
ENDBRANCH   1   2
BRANCH   1  18
ATOM     18  C   UNL     1    -112.708  37.268 -14.742  1.00  0.00     0.000 C 
BRANCH  18  19
ATOM     19  C   UNL     1    -113.711  36.332 -15.446  1.00  0.00     0.000 C 
BRANCH  19  20
ATOM     20  C   UNL     1    -114.037  35.031 -14.690  1.00  0.00     0.000 C 
BRANCH  20  21
ATOM     21  C   UNL     1    -115.215  35.191 -13.712  1.00  0.00     0.000 C 
BRANCH  21  22
ATOM     22  C   UNL     1    -115.585  33.870 -13.011  1.00  0.00     0.000 C 
BRANCH  22  23
ATOM     23  C   UNL     1    -115.353  33.878 -11.488  1.00  0.00     0.000 C 
BRANCH  23  24
ATOM     24  C   UNL     1    -116.579  33.376 -10.701  1.00  0.00    -0.000 C 
BRANCH  24  25
ATOM     25  C   UNL     1    -116.497  33.714  -9.203  1.00  0.00    -0.000 C 
BRANCH  25  26
ATOM     26  C   UNL     1    -115.051  33.840  -8.699  1.00  0.00    -0.000 C 
BRANCH  26  27
ATOM     27  C   UNL     1    -114.956  34.871  -7.564  1.00  0.00    -0.000 C 
BRANCH  27  28
ATOM     28  C   UNL     1    -116.284  35.606  -7.310  1.00  0.00    -0.000 C 
BRANCH  28  29
ATOM     29  C   UNL     1    -116.336  37.059  -7.824  1.00  0.00    -0.000 C 
BRANCH  29  30
ATOM     30  C   UNL     1    -115.125  37.499  -8.673  1.00  0.00    -0.000 C 
BRANCH  30  31
ATOM     31  C   UNL     1    -115.462  38.450  -9.834  1.00  0.00    -0.003 C 
ATOM     32  C   UNL     1    -115.761  37.714 -11.140  1.00  0.00     0.004 C 
ENDBRANCH  30  31
ENDBRANCH  29  30
ENDBRANCH  28  29
ENDBRANCH  27  28
ENDBRANCH  26  27
ENDBRANCH  25  26
ENDBRANCH  24  25
ENDBRANCH  23  24
ENDBRANCH  22  23
ENDBRANCH  21  22
ENDBRANCH  20  21
ENDBRANCH  19  20
ENDBRANCH  18  19
ENDBRANCH   1  18
TORSDOF 28
ENDMDL
MODEL 6
REMARK VINA RESULT:    -2.903      3.048      6.471
REMARK INTER + INTRA:         -12.725
REMARK INTER:                  -8.663
REMARK INTRA:                  -4.062
REMARK UNBOUND:                -5.070
REMARK SMILES CCCCCCCCCCCCCCCCCCCCCCCCCCCCCC(=O)[O-]
REMARK SMILES IDX 16 1 17 2 18 3 19 4 20 5 21 6 22 7 23 8 24 9 25 10 26 11
REMARK SMILES IDX 27 12 28 13 29 14 30 15 31 16 32 17 15 18 14 19 13 20 12 21
REMARK SMILES IDX 11 22 10 23 9 24 8 25 7 26 6 27 5 28 4 29 3 30 2 31 1 32
REMARK H PARENT
REMARK Flexibility Score: inf
ROOT
ATOM      1  C   UNL     1    -116.590  37.188  -7.504  1.00  0.00     0.000 C 
ENDROOT
BRANCH   1   2
ATOM      2  C   UNL     1    -117.078  37.413  -8.945  1.00  0.00     0.000 C 
BRANCH   2   3
ATOM      3  C   UNL     1    -115.962  37.909  -9.879  1.00  0.00     0.000 C 
BRANCH   3   4
ATOM      4  C   UNL     1    -114.715  38.377  -9.113  1.00  0.00     0.000 C 
BRANCH   4   5
ATOM      5  C   UNL     1    -114.680  39.910  -9.009  1.00  0.00     0.000 C 
BRANCH   5   6
ATOM      6  C   UNL     1    -114.157  40.583 -10.289  1.00  0.00     0.000 C 
BRANCH   6   7
ATOM      7  C   UNL     1    -113.921  42.095 -10.113  1.00  0.00     0.000 C 
BRANCH   7   8
ATOM      8  C   UNL     1    -112.507  42.528 -10.539  1.00  0.00     0.000 C 
BRANCH   8   9
ATOM      9  C   UNL     1    -112.444  43.859 -11.312  1.00  0.00     0.000 C 
BRANCH   9  10
ATOM     10  C   UNL     1    -111.263  43.925 -12.298  1.00  0.00     0.000 C 
BRANCH  10  11
ATOM     11  C   UNL     1    -111.098  42.622 -13.106  1.00  0.00     0.000 C 
BRANCH  11  12
ATOM     12  C   UNL     1    -110.880  42.846 -14.615  1.00  0.00     0.000 C 
BRANCH  12  13
ATOM     13  C   UNL     1    -110.143  41.707 -15.340  1.00  0.00     0.006 C 
BRANCH  13  14
ATOM     14  C   UNL     1    -109.654  40.613 -14.381  1.00  0.00     0.053 C 
BRANCH  14  15
ATOM     15  C   UNL     1    -108.499  39.871 -14.977  1.00  0.00     0.041 C 
ATOM     16  O   UNL     1    -108.703  38.927 -15.785  1.00  0.00    -0.550 OA
ATOM     17  O   UNL     1    -107.197  40.200 -14.616  1.00  0.00    -0.550 OA
ENDBRANCH  14  15
ENDBRANCH  13  14
ENDBRANCH  12  13
ENDBRANCH  11  12
ENDBRANCH  10  11
ENDBRANCH   9  10
ENDBRANCH   8   9
ENDBRANCH   7   8
ENDBRANCH   6   7
ENDBRANCH   5   6
ENDBRANCH   4   5
ENDBRANCH   3   4
ENDBRANCH   2   3
ENDBRANCH   1   2
BRANCH   1  18
ATOM     18  C   UNL     1    -116.485  35.698  -7.139  1.00  0.00     0.000 C 
BRANCH  18  19
ATOM     19  C   UNL     1    -115.197  34.999  -7.618  1.00  0.00     0.000 C 
BRANCH  19  20
ATOM     20  C   UNL     1    -115.409  33.836  -8.604  1.00  0.00     0.000 C 
BRANCH  20  21
ATOM     21  C   UNL     1    -115.229  34.261 -10.072  1.00  0.00     0.000 C 
BRANCH  21  22
ATOM     22  C   UNL     1    -116.564  34.324 -10.838  1.00  0.00     0.000 C 
BRANCH  22  23
ATOM     23  C   UNL     1    -116.410  34.423 -12.368  1.00  0.00     0.000 C 
BRANCH  23  24
ATOM     24  C   UNL     1    -115.050  33.892 -12.861  1.00  0.00    -0.000 C 
BRANCH  24  25
ATOM     25  C   UNL     1    -115.156  33.161 -14.210  1.00  0.00    -0.000 C 
BRANCH  25  26
ATOM     26  C   UNL     1    -114.831  34.067 -15.406  1.00  0.00    -0.000 C 
BRANCH  26  27
ATOM     27  C   UNL     1    -113.695  35.042 -15.059  1.00  0.00    -0.000 C 
BRANCH  27  28
ATOM     28  C   UNL     1    -113.980  36.483 -15.520  1.00  0.00    -0.000 C 
BRANCH  28  29
ATOM     29  C   UNL     1    -114.967  37.269 -14.633  1.00  0.00    -0.000 C 
BRANCH  29  30
ATOM     30  C   UNL     1    -114.457  37.597 -13.215  1.00  0.00    -0.000 C 
BRANCH  30  31
ATOM     31  C   UNL     1    -113.158  38.418 -13.169  1.00  0.00    -0.003 C 
ATOM     32  C   UNL     1    -113.312  39.813 -13.775  1.00  0.00     0.004 C 
ENDBRANCH  30  31
ENDBRANCH  29  30
ENDBRANCH  28  29
ENDBRANCH  27  28
ENDBRANCH  26  27
ENDBRANCH  25  26
ENDBRANCH  24  25
ENDBRANCH  23  24
ENDBRANCH  22  23
ENDBRANCH  21  22
ENDBRANCH  20  21
ENDBRANCH  19  20
ENDBRANCH  18  19
ENDBRANCH   1  18
TORSDOF 28
ENDMDL
MODEL 7
REMARK VINA RESULT:    -2.893      2.862      6.485
REMARK INTER + INTRA:         -12.697
REMARK INTER:                  -7.440
REMARK INTRA:                  -5.257
REMARK UNBOUND:                -5.070
REMARK SMILES CCCCCCCCCCCCCCCCCCCCCCCCCCCCCC(=O)[O-]
REMARK SMILES IDX 16 1 17 2 18 3 19 4 20 5 21 6 22 7 23 8 24 9 25 10 26 11
REMARK SMILES IDX 27 12 28 13 29 14 30 15 31 16 32 17 15 18 14 19 13 20 12 21
REMARK SMILES IDX 11 22 10 23 9 24 8 25 7 26 6 27 5 28 4 29 3 30 2 31 1 32
REMARK H PARENT
REMARK Flexibility Score: inf
ROOT
ATOM      1  C   UNL     1    -116.093  38.472  -8.040  1.00  0.00     0.000 C 
ENDROOT
BRANCH   1   2
ATOM      2  C   UNL     1    -116.790  39.822  -7.798  1.00  0.00     0.000 C 
BRANCH   2   3
ATOM      3  C   UNL     1    -116.168  40.612  -6.636  1.00  0.00     0.000 C 
BRANCH   3   4
ATOM      4  C   UNL     1    -115.287  41.775  -7.117  1.00  0.00     0.000 C 
BRANCH   4   5
ATOM      5  C   UNL     1    -115.915  42.467  -8.338  1.00  0.00     0.000 C 
BRANCH   5   6
ATOM      6  C   UNL     1    -114.928  42.629  -9.506  1.00  0.00     0.000 C 
BRANCH   6   7
ATOM      7  C   UNL     1    -113.582  41.926  -9.249  1.00  0.00     0.000 C 
BRANCH   7   8
ATOM      8  C   UNL     1    -112.496  42.339 -10.259  1.00  0.00     0.000 C 
BRANCH   8   9
ATOM      9  C   UNL     1    -113.016  43.098 -11.494  1.00  0.00     0.000 C 
BRANCH   9  10
ATOM     10  C   UNL     1    -111.886  43.696 -12.351  1.00  0.00     0.000 C 
BRANCH  10  11
ATOM     11  C   UNL     1    -111.088  42.615 -13.109  1.00  0.00     0.000 C 
BRANCH  11  12
ATOM     12  C   UNL     1    -111.905  41.875 -14.185  1.00  0.00     0.000 C 
BRANCH  12  13
ATOM     13  C   UNL     1    -111.070  41.245 -15.313  1.00  0.00     0.006 C 
BRANCH  13  14
ATOM     14  C   UNL     1    -109.560  41.337 -15.056  1.00  0.00     0.053 C 
BRANCH  14  15
ATOM     15  C   UNL     1    -108.944  39.973 -15.053  1.00  0.00     0.041 C 
ATOM     16  O   UNL     1    -107.696  39.843 -14.939  1.00  0.00    -0.550 OA
ATOM     17  O   UNL     1    -109.744  38.845 -15.207  1.00  0.00    -0.550 OA
ENDBRANCH  14  15
ENDBRANCH  13  14
ENDBRANCH  12  13
ENDBRANCH  11  12
ENDBRANCH  10  11
ENDBRANCH   9  10
ENDBRANCH   8   9
ENDBRANCH   7   8
ENDBRANCH   6   7
ENDBRANCH   5   6
ENDBRANCH   4   5
ENDBRANCH   3   4
ENDBRANCH   2   3
ENDBRANCH   1   2
BRANCH   1  18
ATOM     18  C   UNL     1    -114.914  38.580  -9.021  1.00  0.00     0.000 C 
BRANCH  18  19
ATOM     19  C   UNL     1    -115.260  38.267 -10.490  1.00  0.00     0.000 C 
BRANCH  19  20
ATOM     20  C   UNL     1    -115.669  39.483 -11.341  1.00  0.00     0.000 C 
BRANCH  20  21
ATOM     21  C   UNL     1    -114.581  39.897 -12.348  1.00  0.00     0.000 C 
BRANCH  21  22
ATOM     22  C   UNL     1    -113.235  39.194 -12.087  1.00  0.00     0.000 C 
BRANCH  22  23
ATOM     23  C   UNL     1    -112.692  38.404 -13.293  1.00  0.00     0.000 C 
BRANCH  23  24
ATOM     24  C   UNL     1    -113.681  38.370 -14.473  1.00  0.00    -0.000 C 
BRANCH  24  25
ATOM     25  C   UNL     1    -114.234  36.960 -14.740  1.00  0.00    -0.000 C 
BRANCH  25  26
ATOM     26  C   UNL     1    -115.513  36.660 -13.945  1.00  0.00    -0.000 C 
BRANCH  26  27
ATOM     27  C   UNL     1    -115.259  35.570 -12.893  1.00  0.00    -0.000 C 
BRANCH  27  28
ATOM     28  C   UNL     1    -116.543  35.121 -12.174  1.00  0.00    -0.000 C 
BRANCH  28  29
ATOM     29  C   UNL     1    -116.340  34.060 -11.073  1.00  0.00    -0.000 C 
BRANCH  29  30
ATOM     30  C   UNL     1    -116.358  34.600  -9.629  1.00  0.00    -0.000 C 
BRANCH  30  31
ATOM     31  C   UNL     1    -115.144  34.198  -8.773  1.00  0.00    -0.003 C 
ATOM     32  C   UNL     1    -115.097  34.923  -7.429  1.00  0.00     0.004 C 
ENDBRANCH  30  31
ENDBRANCH  29  30
ENDBRANCH  28  29
ENDBRANCH  27  28
ENDBRANCH  26  27
ENDBRANCH  25  26
ENDBRANCH  24  25
ENDBRANCH  23  24
ENDBRANCH  22  23
ENDBRANCH  21  22
ENDBRANCH  20  21
ENDBRANCH  19  20
ENDBRANCH  18  19
ENDBRANCH   1  18
TORSDOF 28
ENDMDL
MODEL 8
REMARK VINA RESULT:    -2.868      3.044      8.880
REMARK INTER + INTRA:         -12.632
REMARK INTER:                  -7.999
REMARK INTRA:                  -4.633
REMARK UNBOUND:                -5.070
REMARK SMILES CCCCCCCCCCCCCCCCCCCCCCCCCCCCCC(=O)[O-]
REMARK SMILES IDX 16 1 17 2 18 3 19 4 20 5 21 6 22 7 23 8 24 9 25 10 26 11
REMARK SMILES IDX 27 12 28 13 29 14 30 15 31 16 32 17 15 18 14 19 13 20 12 21
REMARK SMILES IDX 11 22 10 23 9 24 8 25 7 26 6 27 5 28 4 29 3 30 2 31 1 32
REMARK H PARENT
REMARK Flexibility Score: inf
ROOT
ATOM      1  C   UNL     1    -115.382  37.540  -8.751  1.00  0.00     0.000 C 
ENDROOT
BRANCH   1   2
ATOM      2  C   UNL     1    -116.526  36.951  -7.908  1.00  0.00     0.000 C 
BRANCH   2   3
ATOM      3  C   UNL     1    -116.104  35.695  -7.130  1.00  0.00     0.000 C 
BRANCH   3   4
ATOM      4  C   UNL     1    -114.884  34.997  -7.751  1.00  0.00     0.000 C 
BRANCH   4   5
ATOM      5  C   UNL     1    -115.319  33.802  -8.615  1.00  0.00     0.000 C 
BRANCH   5   6
ATOM      6  C   UNL     1    -115.266  34.103 -10.122  1.00  0.00     0.000 C 
BRANCH   6   7
ATOM      7  C   UNL     1    -116.646  33.999 -10.799  1.00  0.00     0.000 C 
BRANCH   7   8
ATOM      8  C   UNL     1    -116.544  33.741 -12.313  1.00  0.00     0.000 C 
BRANCH   8   9
ATOM      9  C   UNL     1    -115.217  33.109 -12.774  1.00  0.00     0.000 C 
BRANCH   9  10
ATOM     10  C   UNL     1    -114.879  33.427 -14.242  1.00  0.00     0.000 C 
BRANCH  10  11
ATOM     11  C   UNL     1    -115.594  34.697 -14.748  1.00  0.00     0.000 C 
BRANCH  11  12
ATOM     12  C   UNL     1    -114.664  35.692 -15.471  1.00  0.00     0.000 C 
BRANCH  12  13
ATOM     13  C   UNL     1    -113.162  35.393 -15.330  1.00  0.00     0.006 C 
BRANCH  13  14
ATOM     14  C   UNL     1    -112.281  36.589 -15.716  1.00  0.00     0.053 C 
BRANCH  14  15
ATOM     15  C   UNL     1    -110.833  36.222 -15.634  1.00  0.00     0.041 C 
ATOM     16  O   UNL     1    -110.476  35.021 -15.760  1.00  0.00    -0.550 OA
ATOM     17  O   UNL     1    -109.878  37.203 -15.386  1.00  0.00    -0.550 OA
ENDBRANCH  14  15
ENDBRANCH  13  14
ENDBRANCH  12  13
ENDBRANCH  11  12
ENDBRANCH  10  11
ENDBRANCH   9  10
ENDBRANCH   8   9
ENDBRANCH   7   8
ENDBRANCH   6   7
ENDBRANCH   5   6
ENDBRANCH   4   5
ENDBRANCH   3   4
ENDBRANCH   2   3
ENDBRANCH   1   2
BRANCH   1  18
ATOM     18  C   UNL     1    -115.886  38.449  -9.884  1.00  0.00     0.000 C 
BRANCH  18  19
ATOM     19  C   UNL     1    -116.414  37.706 -11.128  1.00  0.00     0.000 C 
BRANCH  19  20
ATOM     20  C   UNL     1    -115.336  37.258 -12.131  1.00  0.00     0.000 C 
BRANCH  20  21
ATOM     21  C   UNL     1    -114.295  38.357 -12.415  1.00  0.00     0.000 C 
BRANCH  21  22
ATOM     22  C   UNL     1    -114.415  38.930 -13.840  1.00  0.00     0.000 C 
BRANCH  22  23
ATOM     23  C   UNL     1    -114.040  40.420 -13.953  1.00  0.00     0.000 C 
BRANCH  23  24
ATOM     24  C   UNL     1    -112.748  40.646 -14.761  1.00  0.00    -0.000 C 
BRANCH  24  25
ATOM     25  C   UNL     1    -111.521  39.991 -14.107  1.00  0.00    -0.000 C 
BRANCH  25  26
ATOM     26  C   UNL     1    -110.515  41.018 -13.565  1.00  0.00    -0.000 C 
BRANCH  26  27
ATOM     27  C   UNL     1    -110.893  42.439 -14.009  1.00  0.00    -0.000 C 
BRANCH  27  28
ATOM     28  C   UNL     1    -111.159  43.386 -12.825  1.00  0.00    -0.000 C 
BRANCH  28  29
ATOM     29  C   UNL     1    -112.599  43.928 -12.733  1.00  0.00    -0.000 C 
BRANCH  29  30
ATOM     30  C   UNL     1    -113.492  43.244 -11.676  1.00  0.00    -0.000 C 
BRANCH  30  31
ATOM     31  C   UNL     1    -112.811  42.108 -10.893  1.00  0.00    -0.003 C 
ATOM     32  C   UNL     1    -112.691  42.403  -9.399  1.00  0.00     0.004 C 
ENDBRANCH  30  31
ENDBRANCH  29  30
ENDBRANCH  28  29
ENDBRANCH  27  28
ENDBRANCH  26  27
ENDBRANCH  25  26
ENDBRANCH  24  25
ENDBRANCH  23  24
ENDBRANCH  22  23
ENDBRANCH  21  22
ENDBRANCH  20  21
ENDBRANCH  19  20
ENDBRANCH  18  19
ENDBRANCH   1  18
TORSDOF 28
ENDMDL
MODEL 9
REMARK VINA RESULT:    -2.836      1.239      5.849
REMARK INTER + INTRA:         -12.548
REMARK INTER:                  -7.601
REMARK INTRA:                  -4.947
REMARK UNBOUND:                -5.070
REMARK SMILES CCCCCCCCCCCCCCCCCCCCCCCCCCCCCC(=O)[O-]
REMARK SMILES IDX 16 1 17 2 18 3 19 4 20 5 21 6 22 7 23 8 24 9 25 10 26 11
REMARK SMILES IDX 27 12 28 13 29 14 30 15 31 16 32 17 15 18 14 19 13 20 12 21
REMARK SMILES IDX 11 22 10 23 9 24 8 25 7 26 6 27 5 28 4 29 3 30 2 31 1 32
REMARK H PARENT
REMARK Flexibility Score: inf
ROOT
ATOM      1  C   UNL     1    -115.241  36.340  -8.266  1.00  0.00     0.000 C 
ENDROOT
BRANCH   1   2
ATOM      2  C   UNL     1    -116.647  36.961  -8.323  1.00  0.00     0.000 C 
BRANCH   2   3
ATOM      3  C   UNL     1    -117.060  37.367  -9.747  1.00  0.00     0.000 C 
BRANCH   3   4
ATOM      4  C   UNL     1    -115.878  37.888 -10.578  1.00  0.00     0.000 C 
BRANCH   4   5
ATOM      5  C   UNL     1    -116.357  38.898 -11.635  1.00  0.00     0.000 C 
BRANCH   5   6
ATOM      6  C   UNL     1    -115.261  39.264 -12.650  1.00  0.00     0.000 C 
BRANCH   6   7
ATOM      7  C   UNL     1    -113.871  38.745 -12.239  1.00  0.00     0.000 C 
BRANCH   7   8
ATOM      8  C   UNL     1    -112.794  39.845 -12.272  1.00  0.00     0.000 C 
BRANCH   8   9
ATOM      9  C   UNL     1    -113.309  41.263 -11.960  1.00  0.00     0.000 C 
BRANCH   9  10
ATOM     10  C   UNL     1    -113.113  41.661 -10.485  1.00  0.00     0.000 C 
BRANCH  10  11
ATOM     11  C   UNL     1    -114.437  41.654  -9.694  1.00  0.00     0.000 C 
BRANCH  11  12
ATOM     12  C   UNL     1    -114.479  40.614  -8.556  1.00  0.00     0.000 C 
BRANCH  12  13
ATOM     13  C   UNL     1    -115.806  40.556  -7.780  1.00  0.00     0.006 C 
BRANCH  13  14
ATOM     14  C   UNL     1    -115.605  40.581  -6.259  1.00  0.00     0.053 C 
BRANCH  14  15
ATOM     15  C   UNL     1    -115.793  41.967  -5.727  1.00  0.00     0.041 C 
ATOM     16  O   UNL     1    -115.254  42.946  -6.308  1.00  0.00    -0.550 OA
ATOM     17  O   UNL     1    -116.539  42.175  -4.572  1.00  0.00    -0.550 OA
ENDBRANCH  14  15
ENDBRANCH  13  14
ENDBRANCH  12  13
ENDBRANCH  11  12
ENDBRANCH  10  11
ENDBRANCH   9  10
ENDBRANCH   8   9
ENDBRANCH   7   8
ENDBRANCH   6   7
ENDBRANCH   5   6
ENDBRANCH   4   5
ENDBRANCH   3   4
ENDBRANCH   2   3
ENDBRANCH   1   2
BRANCH   1  18
ATOM     18  C   UNL     1    -115.256  34.881  -7.781  1.00  0.00     0.000 C 
BRANCH  18  19
ATOM     19  C   UNL     1    -115.247  33.823  -8.903  1.00  0.00     0.000 C 
BRANCH  19  20
ATOM     20  C   UNL     1    -116.624  33.503  -9.513  1.00  0.00     0.000 C 
BRANCH  20  21
ATOM     21  C   UNL     1    -116.685  33.794 -11.024  1.00  0.00     0.000 C 
BRANCH  21  22
ATOM     22  C   UNL     1    -115.318  34.198 -11.605  1.00  0.00     0.000 C 
BRANCH  22  23
ATOM     23  C   UNL     1    -115.294  34.312 -13.141  1.00  0.00     0.000 C 
BRANCH  23  24
ATOM     24  C   UNL     1    -115.704  35.712 -13.637  1.00  0.00    -0.000 C 
BRANCH  24  25
ATOM     25  C   UNL     1    -114.823  36.209 -14.795  1.00  0.00    -0.000 C 
BRANCH  25  26
ATOM     26  C   UNL     1    -113.593  35.320 -15.033  1.00  0.00    -0.000 C 
BRANCH  26  27
ATOM     27  C   UNL     1    -112.458  36.122 -15.689  1.00  0.00    -0.000 C 
BRANCH  27  28
ATOM     28  C   UNL     1    -111.634  36.933 -14.673  1.00  0.00    -0.000 C 
BRANCH  28  29
ATOM     29  C   UNL     1    -111.187  38.327 -15.158  1.00  0.00    -0.000 C 
BRANCH  29  30
ATOM     30  C   UNL     1    -109.756  38.396 -15.729  1.00  0.00    -0.000 C 
BRANCH  30  31
ATOM     31  C   UNL     1    -108.940  39.621 -15.281  1.00  0.00    -0.003 C 
ATOM     32  C   UNL     1    -109.612  40.405 -14.155  1.00  0.00     0.004 C 
ENDBRANCH  30  31
ENDBRANCH  29  30
ENDBRANCH  28  29
ENDBRANCH  27  28
ENDBRANCH  26  27
ENDBRANCH  25  26
ENDBRANCH  24  25
ENDBRANCH  23  24
ENDBRANCH  22  23
ENDBRANCH  21  22
ENDBRANCH  20  21
ENDBRANCH  19  20
ENDBRANCH  18  19
ENDBRANCH   1  18
TORSDOF 28
ENDMDL
