MODEL 1
REMARK VINA RESULT:    -6.311      0.000      0.000
REMARK INTER + INTRA:          -9.777
REMARK INTER:                  -9.078
REMARK INTRA:                  -0.700
REMARK UNBOUND:                -0.700
REMARK SMILES O=C(CO)[C@@H](O)[C@H](O)[C@@H](O)CO
REMARK SMILES IDX 7 1 9 2 11 3 12 4 10 6 5 8 2 9 1 10 3 11 4 12 6 14 8 16
REMARK H PARENT 12 5 10 7 4 13 6 15 8 17
REMARK Flexibility Score: inf
ROOT
ATOM      1  C   UNL     1      -0.852  30.229  44.223  1.00  0.00     0.181 C 
ENDROOT
BRANCH   1   2
ATOM      2  C   UNL     1      -2.032  29.389  44.776  1.00  0.00     0.171 C 
BRANCH   2   3
ATOM      3  C   UNL     1      -1.558  28.003  45.236  1.00  0.00     0.190 C 
BRANCH   3   4
ATOM      4  O   UNL     1      -0.807  28.124  46.413  1.00  0.00    -0.394 OA
ATOM      5  H   UNL     1      -1.438  27.959  47.161  1.00  0.00     0.210 HD
ENDBRANCH   3   4
ENDBRANCH   2   3
BRANCH   2   6
ATOM      6  O   UNL     1      -3.025  29.250  43.790  1.00  0.00    -0.388 OA
ATOM      7  H   UNL     1      -2.569  28.954  42.959  1.00  0.00     0.211 HD
ENDBRANCH   2   6
ENDBRANCH   1   2
BRANCH   1   8
ATOM      8  C   UNL     1      -0.047  29.485  43.125  1.00  0.00     0.214 C 
BRANCH   8   9
ATOM      9  C   UNL     1       0.072  30.311  41.865  1.00  0.00     0.189 C 
ATOM     10  O   UNL     1      -0.647  31.288  41.718  1.00  0.00    -0.294 OA
BRANCH   9  11
ATOM     11  C   UNL     1       1.084  29.980  40.800  1.00  0.00     0.234 C 
BRANCH  11  12
ATOM     12  O   UNL     1       2.361  30.397  41.201  1.00  0.00    -0.388 OA
ATOM     13  H   UNL     1       2.510  30.030  42.111  1.00  0.00     0.211 HD
ENDBRANCH  11  12
ENDBRANCH   9  11
ENDBRANCH   8   9
BRANCH   8  14
ATOM     14  O   UNL     1       1.245  29.190  43.592  1.00  0.00    -0.382 OA
ATOM     15  H   UNL     1       1.757  30.039  43.596  1.00  0.00     0.211 HD
ENDBRANCH   8  14
ENDBRANCH   1   8
BRANCH   1  16
ATOM     16  O   UNL     1       0.001  30.636  45.266  1.00  0.00    -0.387 OA
ATOM     17  H   UNL     1      -0.486  30.511  46.122  1.00  0.00     0.211 HD
ENDBRANCH   1  16
TORSDOF 10
ENDMDL
MODEL 2
REMARK VINA RESULT:    -6.167      1.575      2.312
REMARK INTER + INTRA:          -9.570
REMARK INTER:                  -9.423
REMARK INTRA:                  -0.147
REMARK UNBOUND:                -0.700
REMARK SMILES O=C(CO)[C@@H](O)[C@H](O)[C@@H](O)CO
REMARK SMILES IDX 7 1 9 2 11 3 12 4 10 6 5 8 2 9 1 10 3 11 4 12 6 14 8 16
REMARK H PARENT 12 5 10 7 4 13 6 15 8 17
REMARK Flexibility Score: inf
ROOT
ATOM      1  C   UNL     1      -1.378  30.585  43.283  1.00  0.00     0.181 C 
ENDROOT
BRANCH   1   2
ATOM      2  C   UNL     1      -0.626  29.905  44.456  1.00  0.00     0.171 C 
BRANCH   2   3
ATOM      3  C   UNL     1      -1.582  29.064  45.313  1.00  0.00     0.190 C 
BRANCH   3   4
ATOM      4  O   UNL     1      -0.908  28.578  46.441  1.00  0.00    -0.394 OA
ATOM      5  H   UNL     1      -0.080  29.118  46.521  1.00  0.00     0.210 HD
ENDBRANCH   3   4
ENDBRANCH   2   3
BRANCH   2   6
ATOM      6  O   UNL     1      -0.002  30.879  45.254  1.00  0.00    -0.388 OA
ATOM      7  H   UNL     1      -0.600  31.671  45.267  1.00  0.00     0.211 HD
ENDBRANCH   2   6
ENDBRANCH   1   2
BRANCH   1   8
ATOM      8  C   UNL     1      -0.440  30.973  42.110  1.00  0.00     0.214 C 
BRANCH   8   9
ATOM      9  C   UNL     1      -0.330  29.862  41.092  1.00  0.00     0.189 C 
ATOM     10  O   UNL     1      -1.314  29.183  40.838  1.00  0.00    -0.294 OA
BRANCH   9  11
ATOM     11  C   UNL     1       0.954  29.595  40.354  1.00  0.00     0.234 C 
BRANCH  11  12
ATOM     12  O   UNL     1       0.699  28.856  39.191  1.00  0.00    -0.388 OA
ATOM     13  H   UNL     1       1.580  28.588  38.823  1.00  0.00     0.211 HD
ENDBRANCH  11  12
ENDBRANCH   9  11
ENDBRANCH   8   9
BRANCH   8  14
ATOM     14  O   UNL     1      -0.924  32.125  41.467  1.00  0.00    -0.382 OA
ATOM     15  H   UNL     1      -1.057  32.817  42.165  1.00  0.00     0.211 HD
ENDBRANCH   8  14
ENDBRANCH   1   8
BRANCH   1  16
ATOM     16  O   UNL     1      -2.090  31.713  43.736  1.00  0.00    -0.387 OA
ATOM     17  H   UNL     1      -2.684  31.419  44.475  1.00  0.00     0.211 HD
ENDBRANCH   1  16
TORSDOF 10
ENDMDL
MODEL 3
REMARK VINA RESULT:    -6.078      1.028      4.529
REMARK INTER + INTRA:          -9.442
REMARK INTER:                  -9.075
REMARK INTRA:                  -0.367
REMARK UNBOUND:                -0.700
REMARK SMILES O=C(CO)[C@@H](O)[C@H](O)[C@@H](O)CO
REMARK SMILES IDX 7 1 9 2 11 3 12 4 10 6 5 8 2 9 1 10 3 11 4 12 6 14 8 16
REMARK H PARENT 12 5 10 7 4 13 6 15 8 17
REMARK Flexibility Score: inf
ROOT
ATOM      1  C   UNL     1       0.184  29.469  42.655  1.00  0.00     0.181 C 
ENDROOT
BRANCH   1   2
ATOM      2  C   UNL     1       0.582  30.215  41.356  1.00  0.00     0.171 C 
BRANCH   2   3
ATOM      3  C   UNL     1      -0.008  29.523  40.118  1.00  0.00     0.190 C 
BRANCH   3   4
ATOM      4  O   UNL     1       1.003  28.847  39.424  1.00  0.00    -0.394 OA
ATOM      5  H   UNL     1       1.038  27.933  39.808  1.00  0.00     0.210 HD
ENDBRANCH   3   4
ENDBRANCH   2   3
BRANCH   2   6
ATOM      6  O   UNL     1       1.981  30.274  41.246  1.00  0.00    -0.388 OA
ATOM      7  H   UNL     1       2.333  30.519  42.142  1.00  0.00     0.211 HD
ENDBRANCH   2   6
ENDBRANCH   1   2
BRANCH   1   8
ATOM      8  C   UNL     1      -0.796  30.283  43.541  1.00  0.00     0.214 C 
BRANCH   8   9
ATOM      9  C   UNL     1      -1.864  29.402  44.146  1.00  0.00     0.189 C 
ATOM     10  O   UNL     1      -3.024  29.533  43.784  1.00  0.00    -0.294 OA
BRANCH   9  11
ATOM     11  C   UNL     1      -1.529  28.340  45.158  1.00  0.00     0.234 C 
BRANCH  11  12
ATOM     12  O   UNL     1      -1.102  28.931  46.356  1.00  0.00    -0.388 OA
ATOM     13  H   UNL     1      -0.388  29.577  46.117  1.00  0.00     0.211 HD
ENDBRANCH  11  12
ENDBRANCH   9  11
ENDBRANCH   8   9
BRANCH   8  14
ATOM     14  O   UNL     1      -0.093  30.915  44.581  1.00  0.00    -0.382 OA
ATOM     15  H   UNL     1       0.810  30.507  44.615  1.00  0.00     0.211 HD
ENDBRANCH   8  14
ENDBRANCH   1   8
BRANCH   1  16
ATOM     16  O   UNL     1       1.328  29.109  43.393  1.00  0.00    -0.387 OA
ATOM     17  H   UNL     1       2.022  28.809  42.748  1.00  0.00     0.211 HD
ENDBRANCH   1  16
TORSDOF 10
ENDMDL
MODEL 4
REMARK VINA RESULT:    -5.956      1.361      4.417
REMARK INTER + INTRA:          -9.267
REMARK INTER:                  -8.036
REMARK INTRA:                  -1.232
REMARK UNBOUND:                -0.700
REMARK SMILES O=C(CO)[C@@H](O)[C@H](O)[C@@H](O)CO
REMARK SMILES IDX 7 1 9 2 11 3 12 4 10 6 5 8 2 9 1 10 3 11 4 12 6 14 8 16
REMARK H PARENT 12 5 10 7 4 13 6 15 8 17
REMARK Flexibility Score: inf
ROOT
ATOM      1  C   UNL     1       0.435  28.672  42.501  1.00  0.00     0.181 C 
ENDROOT
BRANCH   1   2
ATOM      2  C   UNL     1       0.174  29.713  41.383  1.00  0.00     0.171 C 
BRANCH   2   3
ATOM      3  C   UNL     1       1.186  29.561  40.238  1.00  0.00     0.190 C 
BRANCH   3   4
ATOM      4  O   UNL     1       0.606  28.847  39.182  1.00  0.00    -0.394 OA
ATOM      5  H   UNL     1       1.359  28.458  38.665  1.00  0.00     0.210 HD
ENDBRANCH   3   4
ENDBRANCH   2   3
BRANCH   2   6
ATOM      6  O   UNL     1       0.245  31.013  41.912  1.00  0.00    -0.388 OA
ATOM      7  H   UNL     1       0.019  31.639  41.176  1.00  0.00     0.211 HD
ENDBRANCH   2   6
ENDBRANCH   1   2
BRANCH   1   8
ATOM      8  C   UNL     1      -0.817  28.401  43.377  1.00  0.00     0.214 C 
BRANCH   8   9
ATOM      9  C   UNL     1      -0.591  28.809  44.814  1.00  0.00     0.189 C 
ATOM     10  O   UNL     1       0.012  28.055  45.563  1.00  0.00    -0.294 OA
BRANCH   9  11
ATOM     11  C   UNL     1      -1.058  30.141  45.337  1.00  0.00     0.234 C 
BRANCH  11  12
ATOM     12  O   UNL     1      -0.405  31.181  44.663  1.00  0.00    -0.388 OA
ATOM     13  H   UNL     1      -0.586  32.012  45.174  1.00  0.00     0.211 HD
ENDBRANCH  11  12
ENDBRANCH   9  11
ENDBRANCH   8   9
BRANCH   8  14
ATOM     14  O   UNL     1      -1.919  29.115  42.875  1.00  0.00    -0.382 OA
ATOM     15  H   UNL     1      -1.594  29.657  42.110  1.00  0.00     0.211 HD
ENDBRANCH   8  14
ENDBRANCH   1   8
BRANCH   1  16
ATOM     16  O   UNL     1       1.521  29.067  43.306  1.00  0.00    -0.387 OA
ATOM     17  H   UNL     1       1.170  29.257  44.215  1.00  0.00     0.211 HD
ENDBRANCH   1  16
TORSDOF 10
ENDMDL
MODEL 5
REMARK VINA RESULT:    -5.932     20.134     21.071
REMARK INTER + INTRA:          -9.232
REMARK INTER:                  -9.068
REMARK INTRA:                  -0.164
REMARK UNBOUND:                -0.700
REMARK SMILES O=C(CO)[C@@H](O)[C@H](O)[C@@H](O)CO
REMARK SMILES IDX 7 1 9 2 11 3 12 4 10 6 5 8 2 9 1 10 3 11 4 12 6 14 8 16
REMARK H PARENT 12 5 10 7 4 13 6 15 8 17
REMARK Flexibility Score: inf
ROOT
ATOM      1  C   UNL     1      14.439  14.090  46.691  1.00  0.00     0.181 C 
ENDROOT
BRANCH   1   2
ATOM      2  C   UNL     1      13.348  14.729  47.588  1.00  0.00     0.171 C 
BRANCH   2   3
ATOM      3  C   UNL     1      13.914  15.910  48.390  1.00  0.00     0.190 C 
BRANCH   3   4
ATOM      4  O   UNL     1      12.903  16.479  49.176  1.00  0.00    -0.394 OA
ATOM      5  H   UNL     1      12.417  15.720  49.593  1.00  0.00     0.210 HD
ENDBRANCH   3   4
ENDBRANCH   2   3
BRANCH   2   6
ATOM      6  O   UNL     1      12.823  13.765  48.465  1.00  0.00    -0.388 OA
ATOM      7  H   UNL     1      12.915  14.128  49.384  1.00  0.00     0.211 HD
ENDBRANCH   2   6
ENDBRANCH   1   2
BRANCH   1   8
ATOM      8  C   UNL     1      13.905  13.682  45.292  1.00  0.00     0.214 C 
BRANCH   8   9
ATOM      9  C   UNL     1      14.096  14.786  44.277  1.00  0.00     0.189 C 
ATOM     10  O   UNL     1      14.879  15.692  44.519  1.00  0.00    -0.294 OA
BRANCH   9  11
ATOM     11  C   UNL     1      13.373  14.775  42.957  1.00  0.00     0.234 C 
BRANCH  11  12
ATOM     12  O   UNL     1      14.078  15.535  42.014  1.00  0.00    -0.388 OA
ATOM     13  H   UNL     1      14.427  16.332  42.491  1.00  0.00     0.211 HD
ENDBRANCH  11  12
ENDBRANCH   9  11
ENDBRANCH   8   9
BRANCH   8  14
ATOM     14  O   UNL     1      14.574  12.533  44.837  1.00  0.00    -0.382 OA
ATOM     15  H   UNL     1      15.546  12.732  44.858  1.00  0.00     0.211 HD
ENDBRANCH   8  14
ENDBRANCH   1   8
BRANCH   1  16
ATOM     16  O   UNL     1      15.026  12.984  47.333  1.00  0.00    -0.387 OA
ATOM     17  H   UNL     1      15.237  12.307  46.638  1.00  0.00     0.211 HD
ENDBRANCH   1  16
TORSDOF 10
ENDMDL
MODEL 6
REMARK VINA RESULT:    -5.872     18.711     19.969
REMARK INTER + INTRA:          -9.146
REMARK INTER:                  -8.613
REMARK INTRA:                  -0.534
REMARK UNBOUND:                -0.700
REMARK SMILES O=C(CO)[C@@H](O)[C@H](O)[C@@H](O)CO
REMARK SMILES IDX 7 1 9 2 11 3 12 4 10 6 5 8 2 9 1 10 3 11 4 12 6 14 8 16
REMARK H PARENT 12 5 10 7 4 13 6 15 8 17
REMARK Flexibility Score: inf
ROOT
ATOM      1  C   UNL     1      12.935  16.144  44.675  1.00  0.00     0.181 C 
ENDROOT
BRANCH   1   2
ATOM      2  C   UNL     1      13.130  14.727  44.078  1.00  0.00     0.171 C 
BRANCH   2   3
ATOM      3  C   UNL     1      14.291  14.705  43.073  1.00  0.00     0.190 C 
BRANCH   3   4
ATOM      4  O   UNL     1      14.006  15.557  41.998  1.00  0.00    -0.394 OA
ATOM      5  H   UNL     1      13.042  15.780  42.071  1.00  0.00     0.210 HD
ENDBRANCH   3   4
ENDBRANCH   2   3
BRANCH   2   6
ATOM      6  O   UNL     1      11.946  14.305  43.448  1.00  0.00    -0.388 OA
ATOM      7  H   UNL     1      11.516  15.114  43.066  1.00  0.00     0.211 HD
ENDBRANCH   2   6
ENDBRANCH   1   2
BRANCH   1   8
ATOM      8  C   UNL     1      12.585  16.118  46.186  1.00  0.00     0.214 C 
BRANCH   8   9
ATOM      9  C   UNL     1      13.807  15.869  47.039  1.00  0.00     0.189 C 
ATOM     10  O   UNL     1      14.914  16.111  46.582  1.00  0.00    -0.294 OA
BRANCH   9  11
ATOM     11  C   UNL     1      13.691  15.366  48.452  1.00  0.00     0.234 C 
BRANCH  11  12
ATOM     12  O   UNL     1      12.909  16.244  49.215  1.00  0.00    -0.388 OA
ATOM     13  H   UNL     1      13.512  16.655  49.887  1.00  0.00     0.211 HD
ENDBRANCH  11  12
ENDBRANCH   9  11
ENDBRANCH   8   9
BRANCH   8  14
ATOM     14  O   UNL     1      12.012  17.343  46.569  1.00  0.00    -0.382 OA
ATOM     15  H   UNL     1      12.039  17.940  45.777  1.00  0.00     0.211 HD
ENDBRANCH   8  14
ENDBRANCH   1   8
BRANCH   1  16
ATOM     16  O   UNL     1      11.956  16.857  43.956  1.00  0.00    -0.387 OA
ATOM     17  H   UNL     1      12.165  17.824  44.037  1.00  0.00     0.211 HD
ENDBRANCH   1  16
TORSDOF 10
ENDMDL
MODEL 7
REMARK VINA RESULT:    -5.865     18.738     19.703
REMARK INTER + INTRA:          -9.136
REMARK INTER:                  -8.596
REMARK INTRA:                  -0.541
REMARK UNBOUND:                -0.700
REMARK SMILES O=C(CO)[C@@H](O)[C@H](O)[C@@H](O)CO
REMARK SMILES IDX 7 1 9 2 11 3 12 4 10 6 5 8 2 9 1 10 3 11 4 12 6 14 8 16
REMARK H PARENT 12 5 10 7 4 13 6 15 8 17
REMARK Flexibility Score: inf
ROOT
ATOM      1  C   UNL     1      12.941  16.446  46.397  1.00  0.00     0.181 C 
ENDROOT
BRANCH   1   2
ATOM      2  C   UNL     1      14.244  16.514  47.233  1.00  0.00     0.171 C 
BRANCH   2   3
ATOM      3  C   UNL     1      14.150  15.623  48.480  1.00  0.00     0.190 C 
BRANCH   3   4
ATOM      4  O   UNL     1      13.046  16.004  49.254  1.00  0.00    -0.394 OA
ATOM      5  H   UNL     1      12.366  16.344  48.616  1.00  0.00     0.210 HD
ENDBRANCH   3   4
ENDBRANCH   2   3
BRANCH   2   6
ATOM      6  O   UNL     1      14.500  17.843  47.615  1.00  0.00    -0.388 OA
ATOM      7  H   UNL     1      15.099  17.808  48.405  1.00  0.00     0.211 HD
ENDBRANCH   2   6
ENDBRANCH   1   2
BRANCH   1   8
ATOM      8  C   UNL     1      13.206  16.423  44.868  1.00  0.00     0.214 C 
BRANCH   8   9
ATOM      9  C   UNL     1      13.655  15.059  44.399  1.00  0.00     0.189 C 
ATOM     10  O   UNL     1      13.400  14.078  45.082  1.00  0.00    -0.294 OA
BRANCH   9  11
ATOM     11  C   UNL     1      14.375  14.873  43.091  1.00  0.00     0.234 C 
BRANCH  11  12
ATOM     12  O   UNL     1      13.773  15.652  42.093  1.00  0.00    -0.388 OA
ATOM     13  H   UNL     1      12.797  15.643  42.273  1.00  0.00     0.211 HD
ENDBRANCH  11  12
ENDBRANCH   9  11
ENDBRANCH   8   9
BRANCH   8  14
ATOM     14  O   UNL     1      12.038  16.776  44.171  1.00  0.00    -0.382 OA
ATOM     15  H   UNL     1      12.107  17.742  43.954  1.00  0.00     0.211 HD
ENDBRANCH   8  14
ENDBRANCH   1   8
BRANCH   1  16
ATOM     16  O   UNL     1      12.080  17.510  46.729  1.00  0.00    -0.387 OA
ATOM     17  H   UNL     1      11.234  17.119  47.072  1.00  0.00     0.211 HD
ENDBRANCH   1  16
TORSDOF 10
ENDMDL
MODEL 8
REMARK VINA RESULT:    -5.861     20.205     21.493
REMARK INTER + INTRA:          -9.130
REMARK INTER:                  -8.969
REMARK INTRA:                  -0.161
REMARK UNBOUND:                -0.700
REMARK SMILES O=C(CO)[C@@H](O)[C@H](O)[C@@H](O)CO
REMARK SMILES IDX 7 1 9 2 11 3 12 4 10 6 5 8 2 9 1 10 3 11 4 12 6 14 8 16
REMARK H PARENT 12 5 10 7 4 13 6 15 8 17
REMARK Flexibility Score: inf
ROOT
ATOM      1  C   UNL     1      15.480  14.750  45.239  1.00  0.00     0.181 C 
ENDROOT
BRANCH   1   2
ATOM      2  C   UNL     1      14.919  15.664  44.120  1.00  0.00     0.171 C 
BRANCH   2   3
ATOM      3  C   UNL     1      13.776  14.974  43.362  1.00  0.00     0.190 C 
BRANCH   3   4
ATOM      4  O   UNL     1      13.565  15.613  42.134  1.00  0.00    -0.394 OA
ATOM      5  H   UNL     1      12.863  16.297  42.295  1.00  0.00     0.210 HD
ENDBRANCH   3   4
ENDBRANCH   2   3
BRANCH   2   6
ATOM      6  O   UNL     1      15.945  16.008  43.223  1.00  0.00    -0.388 OA
ATOM      7  H   UNL     1      15.672  16.852  42.778  1.00  0.00     0.211 HD
ENDBRANCH   2   6
ENDBRANCH   1   2
BRANCH   1   8
ATOM      8  C   UNL     1      15.624  15.482  46.599  1.00  0.00     0.214 C 
BRANCH   8   9
ATOM      9  C   UNL     1      14.374  15.353  47.438  1.00  0.00     0.189 C 
ATOM     10  O   UNL     1      13.798  14.277  47.494  1.00  0.00    -0.294 OA
BRANCH   9  11
ATOM     11  C   UNL     1      13.841  16.511  48.239  1.00  0.00     0.234 C 
BRANCH  11  12
ATOM     12  O   UNL     1      13.031  16.044  49.283  1.00  0.00    -0.388 OA
ATOM     13  H   UNL     1      12.092  16.118  48.972  1.00  0.00     0.211 HD
ENDBRANCH  11  12
ENDBRANCH   9  11
ENDBRANCH   8   9
BRANCH   8  14
ATOM     14  O   UNL     1      16.706  14.950  47.321  1.00  0.00    -0.382 OA
ATOM     15  H   UNL     1      17.466  14.863  46.689  1.00  0.00     0.211 HD
ENDBRANCH   8  14
ENDBRANCH   1   8
BRANCH   1  16
ATOM     16  O   UNL     1      16.711  14.187  44.852  1.00  0.00    -0.387 OA
ATOM     17  H   UNL     1      17.237  14.013  45.676  1.00  0.00     0.211 HD
ENDBRANCH   1  16
TORSDOF 10
ENDMDL
MODEL 9
REMARK VINA RESULT:    -5.674     20.144     21.355
REMARK INTER + INTRA:          -8.861
REMARK INTER:                  -7.615
REMARK INTRA:                  -1.246
REMARK UNBOUND:                -0.700
REMARK SMILES O=C(CO)[C@@H](O)[C@H](O)[C@@H](O)CO
REMARK SMILES IDX 7 1 9 2 11 3 12 4 10 6 5 8 2 9 1 10 3 11 4 12 6 14 8 16
REMARK H PARENT 12 5 10 7 4 13 6 15 8 17
REMARK Flexibility Score: inf
ROOT
ATOM      1  C   UNL     1      14.279  15.696  44.951  1.00  0.00     0.181 C 
ENDROOT
BRANCH   1   2
ATOM      2  C   UNL     1      14.328  14.621  43.836  1.00  0.00     0.171 C 
BRANCH   2   3
ATOM      3  C   UNL     1      13.369  14.970  42.688  1.00  0.00     0.190 C 
BRANCH   3   4
ATOM      4  O   UNL     1      13.337  16.358  42.500  1.00  0.00    -0.394 OA
ATOM      5  H   UNL     1      14.237  16.691  42.754  1.00  0.00     0.210 HD
ENDBRANCH   3   4
ENDBRANCH   2   3
BRANCH   2   6
ATOM      6  O   UNL     1      13.995  13.363  44.368  1.00  0.00    -0.388 OA
ATOM      7  H   UNL     1      14.220  13.388  45.334  1.00  0.00     0.211 HD
ENDBRANCH   2   6
ENDBRANCH   1   2
BRANCH   1   8
ATOM      8  C   UNL     1      15.447  15.566  45.964  1.00  0.00     0.214 C 
BRANCH   8   9
ATOM      9  C   UNL     1      14.969  15.062  47.306  1.00  0.00     0.189 C 
ATOM     10  O   UNL     1      14.564  15.862  48.136  1.00  0.00    -0.294 OA
BRANCH   9  11
ATOM     11  C   UNL     1      14.943  13.593  47.631  1.00  0.00     0.234 C 
BRANCH  11  12
ATOM     12  O   UNL     1      13.732  13.026  47.211  1.00  0.00    -0.388 OA
ATOM     13  H   UNL     1      13.528  12.287  47.841  1.00  0.00     0.211 HD
ENDBRANCH  11  12
ENDBRANCH   9  11
ENDBRANCH   8   9
BRANCH   8  14
ATOM     14  O   UNL     1      16.417  14.676  45.470  1.00  0.00    -0.382 OA
ATOM     15  H   UNL     1      16.930  14.339  46.249  1.00  0.00     0.211 HD
ENDBRANCH   8  14
ENDBRANCH   1   8
BRANCH   1  16
ATOM     16  O   UNL     1      13.042  15.662  45.622  1.00  0.00    -0.387 OA
ATOM     17  H   UNL     1      12.946  16.513  46.124  1.00  0.00     0.211 HD
ENDBRANCH   1  16
TORSDOF 10
ENDMDL
