MODEL 1
REMARK VINA RESULT:    -5.173      0.000      0.000
REMARK INTER + INTRA:          -7.262
REMARK INTER:                  -6.836
REMARK INTRA:                  -0.425
REMARK UNBOUND:                -0.425
REMARK SMILES CCCCC=CC=CCO
REMARK SMILES IDX 5 1 6 2 4 3 3 4 2 5 1 6 7 7 8 8 9 9 10 10
REMARK H PARENT 10 11
REMARK Flexibility Score: inf
ROOT
ATOM      1  C   UNL     1      36.722  31.875   2.806  1.00  0.00    -0.027 C 
ATOM      2  C   UNL     1      35.689  32.721   2.754  1.00  0.00    -0.005 C 
ENDROOT
BRANCH   1   3
ATOM      3  C   UNL     1      37.012  30.918   1.686  1.00  0.00     0.027 C 
BRANCH   3   4
ATOM      4  C   UNL     1      35.735  30.196   1.228  1.00  0.00     0.004 C 
BRANCH   4   5
ATOM      5  C   UNL     1      35.504  28.875   1.978  1.00  0.00    -0.003 C 
ATOM      6  C   UNL     1      34.377  28.969   3.007  1.00  0.00     0.004 C 
ENDBRANCH   4   5
ENDBRANCH   3   4
ENDBRANCH   1   3
BRANCH   2   7
ATOM      7  C   UNL     1      35.429  33.665   3.861  1.00  0.00    -0.002 C 
ATOM      8  C   UNL     1      34.396  33.553   4.706  1.00  0.00     0.001 C 
BRANCH   8   9
ATOM      9  C   UNL     1      33.367  32.463   4.641  1.00  0.00     0.183 C 
BRANCH   9  10
ATOM     10  O   UNL     1      32.467  32.596   5.705  1.00  0.00    -0.392 OA
ATOM     11  H   UNL     1      32.219  33.557   5.736  1.00  0.00     0.210 HD
ENDBRANCH   9  10
ENDBRANCH   8   9
ENDBRANCH   2   7
TORSDOF 6
ENDMDL
MODEL 2
REMARK VINA RESULT:    -5.085      2.106      2.477
REMARK INTER + INTRA:          -7.145
REMARK INTER:                  -6.797
REMARK INTRA:                  -0.348
REMARK UNBOUND:                -0.425
REMARK SMILES CCCCC=CC=CCO
REMARK SMILES IDX 5 1 6 2 4 3 3 4 2 5 1 6 7 7 8 8 9 9 10 10
REMARK H PARENT 10 11
REMARK Flexibility Score: inf
ROOT
ATOM      1  C   UNL     1      36.482  31.901   3.014  1.00  0.00    -0.027 C 
ATOM      2  C   UNL     1      35.399  32.665   2.840  1.00  0.00    -0.005 C 
ENDROOT
BRANCH   1   3
ATOM      3  C   UNL     1      36.979  30.984   1.933  1.00  0.00     0.027 C 
BRANCH   3   4
ATOM      4  C   UNL     1      35.812  30.275   1.227  1.00  0.00     0.004 C 
BRANCH   4   5
ATOM      5  C   UNL     1      35.539  28.876   1.800  1.00  0.00    -0.003 C 
ATOM      6  C   UNL     1      34.434  28.875   2.856  1.00  0.00     0.004 C 
ENDBRANCH   4   5
ENDBRANCH   3   4
ENDBRANCH   1   3
BRANCH   2   7
ATOM      7  C   UNL     1      34.935  33.570   3.911  1.00  0.00    -0.002 C 
ATOM      8  C   UNL     1      35.310  34.852   4.015  1.00  0.00     0.001 C 
BRANCH   8   9
ATOM      9  C   UNL     1      36.248  35.537   3.065  1.00  0.00     0.183 C 
BRANCH   9  10
ATOM     10  O   UNL     1      35.807  36.843   2.821  1.00  0.00    -0.392 OA
ATOM     11  H   UNL     1      34.824  36.830   2.953  1.00  0.00     0.210 HD
ENDBRANCH   9  10
ENDBRANCH   8   9
ENDBRANCH   2   7
TORSDOF 6
ENDMDL
MODEL 3
REMARK VINA RESULT:    -4.851      1.631      4.142
REMARK INTER + INTRA:          -6.836
REMARK INTER:                  -6.673
REMARK INTRA:                  -0.163
REMARK UNBOUND:                -0.425
REMARK SMILES CCCCC=CC=CCO
REMARK SMILES IDX 5 1 6 2 4 3 3 4 2 5 1 6 7 7 8 8 9 9 10 10
REMARK H PARENT 10 11
REMARK Flexibility Score: inf
ROOT
ATOM      1  C   UNL     1      35.169  32.115   2.748  1.00  0.00    -0.027 C 
ATOM      2  C   UNL     1      36.147  31.276   2.393  1.00  0.00    -0.005 C 
ENDROOT
BRANCH   1   3
ATOM      3  C   UNL     1      35.426  33.285   3.654  1.00  0.00     0.027 C 
BRANCH   3   4
ATOM      4  C   UNL     1      34.386  33.351   4.783  1.00  0.00     0.004 C 
BRANCH   4   5
ATOM      5  C   UNL     1      33.288  32.286   4.637  1.00  0.00    -0.003 C 
ATOM      6  C   UNL     1      32.421  32.155   5.889  1.00  0.00     0.004 C 
ENDBRANCH   4   5
ENDBRANCH   3   4
ENDBRANCH   1   3
BRANCH   2   7
ATOM      7  C   UNL     1      35.876  30.140   1.490  1.00  0.00    -0.002 C 
ATOM      8  C   UNL     1      35.087  29.106   1.811  1.00  0.00     0.001 C 
BRANCH   8   9
ATOM      9  C   UNL     1      34.378  28.963   3.125  1.00  0.00     0.183 C 
BRANCH   9  10
ATOM     10  O   UNL     1      32.997  28.875   2.913  1.00  0.00    -0.392 OA
ATOM     11  H   UNL     1      32.865  28.125   2.276  1.00  0.00     0.210 HD
ENDBRANCH   9  10
ENDBRANCH   8   9
ENDBRANCH   2   7
TORSDOF 6
ENDMDL
MODEL 4
REMARK VINA RESULT:    -4.748      2.319      4.895
REMARK INTER + INTRA:          -6.700
REMARK INTER:                  -6.332
REMARK INTRA:                  -0.369
REMARK UNBOUND:                -0.425
REMARK SMILES CCCCC=CC=CCO
REMARK SMILES IDX 5 1 6 2 4 3 3 4 2 5 1 6 7 7 8 8 9 9 10 10
REMARK H PARENT 10 11
REMARK Flexibility Score: inf
ROOT
ATOM      1  C   UNL     1      33.470  29.587   3.375  1.00  0.00    -0.027 C 
ATOM      2  C   UNL     1      34.608  28.960   3.061  1.00  0.00    -0.005 C 
ENDROOT
BRANCH   1   3
ATOM      3  C   UNL     1      32.907  29.545   4.767  1.00  0.00     0.027 C 
BRANCH   3   4
ATOM      4  C   UNL     1      32.791  30.957   5.361  1.00  0.00     0.004 C 
BRANCH   4   5
ATOM      5  C   UNL     1      33.084  32.057   4.329  1.00  0.00    -0.003 C 
ATOM      6  C   UNL     1      34.144  33.049   4.807  1.00  0.00     0.004 C 
ENDBRANCH   4   5
ENDBRANCH   3   4
ENDBRANCH   1   3
BRANCH   2   7
ATOM      7  C   UNL     1      35.152  29.026   1.689  1.00  0.00    -0.002 C 
ATOM      8  C   UNL     1      35.922  30.027   1.242  1.00  0.00     0.001 C 
BRANCH   8   9
ATOM      9  C   UNL     1      36.330  31.211   2.068  1.00  0.00     0.183 C 
BRANCH   9  10
ATOM     10  O   UNL     1      37.726  31.269   2.158  1.00  0.00    -0.392 OA
ATOM     11  H   UNL     1      37.998  30.488   2.707  1.00  0.00     0.210 HD
ENDBRANCH   9  10
ENDBRANCH   8   9
ENDBRANCH   2   7
TORSDOF 6
ENDMDL
MODEL 5
REMARK VINA RESULT:    -4.705      1.609      3.041
REMARK INTER + INTRA:          -6.643
REMARK INTER:                  -6.377
REMARK INTRA:                  -0.266
REMARK UNBOUND:                -0.425
REMARK SMILES CCCCC=CC=CCO
REMARK SMILES IDX 5 1 6 2 4 3 3 4 2 5 1 6 7 7 8 8 9 9 10 10
REMARK H PARENT 10 11
REMARK Flexibility Score: inf
ROOT
ATOM      1  C   UNL     1      33.094  29.931   4.392  1.00  0.00    -0.027 C 
ATOM      2  C   UNL     1      33.241  31.241   4.172  1.00  0.00    -0.005 C 
ENDROOT
BRANCH   1   3
ATOM      3  C   UNL     1      33.300  28.922   3.298  1.00  0.00     0.027 C 
BRANCH   3   4
ATOM      4  C   UNL     1      34.772  28.875   2.858  1.00  0.00     0.004 C 
BRANCH   4   5
ATOM      5  C   UNL     1      35.027  29.669   1.568  1.00  0.00    -0.003 C 
ATOM      6  C   UNL     1      36.302  30.511   1.634  1.00  0.00     0.004 C 
ENDBRANCH   4   5
ENDBRANCH   3   4
ENDBRANCH   1   3
BRANCH   2   7
ATOM      7  C   UNL     1      33.048  32.216   5.265  1.00  0.00    -0.002 C 
ATOM      8  C   UNL     1      33.712  33.376   5.353  1.00  0.00     0.001 C 
BRANCH   8   9
ATOM      9  C   UNL     1      34.737  33.838   4.360  1.00  0.00     0.183 C 
BRANCH   9  10
ATOM     10  O   UNL     1      34.512  35.182   4.035  1.00  0.00    -0.392 OA
ATOM     11  H   UNL     1      34.108  35.181   3.129  1.00  0.00     0.210 HD
ENDBRANCH   9  10
ENDBRANCH   8   9
ENDBRANCH   2   7
TORSDOF 6
ENDMDL
MODEL 6
REMARK VINA RESULT:    -4.701      2.287      4.623
REMARK INTER + INTRA:          -6.638
REMARK INTER:                  -6.372
REMARK INTRA:                  -0.265
REMARK UNBOUND:                -0.425
REMARK SMILES CCCCC=CC=CCO
REMARK SMILES IDX 5 1 6 2 4 3 3 4 2 5 1 6 7 7 8 8 9 9 10 10
REMARK H PARENT 10 11
REMARK Flexibility Score: inf
ROOT
ATOM      1  C   UNL     1      35.420  33.155   3.552  1.00  0.00    -0.027 C 
ATOM      2  C   UNL     1      35.557  31.938   3.019  1.00  0.00    -0.005 C 
ENDROOT
BRANCH   1   3
ATOM      3  C   UNL     1      34.414  33.433   4.631  1.00  0.00     0.027 C 
BRANCH   3   4
ATOM      4  C   UNL     1      33.170  32.544   4.472  1.00  0.00     0.004 C 
BRANCH   4   5
ATOM      5  C   UNL     1      32.786  31.827   5.775  1.00  0.00    -0.003 C 
ATOM      6  C   UNL     1      31.786  32.622   6.615  1.00  0.00     0.004 C 
ENDBRANCH   4   5
ENDBRANCH   3   4
ENDBRANCH   1   3
BRANCH   2   7
ATOM      7  C   UNL     1      36.563  31.682   1.968  1.00  0.00    -0.002 C 
ATOM      8  C   UNL     1      36.690  30.512   1.328  1.00  0.00     0.001 C 
BRANCH   8   9
ATOM      9  C   UNL     1      35.834  29.309   1.594  1.00  0.00     0.183 C 
BRANCH   9  10
ATOM     10  O   UNL     1      34.750  29.292   0.708  1.00  0.00    -0.392 OA
ATOM     11  H   UNL     1      34.770  28.403   0.267  1.00  0.00     0.210 HD
ENDBRANCH   9  10
ENDBRANCH   8   9
ENDBRANCH   2   7
TORSDOF 6
ENDMDL
MODEL 7
REMARK VINA RESULT:    -4.691      9.805     10.756
REMARK INTER + INTRA:          -6.625
REMARK INTER:                  -6.220
REMARK INTRA:                  -0.405
REMARK UNBOUND:                -0.425
REMARK SMILES CCCCC=CC=CCO
REMARK SMILES IDX 5 1 6 2 4 3 3 4 2 5 1 6 7 7 8 8 9 9 10 10
REMARK H PARENT 10 11
REMARK Flexibility Score: inf
ROOT
ATOM      1  C   UNL     1      25.750  34.477   0.618  1.00  0.00    -0.027 C 
ATOM      2  C   UNL     1      26.393  33.774  -0.318  1.00  0.00    -0.005 C 
ENDROOT
BRANCH   1   3
ATOM      3  C   UNL     1      26.434  34.913   1.883  1.00  0.00     0.027 C 
BRANCH   3   4
ATOM      4  C   UNL     1      26.084  33.979   3.052  1.00  0.00     0.004 C 
BRANCH   4   5
ATOM      5  C   UNL     1      24.822  33.144   2.783  1.00  0.00    -0.003 C 
ATOM      6  C   UNL     1      24.721  31.916   3.688  1.00  0.00     0.004 C 
ENDBRANCH   4   5
ENDBRANCH   3   4
ENDBRANCH   1   3
BRANCH   2   7
ATOM      7  C   UNL     1      25.707  33.368  -1.561  1.00  0.00    -0.002 C 
ATOM      8  C   UNL     1      25.195  32.146  -1.764  1.00  0.00     0.001 C 
BRANCH   8   9
ATOM      9  C   UNL     1      25.253  31.031  -0.762  1.00  0.00     0.183 C 
BRANCH   9  10
ATOM     10  O   UNL     1      24.102  31.048   0.035  1.00  0.00    -0.392 OA
ATOM     11  H   UNL     1      24.146  30.234   0.600  1.00  0.00     0.210 HD
ENDBRANCH   9  10
ENDBRANCH   8   9
ENDBRANCH   2   7
TORSDOF 6
ENDMDL
MODEL 8
REMARK VINA RESULT:    -4.559      9.428      9.986
REMARK INTER + INTRA:          -6.450
REMARK INTER:                  -6.133
REMARK INTRA:                  -0.317
REMARK UNBOUND:                -0.425
REMARK SMILES CCCCC=CC=CCO
REMARK SMILES IDX 5 1 6 2 4 3 3 4 2 5 1 6 7 7 8 8 9 9 10 10
REMARK H PARENT 10 11
REMARK Flexibility Score: inf
ROOT
ATOM      1  C   UNL     1      26.006  33.962   0.190  1.00  0.00    -0.027 C 
ATOM      2  C   UNL     1      25.252  34.186   1.271  1.00  0.00    -0.005 C 
ENDROOT
BRANCH   1   3
ATOM      3  C   UNL     1      25.452  34.101  -1.199  1.00  0.00     0.027 C 
BRANCH   3   4
ATOM      4  C   UNL     1      25.477  32.757  -1.943  1.00  0.00     0.004 C 
BRANCH   4   5
ATOM      5  C   UNL     1      26.398  31.728  -1.270  1.00  0.00    -0.003 C 
ATOM      6  C   UNL     1      25.681  30.418  -0.942  1.00  0.00     0.004 C 
ENDBRANCH   4   5
ENDBRANCH   3   4
ENDBRANCH   1   3
BRANCH   2   7
ATOM      7  C   UNL     1      25.821  34.058   2.628  1.00  0.00    -0.002 C 
ATOM      8  C   UNL     1      26.380  35.074   3.299  1.00  0.00     0.001 C 
BRANCH   8   9
ATOM      9  C   UNL     1      26.505  36.470   2.764  1.00  0.00     0.183 C 
BRANCH   9  10
ATOM     10  O   UNL     1      26.678  37.370   3.823  1.00  0.00    -0.392 OA
ATOM     11  H   UNL     1      26.849  36.816   4.629  1.00  0.00     0.210 HD
ENDBRANCH   9  10
ENDBRANCH   8   9
ENDBRANCH   2   7
TORSDOF 6
ENDMDL
