MODEL 1
REMARK VINA RESULT:    -2.599      0.000      0.000
REMARK INTER + INTRA:          -2.919
REMARK INTER:                  -2.903
REMARK INTRA:                  -0.016
REMARK UNBOUND:                -0.016
REMARK SMILES CCCC(=O)[O-]
REMARK SMILES IDX 3 1 4 2 5 3 6 4 2 5 1 6
REMARK H PARENT
REMARK Flexibility Score: inf
ROOT
ATOM      1  C   UNL     1      -5.351  15.250  21.464  1.00  0.00     0.052 C 
ENDROOT
BRANCH   1   2
ATOM      2  C   UNL     1      -4.634  16.353  22.180  1.00  0.00     0.041 C 
ATOM      3  O   UNL     1      -3.844  16.089  23.124  1.00  0.00    -0.550 OA
ATOM      4  O   UNL     1      -4.864  17.677  21.826  1.00  0.00    -0.550 OA
ENDBRANCH   1   2
BRANCH   1   5
ATOM      5  C   UNL     1      -6.743  15.690  20.994  1.00  0.00     0.003 C 
ATOM      6  C   UNL     1      -7.857  14.832  21.594  1.00  0.00     0.004 C 
ENDBRANCH   1   5
TORSDOF 2
ENDMDL
MODEL 2
REMARK VINA RESULT:    -2.586     14.800     15.977
REMARK INTER + INTRA:          -2.905
REMARK INTER:                  -2.868
REMARK INTRA:                  -0.036
REMARK UNBOUND:                -0.016
REMARK SMILES CCCC(=O)[O-]
REMARK SMILES IDX 3 1 4 2 5 3 6 4 2 5 1 6
REMARK H PARENT
REMARK Flexibility Score: inf
ROOT
ATOM      1  C   UNL     1      10.857  16.221  20.515  1.00  0.00     0.052 C 
ENDROOT
BRANCH   1   2
ATOM      2  C   UNL     1      10.575  14.951  19.772  1.00  0.00     0.041 C 
ATOM      3  O   UNL     1      11.066  14.762  18.628  1.00  0.00    -0.550 OA
ATOM      4  O   UNL     1       9.741  13.990  20.331  1.00  0.00    -0.550 OA
ENDBRANCH   1   2
BRANCH   1   5
ATOM      5  C   UNL     1       9.839  17.316  20.175  1.00  0.00     0.003 C 
ATOM      6  C   UNL     1       8.581  17.229  21.039  1.00  0.00     0.004 C 
ENDBRANCH   1   5
TORSDOF 2
ENDMDL
MODEL 3
REMARK VINA RESULT:    -2.573      2.506      3.309
REMARK INTER + INTRA:          -2.890
REMARK INTER:                  -2.831
REMARK INTRA:                  -0.059
REMARK UNBOUND:                -0.016
REMARK SMILES CCCC(=O)[O-]
REMARK SMILES IDX 3 1 4 2 5 3 6 4 2 5 1 6
REMARK H PARENT
REMARK Flexibility Score: inf
ROOT
ATOM      1  C   UNL     1      -6.750  14.592  21.492  1.00  0.00     0.052 C 
ENDROOT
BRANCH   1   2
ATOM      2  C   UNL     1      -7.913  15.537  21.495  1.00  0.00     0.041 C 
ATOM      3  O   UNL     1      -8.890  15.338  22.263  1.00  0.00    -0.550 OA
ATOM      4  O   UNL     1      -7.930  16.620  20.624  1.00  0.00    -0.550 OA
ENDBRANCH   1   2
BRANCH   1   5
ATOM      5  C   UNL     1      -5.413  15.338  21.384  1.00  0.00     0.003 C 
ATOM      6  C   UNL     1      -5.024  16.024  22.694  1.00  0.00     0.004 C 
ENDBRANCH   1   5
TORSDOF 2
ENDMDL
MODEL 4
REMARK VINA RESULT:    -2.492      2.496      3.263
REMARK INTER + INTRA:          -2.799
REMARK INTER:                  -2.739
REMARK INTRA:                  -0.060
REMARK UNBOUND:                -0.016
REMARK SMILES CCCC(=O)[O-]
REMARK SMILES IDX 3 1 4 2 5 3 6 4 2 5 1 6
REMARK H PARENT
REMARK Flexibility Score: inf
ROOT
ATOM      1  C   UNL     1      -8.153  15.233  21.818  1.00  0.00     0.052 C 
ENDROOT
BRANCH   1   2
ATOM      2  C   UNL     1      -8.178  16.690  21.475  1.00  0.00     0.041 C 
ATOM      3  O   UNL     1      -8.208  17.557  22.387  1.00  0.00    -0.550 OA
ATOM      4  O   UNL     1      -8.199  17.091  20.144  1.00  0.00    -0.550 OA
ENDBRANCH   1   2
BRANCH   1   5
ATOM      5  C   UNL     1      -6.868  14.555  21.326  1.00  0.00     0.003 C 
ATOM      6  C   UNL     1      -5.610  15.290  21.789  1.00  0.00     0.004 C 
ENDBRANCH   1   5
TORSDOF 2
ENDMDL
MODEL 5
REMARK VINA RESULT:    -2.488     12.243     13.629
REMARK INTER + INTRA:          -2.795
REMARK INTER:                  -2.777
REMARK INTRA:                  -0.018
REMARK UNBOUND:                -0.016
REMARK SMILES CCCC(=O)[O-]
REMARK SMILES IDX 3 1 4 2 5 3 6 4 2 5 1 6
REMARK H PARENT
REMARK Flexibility Score: inf
ROOT
ATOM      1  C   UNL     1       8.100  16.381  22.073  1.00  0.00     0.052 C 
ENDROOT
BRANCH   1   2
ATOM      2  C   UNL     1       6.845  15.649  21.711  1.00  0.00     0.041 C 
ATOM      3  O   UNL     1       5.774  16.282  21.516  1.00  0.00    -0.550 OA
ATOM      4  O   UNL     1       6.850  14.262  21.622  1.00  0.00    -0.550 OA
ENDBRANCH   1   2
BRANCH   1   5
ATOM      5  C   UNL     1       8.552  17.321  20.947  1.00  0.00     0.003 C 
ATOM      6  C   UNL     1       9.834  16.840  20.268  1.00  0.00     0.004 C 
ENDBRANCH   1   5
TORSDOF 2
ENDMDL
MODEL 6
REMARK VINA RESULT:    -2.485     12.503     13.795
REMARK INTER + INTRA:          -2.792
REMARK INTER:                  -2.786
REMARK INTRA:                  -0.006
REMARK UNBOUND:                -0.016
REMARK SMILES CCCC(=O)[O-]
REMARK SMILES IDX 3 1 4 2 5 3 6 4 2 5 1 6
REMARK H PARENT
REMARK Flexibility Score: inf
ROOT
ATOM      1  C   UNL     1       8.499  16.114  21.946  1.00  0.00     0.052 C 
ENDROOT
BRANCH   1   2
ATOM      2  C   UNL     1       7.169  15.425  21.958  1.00  0.00     0.041 C 
ATOM      3  O   UNL     1       7.064  14.241  21.541  1.00  0.00    -0.550 OA
ATOM      4  O   UNL     1       6.039  16.102  22.400  1.00  0.00    -0.550 OA
ENDBRANCH   1   2
BRANCH   1   5
ATOM      5  C   UNL     1       8.554  17.223  20.887  1.00  0.00     0.003 C 
ATOM      6  C   UNL     1       9.961  17.418  20.322  1.00  0.00     0.004 C 
ENDBRANCH   1   5
TORSDOF 2
ENDMDL
MODEL 7
REMARK VINA RESULT:    -2.401     13.500     14.818
REMARK INTER + INTRA:          -2.697
REMARK INTER:                  -2.715
REMARK INTRA:                   0.018
REMARK UNBOUND:                -0.016
REMARK SMILES CCCC(=O)[O-]
REMARK SMILES IDX 3 1 4 2 5 3 6 4 2 5 1 6
REMARK H PARENT
REMARK Flexibility Score: inf
ROOT
ATOM      1  C   UNL     1       8.918  17.372  20.711  1.00  0.00     0.052 C 
ENDROOT
BRANCH   1   2
ATOM      2  C   UNL     1       8.174  16.447  21.625  1.00  0.00     0.041 C 
ATOM      3  O   UNL     1       6.923  16.337  21.536  1.00  0.00    -0.550 OA
ATOM      4  O   UNL     1       8.861  15.731  22.598  1.00  0.00    -0.550 OA
ENDBRANCH   1   2
BRANCH   1   5
ATOM      5  C   UNL     1      10.362  16.905  20.484  1.00  0.00     0.003 C 
ATOM      6  C   UNL     1      10.434  15.613  19.670  1.00  0.00     0.004 C 
ENDBRANCH   1   5
TORSDOF 2
ENDMDL
MODEL 8
REMARK VINA RESULT:    -2.382     13.355     14.494
REMARK INTER + INTRA:          -2.676
REMARK INTER:                  -2.643
REMARK INTRA:                  -0.033
REMARK UNBOUND:                -0.016
REMARK SMILES CCCC(=O)[O-]
REMARK SMILES IDX 3 1 4 2 5 3 6 4 2 5 1 6
REMARK H PARENT
REMARK Flexibility Score: inf
ROOT
ATOM      1  C   UNL     1       8.451  17.212  21.051  1.00  0.00     0.052 C 
ENDROOT
BRANCH   1   2
ATOM      2  C   UNL     1       9.699  16.577  20.518  1.00  0.00     0.041 C 
ATOM      3  O   UNL     1      10.701  17.285  20.237  1.00  0.00    -0.550 OA
ATOM      4  O   UNL     1       9.742  15.205  20.301  1.00  0.00    -0.550 OA
ENDBRANCH   1   2
BRANCH   1   5
ATOM      5  C   UNL     1       7.769  16.328  22.103  1.00  0.00     0.003 C 
ATOM      6  C   UNL     1       6.316  16.017  21.747  1.00  0.00     0.004 C 
ENDBRANCH   1   5
TORSDOF 2
ENDMDL
MODEL 9
REMARK VINA RESULT:    -2.364      2.229      2.971
REMARK INTER + INTRA:          -2.656
REMARK INTER:                  -2.617
REMARK INTRA:                  -0.039
REMARK UNBOUND:                -0.016
REMARK SMILES CCCC(=O)[O-]
REMARK SMILES IDX 3 1 4 2 5 3 6 4 2 5 1 6
REMARK H PARENT
REMARK Flexibility Score: inf
ROOT
ATOM      1  C   UNL     1      -3.227  16.300  22.645  1.00  0.00     0.052 C 
ENDROOT
BRANCH   1   2
ATOM      2  C   UNL     1      -2.140  16.428  21.623  1.00  0.00     0.041 C 
ATOM      3  O   UNL     1      -1.634  17.553  21.371  1.00  0.00    -0.550 OA
ATOM      4  O   UNL     1      -1.707  15.307  20.924  1.00  0.00    -0.550 OA
ENDBRANCH   1   2
BRANCH   1   5
ATOM      5  C   UNL     1      -4.609  16.583  22.042  1.00  0.00     0.003 C 
ATOM      6  C   UNL     1      -5.356  15.301  21.675  1.00  0.00     0.004 C 
ENDBRANCH   1   5
TORSDOF 2
ENDMDL
