MODEL 1
REMARK VINA RESULT:    -5.521      0.000      0.000
REMARK INTER + INTRA:         -12.325
REMARK INTER:                 -10.684
REMARK INTRA:                  -1.641
REMARK UNBOUND:                -1.641
REMARK SMILES CCCCCCCCCCCCCCCCCC(=O)[O-]
REMARK SMILES IDX 10 1 11 2 12 3 13 4 14 5 15 6 16 7 17 8 18 9 19 10 20 11
REMARK SMILES IDX 9 12 8 13 7 14 6 15 5 16 4 17 3 18 2 19 1 20
REMARK H PARENT
REMARK Flexibility Score: inf
ROOT
ATOM      1  C   UNL     1      20.146  -2.100 -16.818  1.00  0.00     0.000 C 
ENDROOT
BRANCH   1   2
ATOM      2  C   UNL     1      20.310  -1.434 -15.440  1.00  0.00     0.000 C 
BRANCH   2   3
ATOM      3  C   UNL     1      21.767  -1.267 -14.963  1.00  0.00     0.000 C 
BRANCH   3   4
ATOM      4  C   UNL     1      22.639  -0.339 -15.826  1.00  0.00     0.000 C 
BRANCH   4   5
ATOM      5  C   UNL     1      21.908   0.949 -16.239  1.00  0.00     0.000 C 
BRANCH   5   6
ATOM      6  C   UNL     1      21.548   1.845 -15.042  1.00  0.00     0.000 C 
BRANCH   6   7
ATOM      7  C   UNL     1      20.044   2.121 -14.849  1.00  0.00     0.006 C 
BRANCH   7   8
ATOM      8  C   UNL     1      19.244   2.200 -16.163  1.00  0.00     0.053 C 
BRANCH   8   9
ATOM      9  C   UNL     1      17.849   1.665 -16.023  1.00  0.00     0.041 C 
ATOM     10  O   UNL     1      16.947   2.026 -16.825  1.00  0.00    -0.550 OA
ATOM     11  O   UNL     1      17.536   0.800 -14.983  1.00  0.00    -0.550 OA
ENDBRANCH   8   9
ENDBRANCH   7   8
ENDBRANCH   6   7
ENDBRANCH   5   6
ENDBRANCH   4   5
ENDBRANCH   3   4
ENDBRANCH   2   3
ENDBRANCH   1   2
BRANCH   1  12
ATOM     12  C   UNL     1      19.438  -1.196 -17.838  1.00  0.00     0.000 C 
BRANCH  12  13
ATOM     13  C   UNL     1      20.340  -0.928 -19.052  1.00  0.00    -0.000 C 
BRANCH  13  14
ATOM     14  C   UNL     1      20.030   0.414 -19.735  1.00  0.00    -0.000 C 
BRANCH  14  15
ATOM     15  C   UNL     1      20.023   0.311 -21.267  1.00  0.00    -0.000 C 
BRANCH  15  16
ATOM     16  C   UNL     1      18.758   0.948 -21.855  1.00  0.00    -0.000 C 
BRANCH  16  17
ATOM     17  C   UNL     1      17.997  -0.053 -22.737  1.00  0.00    -0.000 C 
BRANCH  17  18
ATOM     18  C   UNL     1      16.613   0.463 -23.159  1.00  0.00    -0.000 C 
BRANCH  18  19
ATOM     19  C   UNL     1      16.444   0.521 -24.684  1.00  0.00    -0.003 C 
ATOM     20  C   UNL     1      16.077   1.929 -25.144  1.00  0.00     0.004 C 
ENDBRANCH  18  19
ENDBRANCH  17  18
ENDBRANCH  16  17
ENDBRANCH  15  16
ENDBRANCH  14  15
ENDBRANCH  13  14
ENDBRANCH  12  13
ENDBRANCH   1  12
TORSDOF 16
ENDMDL
MODEL 2
REMARK VINA RESULT:    -5.424      1.400      3.535
REMARK INTER + INTRA:         -12.137
REMARK INTER:                 -10.125
REMARK INTRA:                  -2.012
REMARK UNBOUND:                -1.641
REMARK SMILES CCCCCCCCCCCCCCCCCC(=O)[O-]
REMARK SMILES IDX 10 1 11 2 12 3 13 4 14 5 15 6 16 7 17 8 18 9 19 10 20 11
REMARK SMILES IDX 9 12 8 13 7 14 6 15 5 16 4 17 3 18 2 19 1 20
REMARK H PARENT
REMARK Flexibility Score: inf
ROOT
ATOM      1  C   UNL     1      19.727   0.586 -20.722  1.00  0.00     0.000 C 
ENDROOT
BRANCH   1   2
ATOM      2  C   UNL     1      20.583   0.684 -19.446  1.00  0.00     0.000 C 
BRANCH   2   3
ATOM      3  C   UNL     1      21.082  -0.664 -18.888  1.00  0.00     0.000 C 
BRANCH   3   4
ATOM      4  C   UNL     1      20.034  -1.789 -18.853  1.00  0.00     0.000 C 
BRANCH   4   5
ATOM      5  C   UNL     1      19.764  -2.307 -17.430  1.00  0.00     0.000 C 
BRANCH   5   6
ATOM      6  C   UNL     1      20.629  -1.613 -16.364  1.00  0.00     0.000 C 
BRANCH   6   7
ATOM      7  C   UNL     1      19.852  -0.854 -15.270  1.00  0.00     0.006 C 
BRANCH   7   8
ATOM      8  C   UNL     1      19.664   0.647 -15.557  1.00  0.00     0.053 C 
BRANCH   8   9
ATOM      9  C   UNL     1      18.228   1.017 -15.786  1.00  0.00     0.041 C 
ATOM     10  O   UNL     1      17.365   0.789 -14.898  1.00  0.00    -0.550 OA
ATOM     11  O   UNL     1      17.838   1.575 -16.996  1.00  0.00    -0.550 OA
ENDBRANCH   8   9
ENDBRANCH   7   8
ENDBRANCH   6   7
ENDBRANCH   5   6
ENDBRANCH   4   5
ENDBRANCH   3   4
ENDBRANCH   2   3
ENDBRANCH   1   2
BRANCH   1  12
ATOM     12  C   UNL     1      20.545   0.780 -22.007  1.00  0.00     0.000 C 
BRANCH  12  13
ATOM     13  C   UNL     1      20.164   2.094 -22.705  1.00  0.00    -0.000 C 
BRANCH  13  14
ATOM     14  C   UNL     1      18.646   2.332 -22.733  1.00  0.00    -0.000 C 
BRANCH  14  15
ATOM     15  C   UNL     1      18.076   2.358 -24.159  1.00  0.00    -0.000 C 
BRANCH  15  16
ATOM     16  C   UNL     1      16.697   1.689 -24.213  1.00  0.00    -0.000 C 
BRANCH  16  17
ATOM     17  C   UNL     1      16.659   0.433 -23.330  1.00  0.00    -0.000 C 
BRANCH  17  18
ATOM     18  C   UNL     1      16.733  -0.866 -24.146  1.00  0.00    -0.000 C 
BRANCH  18  19
ATOM     19  C   UNL     1      18.030  -1.648 -23.896  1.00  0.00    -0.003 C 
ATOM     20  C   UNL     1      19.150  -1.162 -24.812  1.00  0.00     0.004 C 
ENDBRANCH  18  19
ENDBRANCH  17  18
ENDBRANCH  16  17
ENDBRANCH  15  16
ENDBRANCH  14  15
ENDBRANCH  13  14
ENDBRANCH  12  13
ENDBRANCH   1  12
TORSDOF 16
ENDMDL
MODEL 3
REMARK VINA RESULT:    -5.417      0.707      1.855
REMARK INTER + INTRA:         -12.124
REMARK INTER:                 -10.595
REMARK INTRA:                  -1.530
REMARK UNBOUND:                -1.641
REMARK SMILES CCCCCCCCCCCCCCCCCC(=O)[O-]
REMARK SMILES IDX 10 1 11 2 12 3 13 4 14 5 15 6 16 7 17 8 18 9 19 10 20 11
REMARK SMILES IDX 9 12 8 13 7 14 6 15 5 16 4 17 3 18 2 19 1 20
REMARK H PARENT
REMARK Flexibility Score: inf
ROOT
ATOM      1  C   UNL     1      20.098  -0.953 -19.286  1.00  0.00     0.000 C 
ENDROOT
BRANCH   1   2
ATOM      2  C   UNL     1      20.924  -1.559 -18.138  1.00  0.00     0.000 C 
BRANCH   2   3
ATOM      3  C   UNL     1      20.102  -2.063 -16.934  1.00  0.00     0.000 C 
BRANCH   3   4
ATOM      4  C   UNL     1      20.595  -1.587 -15.557  1.00  0.00     0.000 C 
BRANCH   4   5
ATOM      5  C   UNL     1      21.826  -0.670 -15.649  1.00  0.00     0.000 C 
BRANCH   5   6
ATOM      6  C   UNL     1      21.505   0.800 -15.328  1.00  0.00     0.000 C 
BRANCH   6   7
ATOM      7  C   UNL     1      20.065   1.075 -14.853  1.00  0.00     0.006 C 
BRANCH   7   8
ATOM      8  C   UNL     1      19.233   1.931 -15.826  1.00  0.00     0.053 C 
BRANCH   8   9
ATOM      9  C   UNL     1      17.773   1.587 -15.796  1.00  0.00     0.041 C 
ATOM     10  O   UNL     1      17.305   0.886 -14.860  1.00  0.00    -0.550 OA
ATOM     11  O   UNL     1      16.937   2.006 -16.823  1.00  0.00    -0.550 OA
ENDBRANCH   8   9
ENDBRANCH   7   8
ENDBRANCH   6   7
ENDBRANCH   5   6
ENDBRANCH   4   5
ENDBRANCH   3   4
ENDBRANCH   2   3
ENDBRANCH   1   2
BRANCH   1  12
ATOM     12  C   UNL     1      20.109   0.583 -19.284  1.00  0.00     0.000 C 
BRANCH  12  13
ATOM     13  C   UNL     1      21.061   1.125 -20.360  1.00  0.00    -0.000 C 
BRANCH  13  14
ATOM     14  C   UNL     1      20.484   0.999 -21.779  1.00  0.00    -0.000 C 
BRANCH  14  15
ATOM     15  C   UNL     1      18.966   1.231 -21.826  1.00  0.00    -0.000 C 
BRANCH  15  16
ATOM     16  C   UNL     1      18.264   0.119 -22.615  1.00  0.00    -0.000 C 
BRANCH  16  17
ATOM     17  C   UNL     1      16.792   0.472 -22.873  1.00  0.00    -0.000 C 
BRANCH  17  18
ATOM     18  C   UNL     1      16.263  -0.120 -24.188  1.00  0.00    -0.000 C 
BRANCH  18  19
ATOM     19  C   UNL     1      16.727   0.670 -25.420  1.00  0.00    -0.003 C 
ATOM     20  C   UNL     1      16.260   2.121 -25.350  1.00  0.00     0.004 C 
ENDBRANCH  18  19
ENDBRANCH  17  18
ENDBRANCH  16  17
ENDBRANCH  15  16
ENDBRANCH  14  15
ENDBRANCH  13  14
ENDBRANCH  12  13
ENDBRANCH   1  12
TORSDOF 16
ENDMDL
MODEL 4
REMARK VINA RESULT:    -5.257      2.039      5.656
REMARK INTER + INTRA:         -11.814
REMARK INTER:                  -9.771
REMARK INTRA:                  -2.043
REMARK UNBOUND:                -1.641
REMARK SMILES CCCCCCCCCCCCCCCCCC(=O)[O-]
REMARK SMILES IDX 10 1 11 2 12 3 13 4 14 5 15 6 16 7 17 8 18 9 19 10 20 11
REMARK SMILES IDX 9 12 8 13 7 14 6 15 5 16 4 17 3 18 2 19 1 20
REMARK H PARENT
REMARK Flexibility Score: inf
ROOT
ATOM      1  C   UNL     1      16.787   0.257 -23.063  1.00  0.00     0.000 C 
ENDROOT
BRANCH   1   2
ATOM      2  C   UNL     1      17.441   1.602 -22.700  1.00  0.00     0.000 C 
BRANCH   2   3
ATOM      3  C   UNL     1      18.961   1.543 -22.445  1.00  0.00     0.000 C 
BRANCH   3   4
ATOM      4  C   UNL     1      19.427   0.411 -21.514  1.00  0.00     0.000 C 
BRANCH   4   5
ATOM      5  C   UNL     1      19.547   0.857 -20.047  1.00  0.00     0.000 C 
BRANCH   5   6
ATOM      6  C   UNL     1      20.120  -0.239 -19.132  1.00  0.00     0.000 C 
BRANCH   6   7
ATOM      7  C   UNL     1      19.500  -0.316 -17.723  1.00  0.00     0.006 C 
BRANCH   7   8
ATOM      8  C   UNL     1      19.381   1.045 -17.011  1.00  0.00     0.053 C 
BRANCH   8   9
ATOM      9  C   UNL     1      18.066   1.217 -16.310  1.00  0.00     0.041 C 
ATOM     10  O   UNL     1      17.858   0.656 -15.202  1.00  0.00    -0.550 OA
ATOM     11  O   UNL     1      17.055   1.965 -16.900  1.00  0.00    -0.550 OA
ENDBRANCH   8   9
ENDBRANCH   7   8
ENDBRANCH   6   7
ENDBRANCH   5   6
ENDBRANCH   4   5
ENDBRANCH   3   4
ENDBRANCH   2   3
ENDBRANCH   1   2
BRANCH   1  12
ATOM     12  C   UNL     1      16.209   0.238 -24.486  1.00  0.00     0.000 C 
BRANCH  12  13
ATOM     13  C   UNL     1      16.247   1.640 -25.111  1.00  0.00    -0.000 C 
BRANCH  13  14
ATOM     14  C   UNL     1      17.222   1.735 -26.295  1.00  0.00    -0.000 C 
BRANCH  14  15
ATOM     15  C   UNL     1      17.280   0.442 -27.121  1.00  0.00    -0.000 C 
BRANCH  15  16
ATOM     16  C   UNL     1      18.708  -0.113 -27.176  1.00  0.00    -0.000 C 
BRANCH  16  17
ATOM     17  C   UNL     1      19.557   0.435 -26.019  1.00  0.00    -0.000 C 
BRANCH  17  18
ATOM     18  C   UNL     1      20.228  -0.677 -25.199  1.00  0.00    -0.000 C 
BRANCH  18  19
ATOM     19  C   UNL     1      19.307  -1.885 -24.978  1.00  0.00    -0.003 C 
ATOM     20  C   UNL     1      19.981  -3.180 -25.424  1.00  0.00     0.004 C 
ENDBRANCH  18  19
ENDBRANCH  17  18
ENDBRANCH  16  17
ENDBRANCH  15  16
ENDBRANCH  14  15
ENDBRANCH  13  14
ENDBRANCH  12  13
ENDBRANCH   1  12
TORSDOF 16
ENDMDL
MODEL 5
REMARK VINA RESULT:    -5.246      2.716      6.090
REMARK INTER + INTRA:         -11.794
REMARK INTER:                  -9.433
REMARK INTRA:                  -2.360
REMARK UNBOUND:                -1.641
REMARK SMILES CCCCCCCCCCCCCCCCCC(=O)[O-]
REMARK SMILES IDX 10 1 11 2 12 3 13 4 14 5 15 6 16 7 17 8 18 9 19 10 20 11
REMARK SMILES IDX 9 12 8 13 7 14 6 15 5 16 4 17 3 18 2 19 1 20
REMARK H PARENT
REMARK Flexibility Score: inf
ROOT
ATOM      1  C   UNL     1      16.751  -0.280 -23.757  1.00  0.00     0.000 C 
ENDROOT
BRANCH   1   2
ATOM      2  C   UNL     1      16.731   0.820 -22.681  1.00  0.00     0.000 C 
BRANCH   2   3
ATOM      3  C   UNL     1      18.110   1.189 -22.096  1.00  0.00     0.000 C 
BRANCH   3   4
ATOM      4  C   UNL     1      19.137   0.044 -22.064  1.00  0.00     0.000 C 
BRANCH   4   5
ATOM      5  C   UNL     1      20.564   0.532 -21.764  1.00  0.00     0.000 C 
BRANCH   5   6
ATOM      6  C   UNL     1      20.886   0.558 -20.260  1.00  0.00     0.000 C 
BRANCH   6   7
ATOM      7  C   UNL     1      20.044  -0.392 -19.385  1.00  0.00     0.006 C 
BRANCH   7   8
ATOM      8  C   UNL     1      20.690  -0.740 -18.031  1.00  0.00     0.053 C 
BRANCH   8   9
ATOM      9  C   UNL     1      20.032  -1.911 -17.361  1.00  0.00     0.041 C 
ATOM     10  O   UNL     1      20.160  -2.087 -16.121  1.00  0.00    -0.550 OA
ATOM     11  O   UNL     1      19.313  -2.829 -18.114  1.00  0.00    -0.550 OA
ENDBRANCH   8   9
ENDBRANCH   7   8
ENDBRANCH   6   7
ENDBRANCH   5   6
ENDBRANCH   4   5
ENDBRANCH   3   4
ENDBRANCH   2   3
ENDBRANCH   1   2
BRANCH   1  12
ATOM     12  C   UNL     1      15.993   0.117 -25.032  1.00  0.00     0.000 C 
BRANCH  12  13
ATOM     13  C   UNL     1      16.006   1.641 -25.225  1.00  0.00    -0.000 C 
BRANCH  13  14
ATOM     14  C   UNL     1      17.138   2.111 -26.151  1.00  0.00    -0.000 C 
BRANCH  14  15
ATOM     15  C   UNL     1      18.246   2.864 -25.400  1.00  0.00    -0.000 C 
BRANCH  15  16
ATOM     16  C   UNL     1      19.530   2.030 -25.331  1.00  0.00    -0.000 C 
BRANCH  16  17
ATOM     17  C   UNL     1      19.420   0.776 -26.211  1.00  0.00    -0.000 C 
BRANCH  17  18
ATOM     18  C   UNL     1      19.964  -0.483 -25.519  1.00  0.00    -0.000 C 
BRANCH  18  19
ATOM     19  C   UNL     1      19.713  -1.760 -26.333  1.00  0.00    -0.003 C 
ATOM     20  C   UNL     1      19.740  -2.997 -25.438  1.00  0.00     0.004 C 
ENDBRANCH  18  19
ENDBRANCH  17  18
ENDBRANCH  16  17
ENDBRANCH  15  16
ENDBRANCH  14  15
ENDBRANCH  13  14
ENDBRANCH  12  13
ENDBRANCH   1  12
TORSDOF 16
ENDMDL
MODEL 6
REMARK VINA RESULT:    -5.223      1.399      3.468
REMARK INTER + INTRA:         -11.749
REMARK INTER:                 -10.150
REMARK INTRA:                  -1.599
REMARK UNBOUND:                -1.641
REMARK SMILES CCCCCCCCCCCCCCCCCC(=O)[O-]
REMARK SMILES IDX 10 1 11 2 12 3 13 4 14 5 15 6 16 7 17 8 18 9 19 10 20 11
REMARK SMILES IDX 9 12 8 13 7 14 6 15 5 16 4 17 3 18 2 19 1 20
REMARK H PARENT
REMARK Flexibility Score: inf
ROOT
ATOM      1  C   UNL     1      19.621   1.100 -20.861  1.00  0.00     0.000 C 
ENDROOT
BRANCH   1   2
ATOM      2  C   UNL     1      19.528   0.495 -19.449  1.00  0.00     0.000 C 
BRANCH   2   3
ATOM      3  C   UNL     1      20.661  -0.486 -19.081  1.00  0.00     0.000 C 
BRANCH   3   4
ATOM      4  C   UNL     1      20.224  -1.948 -18.881  1.00  0.00     0.000 C 
BRANCH   4   5
ATOM      5  C   UNL     1      19.706  -2.225 -17.460  1.00  0.00     0.000 C 
BRANCH   5   6
ATOM      6  C   UNL     1      20.550  -1.544 -16.369  1.00  0.00     0.000 C 
BRANCH   6   7
ATOM      7  C   UNL     1      19.759  -0.712 -15.341  1.00  0.00     0.006 C 
BRANCH   7   8
ATOM      8  C   UNL     1      19.605   0.774 -15.718  1.00  0.00     0.053 C 
BRANCH   8   9
ATOM      9  C   UNL     1      18.172   1.220 -15.735  1.00  0.00     0.041 C 
ATOM     10  O   UNL     1      17.356   0.769 -14.889  1.00  0.00    -0.550 OA
ATOM     11  O   UNL     1      17.730   2.102 -16.712  1.00  0.00    -0.550 OA
ENDBRANCH   8   9
ENDBRANCH   7   8
ENDBRANCH   6   7
ENDBRANCH   5   6
ENDBRANCH   4   5
ENDBRANCH   3   4
ENDBRANCH   2   3
ENDBRANCH   1   2
BRANCH   1  12
ATOM     12  C   UNL     1      19.744   0.034 -21.960  1.00  0.00     0.000 C 
BRANCH  12  13
ATOM     13  C   UNL     1      20.340   0.636 -23.241  1.00  0.00    -0.000 C 
BRANCH  13  14
ATOM     14  C   UNL     1      20.514  -0.404 -24.359  1.00  0.00    -0.000 C 
BRANCH  14  15
ATOM     15  C   UNL     1      19.337  -1.387 -24.443  1.00  0.00    -0.000 C 
BRANCH  15  16
ATOM     16  C   UNL     1      18.223  -0.836 -25.342  1.00  0.00    -0.000 C 
BRANCH  16  17
ATOM     17  C   UNL     1      16.928  -0.621 -24.545  1.00  0.00    -0.000 C 
BRANCH  17  18
ATOM     18  C   UNL     1      15.976   0.378 -25.221  1.00  0.00    -0.000 C 
BRANCH  18  19
ATOM     19  C   UNL     1      16.258   1.831 -24.812  1.00  0.00    -0.003 C 
ATOM     20  C   UNL     1      16.968   1.894 -23.462  1.00  0.00     0.004 C 
ENDBRANCH  18  19
ENDBRANCH  17  18
ENDBRANCH  16  17
ENDBRANCH  15  16
ENDBRANCH  14  15
ENDBRANCH  13  14
ENDBRANCH  12  13
ENDBRANCH   1  12
TORSDOF 16
ENDMDL
MODEL 7
REMARK VINA RESULT:    -5.219      1.828      4.939
REMARK INTER + INTRA:         -11.742
REMARK INTER:                 -10.170
REMARK INTRA:                  -1.572
REMARK UNBOUND:                -1.641
REMARK SMILES CCCCCCCCCCCCCCCCCC(=O)[O-]
REMARK SMILES IDX 10 1 11 2 12 3 13 4 14 5 15 6 16 7 17 8 18 9 19 10 20 11
REMARK SMILES IDX 9 12 8 13 7 14 6 15 5 16 4 17 3 18 2 19 1 20
REMARK H PARENT
REMARK Flexibility Score: inf
ROOT
ATOM      1  C   UNL     1      18.705   1.548 -22.461  1.00  0.00     0.000 C 
ENDROOT
BRANCH   1   2
ATOM      2  C   UNL     1      19.193   0.248 -21.797  1.00  0.00     0.000 C 
BRANCH   2   3
ATOM      3  C   UNL     1      20.301   0.430 -20.739  1.00  0.00     0.000 C 
BRANCH   3   4
ATOM      4  C   UNL     1      19.924  -0.001 -19.312  1.00  0.00     0.000 C 
BRANCH   4   5
ATOM      5  C   UNL     1      20.122  -1.507 -19.072  1.00  0.00     0.000 C 
BRANCH   5   6
ATOM      6  C   UNL     1      19.791  -1.934 -17.631  1.00  0.00     0.000 C 
BRANCH   6   7
ATOM      7  C   UNL     1      20.819  -1.513 -16.562  1.00  0.00     0.006 C 
BRANCH   7   8
ATOM      8  C   UNL     1      20.205  -1.207 -15.183  1.00  0.00     0.053 C 
BRANCH   8   9
ATOM      9  C   UNL     1      19.617   0.171 -15.105  1.00  0.00     0.041 C 
ATOM     10  O   UNL     1      18.372   0.337 -15.205  1.00  0.00    -0.550 OA
ATOM     11  O   UNL     1      20.447   1.275 -14.961  1.00  0.00    -0.550 OA
ENDBRANCH   8   9
ENDBRANCH   7   8
ENDBRANCH   6   7
ENDBRANCH   5   6
ENDBRANCH   4   5
ENDBRANCH   3   4
ENDBRANCH   2   3
ENDBRANCH   1   2
BRANCH   1  12
ATOM     12  C   UNL     1      17.196   1.544 -22.745  1.00  0.00     0.000 C 
BRANCH  12  13
ATOM     13  C   UNL     1      16.733   0.161 -23.227  1.00  0.00    -0.000 C 
BRANCH  13  14
ATOM     14  C   UNL     1      16.080   0.207 -24.617  1.00  0.00    -0.000 C 
BRANCH  14  15
ATOM     15  C   UNL     1      16.068   1.619 -25.221  1.00  0.00    -0.000 C 
BRANCH  15  16
ATOM     16  C   UNL     1      16.981   1.699 -26.450  1.00  0.00    -0.000 C 
BRANCH  16  17
ATOM     17  C   UNL     1      17.840   0.432 -26.583  1.00  0.00    -0.000 C 
BRANCH  17  18
ATOM     18  C   UNL     1      19.289   0.648 -26.122  1.00  0.00    -0.000 C 
BRANCH  18  19
ATOM     19  C   UNL     1      20.076  -0.665 -26.011  1.00  0.00    -0.003 C 
ATOM     20  C   UNL     1      21.034  -0.634 -24.824  1.00  0.00     0.004 C 
ENDBRANCH  18  19
ENDBRANCH  17  18
ENDBRANCH  16  17
ENDBRANCH  15  16
ENDBRANCH  14  15
ENDBRANCH  13  14
ENDBRANCH  12  13
ENDBRANCH   1  12
TORSDOF 16
ENDMDL
MODEL 8
REMARK VINA RESULT:    -5.193      4.406      9.060
REMARK INTER + INTRA:         -11.691
REMARK INTER:                  -9.291
REMARK INTRA:                  -2.400
REMARK UNBOUND:                -1.641
REMARK SMILES CCCCCCCCCCCCCCCCCC(=O)[O-]
REMARK SMILES IDX 10 1 11 2 12 3 13 4 14 5 15 6 16 7 17 8 18 9 19 10 20 11
REMARK SMILES IDX 9 12 8 13 7 14 6 15 5 16 4 17 3 18 2 19 1 20
REMARK H PARENT
REMARK Flexibility Score: inf
ROOT
ATOM      1  C   UNL     1      16.389  -0.461 -24.461  1.00  0.00     0.000 C 
ENDROOT
BRANCH   1   2
ATOM      2  C   UNL     1      15.618   0.489 -25.394  1.00  0.00     0.000 C 
BRANCH   2   3
ATOM      3  C   UNL     1      16.008   1.977 -25.280  1.00  0.00     0.000 C 
BRANCH   3   4
ATOM      4  C   UNL     1      17.248   2.395 -26.089  1.00  0.00     0.000 C 
BRANCH   4   5
ATOM      5  C   UNL     1      18.401   2.891 -25.200  1.00  0.00     0.000 C 
BRANCH   5   6
ATOM      6  C   UNL     1      19.580   1.904 -25.141  1.00  0.00     0.000 C 
BRANCH   6   7
ATOM      7  C   UNL     1      19.718   0.963 -26.354  1.00  0.00     0.006 C 
BRANCH   7   8
ATOM      8  C   UNL     1      19.740  -0.534 -25.990  1.00  0.00     0.053 C 
BRANCH   8   9
ATOM      9  C   UNL     1      19.020  -1.383 -26.996  1.00  0.00     0.041 C 
ATOM     10  O   UNL     1      19.418  -2.553 -27.240  1.00  0.00    -0.550 OA
ATOM     11  O   UNL     1      17.935  -0.868 -27.693  1.00  0.00    -0.550 OA
ENDBRANCH   8   9
ENDBRANCH   7   8
ENDBRANCH   6   7
ENDBRANCH   5   6
ENDBRANCH   4   5
ENDBRANCH   3   4
ENDBRANCH   2   3
ENDBRANCH   1   2
BRANCH   1  12
ATOM     12  C   UNL     1      16.823   0.211 -23.150  1.00  0.00     0.000 C 
BRANCH  12  13
ATOM     13  C   UNL     1      18.156  -0.369 -22.653  1.00  0.00    -0.000 C 
BRANCH  13  14
ATOM     14  C   UNL     1      18.881   0.568 -21.673  1.00  0.00    -0.000 C 
BRANCH  14  15
ATOM     15  C   UNL     1      20.406   0.542 -21.848  1.00  0.00    -0.000 C 
BRANCH  15  16
ATOM     16  C   UNL     1      21.114   0.983 -20.561  1.00  0.00    -0.000 C 
BRANCH  16  17
ATOM     17  C   UNL     1      20.351   0.502 -19.319  1.00  0.00    -0.000 C 
BRANCH  17  18
ATOM     18  C   UNL     1      21.285   0.012 -18.202  1.00  0.00    -0.000 C 
BRANCH  18  19
ATOM     19  C   UNL     1      20.911  -1.386 -17.690  1.00  0.00    -0.003 C 
ATOM     20  C   UNL     1      20.017  -2.117 -18.690  1.00  0.00     0.004 C 
ENDBRANCH  18  19
ENDBRANCH  17  18
ENDBRANCH  16  17
ENDBRANCH  15  16
ENDBRANCH  14  15
ENDBRANCH  13  14
ENDBRANCH  12  13
ENDBRANCH   1  12
TORSDOF 16
ENDMDL
MODEL 9
REMARK VINA RESULT:    -5.140      4.057      9.060
REMARK INTER + INTRA:         -11.588
REMARK INTER:                  -9.646
REMARK INTRA:                  -1.942
REMARK UNBOUND:                -1.641
REMARK SMILES CCCCCCCCCCCCCCCCCC(=O)[O-]
REMARK SMILES IDX 10 1 11 2 12 3 13 4 14 5 15 6 16 7 17 8 18 9 19 10 20 11
REMARK SMILES IDX 9 12 8 13 7 14 6 15 5 16 4 17 3 18 2 19 1 20
REMARK H PARENT
REMARK Flexibility Score: inf
ROOT
ATOM      1  C   UNL     1      16.777   0.140 -23.233  1.00  0.00     0.000 C 
ENDROOT
BRANCH   1   2
ATOM      2  C   UNL     1      15.976   0.207 -24.545  1.00  0.00     0.000 C 
BRANCH   2   3
ATOM      3  C   UNL     1      16.293   1.419 -25.445  1.00  0.00     0.000 C 
BRANCH   3   4
ATOM      4  C   UNL     1      17.224   1.128 -26.635  1.00  0.00     0.000 C 
BRANCH   4   5
ATOM      5  C   UNL     1      18.673   0.847 -26.202  1.00  0.00     0.000 C 
BRANCH   5   6
ATOM      6  C   UNL     1      19.082  -0.624 -26.390  1.00  0.00     0.000 C 
BRANCH   6   7
ATOM      7  C   UNL     1      19.677  -1.311 -25.145  1.00  0.00     0.006 C 
BRANCH   7   8
ATOM      8  C   UNL     1      18.830  -2.478 -24.604  1.00  0.00     0.053 C 
BRANCH   8   9
ATOM      9  C   UNL     1      19.335  -3.816 -25.056  1.00  0.00     0.041 C 
ATOM     10  O   UNL     1      18.559  -4.808 -25.093  1.00  0.00    -0.550 OA
ATOM     11  O   UNL     1      20.671  -3.977 -25.397  1.00  0.00    -0.550 OA
ENDBRANCH   8   9
ENDBRANCH   7   8
ENDBRANCH   6   7
ENDBRANCH   5   6
ENDBRANCH   4   5
ENDBRANCH   3   4
ENDBRANCH   2   3
ENDBRANCH   1   2
BRANCH   1  12
ATOM     12  C   UNL     1      17.246   1.520 -22.749  1.00  0.00     0.000 C 
BRANCH  12  13
ATOM     13  C   UNL     1      18.761   1.526 -22.498  1.00  0.00    -0.000 C 
BRANCH  13  14
ATOM     14  C   UNL     1      19.242   0.279 -21.739  1.00  0.00    -0.000 C 
BRANCH  14  15
ATOM     15  C   UNL     1      20.556   0.516 -20.981  1.00  0.00    -0.000 C 
BRANCH  15  16
ATOM     16  C   UNL     1      20.338   0.438 -19.465  1.00  0.00    -0.000 C 
BRANCH  16  17
ATOM     17  C   UNL     1      20.033  -1.002 -19.026  1.00  0.00    -0.000 C 
BRANCH  17  18
ATOM     18  C   UNL     1      21.211  -1.657 -18.288  1.00  0.00    -0.000 C 
BRANCH  18  19
ATOM     19  C   UNL     1      21.743  -0.792 -17.137  1.00  0.00    -0.003 C 
ATOM     20  C   UNL     1      21.251  -1.308 -15.788  1.00  0.00     0.004 C 
ENDBRANCH  18  19
ENDBRANCH  17  18
ENDBRANCH  16  17
ENDBRANCH  15  16
ENDBRANCH  14  15
ENDBRANCH  13  14
ENDBRANCH  12  13
ENDBRANCH   1  12
TORSDOF 16
ENDMDL
