MODEL 1
REMARK VINA RESULT:    -7.491      0.000      0.000
REMARK INTER + INTRA:         -12.320
REMARK INTER:                 -10.118
REMARK INTRA:                  -2.201
REMARK UNBOUND:                -2.201
REMARK SMILES CC[C@@H](CC[C@@H](C)[C@@H]1CC[C@@H]2[C@@H]3CC(=O)C4=CC(=O)CC[C@]4(C)[C@H]3CC[C@]21C)C(C)C
REMARK SMILES IDX 4 1 3 2 2 3 1 4 29 5 30 6 31 7 5 8 6 9 7 10 8 11 9 12 27 13
REMARK SMILES IDX 10 14 11 15 26 16 28 17 12 18 25 19 24 20 13 21 22 22 14 23
REMARK SMILES IDX 16 24 21 25 23 26 15 27 17 28 20 29 18 30 19 31
REMARK H PARENT
REMARK Flexibility Score: inf
ROOT
ATOM      1  C   UNL     1      10.211 -18.871  18.115  1.00  0.00     0.004 C 
ENDROOT
BRANCH   1   2
ATOM      2  C   UNL     1       9.059 -17.863  18.408  1.00  0.00    -0.009 C 
BRANCH   2   3
ATOM      3  C   UNL     1       7.677 -18.534  18.153  1.00  0.00     0.000 C 
ATOM      4  C   UNL     1       6.722 -18.492  19.345  1.00  0.00     0.004 C 
ENDBRANCH   2   3
BRANCH   2   5
ATOM      5  C   UNL     1       9.312 -16.532  17.612  1.00  0.00    -0.014 C 
ATOM      6  C   UNL     1       9.005 -15.256  18.411  1.00  0.00     0.007 C 
ATOM      7  C   UNL     1      10.713 -16.462  16.982  1.00  0.00     0.007 C 
ENDBRANCH   2   5
ENDBRANCH   1   2
BRANCH   1   8
ATOM      8  C   UNL     1      11.017 -19.374  19.334  1.00  0.00     0.004 C 
BRANCH   8   9
ATOM      9  C   UNL     1      11.820 -18.343  20.193  1.00  0.00    -0.011 C 
ATOM     10  C   UNL     1      13.168 -18.086  19.496  1.00  0.00     0.008 C 
BRANCH   9  11
ATOM     11  C   UNL     1      11.167 -16.975  20.637  1.00  0.00    -0.002 C 
ATOM     12  C   UNL     1      12.086 -15.724  20.593  1.00  0.00     0.005 C 
ATOM     13  C   UNL     1      10.340 -16.829  21.959  1.00  0.00    -0.026 C 
ATOM     14  C   UNL     1      11.516 -14.717  21.604  1.00  0.00     0.005 C 
ATOM     15  C   UNL     1      10.160 -15.298  21.975  1.00  0.00    -0.001 C 
ATOM     16  C   UNL     1       8.916 -17.488  21.929  1.00  0.00     0.007 C 
ATOM     17  C   UNL     1      11.167 -17.340  23.173  1.00  0.00     0.012 C 
ATOM     18  C   UNL     1       9.344 -14.700  23.161  1.00  0.00     0.004 C 
ATOM     19  C   UNL     1       7.790 -16.636  22.588  1.00  0.00     0.005 C 
ATOM     20  C   UNL     1       8.319 -15.729  23.731  1.00  0.00     0.003 C 
ATOM     21  C   UNL     1      10.158 -14.067  24.293  1.00  0.00     0.085 C 
ATOM     22  C   UNL     1       7.225 -15.030  24.624  1.00  0.00    -0.000 C 
ATOM     23  C   UNL     1       9.245 -13.494  25.342  1.00  0.00     0.159 C 
ATOM     24  C   UNL     1       7.924 -14.123  25.653  1.00  0.00     0.005 C 
ATOM     25  C   UNL     1       6.405 -16.122  25.384  1.00  0.00     0.020 C 
ATOM     26  C   UNL     1       6.255 -14.167  23.774  1.00  0.00     0.017 C 
ATOM     27  O   UNL     1       9.649 -12.504  26.011  1.00  0.00    -0.295 OA
ATOM     28  C   UNL     1       7.333 -13.840  26.831  1.00  0.00     0.055 C 
ATOM     29  C   UNL     1       5.431 -15.542  26.420  1.00  0.00     0.081 C 
ATOM     30  C   UNL     1       6.081 -14.483  27.254  1.00  0.00     0.156 C 
ATOM     31  O   UNL     1       5.534 -14.122  28.331  1.00  0.00    -0.295 OA
ENDBRANCH   9  11
ENDBRANCH   8   9
ENDBRANCH   1   8
TORSDOF 6
ENDMDL
MODEL 2
REMARK VINA RESULT:    -7.321      1.483      3.340
REMARK INTER + INTRA:         -12.090
REMARK INTER:                 -11.180
REMARK INTRA:                  -0.909
REMARK UNBOUND:                -2.201
REMARK SMILES CC[C@@H](CC[C@@H](C)[C@@H]1CC[C@@H]2[C@@H]3CC(=O)C4=CC(=O)CC[C@]4(C)[C@H]3CC[C@]21C)C(C)C
REMARK SMILES IDX 4 1 3 2 2 3 1 4 29 5 30 6 31 7 5 8 6 9 7 10 8 11 9 12 27 13
REMARK SMILES IDX 10 14 11 15 26 16 28 17 12 18 25 19 24 20 13 21 22 22 14 23
REMARK SMILES IDX 16 24 21 25 23 26 15 27 17 28 20 29 18 30 19 31
REMARK H PARENT
REMARK Flexibility Score: inf
ROOT
ATOM      1  C   UNL     1      13.709 -18.505  19.985  1.00  0.00     0.004 C 
ENDROOT
BRANCH   1   2
ATOM      2  C   UNL     1      14.779 -18.767  18.883  1.00  0.00    -0.009 C 
BRANCH   2   3
ATOM      3  C   UNL     1      16.065 -19.377  19.514  1.00  0.00     0.000 C 
ATOM      4  C   UNL     1      17.064 -19.936  18.501  1.00  0.00     0.004 C 
ENDBRANCH   2   3
BRANCH   2   5
ATOM      5  C   UNL     1      15.004 -17.455  18.047  1.00  0.00    -0.014 C 
ATOM      6  C   UNL     1      13.915 -17.187  16.997  1.00  0.00     0.007 C 
ATOM      7  C   UNL     1      15.239 -16.213  18.924  1.00  0.00     0.007 C 
ENDBRANCH   2   5
ENDBRANCH   1   2
BRANCH   1   8
ATOM      8  C   UNL     1      12.384 -19.290  19.864  1.00  0.00     0.004 C 
BRANCH   8   9
ATOM      9  C   UNL     1      11.133 -18.579  19.250  1.00  0.00    -0.011 C 
ATOM     10  C   UNL     1       9.970 -19.588  19.232  1.00  0.00     0.008 C 
BRANCH   9  11
ATOM     11  C   UNL     1      10.637 -17.187  19.806  1.00  0.00    -0.002 C 
ATOM     12  C   UNL     1      11.640 -16.006  19.706  1.00  0.00     0.005 C 
ATOM     13  C   UNL     1       9.965 -17.035  21.212  1.00  0.00    -0.026 C 
ATOM     14  C   UNL     1      11.256 -15.002  20.805  1.00  0.00     0.005 C 
ATOM     15  C   UNL     1       9.906 -15.497  21.298  1.00  0.00    -0.001 C 
ATOM     16  C   UNL     1       8.499 -17.587  21.312  1.00  0.00     0.007 C 
ATOM     17  C   UNL     1      10.871 -17.655  22.314  1.00  0.00     0.012 C 
ATOM     18  C   UNL     1       9.265 -14.890  22.584  1.00  0.00     0.004 C 
ATOM     19  C   UNL     1       7.516 -16.683  22.115  1.00  0.00     0.005 C 
ATOM     20  C   UNL     1       8.229 -15.865  23.226  1.00  0.00     0.003 C 
ATOM     21  C   UNL     1      10.239 -14.366  23.644  1.00  0.00     0.085 C 
ATOM     22  C   UNL     1       7.290 -15.126  24.252  1.00  0.00    -0.000 C 
ATOM     23  C   UNL     1       9.486 -13.772  24.802  1.00  0.00     0.159 C 
ATOM     24  C   UNL     1       8.160 -14.315  25.232  1.00  0.00     0.005 C 
ATOM     25  C   UNL     1       6.472 -16.185  25.059  1.00  0.00     0.020 C 
ATOM     26  C   UNL     1       6.307 -14.159  23.541  1.00  0.00     0.017 C 
ATOM     27  O   UNL     1      10.032 -12.842  25.457  1.00  0.00    -0.295 OA
ATOM     28  C   UNL     1       7.718 -14.039  26.474  1.00  0.00     0.055 C 
ATOM     29  C   UNL     1       5.659 -15.579  26.211  1.00  0.00     0.081 C 
ATOM     30  C   UNL     1       6.471 -14.606  27.007  1.00  0.00     0.156 C 
ATOM     31  O   UNL     1       6.068 -14.251  28.147  1.00  0.00    -0.295 OA
ENDBRANCH   9  11
ENDBRANCH   8   9
ENDBRANCH   1   8
TORSDOF 6
ENDMDL
MODEL 3
REMARK VINA RESULT:    -7.310      2.089      2.983
REMARK INTER + INTRA:         -12.075
REMARK INTER:                 -10.025
REMARK INTRA:                  -2.050
REMARK UNBOUND:                -2.201
REMARK SMILES CC[C@@H](CC[C@@H](C)[C@@H]1CC[C@@H]2[C@@H]3CC(=O)C4=CC(=O)CC[C@]4(C)[C@H]3CC[C@]21C)C(C)C
REMARK SMILES IDX 4 1 3 2 2 3 1 4 29 5 30 6 31 7 5 8 6 9 7 10 8 11 9 12 27 13
REMARK SMILES IDX 10 14 11 15 26 16 28 17 12 18 25 19 24 20 13 21 22 22 14 23
REMARK SMILES IDX 16 24 21 25 23 26 15 27 17 28 20 29 18 30 19 31
REMARK H PARENT
REMARK Flexibility Score: inf
ROOT
ATOM      1  C   UNL     1      11.540 -19.935  21.517  1.00  0.00     0.004 C 
ENDROOT
BRANCH   1   2
ATOM      2  C   UNL     1      10.012 -19.765  21.774  1.00  0.00    -0.009 C 
BRANCH   2   3
ATOM      3  C   UNL     1       9.560 -20.670  22.957  1.00  0.00     0.000 C 
ATOM      4  C   UNL     1       8.996 -22.027  22.537  1.00  0.00     0.004 C 
ENDBRANCH   2   3
BRANCH   2   5
ATOM      5  C   UNL     1       9.227 -19.981  20.430  1.00  0.00    -0.014 C 
ATOM      6  C   UNL     1       8.041 -19.025  20.236  1.00  0.00     0.007 C 
ATOM      7  C   UNL     1      10.139 -19.984  19.191  1.00  0.00     0.007 C 
ENDBRANCH   2   5
ENDBRANCH   1   2
BRANCH   1   8
ATOM      8  C   UNL     1      12.436 -18.716  21.833  1.00  0.00     0.004 C 
BRANCH   8   9
ATOM      9  C   UNL     1      12.141 -17.352  21.126  1.00  0.00    -0.011 C 
ATOM     10  C   UNL     1      12.694 -17.427  19.691  1.00  0.00     0.008 C 
BRANCH   9  11
ATOM     11  C   UNL     1      10.684 -16.742  21.116  1.00  0.00    -0.002 C 
ATOM     12  C   UNL     1      10.258 -15.990  19.827  1.00  0.00     0.005 C 
ATOM     13  C   UNL     1      10.128 -15.877  22.298  1.00  0.00    -0.026 C 
ATOM     14  C   UNL     1       9.165 -14.991  20.235  1.00  0.00     0.005 C 
ATOM     15  C   UNL     1       8.810 -15.396  21.658  1.00  0.00    -0.001 C 
ATOM     16  C   UNL     1       9.774 -16.679  23.600  1.00  0.00     0.007 C 
ATOM     17  C   UNL     1      11.098 -14.703  22.610  1.00  0.00     0.012 C 
ATOM     18  C   UNL     1       7.898 -14.484  22.533  1.00  0.00     0.004 C 
ATOM     19  C   UNL     1       8.445 -16.247  24.289  1.00  0.00     0.005 C 
ATOM     20  C   UNL     1       8.110 -14.749  24.056  1.00  0.00     0.003 C 
ATOM     21  C   UNL     1       7.954 -12.982  22.235  1.00  0.00     0.085 C 
ATOM     22  C   UNL     1       6.933 -14.159  24.921  1.00  0.00    -0.000 C 
ATOM     23  C   UNL     1       6.995 -12.234  23.120  1.00  0.00     0.159 C 
ATOM     24  C   UNL     1       6.697 -12.693  24.511  1.00  0.00     0.005 C 
ATOM     25  C   UNL     1       7.330 -14.205  26.433  1.00  0.00     0.020 C 
ATOM     26  C   UNL     1       5.616 -14.953  24.718  1.00  0.00     0.017 C 
ATOM     27  O   UNL     1       6.494 -11.160  22.686  1.00  0.00    -0.295 OA
ATOM     28  C   UNL     1       6.171 -11.813  25.386  1.00  0.00     0.055 C 
ATOM     29  C   UNL     1       6.328 -13.489  27.348  1.00  0.00     0.081 C 
ATOM     30  C   UNL     1       5.932 -12.155  26.795  1.00  0.00     0.156 C 
ATOM     31  O   UNL     1       5.366 -11.317  27.547  1.00  0.00    -0.295 OA
ENDBRANCH   9  11
ENDBRANCH   8   9
ENDBRANCH   1   8
TORSDOF 6
ENDMDL
MODEL 4
REMARK VINA RESULT:    -7.211      2.021      3.675
REMARK INTER + INTRA:         -11.942
REMARK INTER:                 -10.167
REMARK INTRA:                  -1.774
REMARK UNBOUND:                -2.201
REMARK SMILES CC[C@@H](CC[C@@H](C)[C@@H]1CC[C@@H]2[C@@H]3CC(=O)C4=CC(=O)CC[C@]4(C)[C@H]3CC[C@]21C)C(C)C
REMARK SMILES IDX 4 1 3 2 2 3 1 4 29 5 30 6 31 7 5 8 6 9 7 10 8 11 9 12 27 13
REMARK SMILES IDX 10 14 11 15 26 16 28 17 12 18 25 19 24 20 13 21 22 22 14 23
REMARK SMILES IDX 16 24 21 25 23 26 15 27 17 28 20 29 18 30 19 31
REMARK H PARENT
REMARK Flexibility Score: inf
ROOT
ATOM      1  C   UNL     1      13.498 -16.201  18.324  1.00  0.00     0.004 C 
ENDROOT
BRANCH   1   2
ATOM      2  C   UNL     1      12.684 -16.684  17.085  1.00  0.00    -0.009 C 
BRANCH   2   3
ATOM      3  C   UNL     1      13.583 -16.682  15.815  1.00  0.00     0.000 C 
ATOM      4  C   UNL     1      12.814 -16.697  14.494  1.00  0.00     0.004 C 
ENDBRANCH   2   3
BRANCH   2   5
ATOM      5  C   UNL     1      11.361 -15.844  16.968  1.00  0.00    -0.014 C 
ATOM      6  C   UNL     1      10.078 -16.690  16.985  1.00  0.00     0.007 C 
ATOM      7  C   UNL     1      11.278 -14.701  17.993  1.00  0.00     0.007 C 
ENDBRANCH   2   5
ENDBRANCH   1   2
BRANCH   1   8
ATOM      8  C   UNL     1      13.865 -17.275  19.373  1.00  0.00     0.004 C 
BRANCH   8   9
ATOM      9  C   UNL     1      12.760 -18.268  19.863  1.00  0.00    -0.011 C 
ATOM     10  C   UNL     1      13.319 -19.698  19.755  1.00  0.00     0.008 C 
BRANCH   9  11
ATOM     11  C   UNL     1      12.050 -18.065  21.260  1.00  0.00    -0.002 C 
ATOM     12  C   UNL     1      11.448 -19.334  21.920  1.00  0.00     0.005 C 
ATOM     13  C   UNL     1      10.996 -16.934  21.509  1.00  0.00    -0.026 C 
ATOM     14  C   UNL     1      10.324 -18.859  22.854  1.00  0.00     0.005 C 
ATOM     15  C   UNL     1      10.508 -17.351  22.912  1.00  0.00    -0.001 C 
ATOM     16  C   UNL     1      11.588 -15.483  21.610  1.00  0.00     0.007 C 
ATOM     17  C   UNL     1       9.866 -17.004  20.444  1.00  0.00     0.012 C 
ATOM     18  C   UNL     1       9.422 -16.449  23.573  1.00  0.00     0.004 C 
ATOM     19  C   UNL     1      10.970 -14.605  22.739  1.00  0.00     0.005 C 
ATOM     20  C   UNL     1       9.496 -14.981  23.050  1.00  0.00     0.003 C 
ATOM     21  C   UNL     1       7.982 -16.969  23.516  1.00  0.00     0.085 C 
ATOM     22  C   UNL     1       8.710 -13.987  23.985  1.00  0.00    -0.000 C 
ATOM     23  C   UNL     1       7.054 -16.024  24.228  1.00  0.00     0.159 C 
ATOM     24  C   UNL     1       7.299 -14.549  24.240  1.00  0.00     0.005 C 
ATOM     25  C   UNL     1       8.583 -12.600  23.275  1.00  0.00     0.020 C 
ATOM     26  C   UNL     1       9.424 -13.795  25.350  1.00  0.00     0.017 C 
ATOM     27  O   UNL     1       6.013 -16.498  24.763  1.00  0.00    -0.295 OA
ATOM     28  C   UNL     1       6.273 -13.724  24.526  1.00  0.00     0.055 C 
ATOM     29  C   UNL     1       7.678 -11.613  24.023  1.00  0.00     0.081 C 
ATOM     30  C   UNL     1       6.405 -12.261  24.470  1.00  0.00     0.156 C 
ATOM     31  O   UNL     1       5.434 -11.539  24.824  1.00  0.00    -0.295 OA
ENDBRANCH   9  11
ENDBRANCH   8   9
ENDBRANCH   1   8
TORSDOF 6
ENDMDL
MODEL 5
REMARK VINA RESULT:    -7.150      3.374      8.116
REMARK INTER + INTRA:         -11.859
REMARK INTER:                 -10.224
REMARK INTRA:                  -1.636
REMARK UNBOUND:                -2.201
REMARK SMILES CC[C@@H](CC[C@@H](C)[C@@H]1CC[C@@H]2[C@@H]3CC(=O)C4=CC(=O)CC[C@]4(C)[C@H]3CC[C@]21C)C(C)C
REMARK SMILES IDX 4 1 3 2 2 3 1 4 29 5 30 6 31 7 5 8 6 9 7 10 8 11 9 12 27 13
REMARK SMILES IDX 10 14 11 15 26 16 28 17 12 18 25 19 24 20 13 21 22 22 14 23
REMARK SMILES IDX 16 24 21 25 23 26 15 27 17 28 20 29 18 30 19 31
REMARK H PARENT
REMARK Flexibility Score: inf
ROOT
ATOM      1  C   UNL     1       7.693 -12.235  22.696  1.00  0.00     0.004 C 
ENDROOT
BRANCH   1   2
ATOM      2  C   UNL     1       8.487 -11.479  23.804  1.00  0.00    -0.009 C 
BRANCH   2   3
ATOM      3  C   UNL     1       8.257  -9.944  23.680  1.00  0.00     0.000 C 
ATOM      4  C   UNL     1       6.906  -9.552  23.083  1.00  0.00     0.004 C 
ENDBRANCH   2   3
BRANCH   2   5
ATOM      5  C   UNL     1       9.991 -11.933  23.772  1.00  0.00    -0.014 C 
ATOM      6  C   UNL     1      10.948 -10.894  23.167  1.00  0.00     0.007 C 
ATOM      7  C   UNL     1      10.504 -12.422  25.137  1.00  0.00     0.007 C 
ENDBRANCH   2   5
ENDBRANCH   1   2
BRANCH   1   8
ATOM      8  C   UNL     1       6.859 -13.453  23.152  1.00  0.00     0.004 C 
BRANCH   8   9
ATOM      9  C   UNL     1       7.560 -14.595  23.959  1.00  0.00    -0.011 C 
ATOM     10  C   UNL     1       6.691 -14.913  25.190  1.00  0.00     0.008 C 
BRANCH   9  11
ATOM     11  C   UNL     1       8.009 -15.932  23.249  1.00  0.00    -0.002 C 
ATOM     12  C   UNL     1       7.898 -17.232  24.091  1.00  0.00     0.005 C 
ATOM     13  C   UNL     1       9.365 -16.059  22.477  1.00  0.00    -0.026 C 
ATOM     14  C   UNL     1       8.916 -18.226  23.510  1.00  0.00     0.005 C 
ATOM     15  C   UNL     1       9.361 -17.577  22.209  1.00  0.00    -0.001 C 
ATOM     16  C   UNL     1       9.415 -15.318  21.093  1.00  0.00     0.007 C 
ATOM     17  C   UNL     1      10.548 -15.622  23.387  1.00  0.00     0.012 C 
ATOM     18  C   UNL     1      10.573 -18.152  21.415  1.00  0.00     0.004 C 
ATOM     19  C   UNL     1      10.110 -16.118  19.951  1.00  0.00     0.005 C 
ATOM     20  C   UNL     1      11.210 -17.079  20.479  1.00  0.00     0.003 C 
ATOM     21  C   UNL     1      11.654 -18.855  22.242  1.00  0.00     0.085 C 
ATOM     22  C   UNL     1      12.140 -17.732  19.388  1.00  0.00    -0.000 C 
ATOM     23  C   UNL     1      12.733 -19.396  21.346  1.00  0.00     0.159 C 
ATOM     24  C   UNL     1      13.119 -18.700  20.080  1.00  0.00     0.005 C 
ATOM     25  C   UNL     1      12.959 -16.611  18.669  1.00  0.00     0.020 C 
ATOM     26  C   UNL     1      11.322 -18.521  18.332  1.00  0.00     0.017 C 
ATOM     27  O   UNL     1      13.364 -20.422  21.722  1.00  0.00    -0.295 OA
ATOM     28  C   UNL     1      14.318 -18.973  19.529  1.00  0.00     0.055 C 
ATOM     29  C   UNL     1      14.028 -17.156  17.713  1.00  0.00     0.081 C 
ATOM     30  C   UNL     1      14.812 -18.268  18.337  1.00  0.00     0.156 C 
ATOM     31  O   UNL     1      15.906 -18.620  17.821  1.00  0.00    -0.295 OA
ENDBRANCH   9  11
ENDBRANCH   8   9
ENDBRANCH   1   8
TORSDOF 6
ENDMDL
MODEL 6
REMARK VINA RESULT:    -7.141      1.748      3.403
REMARK INTER + INTRA:         -11.847
REMARK INTER:                 -10.221
REMARK INTRA:                  -1.626
REMARK UNBOUND:                -2.201
REMARK SMILES CC[C@@H](CC[C@@H](C)[C@@H]1CC[C@@H]2[C@@H]3CC(=O)C4=CC(=O)CC[C@]4(C)[C@H]3CC[C@]21C)C(C)C
REMARK SMILES IDX 4 1 3 2 2 3 1 4 29 5 30 6 31 7 5 8 6 9 7 10 8 11 9 12 27 13
REMARK SMILES IDX 10 14 11 15 26 16 28 17 12 18 25 19 24 20 13 21 22 22 14 23
REMARK SMILES IDX 16 24 21 25 23 26 15 27 17 28 20 29 18 30 19 31
REMARK H PARENT
REMARK Flexibility Score: inf
ROOT
ATOM      1  C   UNL     1      11.579 -17.728  17.798  1.00  0.00     0.004 C 
ENDROOT
BRANCH   1   2
ATOM      2  C   UNL     1      10.925 -16.452  17.186  1.00  0.00    -0.009 C 
BRANCH   2   3
ATOM      3  C   UNL     1      11.834 -15.211  17.428  1.00  0.00     0.000 C 
ATOM      4  C   UNL     1      12.821 -15.365  18.585  1.00  0.00     0.004 C 
ENDBRANCH   2   3
BRANCH   2   5
ATOM      5  C   UNL     1       9.451 -16.313  17.715  1.00  0.00    -0.014 C 
ATOM      6  C   UNL     1       9.145 -14.958  18.370  1.00  0.00     0.007 C 
ATOM      7  C   UNL     1       8.393 -16.662  16.655  1.00  0.00     0.007 C 
ENDBRANCH   2   5
ENDBRANCH   1   2
BRANCH   1   8
ATOM      8  C   UNL     1      10.634 -18.706  18.532  1.00  0.00     0.004 C 
BRANCH   8   9
ATOM      9  C   UNL     1      11.157 -19.462  19.798  1.00  0.00    -0.011 C 
ATOM     10  C   UNL     1      12.685 -19.604  19.674  1.00  0.00     0.008 C 
BRANCH   9  11
ATOM     11  C   UNL     1      10.772 -18.974  21.250  1.00  0.00    -0.002 C 
ATOM     12  C   UNL     1      10.210 -20.053  22.215  1.00  0.00     0.005 C 
ATOM     13  C   UNL     1       9.897 -17.701  21.504  1.00  0.00    -0.026 C 
ATOM     14  C   UNL     1       9.351 -19.316  23.254  1.00  0.00     0.005 C 
ATOM     15  C   UNL     1       9.674 -17.848  23.023  1.00  0.00    -0.001 C 
ATOM     16  C   UNL     1      10.622 -16.333  21.247  1.00  0.00     0.007 C 
ATOM     17  C   UNL     1       8.569 -17.790  20.700  1.00  0.00     0.012 C 
ATOM     18  C   UNL     1       8.833 -16.736  23.720  1.00  0.00     0.004 C 
ATOM     19  C   UNL     1      10.332 -15.232  22.311  1.00  0.00     0.005 C 
ATOM     20  C   UNL     1       8.926 -15.379  22.955  1.00  0.00     0.003 C 
ATOM     21  C   UNL     1       7.373 -17.082  24.025  1.00  0.00     0.085 C 
ATOM     22  C   UNL     1       8.442 -14.172  23.844  1.00  0.00    -0.000 C 
ATOM     23  C   UNL     1       6.698 -15.940  24.734  1.00  0.00     0.159 C 
ATOM     24  C   UNL     1       7.070 -14.519  24.452  1.00  0.00     0.005 C 
ATOM     25  C   UNL     1       8.293 -12.899  22.950  1.00  0.00     0.020 C 
ATOM     26  C   UNL     1       9.437 -13.871  24.996  1.00  0.00     0.017 C 
ATOM     27  O   UNL     1       5.753 -16.202  25.528  1.00  0.00    -0.295 OA
ATOM     28  C   UNL     1       6.202 -13.543  24.787  1.00  0.00     0.055 C 
ATOM     29  C   UNL     1       7.654 -11.711  23.682  1.00  0.00     0.081 C 
ATOM     30  C   UNL     1       6.448 -12.130  24.464  1.00  0.00     0.156 C 
ATOM     31  O   UNL     1       5.639 -11.254  24.871  1.00  0.00    -0.295 OA
ENDBRANCH   9  11
ENDBRANCH   8   9
ENDBRANCH   1   8
TORSDOF 6
ENDMDL
MODEL 7
REMARK VINA RESULT:    -7.042      2.136      4.425
REMARK INTER + INTRA:         -11.713
REMARK INTER:                 -10.737
REMARK INTRA:                  -0.976
REMARK UNBOUND:                -2.201
REMARK SMILES CC[C@@H](CC[C@@H](C)[C@@H]1CC[C@@H]2[C@@H]3CC(=O)C4=CC(=O)CC[C@]4(C)[C@H]3CC[C@]21C)C(C)C
REMARK SMILES IDX 4 1 3 2 2 3 1 4 29 5 30 6 31 7 5 8 6 9 7 10 8 11 9 12 27 13
REMARK SMILES IDX 10 14 11 15 26 16 28 17 12 18 25 19 24 20 13 21 22 22 14 23
REMARK SMILES IDX 16 24 21 25 23 26 15 27 17 28 20 29 18 30 19 31
REMARK H PARENT
REMARK Flexibility Score: inf
ROOT
ATOM      1  C   UNL     1      13.846 -19.188  20.237  1.00  0.00     0.004 C 
ENDROOT
BRANCH   1   2
ATOM      2  C   UNL     1      14.722 -18.894  18.982  1.00  0.00    -0.009 C 
BRANCH   2   3
ATOM      3  C   UNL     1      16.232 -18.901  19.363  1.00  0.00     0.000 C 
ATOM      4  C   UNL     1      17.066 -19.951  18.629  1.00  0.00     0.004 C 
ENDBRANCH   2   3
BRANCH   2   5
ATOM      5  C   UNL     1      14.216 -17.578  18.286  1.00  0.00    -0.014 C 
ATOM      6  C   UNL     1      14.155 -16.360  19.220  1.00  0.00     0.007 C 
ATOM      7  C   UNL     1      14.982 -17.244  16.996  1.00  0.00     0.007 C 
ENDBRANCH   2   5
ENDBRANCH   1   2
BRANCH   1   8
ATOM      8  C   UNL     1      12.469 -19.841  19.983  1.00  0.00     0.004 C 
BRANCH   8   9
ATOM      9  C   UNL     1      11.176 -18.975  20.144  1.00  0.00    -0.011 C 
ATOM     10  C   UNL     1      10.007 -19.735  19.491  1.00  0.00     0.008 C 
BRANCH   9  11
ATOM     11  C   UNL     1      10.743 -18.420  21.557  1.00  0.00    -0.002 C 
ATOM     12  C   UNL     1       9.957 -19.397  22.473  1.00  0.00     0.005 C 
ATOM     13  C   UNL     1      10.036 -17.034  21.734  1.00  0.00    -0.026 C 
ATOM     14  C   UNL     1       9.125 -18.533  23.434  1.00  0.00     0.005 C 
ATOM     15  C   UNL     1       9.669 -17.128  23.229  1.00  0.00    -0.001 C 
ATOM     16  C   UNL     1      10.964 -15.783  21.538  1.00  0.00     0.007 C 
ATOM     17  C   UNL     1       8.780 -16.947  20.821  1.00  0.00     0.012 C 
ATOM     18  C   UNL     1       8.935 -15.901  23.850  1.00  0.00     0.004 C 
ATOM     19  C   UNL     1      10.742 -14.638  22.571  1.00  0.00     0.005 C 
ATOM     20  C   UNL     1       9.281 -14.580  23.094  1.00  0.00     0.003 C 
ATOM     21  C   UNL     1       7.421 -16.036  24.031  1.00  0.00     0.085 C 
ATOM     22  C   UNL     1       8.897 -13.306  23.937  1.00  0.00    -0.000 C 
ATOM     23  C   UNL     1       6.855 -14.802  24.678  1.00  0.00     0.159 C 
ATOM     24  C   UNL     1       7.444 -13.450  24.427  1.00  0.00     0.005 C 
ATOM     25  C   UNL     1       9.003 -12.036  23.031  1.00  0.00     0.020 C 
ATOM     26  C   UNL     1       9.824 -13.130  25.168  1.00  0.00     0.017 C 
ATOM     27  O   UNL     1       5.820 -14.920  25.390  1.00  0.00    -0.295 OA
ATOM     28  C   UNL     1       6.696 -12.359  24.685  1.00  0.00     0.055 C 
ATOM     29  C   UNL     1       8.476 -10.762  23.704  1.00  0.00     0.081 C 
ATOM     30  C   UNL     1       7.163 -10.999  24.383  1.00  0.00     0.156 C 
ATOM     31  O   UNL     1       6.453 -10.013  24.718  1.00  0.00    -0.295 OA
ENDBRANCH   9  11
ENDBRANCH   8   9
ENDBRANCH   1   8
TORSDOF 6
ENDMDL
MODEL 8
REMARK VINA RESULT:    -6.874      2.245      4.757
REMARK INTER + INTRA:         -11.486
REMARK INTER:                  -9.493
REMARK INTRA:                  -1.993
REMARK UNBOUND:                -2.201
REMARK SMILES CC[C@@H](CC[C@@H](C)[C@@H]1CC[C@@H]2[C@@H]3CC(=O)C4=CC(=O)CC[C@]4(C)[C@H]3CC[C@]21C)C(C)C
REMARK SMILES IDX 4 1 3 2 2 3 1 4 29 5 30 6 31 7 5 8 6 9 7 10 8 11 9 12 27 13
REMARK SMILES IDX 10 14 11 15 26 16 28 17 12 18 25 19 24 20 13 21 22 22 14 23
REMARK SMILES IDX 16 24 21 25 23 26 15 27 17 28 20 29 18 30 19 31
REMARK H PARENT
REMARK Flexibility Score: inf
ROOT
ATOM      1  C   UNL     1      11.669 -19.453  19.694  1.00  0.00     0.004 C 
ENDROOT
BRANCH   1   2
ATOM      2  C   UNL     1      12.686 -19.028  20.797  1.00  0.00    -0.009 C 
BRANCH   2   3
ATOM      3  C   UNL     1      14.013 -19.828  20.644  1.00  0.00     0.000 C 
ATOM      4  C   UNL     1      14.942 -19.312  19.545  1.00  0.00     0.004 C 
ENDBRANCH   2   3
BRANCH   2   5
ATOM      5  C   UNL     1      12.003 -19.131  22.208  1.00  0.00    -0.014 C 
ATOM      6  C   UNL     1      11.841 -17.783  22.927  1.00  0.00     0.007 C 
ATOM      7  C   UNL     1      10.672 -19.902  22.180  1.00  0.00     0.007 C 
ENDBRANCH   2   5
ENDBRANCH   1   2
BRANCH   1   8
ATOM      8  C   UNL     1      11.260 -18.366  18.675  1.00  0.00     0.004 C 
BRANCH   8   9
ATOM      9  C   UNL     1       9.910 -17.603  18.879  1.00  0.00    -0.011 C 
ATOM     10  C   UNL     1       8.790 -18.423  18.212  1.00  0.00     0.008 C 
BRANCH   9  11
ATOM     11  C   UNL     1       9.455 -17.129  20.315  1.00  0.00    -0.002 C 
ATOM     12  C   UNL     1       8.088 -17.665  20.819  1.00  0.00     0.005 C 
ATOM     13  C   UNL     1       9.493 -15.627  20.756  1.00  0.00    -0.026 C 
ATOM     14  C   UNL     1       7.566 -16.653  21.851  1.00  0.00     0.005 C 
ATOM     15  C   UNL     1       8.757 -15.742  22.105  1.00  0.00    -0.001 C 
ATOM     16  C   UNL     1      10.927 -15.050  21.029  1.00  0.00     0.007 C 
ATOM     17  C   UNL     1       8.722 -14.745  19.734  1.00  0.00     0.012 C 
ATOM     18  C   UNL     1       8.582 -14.426  22.923  1.00  0.00     0.004 C 
ATOM     19  C   UNL     1      11.033 -14.140  22.290  1.00  0.00     0.005 C 
ATOM     20  C   UNL     1       9.707 -13.394  22.602  1.00  0.00     0.003 C 
ATOM     21  C   UNL     1       7.205 -13.760  22.851  1.00  0.00     0.085 C 
ATOM     22  C   UNL     1       9.790 -12.260  23.692  1.00  0.00    -0.000 C 
ATOM     23  C   UNL     1       7.167 -12.533  23.719  1.00  0.00     0.159 C 
ATOM     24  C   UNL     1       8.380 -11.682  23.920  1.00  0.00     0.005 C 
ATOM     25  C   UNL     1      10.729 -11.120  23.181  1.00  0.00     0.020 C 
ATOM     26  C   UNL     1      10.333 -12.799  25.042  1.00  0.00     0.017 C 
ATOM     27  O   UNL     1       6.062 -12.190  24.222  1.00  0.00    -0.295 OA
ATOM     28  C   UNL     1       8.220 -10.416  24.354  1.00  0.00     0.055 C 
ATOM     29  C   UNL     1      10.737  -9.884  24.090  1.00  0.00     0.081 C 
ATOM     30  C   UNL     1       9.351  -9.486  24.492  1.00  0.00     0.156 C 
ATOM     31  O   UNL     1       9.151  -8.340  24.976  1.00  0.00    -0.295 OA
ENDBRANCH   9  11
ENDBRANCH   8   9
ENDBRANCH   1   8
TORSDOF 6
ENDMDL
MODEL 9
REMARK VINA RESULT:    -6.871      3.258      8.607
REMARK INTER + INTRA:         -11.482
REMARK INTER:                 -10.788
REMARK INTRA:                  -0.693
REMARK UNBOUND:                -2.201
REMARK SMILES CC[C@@H](CC[C@@H](C)[C@@H]1CC[C@@H]2[C@@H]3CC(=O)C4=CC(=O)CC[C@]4(C)[C@H]3CC[C@]21C)C(C)C
REMARK SMILES IDX 4 1 3 2 2 3 1 4 29 5 30 6 31 7 5 8 6 9 7 10 8 11 9 12 27 13
REMARK SMILES IDX 10 14 11 15 26 16 28 17 12 18 25 19 24 20 13 21 22 22 14 23
REMARK SMILES IDX 16 24 21 25 23 26 15 27 17 28 20 29 18 30 19 31
REMARK H PARENT
REMARK Flexibility Score: inf
ROOT
ATOM      1  C   UNL     1       7.332 -13.537  26.239  1.00  0.00     0.004 C 
ENDROOT
BRANCH   1   2
ATOM      2  C   UNL     1       6.950 -14.649  27.263  1.00  0.00    -0.009 C 
BRANCH   2   3
ATOM      3  C   UNL     1       5.825 -15.554  26.681  1.00  0.00     0.000 C 
ATOM      4  C   UNL     1       6.039 -17.051  26.901  1.00  0.00     0.004 C 
ENDBRANCH   2   3
BRANCH   2   5
ATOM      5  C   UNL     1       6.626 -13.992  28.653  1.00  0.00    -0.014 C 
ATOM      6  C   UNL     1       5.664 -12.797  28.574  1.00  0.00     0.007 C 
ATOM      7  C   UNL     1       6.154 -15.009  29.707  1.00  0.00     0.007 C 
ENDBRANCH   2   5
ENDBRANCH   1   2
BRANCH   1   8
ATOM      8  C   UNL     1       8.309 -13.940  25.112  1.00  0.00     0.004 C 
BRANCH   8   9
ATOM      9  C   UNL     1       7.733 -14.327  23.710  1.00  0.00    -0.011 C 
ATOM     10  C   UNL     1       7.969 -13.145  22.752  1.00  0.00     0.008 C 
BRANCH   9  11
ATOM     11  C   UNL     1       8.142 -15.683  23.011  1.00  0.00    -0.002 C 
ATOM     12  C   UNL     1       7.910 -16.981  23.832  1.00  0.00     0.005 C 
ATOM     13  C   UNL     1       9.530 -15.883  22.314  1.00  0.00    -0.026 C 
ATOM     14  C   UNL     1       8.899 -18.028  23.297  1.00  0.00     0.005 C 
ATOM     15  C   UNL     1       9.453 -17.397  22.030  1.00  0.00    -0.001 C 
ATOM     16  C   UNL     1       9.699 -15.137  20.943  1.00  0.00     0.007 C 
ATOM     17  C   UNL     1      10.684 -15.523  23.292  1.00  0.00     0.012 C 
ATOM     18  C   UNL     1      10.671 -18.036  21.298  1.00  0.00     0.004 C 
ATOM     19  C   UNL     1      10.409 -15.968  19.832  1.00  0.00     0.005 C 
ATOM     20  C   UNL     1      11.421 -16.995  20.409  1.00  0.00     0.003 C 
ATOM     21  C   UNL     1      11.662 -18.807  22.175  1.00  0.00     0.085 C 
ATOM     22  C   UNL     1      12.371 -17.694  19.365  1.00  0.00    -0.000 C 
ATOM     23  C   UNL     1      12.757 -19.404  21.335  1.00  0.00     0.159 C 
ATOM     24  C   UNL     1      13.251 -18.722  20.099  1.00  0.00     0.005 C 
ATOM     25  C   UNL     1      13.292 -16.618  18.704  1.00  0.00     0.020 C 
ATOM     26  C   UNL     1      11.568 -18.425  18.257  1.00  0.00     0.017 C 
ATOM     27  O   UNL     1      13.305 -20.468  21.734  1.00  0.00    -0.295 OA
ATOM     28  C   UNL     1      14.461 -19.061  19.612  1.00  0.00     0.055 C 
ATOM     29  C   UNL     1      14.379 -17.217  17.802  1.00  0.00     0.081 C 
ATOM     30  C   UNL     1      15.061 -18.378  18.457  1.00  0.00     0.156 C 
ATOM     31  O   UNL     1      16.160 -18.789  17.997  1.00  0.00    -0.295 OA
ENDBRANCH   9  11
ENDBRANCH   8   9
ENDBRANCH   1   8
TORSDOF 6
ENDMDL
