MODEL 1
REMARK VINA RESULT:    -4.337      0.000      0.000
REMARK INTER + INTRA:         -10.239
REMARK INTER:                  -8.394
REMARK INTRA:                  -1.845
REMARK UNBOUND:                -1.845
REMARK SMILES CCCCCCCCCCCCCCCCCC(=O)[O-]
REMARK SMILES IDX 10 1 11 2 12 3 13 4 14 5 15 6 16 7 17 8 18 9 19 10 20 11
REMARK SMILES IDX 9 12 8 13 7 14 6 15 5 16 4 17 3 18 2 19 1 20
REMARK H PARENT
REMARK Flexibility Score: inf
ROOT
ATOM      1  C   UNL     1       1.535   4.989   7.267  1.00  0.00     0.000 C 
ENDROOT
BRANCH   1   2
ATOM      2  C   UNL     1       2.004   3.626   7.814  1.00  0.00     0.000 C 
BRANCH   2   3
ATOM      3  C   UNL     1       2.468   2.618   6.744  1.00  0.00     0.000 C 
BRANCH   3   4
ATOM      4  C   UNL     1       3.959   2.708   6.365  1.00  0.00     0.000 C 
BRANCH   4   5
ATOM      5  C   UNL     1       4.940   2.374   7.503  1.00  0.00     0.000 C 
BRANCH   5   6
ATOM      6  C   UNL     1       5.420   0.916   7.468  1.00  0.00     0.000 C 
BRANCH   6   7
ATOM      7  C   UNL     1       4.514   0.019   8.326  1.00  0.00     0.006 C 
BRANCH   7   8
ATOM      8  C   UNL     1       4.018  -1.211   7.555  1.00  0.00     0.053 C 
BRANCH   8   9
ATOM      9  C   UNL     1       2.631  -1.012   7.025  1.00  0.00     0.041 C 
ATOM     10  O   UNL     1       1.675  -0.793   7.816  1.00  0.00    -0.550 OA
ATOM     11  O   UNL     1       2.389  -1.102   5.661  1.00  0.00    -0.550 OA
ENDBRANCH   8   9
ENDBRANCH   7   8
ENDBRANCH   6   7
ENDBRANCH   5   6
ENDBRANCH   4   5
ENDBRANCH   3   4
ENDBRANCH   2   3
ENDBRANCH   1   2
BRANCH   1  12
ATOM     12  C   UNL     1       1.106   4.980   5.788  1.00  0.00     0.000 C 
BRANCH  12  13
ATOM     13  C   UNL     1      -0.405   5.202   5.606  1.00  0.00    -0.000 C 
BRANCH  13  14
ATOM     14  C   UNL     1      -1.053   4.148   4.695  1.00  0.00    -0.000 C 
BRANCH  14  15
ATOM     15  C   UNL     1      -1.103   2.756   5.347  1.00  0.00    -0.000 C 
BRANCH  15  16
ATOM     16  C   UNL     1      -1.746   2.775   6.746  1.00  0.00    -0.000 C 
BRANCH  16  17
ATOM     17  C   UNL     1      -3.205   2.278   6.804  1.00  0.00    -0.000 C 
BRANCH  17  18
ATOM     18  C   UNL     1      -4.186   3.013   5.870  1.00  0.00    -0.000 C 
BRANCH  18  19
ATOM     19  C   UNL     1      -4.831   4.273   6.475  1.00  0.00    -0.003 C 
ATOM     20  C   UNL     1      -5.123   5.350   5.432  1.00  0.00     0.004 C 
ENDBRANCH  18  19
ENDBRANCH  17  18
ENDBRANCH  16  17
ENDBRANCH  15  16
ENDBRANCH  14  15
ENDBRANCH  13  14
ENDBRANCH  12  13
ENDBRANCH   1  12
TORSDOF 16
ENDMDL
MODEL 2
REMARK VINA RESULT:    -4.283      1.597      2.317
REMARK INTER + INTRA:         -10.133
REMARK INTER:                  -8.140
REMARK INTRA:                  -1.994
REMARK UNBOUND:                -1.845
REMARK SMILES CCCCCCCCCCCCCCCCCC(=O)[O-]
REMARK SMILES IDX 10 1 11 2 12 3 13 4 14 5 15 6 16 7 17 8 18 9 19 10 20 11
REMARK SMILES IDX 9 12 8 13 7 14 6 15 5 16 4 17 3 18 2 19 1 20
REMARK H PARENT
REMARK Flexibility Score: inf
ROOT
ATOM      1  C   UNL     1       1.163   4.994   7.462  1.00  0.00     0.000 C 
ENDROOT
BRANCH   1   2
ATOM      2  C   UNL     1       1.514   3.560   7.908  1.00  0.00     0.000 C 
BRANCH   2   3
ATOM      3  C   UNL     1       1.805   2.573   6.760  1.00  0.00     0.000 C 
BRANCH   3   4
ATOM      4  C   UNL     1       1.070   1.222   6.859  1.00  0.00     0.000 C 
BRANCH   4   5
ATOM      5  C   UNL     1       1.867   0.009   6.344  1.00  0.00     0.000 C 
BRANCH   5   6
ATOM      6  C   UNL     1       2.130  -1.039   7.435  1.00  0.00     0.000 C 
BRANCH   6   7
ATOM      7  C   UNL     1       3.636  -1.183   7.705  1.00  0.00     0.006 C 
BRANCH   7   8
ATOM      8  C   UNL     1       4.228   0.067   8.370  1.00  0.00     0.053 C 
BRANCH   8   9
ATOM      9  C   UNL     1       5.354   0.642   7.568  1.00  0.00     0.041 C 
ATOM     10  O   UNL     1       6.539   0.272   7.781  1.00  0.00    -0.550 OA
ATOM     11  O   UNL     1       5.099   1.613   6.609  1.00  0.00    -0.550 OA
ENDBRANCH   8   9
ENDBRANCH   7   8
ENDBRANCH   6   7
ENDBRANCH   5   6
ENDBRANCH   4   5
ENDBRANCH   3   4
ENDBRANCH   2   3
ENDBRANCH   1   2
BRANCH   1  12
ATOM     12  C   UNL     1       0.894   5.155   5.955  1.00  0.00     0.000 C 
BRANCH  12  13
ATOM     13  C   UNL     1      -0.605   5.125   5.612  1.00  0.00    -0.000 C 
BRANCH  13  14
ATOM     14  C   UNL     1      -0.950   4.066   4.553  1.00  0.00    -0.000 C 
BRANCH  14  15
ATOM     15  C   UNL     1      -1.618   2.821   5.161  1.00  0.00    -0.000 C 
BRANCH  15  16
ATOM     16  C   UNL     1      -2.542   3.157   6.345  1.00  0.00    -0.000 C 
BRANCH  16  17
ATOM     17  C   UNL     1      -4.052   3.014   6.059  1.00  0.00    -0.000 C 
BRANCH  17  18
ATOM     18  C   UNL     1      -4.918   4.214   6.487  1.00  0.00    -0.000 C 
BRANCH  18  19
ATOM     19  C   UNL     1      -4.270   5.592   6.258  1.00  0.00    -0.003 C 
ATOM     20  C   UNL     1      -4.870   6.341   5.070  1.00  0.00     0.004 C 
ENDBRANCH  18  19
ENDBRANCH  17  18
ENDBRANCH  16  17
ENDBRANCH  15  16
ENDBRANCH  14  15
ENDBRANCH  13  14
ENDBRANCH  12  13
ENDBRANCH   1  12
TORSDOF 16
ENDMDL
MODEL 3
REMARK VINA RESULT:    -4.271      1.652      3.664
REMARK INTER + INTRA:         -10.111
REMARK INTER:                  -7.456
REMARK INTRA:                  -2.655
REMARK UNBOUND:                -1.845
REMARK SMILES CCCCCCCCCCCCCCCCCC(=O)[O-]
REMARK SMILES IDX 10 1 11 2 12 3 13 4 14 5 15 6 16 7 17 8 18 9 19 10 20 11
REMARK SMILES IDX 9 12 8 13 7 14 6 15 5 16 4 17 3 18 2 19 1 20
REMARK H PARENT
REMARK Flexibility Score: inf
ROOT
ATOM      1  C   UNL     1      -1.721   2.698   5.256  1.00  0.00     0.000 C 
ENDROOT
BRANCH   1   2
ATOM      2  C   UNL     1      -1.069   3.995   4.739  1.00  0.00     0.000 C 
BRANCH   2   3
ATOM      3  C   UNL     1      -0.517   4.929   5.835  1.00  0.00     0.000 C 
BRANCH   3   4
ATOM      4  C   UNL     1       1.002   5.182   5.771  1.00  0.00     0.000 C 
BRANCH   4   5
ATOM      5  C   UNL     1       1.873   4.063   6.369  1.00  0.00     0.000 C 
BRANCH   5   6
ATOM      6  C   UNL     1       1.211   3.369   7.569  1.00  0.00     0.000 C 
BRANCH   6   7
ATOM      7  C   UNL     1       0.989   1.875   7.284  1.00  0.00     0.006 C 
BRANCH   7   8
ATOM      8  C   UNL     1       2.176   1.016   7.738  1.00  0.00     0.053 C 
BRANCH   8   9
ATOM      9  C   UNL     1       3.012   0.565   6.579  1.00  0.00     0.041 C 
ATOM     10  O   UNL     1       2.672  -0.443   5.906  1.00  0.00    -0.550 OA
ATOM     11  O   UNL     1       4.184   1.239   6.265  1.00  0.00    -0.550 OA
ENDBRANCH   8   9
ENDBRANCH   7   8
ENDBRANCH   6   7
ENDBRANCH   5   6
ENDBRANCH   4   5
ENDBRANCH   3   4
ENDBRANCH   2   3
ENDBRANCH   1   2
BRANCH   1  12
ATOM     12  C   UNL     1      -3.204   2.830   5.647  1.00  0.00     0.000 C 
BRANCH  12  13
ATOM     13  C   UNL     1      -3.524   2.167   6.998  1.00  0.00    -0.000 C 
BRANCH  13  14
ATOM     14  C   UNL     1      -2.491   2.506   8.085  1.00  0.00    -0.000 C 
BRANCH  14  15
ATOM     15  C   UNL     1      -2.997   3.581   9.062  1.00  0.00    -0.000 C 
BRANCH  15  16
ATOM     16  C   UNL     1      -2.674   5.012   8.597  1.00  0.00    -0.000 C 
BRANCH  16  17
ATOM     17  C   UNL     1      -3.887   5.834   8.116  1.00  0.00    -0.000 C 
BRANCH  17  18
ATOM     18  C   UNL     1      -3.777   6.392   6.683  1.00  0.00    -0.000 C 
BRANCH  18  19
ATOM     19  C   UNL     1      -4.917   5.974   5.738  1.00  0.00    -0.003 C 
ATOM     20  C   UNL     1      -5.983   5.127   6.431  1.00  0.00     0.004 C 
ENDBRANCH  18  19
ENDBRANCH  17  18
ENDBRANCH  16  17
ENDBRANCH  15  16
ENDBRANCH  14  15
ENDBRANCH  13  14
ENDBRANCH  12  13
ENDBRANCH   1  12
TORSDOF 16
ENDMDL
MODEL 4
REMARK VINA RESULT:    -4.201     13.492     15.270
REMARK INTER + INTRA:          -9.976
REMARK INTER:                  -7.541
REMARK INTRA:                  -2.435
REMARK UNBOUND:                -1.845
REMARK SMILES CCCCCCCCCCCCCCCCCC(=O)[O-]
REMARK SMILES IDX 10 1 11 2 12 3 13 4 14 5 15 6 16 7 17 8 18 9 19 10 20 11
REMARK SMILES IDX 9 12 8 13 7 14 6 15 5 16 4 17 3 18 2 19 1 20
REMARK H PARENT
REMARK Flexibility Score: inf
ROOT
ATOM      1  C   UNL     1      -3.423  -0.319  -5.910  1.00  0.00     0.000 C 
ENDROOT
BRANCH   1   2
ATOM      2  C   UNL     1      -4.459  -0.050  -7.019  1.00  0.00     0.000 C 
BRANCH   2   3
ATOM      3  C   UNL     1      -5.274  -1.282  -7.463  1.00  0.00     0.000 C 
BRANCH   3   4
ATOM      4  C   UNL     1      -5.662  -2.251  -6.329  1.00  0.00     0.000 C 
BRANCH   4   5
ATOM      5  C   UNL     1      -5.740  -3.733  -6.739  1.00  0.00     0.000 C 
BRANCH   5   6
ATOM      6  C   UNL     1      -4.887  -4.645  -5.845  1.00  0.00     0.000 C 
BRANCH   6   7
ATOM      7  C   UNL     1      -4.871  -4.133  -4.397  1.00  0.00     0.006 C 
BRANCH   7   8
ATOM      8  C   UNL     1      -4.118  -5.081  -3.454  1.00  0.00     0.053 C 
BRANCH   8   9
ATOM      9  C   UNL     1      -4.610  -6.491  -3.577  1.00  0.00     0.041 C 
ATOM     10  O   UNL     1      -3.829  -7.405  -3.951  1.00  0.00    -0.550 OA
ATOM     11  O   UNL     1      -5.940  -6.789  -3.311  1.00  0.00    -0.550 OA
ENDBRANCH   8   9
ENDBRANCH   7   8
ENDBRANCH   6   7
ENDBRANCH   5   6
ENDBRANCH   4   5
ENDBRANCH   3   4
ENDBRANCH   2   3
ENDBRANCH   1   2
BRANCH   1  12
ATOM     12  C   UNL     1      -2.231  -1.195  -6.337  1.00  0.00     0.000 C 
BRANCH  12  13
ATOM     13  C   UNL     1      -1.806  -2.194  -5.247  1.00  0.00    -0.000 C 
BRANCH  13  14
ATOM     14  C   UNL     1      -1.377  -3.553  -5.823  1.00  0.00    -0.000 C 
BRANCH  14  15
ATOM     15  C   UNL     1      -0.583  -4.397  -4.812  1.00  0.00    -0.000 C 
BRANCH  15  16
ATOM     16  C   UNL     1       0.891  -4.582  -5.215  1.00  0.00    -0.000 C 
BRANCH  16  17
ATOM     17  C   UNL     1       1.220  -4.223  -6.679  1.00  0.00    -0.000 C 
BRANCH  17  18
ATOM     18  C   UNL     1       2.126  -2.991  -6.866  1.00  0.00    -0.000 C 
BRANCH  18  19
ATOM     19  C   UNL     1       1.454  -1.797  -7.569  1.00  0.00    -0.003 C 
ATOM     20  C   UNL     1       1.365  -0.558  -6.680  1.00  0.00     0.004 C 
ENDBRANCH  18  19
ENDBRANCH  17  18
ENDBRANCH  16  17
ENDBRANCH  15  16
ENDBRANCH  14  15
ENDBRANCH  13  14
ENDBRANCH  12  13
ENDBRANCH   1  12
TORSDOF 16
ENDMDL
MODEL 5
REMARK VINA RESULT:    -4.199      2.748      6.928
REMARK INTER + INTRA:          -9.971
REMARK INTER:                  -7.528
REMARK INTRA:                  -2.444
REMARK UNBOUND:                -1.845
REMARK SMILES CCCCCCCCCCCCCCCCCC(=O)[O-]
REMARK SMILES IDX 10 1 11 2 12 3 13 4 14 5 15 6 16 7 17 8 18 9 19 10 20 11
REMARK SMILES IDX 9 12 8 13 7 14 6 15 5 16 4 17 3 18 2 19 1 20
REMARK H PARENT
REMARK Flexibility Score: inf
ROOT
ATOM      1  C   UNL     1      -0.016   3.213   8.615  1.00  0.00     0.000 C 
ENDROOT
BRANCH   1   2
ATOM      2  C   UNL     1       1.118   4.255   8.542  1.00  0.00     0.000 C 
BRANCH   2   3
ATOM      3  C   UNL     1       0.830   5.470   7.637  1.00  0.00     0.000 C 
BRANCH   3   4
ATOM      4  C   UNL     1       0.955   5.200   6.125  1.00  0.00     0.000 C 
BRANCH   4   5
ATOM      5  C   UNL     1      -0.371   5.257   5.344  1.00  0.00     0.000 C 
BRANCH   5   6
ATOM      6  C   UNL     1      -0.676   3.953   4.592  1.00  0.00     0.000 C 
BRANCH   6   7
ATOM      7  C   UNL     1      -1.688   3.096   5.369  1.00  0.00     0.006 C 
BRANCH   7   8
ATOM      8  C   UNL     1      -2.696   3.952   6.147  1.00  0.00     0.053 C 
BRANCH   8   9
ATOM      9  C   UNL     1      -4.070   3.356   6.119  1.00  0.00     0.041 C 
ATOM     10  O   UNL     1      -4.267   2.244   5.562  1.00  0.00    -0.550 OA
ATOM     11  O   UNL     1      -5.138   4.045   6.678  1.00  0.00    -0.550 OA
ENDBRANCH   8   9
ENDBRANCH   7   8
ENDBRANCH   6   7
ENDBRANCH   5   6
ENDBRANCH   4   5
ENDBRANCH   3   4
ENDBRANCH   2   3
ENDBRANCH   1   2
BRANCH   1  12
ATOM     12  C   UNL     1       0.387   1.788   8.199  1.00  0.00     0.000 C 
BRANCH  12  13
ATOM     13  C   UNL     1       1.408   1.770   7.048  1.00  0.00    -0.000 C 
BRANCH  13  14
ATOM     14  C   UNL     1       1.592   0.370   6.440  1.00  0.00    -0.000 C 
BRANCH  14  15
ATOM     15  C   UNL     1       3.034  -0.145   6.576  1.00  0.00    -0.000 C 
BRANCH  15  16
ATOM     16  C   UNL     1       3.756   0.417   7.814  1.00  0.00    -0.000 C 
BRANCH  16  17
ATOM     17  C   UNL     1       5.286   0.559   7.672  1.00  0.00    -0.000 C 
BRANCH  17  18
ATOM     18  C   UNL     1       5.810   2.008   7.628  1.00  0.00    -0.000 C 
BRANCH  18  19
ATOM     19  C   UNL     1       4.929   2.988   6.832  1.00  0.00    -0.003 C 
ATOM     20  C   UNL     1       4.587   4.252   7.618  1.00  0.00     0.004 C 
ENDBRANCH  18  19
ENDBRANCH  17  18
ENDBRANCH  16  17
ENDBRANCH  15  16
ENDBRANCH  14  15
ENDBRANCH  13  14
ENDBRANCH  12  13
ENDBRANCH   1  12
TORSDOF 16
ENDMDL
MODEL 6
REMARK VINA RESULT:    -4.195      3.529      7.837
REMARK INTER + INTRA:          -9.964
REMARK INTER:                  -7.830
REMARK INTRA:                  -2.134
REMARK UNBOUND:                -1.845
REMARK SMILES CCCCCCCCCCCCCCCCCC(=O)[O-]
REMARK SMILES IDX 10 1 11 2 12 3 13 4 14 5 15 6 16 7 17 8 18 9 19 10 20 11
REMARK SMILES IDX 9 12 8 13 7 14 6 15 5 16 4 17 3 18 2 19 1 20
REMARK H PARENT
REMARK Flexibility Score: inf
ROOT
ATOM      1  C   UNL     1       0.999   4.421   6.006  1.00  0.00     0.000 C 
ENDROOT
BRANCH   1   2
ATOM      2  C   UNL     1      -0.338   4.900   5.405  1.00  0.00     0.000 C 
BRANCH   2   3
ATOM      3  C   UNL     1      -1.059   3.868   4.514  1.00  0.00     0.000 C 
BRANCH   3   4
ATOM      4  C   UNL     1      -1.850   2.787   5.277  1.00  0.00     0.000 C 
BRANCH   4   5
ATOM      5  C   UNL     1      -2.752   3.319   6.406  1.00  0.00     0.000 C 
BRANCH   5   6
ATOM      6  C   UNL     1      -4.248   3.161   6.098  1.00  0.00     0.000 C 
BRANCH   6   7
ATOM      7  C   UNL     1      -4.992   4.490   6.299  1.00  0.00     0.006 C 
BRANCH   7   8
ATOM      8  C   UNL     1      -4.031   5.668   6.507  1.00  0.00     0.053 C 
BRANCH   8   9
ATOM      9  C   UNL     1      -4.380   6.832   5.631  1.00  0.00     0.041 C 
ATOM     10  O   UNL     1      -4.026   7.996   5.954  1.00  0.00    -0.550 OA
ATOM     11  O   UNL     1      -5.126   6.634   4.477  1.00  0.00    -0.550 OA
ENDBRANCH   8   9
ENDBRANCH   7   8
ENDBRANCH   6   7
ENDBRANCH   5   6
ENDBRANCH   4   5
ENDBRANCH   3   4
ENDBRANCH   2   3
ENDBRANCH   1   2
BRANCH   1  12
ATOM     12  C   UNL     1       1.000   4.264   7.537  1.00  0.00     0.000 C 
BRANCH  12  13
ATOM     13  C   UNL     1       1.145   2.799   7.985  1.00  0.00    -0.000 C 
BRANCH  13  14
ATOM     14  C   UNL     1       1.059   1.810   6.812  1.00  0.00    -0.000 C 
BRANCH  14  15
ATOM     15  C   UNL     1       1.710   0.454   7.136  1.00  0.00    -0.000 C 
BRANCH  15  16
ATOM     16  C   UNL     1       3.074   0.267   6.447  1.00  0.00    -0.000 C 
BRANCH  16  17
ATOM     17  C   UNL     1       4.283   0.178   7.401  1.00  0.00    -0.000 C 
BRANCH  17  18
ATOM     18  C   UNL     1       5.001   1.513   7.678  1.00  0.00    -0.000 C 
BRANCH  18  19
ATOM     19  C   UNL     1       4.782   2.597   6.607  1.00  0.00    -0.003 C 
ATOM     20  C   UNL     1       4.755   4.009   7.188  1.00  0.00     0.004 C 
ENDBRANCH  18  19
ENDBRANCH  17  18
ENDBRANCH  16  17
ENDBRANCH  15  16
ENDBRANCH  14  15
ENDBRANCH  13  14
ENDBRANCH  12  13
ENDBRANCH   1  12
TORSDOF 16
ENDMDL
MODEL 7
REMARK VINA RESULT:    -4.183      1.816      3.142
REMARK INTER + INTRA:          -9.940
REMARK INTER:                  -7.591
REMARK INTRA:                  -2.349
REMARK UNBOUND:                -1.845
REMARK SMILES CCCCCCCCCCCCCCCCCC(=O)[O-]
REMARK SMILES IDX 10 1 11 2 12 3 13 4 14 5 15 6 16 7 17 8 18 9 19 10 20 11
REMARK SMILES IDX 9 12 8 13 7 14 6 15 5 16 4 17 3 18 2 19 1 20
REMARK H PARENT
REMARK Flexibility Score: inf
ROOT
ATOM      1  C   UNL     1      -0.595   4.724   5.778  1.00  0.00     0.000 C 
ENDROOT
BRANCH   1   2
ATOM      2  C   UNL     1       0.904   5.053   5.639  1.00  0.00     0.000 C 
BRANCH   2   3
ATOM      3  C   UNL     1       1.851   4.134   6.438  1.00  0.00     0.000 C 
BRANCH   3   4
ATOM      4  C   UNL     1       1.307   3.667   7.803  1.00  0.00     0.000 C 
BRANCH   4   5
ATOM      5  C   UNL     1       1.205   2.141   7.973  1.00  0.00     0.000 C 
BRANCH   5   6
ATOM      6  C   UNL     1       1.231   1.388   6.635  1.00  0.00     0.000 C 
BRANCH   6   7
ATOM      7  C   UNL     1       2.343   0.328   6.623  1.00  0.00     0.006 C 
BRANCH   7   8
ATOM      8  C   UNL     1       3.411   0.596   7.692  1.00  0.00     0.053 C 
BRANCH   8   9
ATOM      9  C   UNL     1       4.693   1.081   7.087  1.00  0.00     0.041 C 
ATOM     10  O   UNL     1       5.795   0.617   7.480  1.00  0.00    -0.550 OA
ATOM     11  O   UNL     1       4.671   2.071   6.114  1.00  0.00    -0.550 OA
ENDBRANCH   8   9
ENDBRANCH   7   8
ENDBRANCH   6   7
ENDBRANCH   5   6
ENDBRANCH   4   5
ENDBRANCH   3   4
ENDBRANCH   2   3
ENDBRANCH   1   2
BRANCH   1  12
ATOM     12  C   UNL     1      -1.102   3.606   4.850  1.00  0.00     0.000 C 
BRANCH  12  13
ATOM     13  C   UNL     1      -2.102   2.664   5.544  1.00  0.00    -0.000 C 
BRANCH  13  14
ATOM     14  C   UNL     1      -2.254   2.963   7.044  1.00  0.00    -0.000 C 
BRANCH  14  15
ATOM     15  C   UNL     1      -3.626   3.569   7.387  1.00  0.00    -0.000 C 
BRANCH  15  16
ATOM     16  C   UNL     1      -4.585   3.597   6.183  1.00  0.00    -0.000 C 
BRANCH  16  17
ATOM     17  C   UNL     1      -4.885   5.000   5.616  1.00  0.00    -0.000 C 
BRANCH  17  18
ATOM     18  C   UNL     1      -4.059   6.147   6.231  1.00  0.00    -0.000 C 
BRANCH  18  19
ATOM     19  C   UNL     1      -4.882   7.190   7.007  1.00  0.00    -0.003 C 
ATOM     20  C   UNL     1      -6.254   7.447   6.385  1.00  0.00     0.004 C 
ENDBRANCH  18  19
ENDBRANCH  17  18
ENDBRANCH  16  17
ENDBRANCH  15  16
ENDBRANCH  14  15
ENDBRANCH  13  14
ENDBRANCH  12  13
ENDBRANCH   1  12
TORSDOF 16
ENDMDL
MODEL 8
REMARK VINA RESULT:    -4.164     13.319     15.361
REMARK INTER + INTRA:          -9.903
REMARK INTER:                  -7.207
REMARK INTRA:                  -2.696
REMARK UNBOUND:                -1.845
REMARK SMILES CCCCCCCCCCCCCCCCCC(=O)[O-]
REMARK SMILES IDX 10 1 11 2 12 3 13 4 14 5 15 6 16 7 17 8 18 9 19 10 20 11
REMARK SMILES IDX 9 12 8 13 7 14 6 15 5 16 4 17 3 18 2 19 1 20
REMARK H PARENT
REMARK Flexibility Score: inf
ROOT
ATOM      1  C   UNL     1      -4.145  -0.032  -7.086  1.00  0.00     0.000 C 
ENDROOT
BRANCH   1   2
ATOM      2  C   UNL     1      -5.497  -0.773  -7.077  1.00  0.00     0.000 C 
BRANCH   2   3
ATOM      3  C   UNL     1      -5.466  -2.193  -7.678  1.00  0.00     0.000 C 
BRANCH   3   4
ATOM      4  C   UNL     1      -6.199  -3.267  -6.852  1.00  0.00     0.000 C 
BRANCH   4   5
ATOM      5  C   UNL     1      -5.282  -4.291  -6.158  1.00  0.00     0.000 C 
BRANCH   5   6
ATOM      6  C   UNL     1      -4.576  -3.716  -4.921  1.00  0.00     0.000 C 
BRANCH   6   7
ATOM      7  C   UNL     1      -4.722  -4.661  -3.718  1.00  0.00     0.006 C 
BRANCH   7   8
ATOM      8  C   UNL     1      -4.050  -6.019  -3.961  1.00  0.00     0.053 C 
BRANCH   8   9
ATOM      9  C   UNL     1      -5.008  -7.154  -3.771  1.00  0.00     0.041 C 
ATOM     10  O   UNL     1      -6.202  -6.928  -3.443  1.00  0.00    -0.550 OA
ATOM     11  O   UNL     1      -4.572  -8.464  -3.922  1.00  0.00    -0.550 OA
ENDBRANCH   8   9
ENDBRANCH   7   8
ENDBRANCH   6   7
ENDBRANCH   5   6
ENDBRANCH   4   5
ENDBRANCH   3   4
ENDBRANCH   2   3
ENDBRANCH   1   2
BRANCH   1  12
ATOM     12  C   UNL     1      -3.346  -0.127  -5.774  1.00  0.00     0.000 C 
BRANCH  12  13
ATOM     13  C   UNL     1      -2.352  -1.301  -5.767  1.00  0.00    -0.000 C 
BRANCH  13  14
ATOM     14  C   UNL     1      -1.295  -1.189  -6.878  1.00  0.00    -0.000 C 
BRANCH  14  15
ATOM     15  C   UNL     1      -1.554  -2.166  -8.037  1.00  0.00    -0.000 C 
BRANCH  15  16
ATOM     16  C   UNL     1      -1.960  -3.570  -7.555  1.00  0.00    -0.000 C 
BRANCH  16  17
ATOM     17  C   UNL     1      -0.787  -4.501  -7.186  1.00  0.00    -0.000 C 
BRANCH  17  18
ATOM     18  C   UNL     1      -0.872  -5.140  -5.786  1.00  0.00    -0.000 C 
BRANCH  18  19
ATOM     19  C   UNL     1      -0.119  -4.376  -4.681  1.00  0.00    -0.003 C 
ATOM     20  C   UNL     1      -0.981  -4.115  -3.447  1.00  0.00     0.004 C 
ENDBRANCH  18  19
ENDBRANCH  17  18
ENDBRANCH  16  17
ENDBRANCH  15  16
ENDBRANCH  14  15
ENDBRANCH  13  14
ENDBRANCH  12  13
ENDBRANCH   1  12
TORSDOF 16
ENDMDL
MODEL 9
REMARK VINA RESULT:    -4.156     13.494     15.528
REMARK INTER + INTRA:          -9.888
REMARK INTER:                  -7.015
REMARK INTRA:                  -2.873
REMARK UNBOUND:                -1.845
REMARK SMILES CCCCCCCCCCCCCCCCCC(=O)[O-]
REMARK SMILES IDX 10 1 11 2 12 3 13 4 14 5 15 6 16 7 17 8 18 9 19 10 20 11
REMARK SMILES IDX 9 12 8 13 7 14 6 15 5 16 4 17 3 18 2 19 1 20
REMARK H PARENT
REMARK Flexibility Score: inf
ROOT
ATOM      1  C   UNL     1      -3.259  -0.418  -5.614  1.00  0.00     0.000 C 
ENDROOT
BRANCH   1   2
ATOM      2  C   UNL     1      -3.791   0.010  -6.996  1.00  0.00     0.000 C 
BRANCH   2   3
ATOM      3  C   UNL     1      -5.261  -0.365  -7.274  1.00  0.00     0.000 C 
BRANCH   3   4
ATOM      4  C   UNL     1      -5.469  -1.400  -8.397  1.00  0.00     0.000 C 
BRANCH   4   5
ATOM      5  C   UNL     1      -6.047  -2.751  -7.935  1.00  0.00     0.000 C 
BRANCH   5   6
ATOM      6  C   UNL     1      -5.985  -2.937  -6.412  1.00  0.00     0.000 C 
BRANCH   6   7
ATOM      7  C   UNL     1      -4.917  -3.973  -6.030  1.00  0.00     0.006 C 
BRANCH   7   8
ATOM      8  C   UNL     1      -4.717  -4.067  -4.511  1.00  0.00     0.053 C 
BRANCH   8   9
ATOM      9  C   UNL     1      -4.997  -5.446  -3.998  1.00  0.00     0.041 C 
ATOM     10  O   UNL     1      -4.577  -5.798  -2.864  1.00  0.00    -0.550 OA
ATOM     11  O   UNL     1      -5.691  -6.353  -4.787  1.00  0.00    -0.550 OA
ENDBRANCH   8   9
ENDBRANCH   7   8
ENDBRANCH   6   7
ENDBRANCH   5   6
ENDBRANCH   4   5
ENDBRANCH   3   4
ENDBRANCH   2   3
ENDBRANCH   1   2
BRANCH   1  12
ATOM     12  C   UNL     1      -2.158  -1.494  -5.649  1.00  0.00     0.000 C 
BRANCH  12  13
ATOM     13  C   UNL     1      -2.018  -2.157  -7.031  1.00  0.00    -0.000 C 
BRANCH  13  14
ATOM     14  C   UNL     1      -0.647  -2.821  -7.233  1.00  0.00    -0.000 C 
BRANCH  14  15
ATOM     15  C   UNL     1       0.414  -2.291  -6.253  1.00  0.00    -0.000 C 
BRANCH  15  16
ATOM     16  C   UNL     1       1.656  -1.725  -6.966  1.00  0.00    -0.000 C 
BRANCH  16  17
ATOM     17  C   UNL     1       1.401  -0.474  -7.832  1.00  0.00    -0.000 C 
BRANCH  17  18
ATOM     18  C   UNL     1       0.648   0.671  -7.126  1.00  0.00    -0.000 C 
BRANCH  18  19
ATOM     19  C   UNL     1      -0.432   1.357  -7.982  1.00  0.00    -0.003 C 
ATOM     20  C   UNL     1      -0.846   0.525  -9.195  1.00  0.00     0.004 C 
ENDBRANCH  18  19
ENDBRANCH  17  18
ENDBRANCH  16  17
ENDBRANCH  15  16
ENDBRANCH  14  15
ENDBRANCH  13  14
ENDBRANCH  12  13
ENDBRANCH   1  12
TORSDOF 16
ENDMDL
