MODEL 1
REMARK VINA RESULT:    -4.800      0.000      0.000
REMARK INTER + INTRA:          -5.176
REMARK INTER:                  -5.081
REMARK INTRA:                  -0.095
REMARK UNBOUND:                -0.095
REMARK SMILES C=C(C)[C@H]1CC=C(C)C(=O)C1
REMARK SMILES IDX 8 1 7 2 6 3 5 4 4 5 11 6 9 7 10 8 2 9 1 10 3 11
REMARK H PARENT
REMARK Flexibility Score: inf
ROOT
ATOM      1  C   UNL     1      43.887 -41.711  -5.417  1.00  0.00     0.048 C 
ATOM      2  C   UNL     1      42.493 -41.221  -5.139  1.00  0.00    -0.012 C 
ATOM      3  C   UNL     1      41.490 -41.552  -5.969  1.00  0.00    -0.019 C 
ATOM      4  C   UNL     1      40.080 -41.074  -5.747  1.00  0.00     0.036 C 
ATOM      5  C   UNL     1      39.771 -40.932  -4.244  1.00  0.00     0.025 C 
ATOM      6  C   UNL     1      40.810 -40.016  -3.571  1.00  0.00     0.089 C 
ATOM      7  C   UNL     1      42.207 -40.480  -3.885  1.00  0.00     0.158 C 
ATOM      8  O   UNL     1      43.140 -40.199  -3.086  1.00  0.00    -0.295 OA
ENDROOT
BRANCH   5   9
ATOM      9  C   UNL     1      38.350 -40.439  -4.005  1.00  0.00    -0.077 C 
ATOM     10  C   UNL     1      37.336 -40.816  -4.804  1.00  0.00     0.008 C 
ATOM     11  C   UNL     1      38.055 -39.511  -2.856  1.00  0.00     0.039 C 
ENDBRANCH   5   9
TORSDOF 1
ENDMDL
MODEL 2
REMARK VINA RESULT:    -4.614      2.504      4.370
REMARK INTER + INTRA:          -4.979
REMARK INTER:                  -4.886
REMARK INTRA:                  -0.093
REMARK UNBOUND:                -0.095
REMARK SMILES C=C(C)[C@H]1CC=C(C)C(=O)C1
REMARK SMILES IDX 8 1 7 2 6 3 5 4 4 5 11 6 9 7 10 8 2 9 1 10 3 11
REMARK H PARENT
REMARK Flexibility Score: inf
ROOT
ATOM      1  C   UNL     1      43.236 -36.991  -1.038  1.00  0.00     0.048 C 
ATOM      2  C   UNL     1      42.899 -38.040  -2.062  1.00  0.00    -0.012 C 
ATOM      3  C   UNL     1      42.775 -37.696  -3.355  1.00  0.00    -0.019 C 
ATOM      4  C   UNL     1      42.421 -38.701  -4.418  1.00  0.00     0.036 C 
ATOM      5  C   UNL     1      42.994 -40.092  -4.080  1.00  0.00     0.025 C 
ATOM      6  C   UNL     1      42.527 -40.534  -2.681  1.00  0.00     0.089 C 
ATOM      7  C   UNL     1      42.825 -39.467  -1.662  1.00  0.00     0.158 C 
ATOM      8  O   UNL     1      42.977 -39.797  -0.455  1.00  0.00    -0.295 OA
ENDROOT
BRANCH   5   9
ATOM      9  C   UNL     1      42.634 -41.121  -5.143  1.00  0.00    -0.077 C 
ATOM     10  C   UNL     1      41.368 -41.279  -5.564  1.00  0.00     0.008 C 
ATOM     11  C   UNL     1      43.708 -41.989  -5.747  1.00  0.00     0.039 C 
ENDBRANCH   5   9
TORSDOF 1
ENDMDL
MODEL 3
REMARK VINA RESULT:    -4.241      2.575      4.524
REMARK INTER + INTRA:          -4.584
REMARK INTER:                  -4.490
REMARK INTRA:                  -0.094
REMARK UNBOUND:                -0.095
REMARK SMILES C=C(C)[C@H]1CC=C(C)C(=O)C1
REMARK SMILES IDX 8 1 7 2 6 3 5 4 4 5 11 6 9 7 10 8 2 9 1 10 3 11
REMARK H PARENT
REMARK Flexibility Score: inf
ROOT
ATOM      1  C   UNL     1      42.908 -37.267  -0.369  1.00  0.00     0.048 C 
ATOM      2  C   UNL     1      42.921 -38.195  -1.553  1.00  0.00    -0.012 C 
ATOM      3  C   UNL     1      42.955 -39.524  -1.360  1.00  0.00    -0.019 C 
ATOM      4  C   UNL     1      42.988 -40.496  -2.510  1.00  0.00     0.036 C 
ATOM      5  C   UNL     1      42.207 -39.950  -3.721  1.00  0.00     0.025 C 
ATOM      6  C   UNL     1      42.741 -38.562  -4.117  1.00  0.00     0.089 C 
ATOM      7  C   UNL     1      42.770 -37.645  -2.924  1.00  0.00     0.158 C 
ATOM      8  O   UNL     1      42.701 -36.400  -3.105  1.00  0.00    -0.295 OA
ENDROOT
BRANCH   5   9
ATOM      9  C   UNL     1      42.240 -40.921  -4.895  1.00  0.00    -0.077 C 
ATOM     10  C   UNL     1      43.384 -41.506  -5.286  1.00  0.00     0.008 C 
ATOM     11  C   UNL     1      40.973 -41.243  -5.643  1.00  0.00     0.039 C 
ENDBRANCH   5   9
TORSDOF 1
ENDMDL
MODEL 4
REMARK VINA RESULT:    -4.177      1.748      4.415
REMARK INTER + INTRA:          -4.517
REMARK INTER:                  -4.419
REMARK INTRA:                  -0.098
REMARK UNBOUND:                -0.095
REMARK SMILES C=C(C)[C@H]1CC=C(C)C(=O)C1
REMARK SMILES IDX 8 1 7 2 6 3 5 4 4 5 11 6 9 7 10 8 2 9 1 10 3 11
REMARK H PARENT
REMARK Flexibility Score: inf
ROOT
ATOM      1  C   UNL     1      36.852 -39.746  -4.539  1.00  0.00     0.048 C 
ATOM      2  C   UNL     1      38.291 -40.168  -4.438  1.00  0.00    -0.012 C 
ATOM      3  C   UNL     1      38.983 -40.456  -5.553  1.00  0.00    -0.019 C 
ATOM      4  C   UNL     1      40.421 -40.901  -5.507  1.00  0.00     0.036 C 
ATOM      5  C   UNL     1      41.168 -40.247  -4.328  1.00  0.00     0.025 C 
ATOM      6  C   UNL     1      40.428 -40.528  -3.007  1.00  0.00     0.089 C 
ATOM      7  C   UNL     1      38.977 -40.146  -3.122  1.00  0.00     0.158 C 
ATOM      8  O   UNL     1      38.339 -39.841  -2.078  1.00  0.00    -0.295 OA
ENDROOT
BRANCH   5   9
ATOM      9  C   UNL     1      42.621 -40.696  -4.265  1.00  0.00    -0.077 C 
ATOM     10  C   UNL     1      43.342 -40.576  -3.137  1.00  0.00     0.008 C 
ATOM     11  C   UNL     1      43.282 -41.290  -5.482  1.00  0.00     0.039 C 
ENDBRANCH   5   9
TORSDOF 1
ENDMDL
MODEL 5
REMARK VINA RESULT:    -4.162      1.806      2.570
REMARK INTER + INTRA:          -4.501
REMARK INTER:                  -4.407
REMARK INTRA:                  -0.093
REMARK UNBOUND:                -0.095
REMARK SMILES C=C(C)[C@H]1CC=C(C)C(=O)C1
REMARK SMILES IDX 8 1 7 2 6 3 5 4 4 5 11 6 9 7 10 8 2 9 1 10 3 11
REMARK H PARENT
REMARK Flexibility Score: inf
ROOT
ATOM      1  C   UNL     1      44.101 -41.991  -5.643  1.00  0.00     0.048 C 
ATOM      2  C   UNL     1      42.873 -41.296  -5.124  1.00  0.00    -0.012 C 
ATOM      3  C   UNL     1      42.989 -40.362  -4.165  1.00  0.00    -0.019 C 
ATOM      4  C   UNL     1      41.791 -39.648  -3.597  1.00  0.00     0.036 C 
ATOM      5  C   UNL     1      40.692 -39.473  -4.664  1.00  0.00     0.025 C 
ATOM      6  C   UNL     1      40.322 -40.836  -5.277  1.00  0.00     0.089 C 
ATOM      7  C   UNL     1      41.556 -41.552  -5.757  1.00  0.00     0.158 C 
ATOM      8  O   UNL     1      41.450 -42.402  -6.682  1.00  0.00    -0.295 OA
ENDROOT
BRANCH   5   9
ATOM      9  C   UNL     1      39.470 -38.760  -4.100  1.00  0.00    -0.077 C 
ATOM     10  C   UNL     1      39.570 -37.552  -3.519  1.00  0.00     0.008 C 
ATOM     11  C   UNL     1      38.112 -39.408  -4.186  1.00  0.00     0.039 C 
ENDBRANCH   5   9
TORSDOF 1
ENDMDL
MODEL 6
REMARK VINA RESULT:    -4.098      2.110      4.527
REMARK INTER + INTRA:          -4.433
REMARK INTER:                  -4.338
REMARK INTRA:                  -0.095
REMARK UNBOUND:                -0.095
REMARK SMILES C=C(C)[C@H]1CC=C(C)C(=O)C1
REMARK SMILES IDX 8 1 7 2 6 3 5 4 4 5 11 6 9 7 10 8 2 9 1 10 3 11
REMARK H PARENT
REMARK Flexibility Score: inf
ROOT
ATOM      1  C   UNL     1      36.883 -38.635  -5.263  1.00  0.00     0.048 C 
ATOM      2  C   UNL     1      38.241 -39.194  -4.940  1.00  0.00    -0.012 C 
ATOM      3  C   UNL     1      38.467 -40.513  -5.060  1.00  0.00    -0.019 C 
ATOM      4  C   UNL     1      39.802 -41.127  -4.732  1.00  0.00     0.036 C 
ATOM      5  C   UNL     1      40.954 -40.154  -5.049  1.00  0.00     0.025 C 
ATOM      6  C   UNL     1      40.734 -38.814  -4.322  1.00  0.00     0.089 C 
ATOM      7  C   UNL     1      39.359 -38.275  -4.610  1.00  0.00     0.158 C 
ATOM      8  O   UNL     1      39.158 -37.033  -4.532  1.00  0.00    -0.295 OA
ENDROOT
BRANCH   5   9
ATOM      9  C   UNL     1      42.310 -40.759  -4.713  1.00  0.00    -0.077 C 
ATOM     10  C   UNL     1      42.947 -40.457  -3.568  1.00  0.00     0.008 C 
ATOM     11  C   UNL     1      42.967 -41.720  -5.670  1.00  0.00     0.039 C 
ENDBRANCH   5   9
TORSDOF 1
ENDMDL
MODEL 7
REMARK VINA RESULT:    -4.088      2.137      4.425
REMARK INTER + INTRA:          -4.422
REMARK INTER:                  -4.330
REMARK INTRA:                  -0.092
REMARK UNBOUND:                -0.095
REMARK SMILES C=C(C)[C@H]1CC=C(C)C(=O)C1
REMARK SMILES IDX 8 1 7 2 6 3 5 4 4 5 11 6 9 7 10 8 2 9 1 10 3 11
REMARK H PARENT
REMARK Flexibility Score: inf
ROOT
ATOM      1  C   UNL     1      41.677 -38.111  -0.167  1.00  0.00     0.048 C 
ATOM      2  C   UNL     1      41.757 -38.770  -1.517  1.00  0.00    -0.012 C 
ATOM      3  C   UNL     1      42.789 -38.500  -2.333  1.00  0.00    -0.019 C 
ATOM      4  C   UNL     1      42.908 -39.118  -3.700  1.00  0.00     0.036 C 
ATOM      5  C   UNL     1      42.306 -40.536  -3.724  1.00  0.00     0.025 C 
ATOM      6  C   UNL     1      40.850 -40.505  -3.223  1.00  0.00     0.089 C 
ATOM      7  C   UNL     1      40.763 -39.807  -1.892  1.00  0.00     0.158 C 
ATOM      8  O   UNL     1      39.813 -40.089  -1.113  1.00  0.00    -0.295 OA
ENDROOT
BRANCH   5   9
ATOM      9  C   UNL     1      42.412 -41.170  -5.105  1.00  0.00    -0.077 C 
ATOM     10  C   UNL     1      43.603 -41.496  -5.635  1.00  0.00     0.008 C 
ATOM     11  C   UNL     1      41.166 -41.443  -5.907  1.00  0.00     0.039 C 
ENDBRANCH   5   9
TORSDOF 1
ENDMDL
MODEL 8
REMARK VINA RESULT:    -4.073      1.402      2.516
REMARK INTER + INTRA:          -4.407
REMARK INTER:                  -4.311
REMARK INTRA:                  -0.096
REMARK UNBOUND:                -0.095
REMARK SMILES C=C(C)[C@H]1CC=C(C)C(=O)C1
REMARK SMILES IDX 8 1 7 2 6 3 5 4 4 5 11 6 9 7 10 8 2 9 1 10 3 11
REMARK H PARENT
REMARK Flexibility Score: inf
ROOT
ATOM      1  C   UNL     1      43.023 -40.160  -1.914  1.00  0.00     0.048 C 
ATOM      2  C   UNL     1      41.803 -40.383  -2.765  1.00  0.00    -0.012 C 
ATOM      3  C   UNL     1      40.583 -40.363  -2.203  1.00  0.00    -0.019 C 
ATOM      4  C   UNL     1      39.331 -40.598  -3.006  1.00  0.00     0.036 C 
ATOM      5  C   UNL     1      39.486 -40.067  -4.444  1.00  0.00     0.025 C 
ATOM      6  C   UNL     1      40.729 -40.684  -5.109  1.00  0.00     0.089 C 
ATOM      7  C   UNL     1      41.942 -40.500  -4.238  1.00  0.00     0.158 C 
ATOM      8  O   UNL     1      43.084 -40.483  -4.772  1.00  0.00    -0.295 OA
ENDROOT
BRANCH   5   9
ATOM      9  C   UNL     1      38.229 -40.307  -5.270  1.00  0.00    -0.077 C 
ATOM     10  C   UNL     1      37.244 -41.109  -4.829  1.00  0.00     0.008 C 
ATOM     11  C   UNL     1      38.068 -39.639  -6.611  1.00  0.00     0.039 C 
ENDBRANCH   5   9
TORSDOF 1
ENDMDL
MODEL 9
REMARK VINA RESULT:    -4.069      1.849      4.207
REMARK INTER + INTRA:          -4.402
REMARK INTER:                  -4.306
REMARK INTRA:                  -0.096
REMARK UNBOUND:                -0.095
REMARK SMILES C=C(C)[C@H]1CC=C(C)C(=O)C1
REMARK SMILES IDX 8 1 7 2 6 3 5 4 4 5 11 6 9 7 10 8 2 9 1 10 3 11
REMARK H PARENT
REMARK Flexibility Score: inf
ROOT
ATOM      1  C   UNL     1      40.892 -37.467  -0.947  1.00  0.00     0.048 C 
ATOM      2  C   UNL     1      41.189 -38.541  -1.956  1.00  0.00    -0.012 C 
ATOM      3  C   UNL     1      40.462 -38.619  -3.083  1.00  0.00    -0.019 C 
ATOM      4  C   UNL     1      40.705 -39.685  -4.117  1.00  0.00     0.036 C 
ATOM      5  C   UNL     1      42.196 -40.072  -4.177  1.00  0.00     0.025 C 
ATOM      6  C   UNL     1      42.694 -40.489  -2.781  1.00  0.00     0.089 C 
ATOM      7  C   UNL     1      42.359 -39.434  -1.763  1.00  0.00     0.158 C 
ATOM      8  O   UNL     1      43.065 -39.339  -0.722  1.00  0.00    -0.295 OA
ENDROOT
BRANCH   5   9
ATOM      9  C   UNL     1      42.454 -41.157  -5.214  1.00  0.00    -0.077 C 
ATOM     10  C   UNL     1      41.461 -41.649  -5.975  1.00  0.00     0.008 C 
ATOM     11  C   UNL     1      43.846 -41.703  -5.405  1.00  0.00     0.039 C 
ENDBRANCH   5   9
TORSDOF 1
ENDMDL
