MODEL 1
REMARK VINA RESULT:    -4.636      0.000      0.000
REMARK INTER + INTRA:          -7.561
REMARK INTER:                  -7.075
REMARK INTRA:                  -0.485
REMARK UNBOUND:                -0.485
REMARK SMILES CC1=CCC[C@@H](C)C(=O)C[C@H](C(C)C)C(=O)C1
REMARK SMILES IDX 8 1 9 2 6 3 7 4 5 5 4 6 3 7 2 8 1 9 10 11 11 12 15 13 16 14
REMARK SMILES IDX 17 15 12 17 13 18 14 19
REMARK H PARENT
REMARK Flexibility Score: 70.00
ROOT
ATOM      1  C   UNL     1      28.093  53.771  10.607  1.00  0.00     0.136 C 
ATOM      2  O   UNL     1      29.304  53.918  10.693  1.00  0.00    -0.299 OA
ENDROOT
BRANCH   1   3
ATOM      3  C   UNL     1      27.539  52.485   9.962  1.00  0.00     0.053 C 
ATOM      4  C   UNL     1      28.281  52.128   8.665  1.00  0.00     0.016 C 
BRANCH   3   5
ATOM      5  C   UNL     1      26.069  52.744   9.698  1.00  0.00     0.015 C 
BRANCH   5   6
ATOM      6  C   UNL     1      25.446  53.077   8.367  1.00  0.00     0.028 C 
BRANCH   6   7
ATOM      7  C   UNL     1      24.148  53.851   8.607  1.00  0.00    -0.028 C 
ATOM      8  C   UNL     1      23.965  55.200   8.822  1.00  0.00    -0.070 CG0
ATOM      9  C   UNL     1      22.555  55.637   9.145  1.00  0.00     0.039 C 
ATOM     10  G   UNL     1      25.038  56.309   8.745  1.00  0.00     0.000 G0
ENDBRANCH   6   7
ENDBRANCH   5   6
ENDBRANCH   3   5
ENDBRANCH   1   3
BRANCH   1  11
ATOM     11  C   UNL     1      27.187  54.871  11.198  1.00  0.00     0.087 C 
BRANCH  11  12
ATOM     12  C   UNL     1      27.152  56.236  10.396  1.00  0.00     0.066 C 
BRANCH  12  13
ATOM     13  C   UNL     1      25.717  56.696  10.046  1.00  0.00     0.140 C 
ATOM     14  O   UNL     1      25.100  57.385  10.847  1.00  0.00    -0.299 OA
BRANCH  13  15
ATOM     15  C   UNL     1      25.029  56.329   8.727  1.00  0.00     0.106 CG0
ATOM     16  G   UNL     1      23.971  55.209   8.847  1.00  0.00     0.000 G0
ENDBRANCH  13  15
ENDBRANCH  12  13
BRANCH  12  17
ATOM     17  C   UNL     1      27.930  57.394  11.099  1.00  0.00    -0.006 C 
ATOM     18  C   UNL     1      29.365  57.524  10.563  1.00  0.00     0.008 C 
ATOM     19  C   UNL     1      27.942  57.307  12.637  1.00  0.00     0.008 C 
ENDBRANCH  12  17
ENDBRANCH  11  12
ENDBRANCH   1  11
TORSDOF 1
ENDMDL
MODEL 2
REMARK VINA RESULT:    -4.368      1.714      3.963
REMARK INTER + INTRA:          -7.152
REMARK INTER:                  -6.657
REMARK INTRA:                  -0.494
REMARK UNBOUND:                -0.485
REMARK SMILES CC1=CCC[C@@H](C)C(=O)C[C@H](C(C)C)C(=O)C1
REMARK SMILES IDX 8 1 9 2 6 3 7 4 5 5 4 6 3 7 2 8 1 9 10 11 11 12 15 13 16 14
REMARK SMILES IDX 17 15 12 17 13 18 14 19
REMARK H PARENT
REMARK Flexibility Score: 70.00
ROOT
ATOM      1  C   UNL     1      25.462  56.506   9.927  1.00  0.00     0.136 C 
ATOM      2  O   UNL     1      25.328  57.485  10.648  1.00  0.00    -0.299 OA
ENDROOT
BRANCH   1   3
ATOM      3  C   UNL     1      24.350  56.161   8.916  1.00  0.00     0.053 C 
ATOM      4  C   UNL     1      23.269  55.264   9.537  1.00  0.00     0.016 C 
BRANCH   3   5
ATOM      5  C   UNL     1      25.035  55.469   7.754  1.00  0.00     0.015 C 
BRANCH   5   6
ATOM      6  C   UNL     1      24.711  54.100   7.215  1.00  0.00     0.028 C 
BRANCH   6   7
ATOM      7  C   UNL     1      25.950  53.211   7.344  1.00  0.00    -0.028 C 
ATOM      8  C   UNL     1      26.504  52.649   8.475  1.00  0.00    -0.070 CG0
ATOM      9  C   UNL     1      27.808  51.911   8.281  1.00  0.00     0.039 C 
ATOM     10  G   UNL     1      25.923  52.673   9.907  1.00  0.00     0.000 G0
ENDBRANCH   6   7
ENDBRANCH   5   6
ENDBRANCH   3   5
ENDBRANCH   1   3
BRANCH   1  11
ATOM     11  C   UNL     1      26.770  55.696  10.044  1.00  0.00     0.087 C 
BRANCH  11  12
ATOM     12  C   UNL     1      26.896  54.776  11.327  1.00  0.00     0.066 C 
BRANCH  12  13
ATOM     13  C   UNL     1      26.857  53.266  10.997  1.00  0.00     0.140 C 
ATOM     14  O   UNL     1      27.593  52.503  11.607  1.00  0.00    -0.299 OA
BRANCH  13  15
ATOM     15  C   UNL     1      25.926  52.676   9.933  1.00  0.00     0.106 CG0
ATOM     16  G   UNL     1      26.516  52.657   8.505  1.00  0.00     0.000 G0
ENDBRANCH  13  15
ENDBRANCH  12  13
BRANCH  12  17
ATOM     17  C   UNL     1      28.146  55.100  12.207  1.00  0.00    -0.006 C 
ATOM     18  C   UNL     1      27.842  56.186  13.252  1.00  0.00     0.008 C 
ATOM     19  C   UNL     1      29.407  55.473  11.404  1.00  0.00     0.008 C 
ENDBRANCH  12  17
ENDBRANCH  11  12
ENDBRANCH   1  11
TORSDOF 1
ENDMDL
MODEL 3
REMARK VINA RESULT:    -4.341      1.830      3.407
REMARK INTER + INTRA:          -7.110
REMARK INTER:                  -6.660
REMARK INTRA:                  -0.450
REMARK UNBOUND:                -0.485
REMARK SMILES CC1=CCC[C@@H](C)C(=O)C[C@H](C(C)C)C(=O)C1
REMARK SMILES IDX 8 1 9 2 6 3 7 4 5 5 4 6 3 7 2 8 1 9 10 11 11 12 15 13 16 14
REMARK SMILES IDX 17 15 12 17 13 18 14 19
REMARK H PARENT
REMARK Flexibility Score: 70.00
ROOT
ATOM      1  C   UNL     1      26.604  52.885   8.860  1.00  0.00     0.136 C 
ATOM      2  O   UNL     1      27.486  52.445   8.137  1.00  0.00    -0.299 OA
ENDROOT
BRANCH   1   3
ATOM      3  C   UNL     1      25.204  53.140   8.264  1.00  0.00     0.053 C 
ATOM      4  C   UNL     1      25.256  53.331   6.741  1.00  0.00     0.016 C 
BRANCH   3   5
ATOM      5  C   UNL     1      24.671  54.380   8.953  1.00  0.00     0.015 C 
BRANCH   5   6
ATOM      6  C   UNL     1      24.980  55.808   8.586  1.00  0.00     0.028 C 
BRANCH   6   7
ATOM      7  C   UNL     1      24.855  56.680   9.837  1.00  0.00    -0.028 C 
ATOM      8  C   UNL     1      25.816  57.008  10.770  1.00  0.00    -0.070 CG0
ATOM      9  C   UNL     1      25.341  57.801  11.964  1.00  0.00     0.039 C 
ATOM     10  G   UNL     1      27.324  56.673  10.710  1.00  0.00     0.000 G0
ENDBRANCH   6   7
ENDBRANCH   5   6
ENDBRANCH   3   5
ENDBRANCH   1   3
BRANCH   1  11
ATOM     11  C   UNL     1      26.936  53.114  10.349  1.00  0.00     0.087 C 
BRANCH  11  12
ATOM     12  C   UNL     1      28.143  54.095  10.640  1.00  0.00     0.066 C 
BRANCH  12  13
ATOM     13  C   UNL     1      27.721  55.361  11.422  1.00  0.00     0.140 C 
ATOM     14  O   UNL     1      27.690  55.324  12.644  1.00  0.00    -0.299 OA
BRANCH  13  15
ATOM     15  C   UNL     1      27.342  56.673  10.728  1.00  0.00     0.106 CG0
ATOM     16  G   UNL     1      25.832  56.999  10.757  1.00  0.00     0.000 G0
ENDBRANCH  13  15
ENDBRANCH  12  13
BRANCH  12  17
ATOM     17  C   UNL     1      29.352  53.405  11.351  1.00  0.00    -0.006 C 
ATOM     18  C   UNL     1      30.636  54.244  11.237  1.00  0.00     0.008 C 
ATOM     19  C   UNL     1      29.618  51.960  10.887  1.00  0.00     0.008 C 
ENDBRANCH  12  17
ENDBRANCH  11  12
ENDBRANCH   1  11
TORSDOF 1
ENDMDL
MODEL 4
REMARK VINA RESULT:    -4.236      2.256      3.626
REMARK INTER + INTRA:          -6.949
REMARK INTER:                  -6.605
REMARK INTRA:                  -0.344
REMARK UNBOUND:                -0.485
REMARK SMILES CC1=CCC[C@@H](C)C(=O)C[C@H](C(C)C)C(=O)C1
REMARK SMILES IDX 8 1 9 2 6 3 7 4 5 5 4 6 3 7 2 8 1 9 10 11 11 12 15 13 16 14
REMARK SMILES IDX 17 15 12 17 13 18 14 19
REMARK H PARENT
REMARK Flexibility Score: 70.00
ROOT
ATOM      1  C   UNL     1      24.978  55.329   8.300  1.00  0.00     0.136 C 
ATOM      2  O   UNL     1      23.842  55.779   8.269  1.00  0.00    -0.299 OA
ENDROOT
BRANCH   1   3
ATOM      3  C   UNL     1      25.393  54.268   7.260  1.00  0.00     0.053 C 
ATOM      4  C   UNL     1      25.537  54.869   5.854  1.00  0.00     0.016 C 
BRANCH   3   5
ATOM      5  C   UNL     1      24.317  53.201   7.292  1.00  0.00     0.015 C 
BRANCH   5   6
ATOM      6  C   UNL     1      24.215  52.065   8.277  1.00  0.00     0.028 C 
BRANCH   6   7
ATOM      7  C   UNL     1      23.412  52.533   9.492  1.00  0.00    -0.028 C 
ATOM      8  C   UNL     1      23.832  52.729  10.791  1.00  0.00    -0.070 CG0
ATOM      9  C   UNL     1      22.758  53.086  11.791  1.00  0.00     0.039 C 
ATOM     10  G   UNL     1      25.281  52.647  11.323  1.00  0.00     0.000 G0
ENDBRANCH   6   7
ENDBRANCH   5   6
ENDBRANCH   3   5
ENDBRANCH   1   3
BRANCH   1  11
ATOM     11  C   UNL     1      25.950  55.892   9.358  1.00  0.00     0.087 C 
BRANCH  11  12
ATOM     12  C   UNL     1      25.852  55.238  10.796  1.00  0.00     0.066 C 
BRANCH  12  13
ATOM     13  C   UNL     1      26.223  53.737  10.807  1.00  0.00     0.140 C 
ATOM     14  O   UNL     1      27.311  53.388  10.372  1.00  0.00    -0.299 OA
BRANCH  13  15
ATOM     15  C   UNL     1      25.280  52.657  11.348  1.00  0.00     0.106 CG0
ATOM     16  G   UNL     1      23.839  52.729  10.794  1.00  0.00     0.000 G0
ENDBRANCH  13  15
ENDBRANCH  12  13
BRANCH  12  17
ATOM     17  C   UNL     1      26.674  56.000  11.885  1.00  0.00    -0.006 C 
ATOM     18  C   UNL     1      25.859  56.208  13.173  1.00  0.00     0.008 C 
ATOM     19  C   UNL     1      27.268  57.340  11.410  1.00  0.00     0.008 C 
ENDBRANCH  12  17
ENDBRANCH  11  12
ENDBRANCH   1  11
TORSDOF 1
ENDMDL
MODEL 5
REMARK VINA RESULT:    -4.162      7.012      8.377
REMARK INTER + INTRA:          -6.837
REMARK INTER:                  -6.574
REMARK INTRA:                  -0.264
REMARK UNBOUND:                -0.485
REMARK SMILES CC1=CCC[C@@H](C)C(=O)C[C@H](C(C)C)C(=O)C1
REMARK SMILES IDX 8 1 9 2 6 3 7 4 5 5 4 6 3 7 2 8 1 9 10 11 11 12 15 13 16 14
REMARK SMILES IDX 17 15 12 17 13 18 14 19
REMARK H PARENT
REMARK Flexibility Score: 70.00
ROOT
ATOM      1  C   UNL     1      25.620  50.873  17.416  1.00  0.00     0.136 C 
ATOM      2  O   UNL     1      24.965  49.997  17.963  1.00  0.00    -0.299 OA
ENDROOT
BRANCH   1   3
ATOM      3  C   UNL     1      26.634  50.479  16.324  1.00  0.00     0.053 C 
ATOM      4  C   UNL     1      26.115  49.329  15.448  1.00  0.00     0.016 C 
BRANCH   3   5
ATOM      5  C   UNL     1      27.905  50.083  17.050  1.00  0.00     0.015 C 
BRANCH   5   6
ATOM      6  C   UNL     1      29.253  50.743  16.913  1.00  0.00     0.028 C 
BRANCH   6   7
ATOM      7  C   UNL     1      29.265  51.587  15.637  1.00  0.00    -0.028 C 
ATOM      8  C   UNL     1      28.964  52.923  15.474  1.00  0.00    -0.070 CG0
ATOM      9  C   UNL     1      28.957  53.435  14.053  1.00  0.00     0.039 C 
ATOM     10  G   UNL     1      28.660  53.951  16.587  1.00  0.00     0.000 G0
ENDBRANCH   6   7
ENDBRANCH   5   6
ENDBRANCH   3   5
ENDBRANCH   1   3
BRANCH   1  11
ATOM     11  C   UNL     1      25.354  52.336  17.825  1.00  0.00     0.087 C 
BRANCH  11  12
ATOM     12  C   UNL     1      26.634  53.186  18.210  1.00  0.00     0.066 C 
BRANCH  12  13
ATOM     13  C   UNL     1      27.189  54.014  17.028  1.00  0.00     0.140 C 
ATOM     14  O   UNL     1      26.435  54.752  16.410  1.00  0.00    -0.299 OA
BRANCH  13  15
ATOM     15  C   UNL     1      28.658  53.954  16.595  1.00  0.00     0.106 CG0
ATOM     16  G   UNL     1      28.958  52.920  15.486  1.00  0.00     0.000 G0
ENDBRANCH  13  15
ENDBRANCH  12  13
BRANCH  12  17
ATOM     17  C   UNL     1      26.422  54.105  19.455  1.00  0.00    -0.006 C 
ATOM     18  C   UNL     1      25.050  54.800  19.424  1.00  0.00     0.008 C 
ATOM     19  C   UNL     1      27.539  55.143  19.674  1.00  0.00     0.008 C 
ENDBRANCH  12  17
ENDBRANCH  11  12
ENDBRANCH   1  11
TORSDOF 1
ENDMDL
MODEL 6
REMARK VINA RESULT:    -4.161      2.563      5.786
REMARK INTER + INTRA:          -6.836
REMARK INTER:                  -6.518
REMARK INTRA:                  -0.318
REMARK UNBOUND:                -0.485
REMARK SMILES CC1=CCC[C@@H](C)C(=O)C[C@H](C(C)C)C(=O)C1
REMARK SMILES IDX 8 1 9 2 6 3 7 4 5 5 4 6 3 7 2 8 1 9 10 11 11 12 15 13 16 14
REMARK SMILES IDX 17 15 12 17 13 18 14 19
REMARK H PARENT
REMARK Flexibility Score: 70.00
ROOT
ATOM      1  C   UNL     1      26.883  57.578  12.733  1.00  0.00     0.136 C 
ATOM      2  O   UNL     1      26.025  58.443  12.835  1.00  0.00    -0.299 OA
ENDROOT
BRANCH   1   3
ATOM      3  C   UNL     1      28.367  57.978  12.850  1.00  0.00     0.053 C 
ATOM      4  C   UNL     1      28.552  59.265  13.668  1.00  0.00     0.016 C 
BRANCH   3   5
ATOM      5  C   UNL     1      28.871  58.154  11.431  1.00  0.00     0.015 C 
BRANCH   5   6
ATOM      6  C   UNL     1      29.871  57.276  10.724  1.00  0.00     0.028 C 
BRANCH   6   7
ATOM      7  C   UNL     1      30.433  56.261  11.721  1.00  0.00    -0.028 C 
ATOM      8  C   UNL     1      30.110  54.931  11.885  1.00  0.00    -0.070 CG0
ATOM      9  C   UNL     1      30.767  54.225  13.048  1.00  0.00     0.039 C 
ATOM     10  G   UNL     1      29.172  54.084  10.996  1.00  0.00     0.000 G0
ENDBRANCH   6   7
ENDBRANCH   5   6
ENDBRANCH   3   5
ENDBRANCH   1   3
BRANCH   1  11
ATOM     11  C   UNL     1      26.419  56.120  12.538  1.00  0.00     0.087 C 
BRANCH  11  12
ATOM     12  C   UNL     1      26.845  55.440  11.173  1.00  0.00     0.066 C 
BRANCH  12  13
ATOM     13  C   UNL     1      27.685  54.157  11.371  1.00  0.00     0.140 C 
ATOM     14  O   UNL     1      27.151  53.160  11.838  1.00  0.00    -0.299 OA
BRANCH  13  15
ATOM     15  C   UNL     1      29.169  54.074  10.999  1.00  0.00     0.106 CG0
ATOM     16  G   UNL     1      30.098  54.945  11.876  1.00  0.00     0.000 G0
ENDBRANCH  13  15
ENDBRANCH  12  13
BRANCH  12  17
ATOM     17  C   UNL     1      25.643  55.152  10.217  1.00  0.00    -0.006 C 
ATOM     18  C   UNL     1      25.298  56.374   9.351  1.00  0.00     0.008 C 
ATOM     19  C   UNL     1      24.380  54.629  10.927  1.00  0.00     0.008 C 
ENDBRANCH  12  17
ENDBRANCH  11  12
ENDBRANCH   1  11
TORSDOF 1
ENDMDL
MODEL 7
REMARK VINA RESULT:    -4.151      1.664      2.168
REMARK INTER + INTRA:          -6.820
REMARK INTER:                  -6.344
REMARK INTRA:                  -0.476
REMARK UNBOUND:                -0.485
REMARK SMILES CC1=CCC[C@@H](C)C(=O)C[C@H](C(C)C)C(=O)C1
REMARK SMILES IDX 8 1 9 2 6 3 7 4 5 5 4 6 3 7 2 8 1 9 10 11 11 12 15 13 16 14
REMARK SMILES IDX 17 15 12 17 13 18 14 19
REMARK H PARENT
REMARK Flexibility Score: 70.00
ROOT
ATOM      1  C   UNL     1      29.499  54.775  12.694  1.00  0.00     0.136 C 
ATOM      2  O   UNL     1      30.505  55.152  13.278  1.00  0.00    -0.299 OA
ENDROOT
BRANCH   1   3
ATOM      3  C   UNL     1      29.434  53.327  12.170  1.00  0.00     0.053 C 
ATOM      4  C   UNL     1      30.411  53.093  11.008  1.00  0.00     0.016 C 
BRANCH   3   5
ATOM      5  C   UNL     1      28.000  53.098  11.734  1.00  0.00     0.015 C 
BRANCH   5   6
ATOM      6  C   UNL     1      27.509  52.966  10.315  1.00  0.00     0.028 C 
BRANCH   6   7
ATOM      7  C   UNL     1      26.025  53.334  10.267  1.00  0.00    -0.028 C 
ATOM      8  C   UNL     1      25.439  54.553  10.000  1.00  0.00    -0.070 CG0
ATOM      9  C   UNL     1      23.936  54.615  10.147  1.00  0.00     0.039 C 
ATOM     10  G   UNL     1      26.149  55.848   9.544  1.00  0.00     0.000 G0
ENDBRANCH   6   7
ENDBRANCH   5   6
ENDBRANCH   3   5
ENDBRANCH   1   3
BRANCH   1  11
ATOM     11  C   UNL     1      28.327  55.770  12.557  1.00  0.00     0.087 C 
BRANCH  11  12
ATOM     12  C   UNL     1      28.208  56.504  11.160  1.00  0.00     0.066 C 
BRANCH  12  13
ATOM     13  C   UNL     1      26.746  56.682  10.691  1.00  0.00     0.140 C 
ATOM     14  O   UNL     1      26.040  57.516  11.241  1.00  0.00    -0.299 OA
BRANCH  13  15
ATOM     15  C   UNL     1      26.136  55.856   9.553  1.00  0.00     0.106 CG0
ATOM     16  G   UNL     1      25.423  54.564  10.012  1.00  0.00     0.000 G0
ENDBRANCH  13  15
ENDBRANCH  12  13
BRANCH  12  17
ATOM     17  C   UNL     1      28.958  57.874  11.108  1.00  0.00    -0.006 C 
ATOM     18  C   UNL     1      30.416  57.709  10.646  1.00  0.00     0.008 C 
ATOM     19  C   UNL     1      28.904  58.677  12.422  1.00  0.00     0.008 C 
ENDBRANCH  12  17
ENDBRANCH  11  12
ENDBRANCH   1  11
TORSDOF 1
ENDMDL
MODEL 8
REMARK VINA RESULT:    -4.142      2.522      4.575
REMARK INTER + INTRA:          -6.807
REMARK INTER:                  -6.625
REMARK INTRA:                  -0.182
REMARK UNBOUND:                -0.485
REMARK SMILES CC1=CCC[C@@H](C)C(=O)C[C@H](C(C)C)C(=O)C1
REMARK SMILES IDX 8 1 9 2 6 3 7 4 5 5 4 6 3 7 2 8 1 9 10 11 11 12 15 13 16 14
REMARK SMILES IDX 17 15 12 17 13 18 14 19
REMARK H PARENT
REMARK Flexibility Score: 70.00
ROOT
ATOM      1  C   UNL     1      26.363  56.671  10.467  1.00  0.00     0.136 C 
ATOM      2  O   UNL     1      25.515  57.384  10.985  1.00  0.00    -0.299 OA
ENDROOT
BRANCH   1   3
ATOM      3  C   UNL     1      25.917  55.566   9.488  1.00  0.00     0.053 C 
ATOM      4  C   UNL     1      24.439  55.711   9.095  1.00  0.00     0.016 C 
BRANCH   3   5
ATOM      5  C   UNL     1      26.169  54.248  10.193  1.00  0.00     0.015 C 
BRANCH   5   6
ATOM      6  C   UNL     1      27.290  53.283   9.905  1.00  0.00     0.028 C 
BRANCH   6   7
ATOM      7  C   UNL     1      27.795  52.702  11.227  1.00  0.00    -0.028 C 
ATOM      8  C   UNL     1      28.714  53.224  12.113  1.00  0.00    -0.070 CG0
ATOM      9  C   UNL     1      29.088  52.341  13.281  1.00  0.00     0.039 C 
ATOM     10  G   UNL     1      29.378  54.618  12.052  1.00  0.00     0.000 G0
ENDBRANCH   6   7
ENDBRANCH   5   6
ENDBRANCH   3   5
ENDBRANCH   1   3
BRANCH   1  11
ATOM     11  C   UNL     1      27.844  56.954  10.794  1.00  0.00     0.087 C 
BRANCH  11  12
ATOM     12  C   UNL     1      28.202  57.044  12.334  1.00  0.00     0.066 C 
BRANCH  12  13
ATOM     13  C   UNL     1      28.705  55.704  12.919  1.00  0.00     0.140 C 
ATOM     14  O   UNL     1      28.556  55.480  14.111  1.00  0.00    -0.299 OA
BRANCH  13  15
ATOM     15  C   UNL     1      29.385  54.631  12.061  1.00  0.00     0.106 CG0
ATOM     16  G   UNL     1      28.709  53.242  12.119  1.00  0.00     0.000 G0
ENDBRANCH  13  15
ENDBRANCH  12  13
BRANCH  12  17
ATOM     17  C   UNL     1      29.209  58.189  12.674  1.00  0.00    -0.006 C 
ATOM     18  C   UNL     1      28.521  59.357  13.400  1.00  0.00     0.008 C 
ATOM     19  C   UNL     1      30.009  58.711  11.465  1.00  0.00     0.008 C 
ENDBRANCH  12  17
ENDBRANCH  11  12
ENDBRANCH   1  11
TORSDOF 1
ENDMDL
MODEL 9
REMARK VINA RESULT:    -4.107      7.292      8.490
REMARK INTER + INTRA:          -6.753
REMARK INTER:                  -6.255
REMARK INTRA:                  -0.497
REMARK UNBOUND:                -0.485
REMARK SMILES CC1=CCC[C@@H](C)C(=O)C[C@H](C(C)C)C(=O)C1
REMARK SMILES IDX 8 1 9 2 6 3 7 4 5 5 4 6 3 7 2 8 1 9 10 11 11 12 15 13 16 14
REMARK SMILES IDX 17 15 12 17 13 18 14 19
REMARK H PARENT
REMARK Flexibility Score: 70.00
ROOT
ATOM      1  C   UNL     1      27.691  51.350  16.027  1.00  0.00     0.136 C 
ATOM      2  O   UNL     1      27.669  51.616  14.834  1.00  0.00    -0.299 OA
ENDROOT
BRANCH   1   3
ATOM      3  C   UNL     1      27.073  50.022  16.510  1.00  0.00     0.053 C 
ATOM      4  C   UNL     1      26.212  49.361  15.422  1.00  0.00     0.016 C 
BRANCH   3   5
ATOM      5  C   UNL     1      26.243  50.361  17.733  1.00  0.00     0.015 C 
BRANCH   5   6
ATOM      6  C   UNL     1      25.139  51.384  17.806  1.00  0.00     0.028 C 
BRANCH   6   7
ATOM      7  C   UNL     1      25.175  52.055  19.181  1.00  0.00    -0.028 C 
ATOM      8  C   UNL     1      25.575  53.331  19.517  1.00  0.00    -0.070 CG0
ATOM      9  C   UNL     1      25.602  53.652  20.993  1.00  0.00     0.039 C 
ATOM     10  G   UNL     1      25.974  54.467  18.548  1.00  0.00     0.000 G0
ENDBRANCH   6   7
ENDBRANCH   5   6
ENDBRANCH   3   5
ENDBRANCH   1   3
BRANCH   1  11
ATOM     11  C   UNL     1      28.384  52.347  16.979  1.00  0.00     0.087 C 
BRANCH  11  12
ATOM     12  C   UNL     1      27.953  53.862  16.819  1.00  0.00     0.066 C 
BRANCH  12  13
ATOM     13  C   UNL     1      27.455  54.494  18.139  1.00  0.00     0.140 C 
ATOM     14  O   UNL     1      28.262  55.031  18.885  1.00  0.00    -0.299 OA
BRANCH  13  15
ATOM     15  C   UNL     1      25.981  54.481  18.558  1.00  0.00     0.106 CG0
ATOM     16  G   UNL     1      25.598  53.329  19.515  1.00  0.00     0.000 G0
ENDBRANCH  13  15
ENDBRANCH  12  13
BRANCH  12  17
ATOM     17  C   UNL     1      29.059  54.761  16.178  1.00  0.00    -0.006 C 
ATOM     18  C   UNL     1      28.644  55.273  14.789  1.00  0.00     0.008 C 
ATOM     19  C   UNL     1      30.450  54.103  16.109  1.00  0.00     0.008 C 
ENDBRANCH  12  17
ENDBRANCH  11  12
ENDBRANCH   1  11
TORSDOF 1
ENDMDL
