MODEL 1
REMARK VINA RESULT:    -2.205      0.000      0.000
REMARK INTER + INTRA:          -2.205
REMARK INTER:                  -2.205
REMARK INTRA:                   0.000
REMARK UNBOUND:                 0.000
REMARK SMILES CC(=O)[O-]
REMARK SMILES IDX 1 1 2 2 3 3 4 4
REMARK H PARENT
REMARK Flexibility Score: inf
ROOT
ATOM      1  C   UNL     1      24.984  28.182 -14.990  1.00  0.00     0.063 C 
ATOM      2  C   UNL     1      25.265  27.724 -16.381  1.00  0.00     0.038 C 
ATOM      3  O   UNL     1      26.417  27.321 -16.692  1.00  0.00    -0.550 OA
ATOM      4  O   UNL     1      24.273  27.791 -17.350  1.00  0.00    -0.550 OA
ENDROOT
TORSDOF 0
ENDMDL
MODEL 2
REMARK VINA RESULT:    -2.142      1.886      2.153
REMARK INTER + INTRA:          -2.142
REMARK INTER:                  -2.142
REMARK INTRA:                   0.000
REMARK UNBOUND:                 0.000
REMARK SMILES CC(=O)[O-]
REMARK SMILES IDX 1 1 2 2 3 3 4 4
REMARK H PARENT
REMARK Flexibility Score: inf
ROOT
ATOM      1  C   UNL     1      25.539  27.624 -17.035  1.00  0.00     0.063 C 
ATOM      2  C   UNL     1      25.140  28.386 -15.817  1.00  0.00     0.038 C 
ATOM      3  O   UNL     1      24.878  27.775 -14.748  1.00  0.00    -0.550 OA
ATOM      4  O   UNL     1      25.003  29.767 -15.874  1.00  0.00    -0.550 OA
ENDROOT
TORSDOF 0
ENDMDL
MODEL 3
REMARK VINA RESULT:    -2.116      1.897      2.293
REMARK INTER + INTRA:          -2.116
REMARK INTER:                  -2.116
REMARK INTRA:                   0.000
REMARK UNBOUND:                 0.000
REMARK SMILES CC(=O)[O-]
REMARK SMILES IDX 1 1 2 2 3 3 4 4
REMARK H PARENT
REMARK Flexibility Score: inf
ROOT
ATOM      1  C   UNL     1      25.786  27.659 -17.013  1.00  0.00     0.063 C 
ATOM      2  C   UNL     1      25.204  28.460 -15.899  1.00  0.00     0.038 C 
ATOM      3  O   UNL     1      25.080  29.708 -16.016  1.00  0.00    -0.550 OA
ATOM      4  O   UNL     1      24.848  27.841 -14.708  1.00  0.00    -0.550 OA
ENDROOT
TORSDOF 0
ENDMDL
MODEL 4
REMARK VINA RESULT:    -2.069     21.413     21.823
REMARK INTER + INTRA:          -2.069
REMARK INTER:                  -2.069
REMARK INTRA:                   0.000
REMARK UNBOUND:                 0.000
REMARK SMILES CC(=O)[O-]
REMARK SMILES IDX 1 1 2 2 3 3 4 4
REMARK H PARENT
REMARK Flexibility Score: inf
ROOT
ATOM      1  C   UNL     1      32.121  15.201  -0.498  1.00  0.00     0.063 C 
ATOM      2  C   UNL     1      31.565  13.854  -0.817  1.00  0.00     0.038 C 
ATOM      3  O   UNL     1      31.826  13.309  -1.922  1.00  0.00    -0.550 OA
ATOM      4  O   UNL     1      30.714  13.222   0.080  1.00  0.00    -0.550 OA
ENDROOT
TORSDOF 0
ENDMDL
MODEL 5
REMARK VINA RESULT:    -2.001      2.111      2.686
REMARK INTER + INTRA:          -2.001
REMARK INTER:                  -2.001
REMARK INTRA:                   0.000
REMARK UNBOUND:                 0.000
REMARK SMILES CC(=O)[O-]
REMARK SMILES IDX 1 1 2 2 3 3 4 4
REMARK H PARENT
REMARK Flexibility Score: inf
ROOT
ATOM      1  C   UNL     1      27.596  28.284 -18.193  1.00  0.00     0.063 C 
ATOM      2  C   UNL     1      26.405  27.480 -17.793  1.00  0.00     0.038 C 
ATOM      3  O   UNL     1      25.740  26.860 -18.663  1.00  0.00    -0.550 OA
ATOM      4  O   UNL     1      25.995  27.457 -16.466  1.00  0.00    -0.550 OA
ENDROOT
TORSDOF 0
ENDMDL
MODEL 6
REMARK VINA RESULT:    -1.940     12.441     13.022
REMARK INTER + INTRA:          -1.940
REMARK INTER:                  -1.940
REMARK INTRA:                   0.000
REMARK UNBOUND:                 0.000
REMARK SMILES CC(=O)[O-]
REMARK SMILES IDX 1 1 2 2 3 3 4 4
REMARK H PARENT
REMARK Flexibility Score: inf
ROOT
ATOM      1  C   UNL     1      34.622  17.360 -18.039  1.00  0.00     0.063 C 
ATOM      2  C   UNL     1      33.528  18.164 -18.655  1.00  0.00     0.038 C 
ATOM      3  O   UNL     1      33.255  19.308 -18.206  1.00  0.00    -0.550 OA
ATOM      4  O   UNL     1      32.771  17.632 -19.691  1.00  0.00    -0.550 OA
ENDROOT
TORSDOF 0
ENDMDL
MODEL 7
REMARK VINA RESULT:    -1.874      2.229      2.954
REMARK INTER + INTRA:          -1.874
REMARK INTER:                  -1.874
REMARK INTRA:                   0.000
REMARK UNBOUND:                 0.000
REMARK SMILES CC(=O)[O-]
REMARK SMILES IDX 1 1 2 2 3 3 4 4
REMARK H PARENT
REMARK Flexibility Score: inf
ROOT
ATOM      1  C   UNL     1      25.762  27.352 -18.969  1.00  0.00     0.063 C 
ATOM      2  C   UNL     1      26.662  27.639 -17.814  1.00  0.00     0.038 C 
ATOM      3  O   UNL     1      26.290  27.370 -16.642  1.00  0.00    -0.550 OA
ATOM      4  O   UNL     1      27.889  28.253 -18.025  1.00  0.00    -0.550 OA
ENDROOT
TORSDOF 0
ENDMDL
MODEL 8
REMARK VINA RESULT:    -1.835     20.790     20.934
REMARK INTER + INTRA:          -1.835
REMARK INTER:                  -1.835
REMARK INTRA:                   0.000
REMARK UNBOUND:                 0.000
REMARK SMILES CC(=O)[O-]
REMARK SMILES IDX 1 1 2 2 3 3 4 4
REMARK H PARENT
REMARK Flexibility Score: inf
ROOT
ATOM      1  C   UNL     1      36.125  15.154  -4.339  1.00  0.00     0.063 C 
ATOM      2  C   UNL     1      35.032  14.447  -3.613  1.00  0.00     0.038 C 
ATOM      3  O   UNL     1      34.481  13.438  -4.127  1.00  0.00    -0.550 OA
ATOM      4  O   UNL     1      34.580  14.932  -2.393  1.00  0.00    -0.550 OA
ENDROOT
TORSDOF 0
ENDMDL
MODEL 9
REMARK VINA RESULT:    -1.801     20.501     20.947
REMARK INTER + INTRA:          -1.801
REMARK INTER:                  -1.801
REMARK INTRA:                   0.000
REMARK UNBOUND:                 0.000
REMARK SMILES CC(=O)[O-]
REMARK SMILES IDX 1 1 2 2 3 3 4 4
REMARK H PARENT
REMARK Flexibility Score: inf
ROOT
ATOM      1  C   UNL     1      35.051  14.761  -3.312  1.00  0.00     0.063 C 
ATOM      2  C   UNL     1      36.165  14.712  -4.302  1.00  0.00     0.038 C 
ATOM      3  O   UNL     1      35.917  14.541  -5.524  1.00  0.00    -0.550 OA
ATOM      4  O   UNL     1      37.482  14.801  -3.872  1.00  0.00    -0.550 OA
ENDROOT
TORSDOF 0
ENDMDL
