MODEL 1
REMARK VINA RESULT:    -5.577      0.000      0.000
REMARK INTER + INTRA:          -7.687
REMARK INTER:                  -7.044
REMARK INTRA:                  -0.643
REMARK UNBOUND:                -0.643
REMARK SMILES Oc1ccc(CCc2cc(O)cc(O)c2)cc1
REMARK SMILES IDX 6 1 5 2 4 3 3 4 2 5 16 6 17 7 1 8 7 10 8 11 15 12 9 13 13 14
REMARK SMILES IDX 10 15 12 16 14 17 11 19
REMARK H PARENT 1 9 14 18 11 20
REMARK Flexibility Score: inf
ROOT
ATOM      1  C   UNL     1     479.925  38.519 459.075  1.00  0.00     0.040 C 
ENDROOT
BRANCH   1   2
ATOM      2  C   UNL     1     479.282  37.392 459.838  1.00  0.00    -0.047 A 
ATOM      3  C   UNL     1     479.547  36.058 459.490  1.00  0.00     0.007 A 
ATOM      4  C   UNL     1     478.976  35.012 460.221  1.00  0.00     0.046 A 
ATOM      5  C   UNL     1     478.140  35.290 461.312  1.00  0.00     0.115 A 
ATOM      6  C   UNL     1     478.455  37.666 460.941  1.00  0.00     0.007 A 
ATOM      7  C   UNL     1     477.884  36.618 461.669  1.00  0.00     0.046 A 
BRANCH   5   8
ATOM      8  O   UNL     1     477.564  34.256 462.047  1.00  0.00    -0.508 OA
ATOM      9  H   UNL     1     477.973  33.932 462.916  1.00  0.00     0.293 HD
ENDBRANCH   5   8
ENDBRANCH   1   2
BRANCH   1  10
ATOM     10  C   UNL     1     480.709  39.432 460.023  1.00  0.00     0.040 C 
BRANCH  10  11
ATOM     11  C   UNL     1     482.176  39.098 459.986  1.00  0.00    -0.040 A 
ATOM     12  C   UNL     1     482.716  38.398 458.894  1.00  0.00     0.050 A 
ATOM     13  C   UNL     1     483.005  39.431 461.069  1.00  0.00     0.050 A 
ATOM     14  C   UNL     1     484.073  38.057 458.873  1.00  0.00     0.119 A 
ATOM     15  C   UNL     1     484.365  39.091 461.051  1.00  0.00     0.119 A 
ATOM     16  C   UNL     1     484.896  38.407 459.952  1.00  0.00     0.092 A 
BRANCH  14  17
ATOM     17  O   UNL     1     484.591  37.369 457.779  1.00  0.00    -0.508 OA
ATOM     18  H   UNL     1     484.129  37.385 456.876  1.00  0.00     0.293 HD
ENDBRANCH  14  17
BRANCH  15  19
ATOM     19  O   UNL     1     485.195  39.425 462.118  1.00  0.00    -0.508 OA
ATOM     20  H   UNL     1     484.845  39.934 462.922  1.00  0.00     0.293 HD
ENDBRANCH  15  19
ENDBRANCH  10  11
ENDBRANCH   1  10
TORSDOF 6
ENDMDL
MODEL 2
REMARK VINA RESULT:    -5.571      0.111      1.181
REMARK INTER + INTRA:          -7.680
REMARK INTER:                  -7.018
REMARK INTRA:                  -0.662
REMARK UNBOUND:                -0.643
REMARK SMILES Oc1ccc(CCc2cc(O)cc(O)c2)cc1
REMARK SMILES IDX 6 1 5 2 4 3 3 4 2 5 16 6 17 7 1 8 7 10 8 11 15 12 9 13 13 14
REMARK SMILES IDX 10 15 12 16 14 17 11 19
REMARK H PARENT 1 9 14 18 11 20
REMARK Flexibility Score: inf
ROOT
ATOM      1  C   UNL     1     479.885  38.497 458.950  1.00  0.00     0.040 C 
ENDROOT
BRANCH   1   2
ATOM      2  C   UNL     1     479.313  37.380 459.780  1.00  0.00    -0.047 A 
ATOM      3  C   UNL     1     478.477  37.663 460.872  1.00  0.00     0.007 A 
ATOM      4  C   UNL     1     477.919  36.623 461.622  1.00  0.00     0.046 A 
ATOM      5  C   UNL     1     478.185  35.289 461.281  1.00  0.00     0.115 A 
ATOM      6  C   UNL     1     479.565  36.041 459.434  1.00  0.00     0.007 A 
ATOM      7  C   UNL     1     479.007  35.003 460.186  1.00  0.00     0.046 A 
BRANCH   5   8
ATOM      8  O   UNL     1     477.636  34.245 462.021  1.00  0.00    -0.508 OA
ATOM      9  H   UNL     1     478.017  33.306 461.977  1.00  0.00     0.293 HD
ENDBRANCH   5   8
ENDBRANCH   1   2
BRANCH   1  10
ATOM     10  C   UNL     1     480.652  39.485 459.834  1.00  0.00     0.040 C 
BRANCH  10  11
ATOM     11  C   UNL     1     482.113  39.126 459.885  1.00  0.00    -0.040 A 
ATOM     12  C   UNL     1     482.709  38.431 458.820  1.00  0.00     0.050 A 
ATOM     13  C   UNL     1     482.878  39.431 461.022  1.00  0.00     0.050 A 
ATOM     14  C   UNL     1     484.058  38.066 458.879  1.00  0.00     0.119 A 
ATOM     15  C   UNL     1     484.230  39.068 461.084  1.00  0.00     0.119 A 
ATOM     16  C   UNL     1     484.818  38.389 460.012  1.00  0.00     0.092 A 
BRANCH  14  17
ATOM     17  O   UNL     1     484.633  37.383 457.810  1.00  0.00    -0.508 OA
ATOM     18  H   UNL     1     485.053  36.468 457.930  1.00  0.00     0.293 HD
ENDBRANCH  14  17
BRANCH  15  19
ATOM     19  O   UNL     1     484.997  39.375 462.206  1.00  0.00    -0.508 OA
ATOM     20  H   UNL     1     485.292  38.657 462.858  1.00  0.00     0.293 HD
ENDBRANCH  15  19
ENDBRANCH  10  11
ENDBRANCH   1  10
TORSDOF 6
ENDMDL
MODEL 3
REMARK VINA RESULT:    -5.551      0.146      2.353
REMARK INTER + INTRA:          -7.654
REMARK INTER:                  -6.982
REMARK INTRA:                  -0.672
REMARK UNBOUND:                -0.643
REMARK SMILES Oc1ccc(CCc2cc(O)cc(O)c2)cc1
REMARK SMILES IDX 6 1 5 2 4 3 3 4 2 5 16 6 17 7 1 8 7 10 8 11 15 12 9 13 13 14
REMARK SMILES IDX 10 15 12 16 14 17 11 19
REMARK H PARENT 1 9 14 18 11 20
REMARK Flexibility Score: inf
ROOT
ATOM      1  C   UNL     1     479.852  38.561 458.930  1.00  0.00     0.040 C 
ENDROOT
BRANCH   1   2
ATOM      2  C   UNL     1     479.317  37.416 459.747  1.00  0.00    -0.047 A 
ATOM      3  C   UNL     1     478.483  37.661 460.850  1.00  0.00     0.007 A 
ATOM      4  C   UNL     1     477.959  36.595 461.588  1.00  0.00     0.046 A 
ATOM      5  C   UNL     1     478.257  35.273 461.224  1.00  0.00     0.115 A 
ATOM      6  C   UNL     1     479.600  36.090 459.378  1.00  0.00     0.007 A 
ATOM      7  C   UNL     1     479.076  35.026 460.118  1.00  0.00     0.046 A 
BRANCH   5   8
ATOM      8  O   UNL     1     477.742  34.204 461.953  1.00  0.00    -0.508 OA
ATOM      9  H   UNL     1     477.195  33.474 461.509  1.00  0.00     0.293 HD
ENDBRANCH   5   8
ENDBRANCH   1   2
BRANCH   1  10
ATOM     10  C   UNL     1     480.649  39.526 459.813  1.00  0.00     0.040 C 
BRANCH  10  11
ATOM     11  C   UNL     1     482.091  39.102 459.892  1.00  0.00    -0.040 A 
ATOM     12  C   UNL     1     482.867  39.436 461.014  1.00  0.00     0.050 A 
ATOM     13  C   UNL     1     482.689  38.421 458.819  1.00  0.00     0.050 A 
ATOM     14  C   UNL     1     484.217  39.073 461.075  1.00  0.00     0.119 A 
ATOM     15  C   UNL     1     484.040  38.055 458.877  1.00  0.00     0.119 A 
ATOM     16  C   UNL     1     484.801  38.379 460.006  1.00  0.00     0.092 A 
BRANCH  14  17
ATOM     17  O   UNL     1     484.968  39.407 462.199  1.00  0.00    -0.508 OA
ATOM     18  H   UNL     1     485.940  39.684 462.124  1.00  0.00     0.293 HD
ENDBRANCH  14  17
BRANCH  15  19
ATOM     19  O   UNL     1     484.638  37.372 457.820  1.00  0.00    -0.508 OA
ATOM     20  H   UNL     1     484.199  37.320 456.908  1.00  0.00     0.293 HD
ENDBRANCH  15  19
ENDBRANCH  10  11
ENDBRANCH   1  10
TORSDOF 6
ENDMDL
MODEL 4
REMARK VINA RESULT:    -5.541      0.811      1.495
REMARK INTER + INTRA:          -7.642
REMARK INTER:                  -7.053
REMARK INTRA:                  -0.589
REMARK UNBOUND:                -0.643
REMARK SMILES Oc1ccc(CCc2cc(O)cc(O)c2)cc1
REMARK SMILES IDX 6 1 5 2 4 3 3 4 2 5 16 6 17 7 1 8 7 10 8 11 15 12 9 13 13 14
REMARK SMILES IDX 10 15 12 16 14 17 11 19
REMARK H PARENT 1 9 14 18 11 20
REMARK Flexibility Score: inf
ROOT
ATOM      1  C   UNL     1     479.726  38.559 459.427  1.00  0.00     0.040 C 
ENDROOT
BRANCH   1   2
ATOM      2  C   UNL     1     479.127  37.390 460.162  1.00  0.00    -0.047 A 
ATOM      3  C   UNL     1     478.230  37.602 461.221  1.00  0.00     0.007 A 
ATOM      4  C   UNL     1     477.649  36.515 461.881  1.00  0.00     0.046 A 
ATOM      5  C   UNL     1     477.952  35.205 461.482  1.00  0.00     0.115 A 
ATOM      6  C   UNL     1     479.418  36.076 459.757  1.00  0.00     0.007 A 
ATOM      7  C   UNL     1     478.836  34.991 460.419  1.00  0.00     0.046 A 
BRANCH   5   8
ATOM      8  O   UNL     1     477.380  34.115 462.133  1.00  0.00    -0.508 OA
ATOM      9  H   UNL     1     476.414  34.128 462.440  1.00  0.00     0.293 HD
ENDBRANCH   5   8
ENDBRANCH   1   2
BRANCH   1  10
ATOM     10  C   UNL     1     480.861  39.184 460.244  1.00  0.00     0.040 C 
BRANCH  10  11
ATOM     11  C   UNL     1     482.197  38.839 459.642  1.00  0.00    -0.040 A 
ATOM     12  C   UNL     1     482.293  38.483 458.287  1.00  0.00     0.050 A 
ATOM     13  C   UNL     1     483.350  38.814 460.444  1.00  0.00     0.050 A 
ATOM     14  C   UNL     1     483.529  38.130 457.734  1.00  0.00     0.119 A 
ATOM     15  C   UNL     1     484.589  38.462 459.893  1.00  0.00     0.119 A 
ATOM     16  C   UNL     1     484.676  38.123 458.538  1.00  0.00     0.092 A 
BRANCH  14  17
ATOM     17  O   UNL     1     483.605  37.787 456.386  1.00  0.00    -0.508 OA
ATOM     18  H   UNL     1     483.872  36.854 456.091  1.00  0.00     0.293 HD
ENDBRANCH  14  17
BRANCH  15  19
ATOM     19  O   UNL     1     485.737  38.442 460.681  1.00  0.00    -0.508 OA
ATOM     20  H   UNL     1     486.483  39.116 460.547  1.00  0.00     0.293 HD
ENDBRANCH  15  19
ENDBRANCH  10  11
ENDBRANCH   1  10
TORSDOF 6
ENDMDL
MODEL 5
REMARK VINA RESULT:    -5.412      1.287      2.475
REMARK INTER + INTRA:          -7.478
REMARK INTER:                  -6.934
REMARK INTRA:                  -0.545
REMARK UNBOUND:                -0.643
REMARK SMILES Oc1ccc(CCc2cc(O)cc(O)c2)cc1
REMARK SMILES IDX 6 1 5 2 4 3 3 4 2 5 16 6 17 7 1 8 7 10 8 11 15 12 9 13 13 14
REMARK SMILES IDX 10 15 12 16 14 17 11 19
REMARK H PARENT 1 9 14 18 11 20
REMARK Flexibility Score: inf
ROOT
ATOM      1  C   UNL     1     479.593  38.499 459.566  1.00  0.00     0.040 C 
ENDROOT
BRANCH   1   2
ATOM      2  C   UNL     1     478.965  37.316 460.253  1.00  0.00    -0.047 A 
ATOM      3  C   UNL     1     479.297  36.010 459.861  1.00  0.00     0.007 A 
ATOM      4  C   UNL     1     478.738  34.911 460.523  1.00  0.00     0.046 A 
ATOM      5  C   UNL     1     477.849  35.110 461.589  1.00  0.00     0.115 A 
ATOM      6  C   UNL     1     478.084  37.510 461.331  1.00  0.00     0.007 A 
ATOM      7  C   UNL     1     477.526  36.411 461.990  1.00  0.00     0.046 A 
BRANCH   5   8
ATOM      8  O   UNL     1     477.285  34.024 462.254  1.00  0.00    -0.508 OA
ATOM      9  H   UNL     1     477.565  33.072 462.048  1.00  0.00     0.293 HD
ENDBRANCH   5   8
ENDBRANCH   1   2
BRANCH   1  10
ATOM     10  C   UNL     1     480.958  38.818 460.184  1.00  0.00     0.040 C 
BRANCH  10  11
ATOM     11  C   UNL     1     482.054  38.633 459.170  1.00  0.00    -0.040 A 
ATOM     12  C   UNL     1     483.400  38.745 459.554  1.00  0.00     0.050 A 
ATOM     13  C   UNL     1     481.739  38.405 457.820  1.00  0.00     0.050 A 
ATOM     14  C   UNL     1     484.420  38.607 458.606  1.00  0.00     0.119 A 
ATOM     15  C   UNL     1     482.759  38.266 456.869  1.00  0.00     0.119 A 
ATOM     16  C   UNL     1     484.097  38.364 457.264  1.00  0.00     0.092 A 
BRANCH  14  17
ATOM     17  O   UNL     1     485.750  38.714 459.008  1.00  0.00    -0.508 OA
ATOM     18  H   UNL     1     486.283  39.563 458.854  1.00  0.00     0.293 HD
ENDBRANCH  14  17
BRANCH  15  19
ATOM     19  O   UNL     1     482.454  38.032 455.530  1.00  0.00    -0.508 OA
ATOM     20  H   UNL     1     483.062  38.351 454.785  1.00  0.00     0.293 HD
ENDBRANCH  15  19
ENDBRANCH  10  11
ENDBRANCH   1  10
TORSDOF 6
ENDMDL
MODEL 6
REMARK VINA RESULT:    -5.369      1.399      6.336
REMARK INTER + INTRA:          -7.425
REMARK INTER:                  -6.817
REMARK INTRA:                  -0.608
REMARK UNBOUND:                -0.643
REMARK SMILES Oc1ccc(CCc2cc(O)cc(O)c2)cc1
REMARK SMILES IDX 6 1 5 2 4 3 3 4 2 5 16 6 17 7 1 8 7 10 8 11 15 12 9 13 13 14
REMARK SMILES IDX 10 15 12 16 14 17 11 19
REMARK H PARENT 1 9 14 18 11 20
REMARK Flexibility Score: inf
ROOT
ATOM      1  C   UNL     1     480.929  39.291 461.232  1.00  0.00     0.040 C 
ENDROOT
BRANCH   1   2
ATOM      2  C   UNL     1     482.258  39.228 460.529  1.00  0.00    -0.047 A 
ATOM      3  C   UNL     1     482.321  39.269 459.127  1.00  0.00     0.007 A 
ATOM      4  C   UNL     1     483.559  39.244 458.475  1.00  0.00     0.046 A 
ATOM      5  C   UNL     1     484.745  39.185 459.221  1.00  0.00     0.115 A 
ATOM      6  C   UNL     1     483.450  39.183 461.271  1.00  0.00     0.007 A 
ATOM      7  C   UNL     1     484.686  39.157 460.618  1.00  0.00     0.046 A 
BRANCH   5   8
ATOM      8  O   UNL     1     485.983  39.158 458.583  1.00  0.00    -0.508 OA
ATOM      9  H   UNL     1     486.074  39.360 457.594  1.00  0.00     0.293 HD
ENDBRANCH   5   8
ENDBRANCH   1   2
BRANCH   1  10
ATOM     10  C   UNL     1     479.786  39.020 460.249  1.00  0.00     0.040 C 
BRANCH  10  11
ATOM     11  C   UNL     1     479.296  37.603 460.385  1.00  0.00    -0.040 A 
ATOM     12  C   UNL     1     478.383  37.264 461.396  1.00  0.00     0.050 A 
ATOM     13  C   UNL     1     479.793  36.598 459.540  1.00  0.00     0.050 A 
ATOM     14  C   UNL     1     477.952  35.941 461.546  1.00  0.00     0.119 A 
ATOM     15  C   UNL     1     479.363  35.272 459.687  1.00  0.00     0.119 A 
ATOM     16  C   UNL     1     478.441  34.947 460.688  1.00  0.00     0.092 A 
BRANCH  14  17
ATOM     17  O   UNL     1     477.040  35.626 462.550  1.00  0.00    -0.508 OA
ATOM     18  H   UNL     1     476.762  34.668 462.732  1.00  0.00     0.293 HD
ENDBRANCH  14  17
BRANCH  15  19
ATOM     19  O   UNL     1     479.845  34.271 458.847  1.00  0.00    -0.508 OA
ATOM     20  H   UNL     1     480.197  33.395 459.215  1.00  0.00     0.293 HD
ENDBRANCH  15  19
ENDBRANCH  10  11
ENDBRANCH   1  10
TORSDOF 6
ENDMDL
MODEL 7
REMARK VINA RESULT:    -5.368      1.451      6.791
REMARK INTER + INTRA:          -7.423
REMARK INTER:                  -7.020
REMARK INTRA:                  -0.403
REMARK UNBOUND:                -0.643
REMARK SMILES Oc1ccc(CCc2cc(O)cc(O)c2)cc1
REMARK SMILES IDX 6 1 5 2 4 3 3 4 2 5 16 6 17 7 1 8 7 10 8 11 15 12 9 13 13 14
REMARK SMILES IDX 10 15 12 16 14 17 11 19
REMARK H PARENT 1 9 14 18 11 20
REMARK Flexibility Score: inf
ROOT
ATOM      1  C   UNL     1     480.204  38.589 459.992  1.00  0.00     0.040 C 
ENDROOT
BRANCH   1   2
ATOM      2  C   UNL     1     481.664  38.711 459.644  1.00  0.00    -0.047 A 
ATOM      3  C   UNL     1     482.591  39.130 460.612  1.00  0.00     0.007 A 
ATOM      4  C   UNL     1     483.951  39.211 460.297  1.00  0.00     0.046 A 
ATOM      5  C   UNL     1     484.398  38.865 459.014  1.00  0.00     0.115 A 
ATOM      6  C   UNL     1     482.119  38.352 458.364  1.00  0.00     0.007 A 
ATOM      7  C   UNL     1     483.479  38.435 458.052  1.00  0.00     0.046 A 
BRANCH   5   8
ATOM      8  O   UNL     1     485.750  38.944 458.689  1.00  0.00    -0.508 OA
ATOM      9  H   UNL     1     486.059  39.272 457.781  1.00  0.00     0.293 HD
ENDBRANCH   5   8
ENDBRANCH   1   2
BRANCH   1  10
ATOM     10  C   UNL     1     479.662  37.222 459.562  1.00  0.00     0.040 C 
BRANCH  10  11
ATOM     11  C   UNL     1     478.616  36.740 460.531  1.00  0.00    -0.040 A 
ATOM     12  C   UNL     1     477.650  37.628 461.032  1.00  0.00     0.050 A 
ATOM     13  C   UNL     1     478.634  35.412 460.988  1.00  0.00     0.050 A 
ATOM     14  C   UNL     1     476.698  37.190 461.959  1.00  0.00     0.119 A 
ATOM     15  C   UNL     1     477.681  34.970 461.916  1.00  0.00     0.119 A 
ATOM     16  C   UNL     1     476.714  35.859 462.397  1.00  0.00     0.092 A 
BRANCH  14  17
ATOM     17  O   UNL     1     475.744  38.084 462.438  1.00  0.00    -0.508 OA
ATOM     18  H   UNL     1     474.760  37.842 462.470  1.00  0.00     0.293 HD
ENDBRANCH  14  17
BRANCH  15  19
ATOM     19  O   UNL     1     477.688  33.652 462.368  1.00  0.00    -0.508 OA
ATOM     20  H   UNL     1     476.848  33.084 462.357  1.00  0.00     0.293 HD
ENDBRANCH  15  19
ENDBRANCH  10  11
ENDBRANCH   1  10
TORSDOF 6
ENDMDL
MODEL 8
REMARK VINA RESULT:    -5.342      1.480      6.592
REMARK INTER + INTRA:          -7.390
REMARK INTER:                  -6.982
REMARK INTRA:                  -0.409
REMARK UNBOUND:                -0.643
REMARK SMILES Oc1ccc(CCc2cc(O)cc(O)c2)cc1
REMARK SMILES IDX 6 1 5 2 4 3 3 4 2 5 16 6 17 7 1 8 7 10 8 11 15 12 9 13 13 14
REMARK SMILES IDX 10 15 12 16 14 17 11 19
REMARK H PARENT 1 9 14 18 11 20
REMARK Flexibility Score: inf
ROOT
ATOM      1  C   UNL     1     480.175  38.370 459.520  1.00  0.00     0.040 C 
ENDROOT
BRANCH   1   2
ATOM      2  C   UNL     1     481.656  38.504 459.284  1.00  0.00    -0.047 A 
ATOM      3  C   UNL     1     482.197  38.246 458.014  1.00  0.00     0.007 A 
ATOM      4  C   UNL     1     483.568  38.402 457.787  1.00  0.00     0.046 A 
ATOM      5  C   UNL     1     484.409  38.827 458.826  1.00  0.00     0.115 A 
ATOM      6  C   UNL     1     482.501  38.942 460.317  1.00  0.00     0.007 A 
ATOM      7  C   UNL     1     483.871  39.097 460.088  1.00  0.00     0.046 A 
BRANCH   5   8
ATOM      8  O   UNL     1     485.776  38.985 458.611  1.00  0.00    -0.508 OA
ATOM      9  H   UNL     1     486.140  39.739 458.039  1.00  0.00     0.293 HD
ENDBRANCH   5   8
ENDBRANCH   1   2
BRANCH   1  10
ATOM     10  C   UNL     1     479.747  36.902 459.433  1.00  0.00     0.040 C 
BRANCH  10  11
ATOM     11  C   UNL     1     478.715  36.590 460.483  1.00  0.00    -0.040 A 
ATOM     12  C   UNL     1     478.525  35.267 460.917  1.00  0.00     0.050 A 
ATOM     13  C   UNL     1     477.895  37.608 460.996  1.00  0.00     0.050 A 
ATOM     14  C   UNL     1     477.543  34.969 461.869  1.00  0.00     0.119 A 
ATOM     15  C   UNL     1     476.912  37.312 461.950  1.00  0.00     0.119 A 
ATOM     16  C   UNL     1     476.740  35.994 462.386  1.00  0.00     0.092 A 
BRANCH  14  17
ATOM     17  O   UNL     1     477.374  33.653 462.291  1.00  0.00    -0.508 OA
ATOM     18  H   UNL     1     477.240  32.897 461.629  1.00  0.00     0.293 HD
ENDBRANCH  14  17
BRANCH  15  19
ATOM     19  O   UNL     1     476.100  38.319 462.469  1.00  0.00    -0.508 OA
ATOM     20  H   UNL     1     475.770  38.292 463.426  1.00  0.00     0.293 HD
ENDBRANCH  15  19
ENDBRANCH  10  11
ENDBRANCH   1  10
TORSDOF 6
ENDMDL
MODEL 9
REMARK VINA RESULT:    -5.340      1.327      6.045
REMARK INTER + INTRA:          -7.388
REMARK INTER:                  -6.826
REMARK INTRA:                  -0.562
REMARK UNBOUND:                -0.643
REMARK SMILES Oc1ccc(CCc2cc(O)cc(O)c2)cc1
REMARK SMILES IDX 6 1 5 2 4 3 3 4 2 5 16 6 17 7 1 8 7 10 8 11 15 12 9 13 13 14
REMARK SMILES IDX 10 15 12 16 14 17 11 19
REMARK H PARENT 1 9 14 18 11 20
REMARK Flexibility Score: inf
ROOT
ATOM      1  C   UNL     1     480.592  39.432 461.197  1.00  0.00     0.040 C 
ENDROOT
BRANCH   1   2
ATOM      2  C   UNL     1     481.969  39.291 460.604  1.00  0.00    -0.047 A 
ATOM      3  C   UNL     1     483.101  39.279 461.435  1.00  0.00     0.007 A 
ATOM      4  C   UNL     1     484.377  39.114 460.886  1.00  0.00     0.046 A 
ATOM      5  C   UNL     1     484.531  38.950 459.502  1.00  0.00     0.115 A 
ATOM      6  C   UNL     1     482.128  39.112 459.219  1.00  0.00     0.007 A 
ATOM      7  C   UNL     1     483.404  38.948 458.673  1.00  0.00     0.046 A 
BRANCH   5   8
ATOM      8  O   UNL     1     485.797  38.787 458.944  1.00  0.00    -0.508 OA
ATOM      9  H   UNL     1     486.251  37.881 458.916  1.00  0.00     0.293 HD
ENDBRANCH   5   8
ENDBRANCH   1   2
BRANCH   1  10
ATOM     10  C   UNL     1     479.526  38.981 460.194  1.00  0.00     0.040 C 
BRANCH  10  11
ATOM     11  C   UNL     1     479.154  37.542 460.428  1.00  0.00    -0.040 A 
ATOM     12  C   UNL     1     479.678  36.532 459.605  1.00  0.00     0.050 A 
ATOM     13  C   UNL     1     478.235  37.203 461.434  1.00  0.00     0.050 A 
ATOM     14  C   UNL     1     479.307  35.197 459.799  1.00  0.00     0.119 A 
ATOM     15  C   UNL     1     477.862  35.867 461.632  1.00  0.00     0.119 A 
ATOM     16  C   UNL     1     478.402  34.866 460.816  1.00  0.00     0.092 A 
BRANCH  14  17
ATOM     17  O   UNL     1     479.843  34.209 458.977  1.00  0.00    -0.508 OA
ATOM     18  H   UNL     1     479.735  34.243 457.969  1.00  0.00     0.293 HD
ENDBRANCH  14  17
BRANCH  15  19
ATOM     19  O   UNL     1     476.957  35.522 462.633  1.00  0.00    -0.508 OA
ATOM     20  H   UNL     1     476.096  35.031 462.423  1.00  0.00     0.293 HD
ENDBRANCH  15  19
ENDBRANCH  10  11
ENDBRANCH   1  10
TORSDOF 6
ENDMDL
