MODEL 1
REMARK VINA RESULT:    -6.548      0.000      0.000
REMARK INTER + INTRA:         -17.365
REMARK INTER:                 -14.971
REMARK INTRA:                  -2.394
REMARK UNBOUND:                -2.394
REMARK SMILES CCCCCCCCCCCCCCCCCCCCCCCC(=O)[O-]
REMARK SMILES IDX 13 1 14 2 15 3 16 4 17 5 18 6 19 7 20 8 21 9 22 10 23 11
REMARK SMILES IDX 24 12 25 13 26 14 12 15 11 16 10 17 9 18 8 19 7 20 6 21 5 22
REMARK SMILES IDX 4 23 3 24 2 25 1 26
REMARK H PARENT
REMARK Flexibility Score: inf
ROOT
ATOM      1  C   UNL     1     -13.056 -10.951  -5.834  1.00  0.00     0.000 C 
ENDROOT
BRANCH   1   2
ATOM      2  C   UNL     1     -11.812 -10.989  -4.926  1.00  0.00     0.000 C 
BRANCH   2   3
ATOM      3  C   UNL     1     -11.919 -12.054  -3.825  1.00  0.00     0.000 C 
BRANCH   3   4
ATOM      4  C   UNL     1     -11.999 -11.443  -2.415  1.00  0.00     0.000 C 
BRANCH   4   5
ATOM      5  C   UNL     1     -11.408 -12.366  -1.332  1.00  0.00     0.000 C 
BRANCH   5   6
ATOM      6  C   UNL     1     -10.591 -11.645  -0.239  1.00  0.00     0.000 C 
BRANCH   6   7
ATOM      7  C   UNL     1      -9.413 -12.456   0.339  1.00  0.00     0.000 C 
BRANCH   7   8
ATOM      8  C   UNL     1      -8.087 -12.298  -0.428  1.00  0.00     0.000 C 
BRANCH   8   9
ATOM      9  C   UNL     1      -7.935 -13.325  -1.564  1.00  0.00     0.000 C 
BRANCH   9  10
ATOM     10  C   UNL     1      -8.455 -14.721  -1.171  1.00  0.00     0.006 C 
BRANCH  10  11
ATOM     11  C   UNL     1      -8.402 -15.740  -2.322  1.00  0.00     0.053 C 
BRANCH  11  12
ATOM     12  C   UNL     1      -7.904 -17.077  -1.861  1.00  0.00     0.041 C 
ATOM     13  O   UNL     1      -7.306 -17.839  -2.667  1.00  0.00    -0.550 OA
ATOM     14  O   UNL     1      -8.112 -17.482  -0.547  1.00  0.00    -0.550 OA
ENDBRANCH  11  12
ENDBRANCH  10  11
ENDBRANCH   9  10
ENDBRANCH   8   9
ENDBRANCH   7   8
ENDBRANCH   6   7
ENDBRANCH   5   6
ENDBRANCH   4   5
ENDBRANCH   3   4
ENDBRANCH   2   3
ENDBRANCH   1   2
BRANCH   1  15
ATOM     15  C   UNL     1     -12.974  -9.863  -6.916  1.00  0.00     0.000 C 
BRANCH  15  16
ATOM     16  C   UNL     1     -14.340  -9.220  -7.212  1.00  0.00     0.000 C 
BRANCH  16  17
ATOM     17  C   UNL     1     -15.389  -9.541  -6.135  1.00  0.00     0.000 C 
BRANCH  17  18
ATOM     18  C   UNL     1     -16.821  -9.582  -6.691  1.00  0.00    -0.000 C 
BRANCH  18  19
ATOM     19  C   UNL     1     -16.994  -8.664  -7.919  1.00  0.00    -0.000 C 
BRANCH  19  20
ATOM     20  C   UNL     1     -18.070  -9.149  -8.907  1.00  0.00    -0.000 C 
BRANCH  20  21
ATOM     21  C   UNL     1     -17.558  -9.421 -10.332  1.00  0.00    -0.000 C 
BRANCH  21  22
ATOM     22  C   UNL     1     -17.910 -10.835 -10.832  1.00  0.00    -0.000 C 
BRANCH  22  23
ATOM     23  C   UNL     1     -16.685 -11.774 -10.833  1.00  0.00    -0.000 C 
BRANCH  23  24
ATOM     24  C   UNL     1     -15.412 -11.126 -10.257  1.00  0.00    -0.000 C 
BRANCH  24  25
ATOM     25  C   UNL     1     -14.487 -12.094  -9.502  1.00  0.00    -0.003 C 
ATOM     26  C   UNL     1     -15.194 -12.814  -8.354  1.00  0.00     0.004 C 
ENDBRANCH  24  25
ENDBRANCH  23  24
ENDBRANCH  22  23
ENDBRANCH  21  22
ENDBRANCH  20  21
ENDBRANCH  19  20
ENDBRANCH  18  19
ENDBRANCH  17  18
ENDBRANCH  16  17
ENDBRANCH  15  16
ENDBRANCH   1  15
TORSDOF 22
ENDMDL
MODEL 2
REMARK VINA RESULT:    -6.458      0.783      2.317
REMARK INTER + INTRA:         -17.157
REMARK INTER:                 -15.267
REMARK INTRA:                  -1.891
REMARK UNBOUND:                -2.394
REMARK SMILES CCCCCCCCCCCCCCCCCCCCCCCC(=O)[O-]
REMARK SMILES IDX 13 1 14 2 15 3 16 4 17 5 18 6 19 7 20 8 21 9 22 10 23 11
REMARK SMILES IDX 24 12 25 13 26 14 12 15 11 16 10 17 9 18 8 19 7 20 6 21 5 22
REMARK SMILES IDX 4 23 3 24 2 25 1 26
REMARK H PARENT
REMARK Flexibility Score: inf
ROOT
ATOM      1  C   UNL     1     -12.664 -11.251  -5.676  1.00  0.00     0.000 C 
ENDROOT
BRANCH   1   2
ATOM      2  C   UNL     1     -12.118 -10.785  -4.314  1.00  0.00     0.000 C 
BRANCH   2   3
ATOM      3  C   UNL     1     -11.762 -11.958  -3.390  1.00  0.00     0.000 C 
BRANCH   3   4
ATOM      4  C   UNL     1     -12.030 -11.648  -1.906  1.00  0.00     0.000 C 
BRANCH   4   5
ATOM      5  C   UNL     1     -11.087 -12.414  -0.958  1.00  0.00     0.000 C 
BRANCH   5   6
ATOM      6  C   UNL     1     -10.182 -11.522  -0.083  1.00  0.00     0.000 C 
BRANCH   6   7
ATOM      7  C   UNL     1      -8.704 -11.959  -0.013  1.00  0.00     0.000 C 
BRANCH   7   8
ATOM      8  C   UNL     1      -8.307 -13.045  -1.029  1.00  0.00     0.000 C 
BRANCH   8   9
ATOM      9  C   UNL     1      -6.880 -13.572  -0.804  1.00  0.00     0.000 C 
BRANCH   9  10
ATOM     10  C   UNL     1      -6.721 -15.046  -1.227  1.00  0.00     0.006 C 
BRANCH  10  11
ATOM     11  C   UNL     1      -8.058 -15.744  -1.526  1.00  0.00     0.053 C 
BRANCH  11  12
ATOM     12  C   UNL     1      -7.925 -17.237  -1.508  1.00  0.00     0.041 C 
ATOM     13  O   UNL     1      -7.472 -17.841  -2.516  1.00  0.00    -0.550 OA
ATOM     14  O   UNL     1      -8.312 -17.957  -0.383  1.00  0.00    -0.550 OA
ENDBRANCH  11  12
ENDBRANCH  10  11
ENDBRANCH   9  10
ENDBRANCH   8   9
ENDBRANCH   7   8
ENDBRANCH   6   7
ENDBRANCH   5   6
ENDBRANCH   4   5
ENDBRANCH   3   4
ENDBRANCH   2   3
ENDBRANCH   1   2
BRANCH   1  15
ATOM     15  C   UNL     1     -12.846 -10.096  -6.674  1.00  0.00     0.000 C 
BRANCH  15  16
ATOM     16  C   UNL     1     -13.931 -10.388  -7.724  1.00  0.00     0.000 C 
BRANCH  16  17
ATOM     17  C   UNL     1     -14.501 -11.810  -7.604  1.00  0.00     0.000 C 
BRANCH  17  18
ATOM     18  C   UNL     1     -14.804 -12.449  -8.969  1.00  0.00    -0.000 C 
BRANCH  18  19
ATOM     19  C   UNL     1     -15.253 -11.404 -10.012  1.00  0.00    -0.000 C 
BRANCH  19  20
ATOM     20  C   UNL     1     -16.379 -11.898 -10.937  1.00  0.00    -0.000 C 
BRANCH  20  21
ATOM     21  C   UNL     1     -17.667 -11.058 -10.886  1.00  0.00    -0.000 C 
BRANCH  21  22
ATOM     22  C   UNL     1     -17.415  -9.608 -10.433  1.00  0.00    -0.000 C 
BRANCH  22  23
ATOM     23  C   UNL     1     -18.021  -9.318  -9.043  1.00  0.00    -0.000 C 
BRANCH  23  24
ATOM     24  C   UNL     1     -17.300  -8.191  -8.280  1.00  0.00    -0.000 C 
BRANCH  24  25
ATOM     25  C   UNL     1     -16.733  -8.605  -6.913  1.00  0.00    -0.003 C 
ATOM     26  C   UNL     1     -17.352  -9.897  -6.382  1.00  0.00     0.004 C 
ENDBRANCH  24  25
ENDBRANCH  23  24
ENDBRANCH  22  23
ENDBRANCH  21  22
ENDBRANCH  20  21
ENDBRANCH  19  20
ENDBRANCH  18  19
ENDBRANCH  17  18
ENDBRANCH  16  17
ENDBRANCH  15  16
ENDBRANCH   1  15
TORSDOF 22
ENDMDL
MODEL 3
REMARK VINA RESULT:    -6.424      1.268      2.371
REMARK INTER + INTRA:         -17.081
REMARK INTER:                 -15.237
REMARK INTRA:                  -1.844
REMARK UNBOUND:                -2.394
REMARK SMILES CCCCCCCCCCCCCCCCCCCCCCCC(=O)[O-]
REMARK SMILES IDX 13 1 14 2 15 3 16 4 17 5 18 6 19 7 20 8 21 9 22 10 23 11
REMARK SMILES IDX 24 12 25 13 26 14 12 15 11 16 10 17 9 18 8 19 7 20 6 21 5 22
REMARK SMILES IDX 4 23 3 24 2 25 1 26
REMARK H PARENT
REMARK Flexibility Score: inf
ROOT
ATOM      1  C   UNL     1     -13.804 -10.697  -6.067  1.00  0.00     0.000 C 
ENDROOT
BRANCH   1   2
ATOM      2  C   UNL     1     -12.309 -10.513  -5.748  1.00  0.00     0.000 C 
BRANCH   2   3
ATOM      3  C   UNL     1     -11.749 -11.648  -4.878  1.00  0.00     0.000 C 
BRANCH   3   4
ATOM      4  C   UNL     1     -12.082 -11.471  -3.386  1.00  0.00     0.000 C 
BRANCH   4   5
ATOM      5  C   UNL     1     -11.278 -12.423  -2.480  1.00  0.00     0.000 C 
BRANCH   5   6
ATOM      6  C   UNL     1     -11.286 -12.054  -0.981  1.00  0.00     0.000 C 
BRANCH   6   7
ATOM      7  C   UNL     1     -10.196 -12.741  -0.132  1.00  0.00     0.000 C 
BRANCH   7   8
ATOM      8  C   UNL     1      -8.813 -12.066  -0.196  1.00  0.00     0.000 C 
BRANCH   8   9
ATOM      9  C   UNL     1      -7.765 -12.932  -0.914  1.00  0.00     0.000 C 
BRANCH   9  10
ATOM     10  C   UNL     1      -8.299 -14.333  -1.269  1.00  0.00     0.006 C 
BRANCH  10  11
ATOM     11  C   UNL     1      -7.198 -15.403  -1.358  1.00  0.00     0.053 C 
BRANCH  11  12
ATOM     12  C   UNL     1      -7.730 -16.712  -1.859  1.00  0.00     0.041 C 
ATOM     13  O   UNL     1      -8.098 -17.597  -1.042  1.00  0.00    -0.550 OA
ATOM     14  O   UNL     1      -7.808 -16.954  -3.226  1.00  0.00    -0.550 OA
ENDBRANCH  11  12
ENDBRANCH  10  11
ENDBRANCH   9  10
ENDBRANCH   8   9
ENDBRANCH   7   8
ENDBRANCH   6   7
ENDBRANCH   5   6
ENDBRANCH   4   5
ENDBRANCH   3   4
ENDBRANCH   2   3
ENDBRANCH   1   2
BRANCH   1  15
ATOM     15  C   UNL     1     -14.051 -11.241  -7.482  1.00  0.00     0.000 C 
BRANCH  15  16
ATOM     16  C   UNL     1     -15.496 -11.727  -7.685  1.00  0.00     0.000 C 
BRANCH  16  17
ATOM     17  C   UNL     1     -16.401 -11.404  -6.485  1.00  0.00     0.000 C 
BRANCH  17  18
ATOM     18  C   UNL     1     -17.489 -10.372  -6.820  1.00  0.00    -0.000 C 
BRANCH  18  19
ATOM     19  C   UNL     1     -16.916  -8.946  -6.956  1.00  0.00    -0.000 C 
BRANCH  19  20
ATOM     20  C   UNL     1     -17.347  -8.226  -8.246  1.00  0.00    -0.000 C 
BRANCH  20  21
ATOM     21  C   UNL     1     -16.705  -8.772  -9.532  1.00  0.00    -0.000 C 
BRANCH  21  22
ATOM     22  C   UNL     1     -17.732  -9.410 -10.487  1.00  0.00    -0.000 C 
BRANCH  22  23
ATOM     23  C   UNL     1     -17.507 -10.928 -10.654  1.00  0.00    -0.000 C 
BRANCH  23  24
ATOM     24  C   UNL     1     -18.665 -11.646 -11.374  1.00  0.00    -0.000 C 
BRANCH  24  25
ATOM     25  C   UNL     1     -19.328 -10.827 -12.492  1.00  0.00    -0.003 C 
ATOM     26  C   UNL     1     -20.402 -11.612 -13.243  1.00  0.00     0.004 C 
ENDBRANCH  24  25
ENDBRANCH  23  24
ENDBRANCH  22  23
ENDBRANCH  21  22
ENDBRANCH  20  21
ENDBRANCH  19  20
ENDBRANCH  18  19
ENDBRANCH  17  18
ENDBRANCH  16  17
ENDBRANCH  15  16
ENDBRANCH   1  15
TORSDOF 22
ENDMDL
MODEL 4
REMARK VINA RESULT:    -6.398      3.128     10.439
REMARK INTER + INTRA:         -17.020
REMARK INTER:                 -14.903
REMARK INTRA:                  -2.117
REMARK UNBOUND:                -2.394
REMARK SMILES CCCCCCCCCCCCCCCCCCCCCCCC(=O)[O-]
REMARK SMILES IDX 13 1 14 2 15 3 16 4 17 5 18 6 19 7 20 8 21 9 22 10 23 11
REMARK SMILES IDX 24 12 25 13 26 14 12 15 11 16 10 17 9 18 8 19 7 20 6 21 5 22
REMARK SMILES IDX 4 23 3 24 2 25 1 26
REMARK H PARENT
REMARK Flexibility Score: inf
ROOT
ATOM      1  C   UNL     1     -13.734  -9.212  -7.128  1.00  0.00     0.000 C 
ENDROOT
BRANCH   1   2
ATOM      2  C   UNL     1     -14.974  -9.356  -6.226  1.00  0.00     0.000 C 
BRANCH   2   3
ATOM      3  C   UNL     1     -16.282  -9.043  -6.967  1.00  0.00     0.000 C 
BRANCH   3   4
ATOM      4  C   UNL     1     -16.083  -8.051  -8.127  1.00  0.00     0.000 C 
BRANCH   4   5
ATOM      5  C   UNL     1     -16.976  -8.369  -9.342  1.00  0.00     0.000 C 
BRANCH   5   6
ATOM      6  C   UNL     1     -18.279  -9.124  -9.009  1.00  0.00     0.000 C 
BRANCH   6   7
ATOM      7  C   UNL     1     -18.951  -9.830 -10.206  1.00  0.00     0.000 C 
BRANCH   7   8
ATOM      8  C   UNL     1     -17.975 -10.323 -11.289  1.00  0.00     0.000 C 
BRANCH   8   9
ATOM      9  C   UNL     1     -17.453 -11.743 -11.013  1.00  0.00     0.000 C 
BRANCH   9  10
ATOM     10  C   UNL     1     -15.914 -11.824 -11.048  1.00  0.00     0.006 C 
BRANCH  10  11
ATOM     11  C   UNL     1     -15.249 -11.398  -9.729  1.00  0.00     0.053 C 
BRANCH  11  12
ATOM     12  C   UNL     1     -15.059 -12.558  -8.799  1.00  0.00     0.041 C 
ATOM     13  O   UNL     1     -15.327 -12.434  -7.574  1.00  0.00    -0.550 OA
ATOM     14  O   UNL     1     -14.577 -13.768  -9.285  1.00  0.00    -0.550 OA
ENDBRANCH  11  12
ENDBRANCH  10  11
ENDBRANCH   9  10
ENDBRANCH   8   9
ENDBRANCH   7   8
ENDBRANCH   6   7
ENDBRANCH   5   6
ENDBRANCH   4   5
ENDBRANCH   3   4
ENDBRANCH   2   3
ENDBRANCH   1   2
BRANCH   1  15
ATOM     15  C   UNL     1     -12.508  -9.961  -6.585  1.00  0.00     0.000 C 
BRANCH  15  16
ATOM     16  C   UNL     1     -12.884 -11.051  -5.567  1.00  0.00     0.000 C 
BRANCH  16  17
ATOM     17  C   UNL     1     -11.700 -11.460  -4.676  1.00  0.00     0.000 C 
BRANCH  17  18
ATOM     18  C   UNL     1     -12.077 -11.552  -3.189  1.00  0.00    -0.000 C 
BRANCH  18  19
ATOM     19  C   UNL     1     -11.128 -12.483  -2.406  1.00  0.00    -0.000 C 
BRANCH  19  20
ATOM     20  C   UNL     1     -10.993 -12.119  -0.916  1.00  0.00    -0.000 C 
BRANCH  20  21
ATOM     21  C   UNL     1      -9.927 -12.922  -0.153  1.00  0.00    -0.000 C 
BRANCH  21  22
ATOM     22  C   UNL     1      -8.491 -12.490  -0.503  1.00  0.00    -0.000 C 
BRANCH  22  23
ATOM     23  C   UNL     1      -7.628 -13.677  -0.985  1.00  0.00    -0.000 C 
BRANCH  23  24
ATOM     24  C   UNL     1      -8.451 -14.836  -1.578  1.00  0.00    -0.000 C 
BRANCH  24  25
ATOM     25  C   UNL     1      -7.882 -16.235  -1.293  1.00  0.00    -0.003 C 
ATOM     26  C   UNL     1      -7.540 -17.005  -2.567  1.00  0.00     0.004 C 
ENDBRANCH  24  25
ENDBRANCH  23  24
ENDBRANCH  22  23
ENDBRANCH  21  22
ENDBRANCH  20  21
ENDBRANCH  19  20
ENDBRANCH  18  19
ENDBRANCH  17  18
ENDBRANCH  16  17
ENDBRANCH  15  16
ENDBRANCH   1  15
TORSDOF 22
ENDMDL
MODEL 5
REMARK VINA RESULT:    -6.230      3.583     10.742
REMARK INTER + INTRA:         -16.636
REMARK INTER:                 -14.718
REMARK INTRA:                  -1.918
REMARK UNBOUND:                -2.394
REMARK SMILES CCCCCCCCCCCCCCCCCCCCCCCC(=O)[O-]
REMARK SMILES IDX 13 1 14 2 15 3 16 4 17 5 18 6 19 7 20 8 21 9 22 10 23 11
REMARK SMILES IDX 24 12 25 13 26 14 12 15 11 16 10 17 9 18 8 19 7 20 6 21 5 22
REMARK SMILES IDX 4 23 3 24 2 25 1 26
REMARK H PARENT
REMARK Flexibility Score: inf
ROOT
ATOM      1  C   UNL     1     -13.255 -11.024  -6.089  1.00  0.00     0.000 C 
ENDROOT
BRANCH   1   2
ATOM      2  C   UNL     1     -13.366 -10.051  -7.278  1.00  0.00     0.000 C 
BRANCH   2   3
ATOM      3  C   UNL     1     -14.374 -10.525  -8.334  1.00  0.00     0.000 C 
BRANCH   3   4
ATOM      4  C   UNL     1     -14.425 -12.058  -8.459  1.00  0.00     0.000 C 
BRANCH   4   5
ATOM      5  C   UNL     1     -15.404 -12.534  -9.550  1.00  0.00     0.000 C 
BRANCH   5   6
ATOM      6  C   UNL     1     -15.791 -11.460 -10.588  1.00  0.00     0.000 C 
BRANCH   6   7
ATOM      7  C   UNL     1     -17.284 -11.430 -10.975  1.00  0.00     0.000 C 
BRANCH   7   8
ATOM      8  C   UNL     1     -18.091 -10.287 -10.333  1.00  0.00     0.000 C 
BRANCH   8   9
ATOM      9  C   UNL     1     -17.219  -9.066  -9.993  1.00  0.00     0.000 C 
BRANCH   9  10
ATOM     10  C   UNL     1     -17.375  -8.619  -8.527  1.00  0.00     0.006 C 
BRANCH  10  11
ATOM     11  C   UNL     1     -18.106  -9.648  -7.647  1.00  0.00     0.053 C 
BRANCH  11  12
ATOM     12  C   UNL     1     -17.235 -10.152  -6.537  1.00  0.00     0.041 C 
ATOM     13  O   UNL     1     -17.207 -11.382  -6.265  1.00  0.00    -0.550 OA
ATOM     14  O   UNL     1     -16.464  -9.261  -5.798  1.00  0.00    -0.550 OA
ENDBRANCH  11  12
ENDBRANCH  10  11
ENDBRANCH   9  10
ENDBRANCH   8   9
ENDBRANCH   7   8
ENDBRANCH   6   7
ENDBRANCH   5   6
ENDBRANCH   4   5
ENDBRANCH   3   4
ENDBRANCH   2   3
ENDBRANCH   1   2
BRANCH   1  15
ATOM     15  C   UNL     1     -12.138 -10.642  -5.106  1.00  0.00     0.000 C 
BRANCH  15  16
ATOM     16  C   UNL     1     -11.709 -11.818  -4.213  1.00  0.00     0.000 C 
BRANCH  16  17
ATOM     17  C   UNL     1     -12.155 -11.643  -2.752  1.00  0.00     0.000 C 
BRANCH  17  18
ATOM     18  C   UNL     1     -11.106 -12.138  -1.744  1.00  0.00    -0.000 C 
BRANCH  18  19
ATOM     19  C   UNL     1     -11.012 -11.223  -0.506  1.00  0.00    -0.000 C 
BRANCH  19  20
ATOM     20  C   UNL     1      -9.668 -11.322   0.237  1.00  0.00    -0.000 C 
BRANCH  20  21
ATOM     21  C   UNL     1      -8.995 -12.703   0.164  1.00  0.00    -0.000 C 
BRANCH  21  22
ATOM     22  C   UNL     1      -7.784 -12.728  -0.788  1.00  0.00    -0.000 C 
BRANCH  22  23
ATOM     23  C   UNL     1      -7.309 -14.165  -1.088  1.00  0.00    -0.000 C 
BRANCH  23  24
ATOM     24  C   UNL     1      -8.363 -15.023  -1.816  1.00  0.00    -0.000 C 
BRANCH  24  25
ATOM     25  C   UNL     1      -7.797 -16.260  -2.530  1.00  0.00    -0.003 C 
ATOM     26  C   UNL     1      -7.992 -17.546  -1.729  1.00  0.00     0.004 C 
ENDBRANCH  24  25
ENDBRANCH  23  24
ENDBRANCH  22  23
ENDBRANCH  21  22
ENDBRANCH  20  21
ENDBRANCH  19  20
ENDBRANCH  18  19
ENDBRANCH  17  18
ENDBRANCH  16  17
ENDBRANCH  15  16
ENDBRANCH   1  15
TORSDOF 22
ENDMDL
MODEL 6
REMARK VINA RESULT:    -6.170      1.709      3.243
REMARK INTER + INTRA:         -16.498
REMARK INTER:                 -14.640
REMARK INTRA:                  -1.858
REMARK UNBOUND:                -2.394
REMARK SMILES CCCCCCCCCCCCCCCCCCCCCCCC(=O)[O-]
REMARK SMILES IDX 13 1 14 2 15 3 16 4 17 5 18 6 19 7 20 8 21 9 22 10 23 11
REMARK SMILES IDX 24 12 25 13 26 14 12 15 11 16 10 17 9 18 8 19 7 20 6 21 5 22
REMARK SMILES IDX 4 23 3 24 2 25 1 26
REMARK H PARENT
REMARK Flexibility Score: inf
ROOT
ATOM      1  C   UNL     1     -14.216 -11.379  -8.136  1.00  0.00     0.000 C 
ENDROOT
BRANCH   1   2
ATOM      2  C   UNL     1     -13.599 -11.371  -6.725  1.00  0.00     0.000 C 
BRANCH   2   3
ATOM      3  C   UNL     1     -12.698 -10.151  -6.484  1.00  0.00     0.000 C 
BRANCH   3   4
ATOM      4  C   UNL     1     -11.945 -10.225  -5.144  1.00  0.00     0.000 C 
BRANCH   4   5
ATOM      5  C   UNL     1     -11.882 -11.656  -4.576  1.00  0.00     0.000 C 
BRANCH   5   6
ATOM      6  C   UNL     1     -12.093 -11.759  -3.050  1.00  0.00     0.000 C 
BRANCH   6   7
ATOM      7  C   UNL     1     -10.967 -12.480  -2.281  1.00  0.00     0.000 C 
BRANCH   7   8
ATOM      8  C   UNL     1     -10.834 -12.068  -0.803  1.00  0.00     0.000 C 
BRANCH   8   9
ATOM      9  C   UNL     1      -9.778 -12.895  -0.051  1.00  0.00     0.000 C 
BRANCH   9  10
ATOM     10  C   UNL     1      -8.711 -13.487  -0.993  1.00  0.00     0.006 C 
BRANCH  10  11
ATOM     11  C   UNL     1      -7.288 -12.987  -0.697  1.00  0.00     0.053 C 
BRANCH  11  12
ATOM     12  C   UNL     1      -6.291 -14.107  -0.697  1.00  0.00     0.041 C 
ATOM     13  O   UNL     1      -6.508 -15.144  -1.378  1.00  0.00    -0.550 OA
ATOM     14  O   UNL     1      -5.130 -14.006   0.062  1.00  0.00    -0.550 OA
ENDBRANCH  11  12
ENDBRANCH  10  11
ENDBRANCH   9  10
ENDBRANCH   8   9
ENDBRANCH   7   8
ENDBRANCH   6   7
ENDBRANCH   5   6
ENDBRANCH   4   5
ENDBRANCH   3   4
ENDBRANCH   2   3
ENDBRANCH   1   2
BRANCH   1  15
ATOM     15  C   UNL     1     -15.721 -11.691  -8.129  1.00  0.00     0.000 C 
BRANCH  15  16
ATOM     16  C   UNL     1     -16.327 -11.645  -6.716  1.00  0.00     0.000 C 
BRANCH  16  17
ATOM     17  C   UNL     1     -17.277 -10.452  -6.521  1.00  0.00     0.000 C 
BRANCH  17  18
ATOM     18  C   UNL     1     -16.536  -9.148  -6.185  1.00  0.00    -0.000 C 
BRANCH  18  19
ATOM     19  C   UNL     1     -16.087  -8.392  -7.452  1.00  0.00    -0.000 C 
BRANCH  19  20
ATOM     20  C   UNL     1     -17.186  -8.270  -8.523  1.00  0.00    -0.000 C 
BRANCH  20  21
ATOM     21  C   UNL     1     -16.777  -8.762  -9.921  1.00  0.00    -0.000 C 
BRANCH  21  22
ATOM     22  C   UNL     1     -17.913  -9.508 -10.647  1.00  0.00    -0.000 C 
BRANCH  22  23
ATOM     23  C   UNL     1     -17.697 -11.037 -10.649  1.00  0.00    -0.000 C 
BRANCH  23  24
ATOM     24  C   UNL     1     -18.582 -11.782 -11.667  1.00  0.00    -0.000 C 
BRANCH  24  25
ATOM     25  C   UNL     1     -19.886 -11.054 -12.032  1.00  0.00    -0.003 C 
ATOM     26  C   UNL     1     -20.459 -11.506 -13.374  1.00  0.00     0.004 C 
ENDBRANCH  24  25
ENDBRANCH  23  24
ENDBRANCH  22  23
ENDBRANCH  21  22
ENDBRANCH  20  21
ENDBRANCH  19  20
ENDBRANCH  18  19
ENDBRANCH  17  18
ENDBRANCH  16  17
ENDBRANCH  15  16
ENDBRANCH   1  15
TORSDOF 22
ENDMDL
MODEL 7
REMARK VINA RESULT:    -6.164      4.736     11.035
REMARK INTER + INTRA:         -16.486
REMARK INTER:                 -14.341
REMARK INTRA:                  -2.144
REMARK UNBOUND:                -2.394
REMARK SMILES CCCCCCCCCCCCCCCCCCCCCCCC(=O)[O-]
REMARK SMILES IDX 13 1 14 2 15 3 16 4 17 5 18 6 19 7 20 8 21 9 22 10 23 11
REMARK SMILES IDX 24 12 25 13 26 14 12 15 11 16 10 17 9 18 8 19 7 20 6 21 5 22
REMARK SMILES IDX 4 23 3 24 2 25 1 26
REMARK H PARENT
REMARK Flexibility Score: inf
ROOT
ATOM      1  C   UNL     1     -12.459 -10.419  -5.983  1.00  0.00     0.000 C 
ENDROOT
BRANCH   1   2
ATOM      2  C   UNL     1     -13.837 -10.109  -6.596  1.00  0.00     0.000 C 
BRANCH   2   3
ATOM      3  C   UNL     1     -14.117 -10.931  -7.862  1.00  0.00     0.000 C 
BRANCH   3   4
ATOM      4  C   UNL     1     -15.474 -11.657  -7.810  1.00  0.00     0.000 C 
BRANCH   4   5
ATOM      5  C   UNL     1     -16.262 -11.352  -6.521  1.00  0.00     0.000 C 
BRANCH   5   6
ATOM      6  C   UNL     1     -17.429 -10.357  -6.694  1.00  0.00     0.000 C 
BRANCH   6   7
ATOM      7  C   UNL     1     -17.016  -8.873  -6.784  1.00  0.00     0.000 C 
BRANCH   7   8
ATOM      8  C   UNL     1     -17.225  -8.231  -8.167  1.00  0.00     0.000 C 
BRANCH   8   9
ATOM      9  C   UNL     1     -18.115  -9.085  -9.087  1.00  0.00     0.000 C 
BRANCH   9  10
ATOM     10  C   UNL     1     -17.369  -9.571 -10.345  1.00  0.00     0.006 C 
BRANCH  10  11
ATOM     11  C   UNL     1     -17.723 -11.013 -10.746  1.00  0.00     0.053 C 
BRANCH  11  12
ATOM     12  C   UNL     1     -18.943 -11.068 -11.615  1.00  0.00     0.041 C 
ATOM     13  O   UNL     1     -19.346 -10.028 -12.202  1.00  0.00    -0.550 OA
ATOM     14  O   UNL     1     -19.637 -12.263 -11.766  1.00  0.00    -0.550 OA
ENDBRANCH  11  12
ENDBRANCH  10  11
ENDBRANCH   9  10
ENDBRANCH   8   9
ENDBRANCH   7   8
ENDBRANCH   6   7
ENDBRANCH   5   6
ENDBRANCH   4   5
ENDBRANCH   3   4
ENDBRANCH   2   3
ENDBRANCH   1   2
BRANCH   1  15
ATOM     15  C   UNL     1     -12.554 -11.051  -4.586  1.00  0.00     0.000 C 
BRANCH  15  16
ATOM     16  C   UNL     1     -11.315 -11.890  -4.231  1.00  0.00     0.000 C 
BRANCH  16  17
ATOM     17  C   UNL     1     -11.394 -12.491  -2.818  1.00  0.00     0.000 C 
BRANCH  17  18
ATOM     18  C   UNL     1     -12.033 -11.535  -1.798  1.00  0.00    -0.000 C 
BRANCH  18  19
ATOM     19  C   UNL     1     -11.066 -11.183  -0.648  1.00  0.00    -0.000 C 
BRANCH  19  20
ATOM     20  C   UNL     1     -10.239 -12.380  -0.147  1.00  0.00    -0.000 C 
BRANCH  20  21
ATOM     21  C   UNL     1      -8.715 -12.174  -0.196  1.00  0.00    -0.000 C 
BRANCH  21  22
ATOM     22  C   UNL     1      -8.023 -13.084  -1.227  1.00  0.00    -0.000 C 
BRANCH  22  23
ATOM     23  C   UNL     1      -8.420 -14.566  -1.056  1.00  0.00    -0.000 C 
BRANCH  23  24
ATOM     24  C   UNL     1      -8.434 -15.356  -2.379  1.00  0.00    -0.000 C 
BRANCH  24  25
ATOM     25  C   UNL     1      -7.531 -16.599  -2.391  1.00  0.00    -0.003 C 
ATOM     26  C   UNL     1      -8.055 -17.719  -1.494  1.00  0.00     0.004 C 
ENDBRANCH  24  25
ENDBRANCH  23  24
ENDBRANCH  22  23
ENDBRANCH  21  22
ENDBRANCH  20  21
ENDBRANCH  19  20
ENDBRANCH  18  19
ENDBRANCH  17  18
ENDBRANCH  16  17
ENDBRANCH  15  16
ENDBRANCH   1  15
TORSDOF 22
ENDMDL
MODEL 8
REMARK VINA RESULT:    -6.082      4.226     10.902
REMARK INTER + INTRA:         -16.299
REMARK INTER:                 -14.345
REMARK INTRA:                  -1.954
REMARK UNBOUND:                -2.394
REMARK SMILES CCCCCCCCCCCCCCCCCCCCCCCC(=O)[O-]
REMARK SMILES IDX 13 1 14 2 15 3 16 4 17 5 18 6 19 7 20 8 21 9 22 10 23 11
REMARK SMILES IDX 24 12 25 13 26 14 12 15 11 16 10 17 9 18 8 19 7 20 6 21 5 22
REMARK SMILES IDX 4 23 3 24 2 25 1 26
REMARK H PARENT
REMARK Flexibility Score: inf
ROOT
ATOM      1  C   UNL     1     -12.585 -10.949  -4.971  1.00  0.00     0.000 C 
ENDROOT
BRANCH   1   2
ATOM      2  C   UNL     1     -12.263 -10.005  -6.144  1.00  0.00     0.000 C 
BRANCH   2   3
ATOM      3  C   UNL     1     -13.356 -10.009  -7.221  1.00  0.00     0.000 C 
BRANCH   3   4
ATOM      4  C   UNL     1     -14.771 -10.143  -6.630  1.00  0.00     0.000 C 
BRANCH   4   5
ATOM      5  C   UNL     1     -15.544 -11.347  -7.202  1.00  0.00     0.000 C 
BRANCH   5   6
ATOM      6  C   UNL     1     -14.676 -12.376  -7.957  1.00  0.00     0.000 C 
BRANCH   6   7
ATOM      7  C   UNL     1     -15.081 -12.622  -9.425  1.00  0.00     0.000 C 
BRANCH   7   8
ATOM      8  C   UNL     1     -15.573 -11.370 -10.173  1.00  0.00     0.000 C 
BRANCH   8   9
ATOM      9  C   UNL     1     -16.886 -11.614 -10.936  1.00  0.00     0.000 C 
BRANCH   9  10
ATOM     10  C   UNL     1     -17.961 -10.558 -10.615  1.00  0.00     0.006 C 
BRANCH  10  11
ATOM     11  C   UNL     1     -17.378  -9.218 -10.134  1.00  0.00     0.053 C 
BRANCH  11  12
ATOM     12  C   UNL     1     -17.715  -8.945  -8.700  1.00  0.00     0.041 C 
ATOM     13  O   UNL     1     -17.227  -7.940  -8.117  1.00  0.00    -0.550 OA
ATOM     14  O   UNL     1     -18.558  -9.807  -8.006  1.00  0.00    -0.550 OA
ENDBRANCH  11  12
ENDBRANCH  10  11
ENDBRANCH   9  10
ENDBRANCH   8   9
ENDBRANCH   7   8
ENDBRANCH   6   7
ENDBRANCH   5   6
ENDBRANCH   4   5
ENDBRANCH   3   4
ENDBRANCH   2   3
ENDBRANCH   1   2
BRANCH   1  15
ATOM     15  C   UNL     1     -11.360 -11.738  -4.483  1.00  0.00     0.000 C 
BRANCH  15  16
ATOM     16  C   UNL     1     -11.592 -12.404  -3.117  1.00  0.00     0.000 C 
BRANCH  16  17
ATOM     17  C   UNL     1     -12.211 -11.443  -2.089  1.00  0.00     0.000 C 
BRANCH  17  18
ATOM     18  C   UNL     1     -11.326 -11.246  -0.848  1.00  0.00    -0.000 C 
BRANCH  18  19
ATOM     19  C   UNL     1     -10.606 -12.547  -0.436  1.00  0.00    -0.000 C 
BRANCH  19  20
ATOM     20  C   UNL     1      -9.198 -12.318   0.144  1.00  0.00    -0.000 C 
BRANCH  20  21
ATOM     21  C   UNL     1      -8.053 -12.907  -0.698  1.00  0.00    -0.000 C 
BRANCH  21  22
ATOM     22  C   UNL     1      -8.440 -14.226  -1.391  1.00  0.00    -0.000 C 
BRANCH  22  23
ATOM     23  C   UNL     1      -7.281 -15.247  -1.389  1.00  0.00    -0.000 C 
BRANCH  23  24
ATOM     24  C   UNL     1      -7.424 -16.342  -2.464  1.00  0.00    -0.000 C 
BRANCH  24  25
ATOM     25  C   UNL     1      -7.935 -17.692  -1.936  1.00  0.00    -0.003 C 
ATOM     26  C   UNL     1      -8.099 -17.710  -0.418  1.00  0.00     0.004 C 
ENDBRANCH  24  25
ENDBRANCH  23  24
ENDBRANCH  22  23
ENDBRANCH  21  22
ENDBRANCH  20  21
ENDBRANCH  19  20
ENDBRANCH  18  19
ENDBRANCH  17  18
ENDBRANCH  16  17
ENDBRANCH  15  16
ENDBRANCH   1  15
TORSDOF 22
ENDMDL
MODEL 9
REMARK VINA RESULT:    -6.014      3.126     10.565
REMARK INTER + INTRA:         -16.143
REMARK INTER:                 -14.631
REMARK INTRA:                  -1.512
REMARK UNBOUND:                -2.394
REMARK SMILES CCCCCCCCCCCCCCCCCCCCCCCC(=O)[O-]
REMARK SMILES IDX 13 1 14 2 15 3 16 4 17 5 18 6 19 7 20 8 21 9 22 10 23 11
REMARK SMILES IDX 24 12 25 13 26 14 12 15 11 16 10 17 9 18 8 19 7 20 6 21 5 22
REMARK SMILES IDX 4 23 3 24 2 25 1 26
REMARK H PARENT
REMARK Flexibility Score: inf
ROOT
ATOM      1  C   UNL     1     -12.653 -11.224  -5.375  1.00  0.00     0.000 C 
ENDROOT
BRANCH   1   2
ATOM      2  C   UNL     1     -12.244  -9.962  -6.157  1.00  0.00     0.000 C 
BRANCH   2   3
ATOM      3  C   UNL     1     -13.304  -9.536  -7.182  1.00  0.00     0.000 C 
BRANCH   3   4
ATOM      4  C   UNL     1     -14.694  -9.338  -6.551  1.00  0.00     0.000 C 
BRANCH   4   5
ATOM      5  C   UNL     1     -15.587  -8.382  -7.366  1.00  0.00     0.000 C 
BRANCH   5   6
ATOM      6  C   UNL     1     -17.089  -8.738  -7.366  1.00  0.00     0.000 C 
BRANCH   6   7
ATOM      7  C   UNL     1     -17.766  -8.721  -8.752  1.00  0.00     0.000 C 
BRANCH   7   8
ATOM      8  C   UNL     1     -16.898  -9.275  -9.897  1.00  0.00     0.000 C 
BRANCH   8   9
ATOM      9  C   UNL     1     -17.442 -10.597 -10.465  1.00  0.00     0.000 C 
BRANCH   9  10
ATOM     10  C   UNL     1     -16.326 -11.623 -10.744  1.00  0.00     0.006 C 
BRANCH  10  11
ATOM     11  C   UNL     1     -15.109 -11.471  -9.816  1.00  0.00     0.053 C 
BRANCH  11  12
ATOM     12  C   UNL     1     -15.063 -12.549  -8.775  1.00  0.00     0.041 C 
ATOM     13  O   UNL     1     -15.389 -12.291  -7.586  1.00  0.00    -0.550 OA
ATOM     14  O   UNL     1     -14.649 -13.831  -9.119  1.00  0.00    -0.550 OA
ENDBRANCH  11  12
ENDBRANCH  10  11
ENDBRANCH   9  10
ENDBRANCH   8   9
ENDBRANCH   7   8
ENDBRANCH   6   7
ENDBRANCH   5   6
ENDBRANCH   4   5
ENDBRANCH   3   4
ENDBRANCH   2   3
ENDBRANCH   1   2
BRANCH   1  15
ATOM     15  C   UNL     1     -11.555 -11.717  -4.419  1.00  0.00     0.000 C 
BRANCH  15  16
ATOM     16  C   UNL     1     -11.996 -11.687  -2.946  1.00  0.00     0.000 C 
BRANCH  16  17
ATOM     17  C   UNL     1     -11.019 -12.432  -2.023  1.00  0.00     0.000 C 
BRANCH  17  18
ATOM     18  C   UNL     1     -10.966 -11.839  -0.606  1.00  0.00    -0.000 C 
BRANCH  18  19
ATOM     19  C   UNL     1      -9.860 -12.485   0.254  1.00  0.00    -0.000 C 
BRANCH  19  20
ATOM     20  C   UNL     1      -8.434 -12.171  -0.234  1.00  0.00    -0.000 C 
BRANCH  20  21
ATOM     21  C   UNL     1      -7.891 -13.142  -1.296  1.00  0.00    -0.000 C 
BRANCH  21  22
ATOM     22  C   UNL     1      -6.564 -13.802  -0.878  1.00  0.00    -0.000 C 
BRANCH  22  23
ATOM     23  C   UNL     1      -6.582 -15.331  -1.088  1.00  0.00    -0.000 C 
BRANCH  23  24
ATOM     24  C   UNL     1      -8.002 -15.919  -1.205  1.00  0.00    -0.000 C 
BRANCH  24  25
ATOM     25  C   UNL     1      -8.084 -17.243  -1.981  1.00  0.00    -0.003 C 
ATOM     26  C   UNL     1      -6.985 -17.380  -3.034  1.00  0.00     0.004 C 
ENDBRANCH  24  25
ENDBRANCH  23  24
ENDBRANCH  22  23
ENDBRANCH  21  22
ENDBRANCH  20  21
ENDBRANCH  19  20
ENDBRANCH  18  19
ENDBRANCH  17  18
ENDBRANCH  16  17
ENDBRANCH  15  16
ENDBRANCH   1  15
TORSDOF 22
ENDMDL
