MODEL 1
REMARK VINA RESULT:    -5.134      0.000      0.000
REMARK INTER + INTRA:          -5.285
REMARK INTER:                  -5.285
REMARK INTRA:                   0.000
REMARK UNBOUND:                 0.000
REMARK SMILES Cc1ccccc1O
REMARK SMILES IDX 1 1 2 2 3 3 4 4 5 5 6 6 7 7 8 8
REMARK H PARENT 8 9
REMARK Flexibility Score: inf
ROOT
ATOM      1  C   UNL     1     -14.308   0.204 -10.013  1.00  0.00     0.048 C 
ATOM      2  C   UNL     1     -13.793   1.515  -9.491  1.00  0.00    -0.009 A 
ATOM      3  C   UNL     1     -14.689   2.531  -9.119  1.00  0.00     0.007 A 
ATOM      4  C   UNL     1     -14.211   3.751  -8.633  1.00  0.00     0.001 A 
ATOM      5  C   UNL     1     -12.836   3.968  -8.516  1.00  0.00     0.004 A 
ATOM      6  C   UNL     1     -11.936   2.965  -8.884  1.00  0.00     0.046 A 
ATOM      7  C   UNL     1     -12.407   1.737  -9.372  1.00  0.00     0.118 A 
ENDROOT
BRANCH   7   8
ATOM      8  O   UNL     1     -11.505   0.738  -9.738  1.00  0.00    -0.508 OA
ATOM      9  H   UNL     1     -11.340  -0.071  -9.150  1.00  0.00     0.293 HD
ENDBRANCH   7   8
TORSDOF 1
ENDMDL
MODEL 2
REMARK VINA RESULT:    -5.127      1.479      2.877
REMARK INTER + INTRA:          -5.277
REMARK INTER:                  -5.277
REMARK INTRA:                   0.000
REMARK UNBOUND:                 0.000
REMARK SMILES Cc1ccccc1O
REMARK SMILES IDX 1 1 2 2 3 3 4 4 5 5 6 6 7 7 8 8
REMARK H PARENT 8 9
REMARK Flexibility Score: inf
ROOT
ATOM      1  C   UNL     1     -11.066  -0.709 -10.135  1.00  0.00     0.048 C 
ATOM      2  C   UNL     1     -12.393  -0.015 -10.015  1.00  0.00    -0.009 A 
ATOM      3  C   UNL     1     -13.561  -0.631 -10.494  1.00  0.00     0.007 A 
ATOM      4  C   UNL     1     -14.796   0.014 -10.383  1.00  0.00     0.001 A 
ATOM      5  C   UNL     1     -14.875   1.278  -9.794  1.00  0.00     0.004 A 
ATOM      6  C   UNL     1     -13.720   1.900  -9.315  1.00  0.00     0.046 A 
ATOM      7  C   UNL     1     -12.476   1.260  -9.422  1.00  0.00     0.118 A 
ENDROOT
BRANCH   7   8
ATOM      8  O   UNL     1     -11.325   1.884  -8.943  1.00  0.00    -0.508 OA
ATOM      9  H   UNL     1     -10.947   1.671  -8.027  1.00  0.00     0.293 HD
ENDBRANCH   7   8
TORSDOF 1
ENDMDL
MODEL 3
REMARK VINA RESULT:    -5.101      1.870      3.451
REMARK INTER + INTRA:          -5.250
REMARK INTER:                  -5.250
REMARK INTRA:                   0.000
REMARK UNBOUND:                 0.000
REMARK SMILES Cc1ccccc1O
REMARK SMILES IDX 1 1 2 2 3 3 4 4 5 5 6 6 7 7 8 8
REMARK H PARENT 8 9
REMARK Flexibility Score: inf
ROOT
ATOM      1  C   UNL     1     -11.616   3.500  -8.626  1.00  0.00     0.048 C 
ATOM      2  C   UNL     1     -12.742   2.597  -9.042  1.00  0.00    -0.009 A 
ATOM      3  C   UNL     1     -12.472   1.341  -9.610  1.00  0.00     0.007 A 
ATOM      4  C   UNL     1     -13.520   0.500  -9.997  1.00  0.00     0.001 A 
ATOM      5  C   UNL     1     -14.844   0.907  -9.822  1.00  0.00     0.004 A 
ATOM      6  C   UNL     1     -15.125   2.155  -9.260  1.00  0.00     0.046 A 
ATOM      7  C   UNL     1     -14.079   3.004  -8.868  1.00  0.00     0.118 A 
ENDROOT
BRANCH   7   8
ATOM      8  O   UNL     1     -14.363   4.249  -8.307  1.00  0.00    -0.508 OA
ATOM      9  H   UNL     1     -15.005   4.897  -8.750  1.00  0.00     0.293 HD
ENDBRANCH   7   8
TORSDOF 1
ENDMDL
MODEL 4
REMARK VINA RESULT:    -4.946      1.097      2.761
REMARK INTER + INTRA:          -5.090
REMARK INTER:                  -5.090
REMARK INTRA:                   0.000
REMARK UNBOUND:                 0.000
REMARK SMILES Cc1ccccc1O
REMARK SMILES IDX 1 1 2 2 3 3 4 4 5 5 6 6 7 7 8 8
REMARK H PARENT 8 9
REMARK Flexibility Score: inf
ROOT
ATOM      1  C   UNL     1     -13.916   3.929  -8.576  1.00  0.00     0.048 C 
ATOM      2  C   UNL     1     -13.761   2.543  -9.133  1.00  0.00    -0.009 A 
ATOM      3  C   UNL     1     -14.886   1.824  -9.569  1.00  0.00     0.007 A 
ATOM      4  C   UNL     1     -14.742   0.534 -10.088  1.00  0.00     0.001 A 
ATOM      5  C   UNL     1     -13.476  -0.049 -10.174  1.00  0.00     0.004 A 
ATOM      6  C   UNL     1     -12.351   0.657  -9.742  1.00  0.00     0.046 A 
ATOM      7  C   UNL     1     -12.486   1.952  -9.220  1.00  0.00     0.118 A 
ENDROOT
BRANCH   7   8
ATOM      8  O   UNL     1     -11.359   2.653  -8.790  1.00  0.00    -0.508 OA
ATOM      9  H   UNL     1     -11.393   3.649  -8.602  1.00  0.00     0.293 HD
ENDBRANCH   7   8
TORSDOF 1
ENDMDL
MODEL 5
REMARK VINA RESULT:    -4.753     16.259     16.995
REMARK INTER + INTRA:          -4.892
REMARK INTER:                  -4.892
REMARK INTRA:                   0.000
REMARK UNBOUND:                 0.000
REMARK SMILES Cc1ccccc1O
REMARK SMILES IDX 1 1 2 2 3 3 4 4 5 5 6 6 7 7 8 8
REMARK H PARENT 8 9
REMARK Flexibility Score: inf
ROOT
ATOM      1  C   UNL     1     -11.465   3.146   9.123  1.00  0.00     0.048 C 
ATOM      2  C   UNL     1     -11.116   3.870   7.853  1.00  0.00    -0.009 A 
ATOM      3  C   UNL     1     -11.649   3.444   6.625  1.00  0.00     0.007 A 
ATOM      4  C   UNL     1     -11.325   4.118   5.444  1.00  0.00     0.001 A 
ATOM      5  C   UNL     1     -10.467   5.219   5.478  1.00  0.00     0.004 A 
ATOM      6  C   UNL     1      -9.931   5.650   6.694  1.00  0.00     0.046 A 
ATOM      7  C   UNL     1     -10.251   4.981   7.885  1.00  0.00     0.118 A 
ENDROOT
BRANCH   7   8
ATOM      8  O   UNL     1      -9.714   5.415   9.096  1.00  0.00    -0.508 OA
ATOM      9  H   UNL     1     -10.128   6.179   9.618  1.00  0.00     0.293 HD
ENDBRANCH   7   8
TORSDOF 1
ENDMDL
MODEL 6
REMARK VINA RESULT:    -4.712      0.884      2.685
REMARK INTER + INTRA:          -4.850
REMARK INTER:                  -4.850
REMARK INTRA:                   0.000
REMARK UNBOUND:                 0.000
REMARK SMILES Cc1ccccc1O
REMARK SMILES IDX 1 1 2 2 3 3 4 4 5 5 6 6 7 7 8 8
REMARK H PARENT 8 9
REMARK Flexibility Score: inf
ROOT
ATOM      1  C   UNL     1     -11.741   3.181  -8.844  1.00  0.00     0.048 C 
ATOM      2  C   UNL     1     -12.791   2.187  -9.251  1.00  0.00    -0.009 A 
ATOM      3  C   UNL     1     -14.147   2.552  -9.260  1.00  0.00     0.007 A 
ATOM      4  C   UNL     1     -15.125   1.627  -9.639  1.00  0.00     0.001 A 
ATOM      5  C   UNL     1     -14.757   0.332 -10.011  1.00  0.00     0.004 A 
ATOM      6  C   UNL     1     -13.411  -0.041 -10.006  1.00  0.00     0.046 A 
ATOM      7  C   UNL     1     -12.423   0.881  -9.627  1.00  0.00     0.118 A 
ENDROOT
BRANCH   7   8
ATOM      8  O   UNL     1     -11.080   0.503  -9.623  1.00  0.00    -0.508 OA
ATOM      9  H   UNL     1     -10.349   1.146  -9.342  1.00  0.00     0.293 HD
ENDBRANCH   7   8
TORSDOF 1
ENDMDL
MODEL 7
REMARK VINA RESULT:    -4.591     16.140     17.004
REMARK INTER + INTRA:          -4.725
REMARK INTER:                  -4.725
REMARK INTRA:                   0.000
REMARK UNBOUND:                 0.000
REMARK SMILES Cc1ccccc1O
REMARK SMILES IDX 1 1 2 2 3 3 4 4 5 5 6 6 7 7 8 8
REMARK H PARENT 8 9
REMARK Flexibility Score: inf
ROOT
ATOM      1  C   UNL     1      -9.449   6.596   6.232  1.00  0.00     0.048 C 
ATOM      2  C   UNL     1     -10.249   5.383   6.615  1.00  0.00    -0.009 A 
ATOM      3  C   UNL     1     -10.979   4.679   5.643  1.00  0.00     0.007 A 
ATOM      4  C   UNL     1     -11.723   3.551   5.999  1.00  0.00     0.001 A 
ATOM      5  C   UNL     1     -11.745   3.117   7.327  1.00  0.00     0.004 A 
ATOM      6  C   UNL     1     -11.023   3.810   8.301  1.00  0.00     0.046 A 
ATOM      7  C   UNL     1     -10.273   4.944   7.953  1.00  0.00     0.118 A 
ENDROOT
BRANCH   7   8
ATOM      8  O   UNL     1      -9.554   5.633   8.929  1.00  0.00    -0.508 OA
ATOM      9  H   UNL     1      -9.997   6.317   9.531  1.00  0.00     0.293 HD
ENDBRANCH   7   8
TORSDOF 1
ENDMDL
MODEL 8
REMARK VINA RESULT:    -4.542     16.151     16.977
REMARK INTER + INTRA:          -4.675
REMARK INTER:                  -4.675
REMARK INTRA:                   0.000
REMARK UNBOUND:                 0.000
REMARK SMILES Cc1ccccc1O
REMARK SMILES IDX 1 1 2 2 3 3 4 4 5 5 6 6 7 7 8 8
REMARK H PARENT 8 9
REMARK Flexibility Score: inf
ROOT
ATOM      1  C   UNL     1      -9.818   5.447   5.461  1.00  0.00     0.048 C 
ATOM      2  C   UNL     1     -10.389   4.832   6.706  1.00  0.00    -0.009 A 
ATOM      3  C   UNL     1     -10.106   5.386   7.966  1.00  0.00     0.007 A 
ATOM      4  C   UNL     1     -10.638   4.814   9.125  1.00  0.00     0.001 A 
ATOM      5  C   UNL     1     -11.455   3.685   9.037  1.00  0.00     0.004 A 
ATOM      6  C   UNL     1     -11.743   3.125   7.790  1.00  0.00     0.046 A 
ATOM      7  C   UNL     1     -11.214   3.693   6.621  1.00  0.00     0.118 A 
ENDROOT
BRANCH   7   8
ATOM      8  O   UNL     1     -11.504   3.131   5.378  1.00  0.00    -0.508 OA
ATOM      9  H   UNL     1     -11.872   2.190   5.293  1.00  0.00     0.293 HD
ENDBRANCH   7   8
TORSDOF 1
ENDMDL
MODEL 9
REMARK VINA RESULT:    -4.449      6.882      7.674
REMARK INTER + INTRA:          -4.579
REMARK INTER:                  -4.579
REMARK INTRA:                   0.000
REMARK UNBOUND:                 0.000
REMARK SMILES Cc1ccccc1O
REMARK SMILES IDX 1 1 2 2 3 3 4 4 5 5 6 6 7 7 8 8
REMARK H PARENT 8 9
REMARK Flexibility Score: inf
ROOT
ATOM      1  C   UNL     1      -9.570  -3.215 -10.163  1.00  0.00     0.048 C 
ATOM      2  C   UNL     1     -10.178  -4.030  -9.057  1.00  0.00    -0.009 A 
ATOM      3  C   UNL     1     -11.241  -4.908  -9.326  1.00  0.00     0.007 A 
ATOM      4  C   UNL     1     -11.807  -5.667  -8.297  1.00  0.00     0.001 A 
ATOM      5  C   UNL     1     -11.318  -5.555  -6.994  1.00  0.00     0.004 A 
ATOM      6  C   UNL     1     -10.262  -4.684  -6.716  1.00  0.00     0.046 A 
ATOM      7  C   UNL     1      -9.687  -3.919  -7.742  1.00  0.00     0.118 A 
ENDROOT
BRANCH   7   8
ATOM      8  O   UNL     1      -8.633  -3.051  -7.460  1.00  0.00    -0.508 OA
ATOM      9  H   UNL     1      -8.006  -2.723  -8.186  1.00  0.00     0.293 HD
ENDBRANCH   7   8
TORSDOF 1
ENDMDL
