MODEL 1
REMARK VINA RESULT:    -4.070      0.000      0.000
REMARK INTER + INTRA:          -7.629
REMARK INTER:                  -6.450
REMARK INTRA:                  -1.179
REMARK UNBOUND:                -1.179
REMARK SMILES CCCCCCCCCCCC(=O)[O-]
REMARK SMILES IDX 7 1 8 2 9 3 10 4 11 5 12 6 13 7 14 8 6 9 5 10 4 11 3 12 2 13
REMARK SMILES IDX 1 14
REMARK H PARENT
REMARK Flexibility Score: inf
ROOT
ATOM      1  C   UNL     1     -22.386 -12.888 -19.680  1.00  0.00     0.000 C 
ENDROOT
BRANCH   1   2
ATOM      2  C   UNL     1     -22.796 -12.295 -18.318  1.00  0.00     0.000 C 
BRANCH   2   3
ATOM      3  C   UNL     1     -22.785 -13.336 -17.185  1.00  0.00     0.000 C 
BRANCH   3   4
ATOM      4  C   UNL     1     -22.953 -12.692 -15.794  1.00  0.00     0.006 C 
BRANCH   4   5
ATOM      5  C   UNL     1     -23.413 -13.681 -14.711  1.00  0.00     0.053 C 
BRANCH   5   6
ATOM      6  C   UNL     1     -24.648 -13.217 -14.005  1.00  0.00     0.041 C 
ATOM      7  O   UNL     1     -25.681 -13.938 -13.995  1.00  0.00    -0.550 OA
ATOM      8  O   UNL     1     -24.668 -11.977 -13.381  1.00  0.00    -0.550 OA
ENDBRANCH   5   6
ENDBRANCH   4   5
ENDBRANCH   3   4
ENDBRANCH   2   3
ENDBRANCH   1   2
BRANCH   1   9
ATOM      9  C   UNL     1     -21.277 -12.115 -20.415  1.00  0.00     0.000 C 
BRANCH   9  10
ATOM     10  C   UNL     1     -20.002 -11.950 -19.569  1.00  0.00    -0.000 C 
BRANCH  10  11
ATOM     11  C   UNL     1     -19.263 -13.278 -19.348  1.00  0.00    -0.000 C 
BRANCH  11  12
ATOM     12  C   UNL     1     -19.055 -13.595 -17.859  1.00  0.00    -0.000 C 
BRANCH  12  13
ATOM     13  C   UNL     1     -19.511 -15.023 -17.534  1.00  0.00    -0.003 C 
ATOM     14  C   UNL     1     -20.106 -15.705 -18.762  1.00  0.00     0.004 C 
ENDBRANCH  12  13
ENDBRANCH  11  12
ENDBRANCH  10  11
ENDBRANCH   9  10
ENDBRANCH   1   9
TORSDOF 10
ENDMDL
MODEL 2
REMARK VINA RESULT:    -3.983      3.000      5.358
REMARK INTER + INTRA:          -7.491
REMARK INTER:                  -6.407
REMARK INTRA:                  -1.084
REMARK UNBOUND:                -1.179
REMARK SMILES CCCCCCCCCCCC(=O)[O-]
REMARK SMILES IDX 7 1 8 2 9 3 10 4 11 5 12 6 13 7 14 8 6 9 5 10 4 11 3 12 2 13
REMARK SMILES IDX 1 14
REMARK H PARENT
REMARK Flexibility Score: inf
ROOT
ATOM      1  C   UNL     1     -22.694 -13.027 -19.540  1.00  0.00     0.000 C 
ENDROOT
BRANCH   1   2
ATOM      2  C   UNL     1     -21.480 -12.388 -20.240  1.00  0.00     0.000 C 
BRANCH   2   3
ATOM      3  C   UNL     1     -20.363 -11.992 -19.259  1.00  0.00     0.000 C 
BRANCH   3   4
ATOM      4  C   UNL     1     -19.233 -13.040 -19.200  1.00  0.00     0.006 C 
BRANCH   4   5
ATOM      5  C   UNL     1     -19.142 -13.768 -17.850  1.00  0.00     0.053 C 
BRANCH   5   6
ATOM      6  C   UNL     1     -19.384 -15.239 -17.980  1.00  0.00     0.041 C 
ATOM      7  O   UNL     1     -20.356 -15.664 -18.658  1.00  0.00    -0.550 OA
ATOM      8  O   UNL     1     -18.551 -16.141 -17.332  1.00  0.00    -0.550 OA
ENDBRANCH   5   6
ENDBRANCH   4   5
ENDBRANCH   3   4
ENDBRANCH   2   3
ENDBRANCH   1   2
BRANCH   1   9
ATOM      9  C   UNL     1     -22.863 -12.644 -18.059  1.00  0.00     0.000 C 
BRANCH   9  10
ATOM     10  C   UNL     1     -22.846 -13.863 -17.120  1.00  0.00    -0.000 C 
BRANCH  10  11
ATOM     11  C   UNL     1     -22.208 -13.551 -15.758  1.00  0.00    -0.000 C 
BRANCH  11  12
ATOM     12  C   UNL     1     -23.254 -13.335 -14.653  1.00  0.00    -0.000 C 
BRANCH  12  13
ATOM     13  C   UNL     1     -24.027 -14.629 -14.371  1.00  0.00    -0.003 C 
ATOM     14  C   UNL     1     -25.478 -14.335 -14.002  1.00  0.00     0.004 C 
ENDBRANCH  12  13
ENDBRANCH  11  12
ENDBRANCH  10  11
ENDBRANCH   9  10
ENDBRANCH   1   9
TORSDOF 10
ENDMDL
MODEL 3
REMARK VINA RESULT:    -3.976      1.251      1.732
REMARK INTER + INTRA:          -7.480
REMARK INTER:                  -6.317
REMARK INTRA:                  -1.163
REMARK UNBOUND:                -1.179
REMARK SMILES CCCCCCCCCCCC(=O)[O-]
REMARK SMILES IDX 7 1 8 2 9 3 10 4 11 5 12 6 13 7 14 8 6 9 5 10 4 11 3 12 2 13
REMARK SMILES IDX 1 14
REMARK H PARENT
REMARK Flexibility Score: inf
ROOT
ATOM      1  C   UNL     1     -22.667 -12.066 -19.042  1.00  0.00     0.000 C 
ENDROOT
BRANCH   1   2
ATOM      2  C   UNL     1     -22.294 -12.080 -17.548  1.00  0.00     0.000 C 
BRANCH   2   3
ATOM      3  C   UNL     1     -22.899 -13.274 -16.790  1.00  0.00     0.000 C 
BRANCH   3   4
ATOM      4  C   UNL     1     -22.689 -13.172 -15.266  1.00  0.00     0.006 C 
BRANCH   4   5
ATOM      5  C   UNL     1     -23.981 -12.883 -14.486  1.00  0.00     0.053 C 
BRANCH   5   6
ATOM      6  C   UNL     1     -24.730 -14.133 -14.145  1.00  0.00     0.041 C 
ATOM      7  O   UNL     1     -24.115 -15.224 -14.012  1.00  0.00    -0.550 OA
ATOM      8  O   UNL     1     -26.111 -14.098 -14.000  1.00  0.00    -0.550 OA
ENDBRANCH   5   6
ENDBRANCH   4   5
ENDBRANCH   3   4
ENDBRANCH   2   3
ENDBRANCH   1   2
BRANCH   1   9
ATOM      9  C   UNL     1     -22.689 -13.448 -19.718  1.00  0.00     0.000 C 
BRANCH   9  10
ATOM     10  C   UNL     1     -21.577 -13.619 -20.767  1.00  0.00    -0.000 C 
BRANCH  10  11
ATOM     11  C   UNL     1     -20.277 -14.173 -20.164  1.00  0.00    -0.000 C 
BRANCH  11  12
ATOM     12  C   UNL     1     -20.530 -15.087 -18.956  1.00  0.00    -0.000 C 
BRANCH  12  13
ATOM     13  C   UNL     1     -19.360 -15.023 -17.966  1.00  0.00    -0.003 C 
ATOM     14  C   UNL     1     -18.963 -13.580 -17.674  1.00  0.00     0.004 C 
ENDBRANCH  12  13
ENDBRANCH  11  12
ENDBRANCH  10  11
ENDBRANCH   9  10
ENDBRANCH   1   9
TORSDOF 10
ENDMDL
MODEL 4
REMARK VINA RESULT:    -3.924      3.543      5.742
REMARK INTER + INTRA:          -7.398
REMARK INTER:                  -6.179
REMARK INTRA:                  -1.219
REMARK UNBOUND:                -1.179
REMARK SMILES CCCCCCCCCCCC(=O)[O-]
REMARK SMILES IDX 7 1 8 2 9 3 10 4 11 5 12 6 13 7 14 8 6 9 5 10 4 11 3 12 2 13
REMARK SMILES IDX 1 14
REMARK H PARENT
REMARK Flexibility Score: inf
ROOT
ATOM      1  C   UNL     1     -22.915 -12.797 -15.199  1.00  0.00     0.000 C 
ENDROOT
BRANCH   1   2
ATOM      2  C   UNL     1     -22.985 -12.250 -16.637  1.00  0.00     0.000 C 
BRANCH   2   3
ATOM      3  C   UNL     1     -22.115 -13.048 -17.624  1.00  0.00     0.000 C 
BRANCH   3   4
ATOM      4  C   UNL     1     -21.025 -13.874 -16.912  1.00  0.00     0.006 C 
BRANCH   4   5
ATOM      5  C   UNL     1     -19.674 -13.869 -17.645  1.00  0.00     0.053 C 
BRANCH   5   6
ATOM      6  C   UNL     1     -19.045 -15.227 -17.686  1.00  0.00     0.041 C 
ATOM      7  O   UNL     1     -19.645 -16.218 -17.194  1.00  0.00    -0.550 OA
ATOM      8  O   UNL     1     -17.785 -15.392 -18.246  1.00  0.00    -0.550 OA
ENDBRANCH   5   6
ENDBRANCH   4   5
ENDBRANCH   3   4
ENDBRANCH   2   3
ENDBRANCH   1   2
BRANCH   1   9
ATOM      9  C   UNL     1     -24.230 -12.701 -14.405  1.00  0.00     0.000 C 
BRANCH   9  10
ATOM     10  C   UNL     1     -24.798 -14.078 -14.021  1.00  0.00    -0.000 C 
BRANCH  10  11
ATOM     11  C   UNL     1     -23.802 -15.220 -14.274  1.00  0.00    -0.000 C 
BRANCH  11  12
ATOM     12  C   UNL     1     -24.299 -16.210 -15.339  1.00  0.00    -0.000 C 
BRANCH  12  13
ATOM     13  C   UNL     1     -23.122 -16.831 -16.101  1.00  0.00    -0.003 C 
ATOM     14  C   UNL     1     -23.289 -16.660 -17.607  1.00  0.00     0.004 C 
ENDBRANCH  12  13
ENDBRANCH  11  12
ENDBRANCH  10  11
ENDBRANCH   9  10
ENDBRANCH   1   9
TORSDOF 10
ENDMDL
MODEL 5
REMARK VINA RESULT:    -3.915      3.649      6.086
REMARK INTER + INTRA:          -7.382
REMARK INTER:                  -6.304
REMARK INTRA:                  -1.079
REMARK UNBOUND:                -1.179
REMARK SMILES CCCCCCCCCCCC(=O)[O-]
REMARK SMILES IDX 7 1 8 2 9 3 10 4 11 5 12 6 13 7 14 8 6 9 5 10 4 11 3 12 2 13
REMARK SMILES IDX 1 14
REMARK H PARENT
REMARK Flexibility Score: inf
ROOT
ATOM      1  C   UNL     1     -22.563 -13.113 -17.455  1.00  0.00     0.000 C 
ENDROOT
BRANCH   1   2
ATOM      2  C   UNL     1     -21.499 -14.151 -17.056  1.00  0.00     0.000 C 
BRANCH   2   3
ATOM      3  C   UNL     1     -20.086 -13.776 -17.536  1.00  0.00     0.000 C 
BRANCH   3   4
ATOM      4  C   UNL     1     -20.109 -12.743 -18.681  1.00  0.00     0.006 C 
BRANCH   4   5
ATOM      5  C   UNL     1     -19.548 -13.282 -20.006  1.00  0.00     0.053 C 
BRANCH   5   6
ATOM      6  C   UNL     1     -20.568 -13.272 -21.101  1.00  0.00     0.041 C 
ATOM      7  O   UNL     1     -21.789 -13.419 -20.831  1.00  0.00    -0.550 OA
ATOM      8  O   UNL     1     -20.168 -13.127 -22.423  1.00  0.00    -0.550 OA
ENDBRANCH   5   6
ENDBRANCH   4   5
ENDBRANCH   3   4
ENDBRANCH   2   3
ENDBRANCH   1   2
BRANCH   1   9
ATOM      9  C   UNL     1     -23.011 -12.174 -16.320  1.00  0.00     0.000 C 
BRANCH   9  10
ATOM     10  C   UNL     1     -22.963 -12.845 -14.936  1.00  0.00    -0.000 C 
BRANCH  10  11
ATOM     11  C   UNL     1     -24.339 -12.895 -14.256  1.00  0.00    -0.000 C 
BRANCH  11  12
ATOM     12  C   UNL     1     -24.907 -14.320 -14.179  1.00  0.00    -0.000 C 
BRANCH  12  13
ATOM     13  C   UNL     1     -23.799 -15.362 -14.368  1.00  0.00    -0.003 C 
ATOM     14  C   UNL     1     -24.157 -16.354 -15.471  1.00  0.00     0.004 C 
ENDBRANCH  12  13
ENDBRANCH  11  12
ENDBRANCH  10  11
ENDBRANCH   9  10
ENDBRANCH   1   9
TORSDOF 10
ENDMDL
MODEL 6
REMARK VINA RESULT:    -3.890      2.973      5.235
REMARK INTER + INTRA:          -7.344
REMARK INTER:                  -6.067
REMARK INTRA:                  -1.276
REMARK UNBOUND:                -1.179
REMARK SMILES CCCCCCCCCCCC(=O)[O-]
REMARK SMILES IDX 7 1 8 2 9 3 10 4 11 5 12 6 13 7 14 8 6 9 5 10 4 11 3 12 2 13
REMARK SMILES IDX 1 14
REMARK H PARENT
REMARK Flexibility Score: inf
ROOT
ATOM      1  C   UNL     1     -18.884 -13.760 -18.398  1.00  0.00     0.000 C 
ENDROOT
BRANCH   1   2
ATOM      2  C   UNL     1     -19.223 -13.069 -19.732  1.00  0.00     0.000 C 
BRANCH   2   3
ATOM      3  C   UNL     1     -20.278 -11.959 -19.580  1.00  0.00     0.000 C 
BRANCH   3   4
ATOM      4  C   UNL     1     -21.474 -12.150 -20.534  1.00  0.00     0.006 C 
BRANCH   4   5
ATOM      5  C   UNL     1     -22.640 -12.932 -19.908  1.00  0.00     0.053 C 
BRANCH   5   6
ATOM      6  C   UNL     1     -22.723 -14.336 -20.423  1.00  0.00     0.041 C 
ATOM      7  O   UNL     1     -23.525 -15.155 -19.901  1.00  0.00    -0.550 OA
ATOM      8  O   UNL     1     -21.897 -14.746 -21.461  1.00  0.00    -0.550 OA
ENDBRANCH   5   6
ENDBRANCH   4   5
ENDBRANCH   3   4
ENDBRANCH   2   3
ENDBRANCH   1   2
BRANCH   1   9
ATOM      9  C   UNL     1     -20.020 -13.758 -17.360  1.00  0.00     0.000 C 
BRANCH   9  10
ATOM     10  C   UNL     1     -20.810 -15.079 -17.336  1.00  0.00    -0.000 C 
BRANCH  10  11
ATOM     11  C   UNL     1     -22.154 -14.951 -16.602  1.00  0.00    -0.000 C 
BRANCH  11  12
ATOM     12  C   UNL     1     -22.521 -13.491 -16.296  1.00  0.00    -0.000 C 
BRANCH  12  13
ATOM     13  C   UNL     1     -22.874 -13.314 -14.814  1.00  0.00    -0.003 C 
ATOM     14  C   UNL     1     -23.818 -14.414 -14.338  1.00  0.00     0.004 C 
ENDBRANCH  12  13
ENDBRANCH  11  12
ENDBRANCH  10  11
ENDBRANCH   9  10
ENDBRANCH   1   9
TORSDOF 10
ENDMDL
MODEL 7
REMARK VINA RESULT:    -3.877      1.444      2.309
REMARK INTER + INTRA:          -7.323
REMARK INTER:                  -6.333
REMARK INTRA:                  -0.989
REMARK UNBOUND:                -1.179
REMARK SMILES CCCCCCCCCCCC(=O)[O-]
REMARK SMILES IDX 7 1 8 2 9 3 10 4 11 5 12 6 13 7 14 8 6 9 5 10 4 11 3 12 2 13
REMARK SMILES IDX 1 14
REMARK H PARENT
REMARK Flexibility Score: inf
ROOT
ATOM      1  C   UNL     1     -22.667 -14.034 -17.775  1.00  0.00     0.000 C 
ENDROOT
BRANCH   1   2
ATOM      2  C   UNL     1     -22.286 -14.135 -16.286  1.00  0.00     0.000 C 
BRANCH   2   3
ATOM      3  C   UNL     1     -22.988 -13.077 -15.416  1.00  0.00     0.000 C 
BRANCH   3   4
ATOM      4  C   UNL     1     -23.533 -13.667 -14.099  1.00  0.00     0.006 C 
BRANCH   4   5
ATOM      5  C   UNL     1     -25.063 -13.804 -14.075  1.00  0.00     0.053 C 
BRANCH   5   6
ATOM      6  C   UNL     1     -25.504 -15.230 -13.966  1.00  0.00     0.041 C 
ATOM      7  O   UNL     1     -24.672 -16.164 -14.112  1.00  0.00    -0.550 OA
ATOM      8  O   UNL     1     -26.840 -15.528 -13.729  1.00  0.00    -0.550 OA
ENDBRANCH   5   6
ENDBRANCH   4   5
ENDBRANCH   3   4
ENDBRANCH   2   3
ENDBRANCH   1   2
BRANCH   1   9
ATOM      9  C   UNL     1     -22.812 -12.598 -18.311  1.00  0.00     0.000 C 
BRANCH   9  10
ATOM     10  C   UNL     1     -21.954 -12.336 -19.560  1.00  0.00    -0.000 C 
BRANCH  10  11
ATOM     11  C   UNL     1     -20.521 -11.904 -19.213  1.00  0.00    -0.000 C 
BRANCH  11  12
ATOM     12  C   UNL     1     -19.514 -13.060 -19.321  1.00  0.00    -0.000 C 
BRANCH  12  13
ATOM     13  C   UNL     1     -18.952 -13.428 -17.943  1.00  0.00    -0.003 C 
ATOM     14  C   UNL     1     -18.945 -14.940 -17.736  1.00  0.00     0.004 C 
ENDBRANCH  12  13
ENDBRANCH  11  12
ENDBRANCH  10  11
ENDBRANCH   9  10
ENDBRANCH   1   9
TORSDOF 10
ENDMDL
MODEL 8
REMARK VINA RESULT:    -3.848      2.558      3.950
REMARK INTER + INTRA:          -7.276
REMARK INTER:                  -6.340
REMARK INTRA:                  -0.936
REMARK UNBOUND:                -1.179
REMARK SMILES CCCCCCCCCCCC(=O)[O-]
REMARK SMILES IDX 7 1 8 2 9 3 10 4 11 5 12 6 13 7 14 8 6 9 5 10 4 11 3 12 2 13
REMARK SMILES IDX 1 14
REMARK H PARENT
REMARK Flexibility Score: inf
ROOT
ATOM      1  C   UNL     1     -23.135 -12.639 -15.034  1.00  0.00     0.000 C 
ENDROOT
BRANCH   1   2
ATOM      2  C   UNL     1     -24.484 -12.455 -14.314  1.00  0.00     0.000 C 
BRANCH   2   3
ATOM      3  C   UNL     1     -25.131 -13.790 -13.905  1.00  0.00     0.000 C 
BRANCH   3   4
ATOM      4  C   UNL     1     -24.176 -14.987 -14.086  1.00  0.00     0.006 C 
BRANCH   4   5
ATOM      5  C   UNL     1     -24.893 -16.292 -14.464  1.00  0.00     0.053 C 
BRANCH   5   6
ATOM      6  C   UNL     1     -24.010 -17.491 -14.310  1.00  0.00     0.041 C 
ATOM      7  O   UNL     1     -24.312 -18.400 -13.493  1.00  0.00    -0.550 OA
ATOM      8  O   UNL     1     -22.839 -17.591 -15.050  1.00  0.00    -0.550 OA
ENDBRANCH   5   6
ENDBRANCH   4   5
ENDBRANCH   3   4
ENDBRANCH   2   3
ENDBRANCH   1   2
BRANCH   1   9
ATOM      9  C   UNL     1     -23.010 -11.894 -16.375  1.00  0.00     0.000 C 
BRANCH   9  10
ATOM     10  C   UNL     1     -22.669 -12.828 -17.548  1.00  0.00    -0.000 C 
BRANCH  10  11
ATOM     11  C   UNL     1     -22.540 -14.297 -17.116  1.00  0.00    -0.000 C 
BRANCH  11  12
ATOM     12  C   UNL     1     -21.127 -14.856 -17.342  1.00  0.00    -0.000 C 
BRANCH  12  13
ATOM     13  C   UNL     1     -20.289 -13.898 -18.197  1.00  0.00    -0.003 C 
ATOM     14  C   UNL     1     -18.923 -13.648 -17.567  1.00  0.00     0.004 C 
ENDBRANCH  12  13
ENDBRANCH  11  12
ENDBRANCH  10  11
ENDBRANCH   9  10
ENDBRANCH   1   9
TORSDOF 10
ENDMDL
MODEL 9
REMARK VINA RESULT:    -3.784      3.227      5.786
REMARK INTER + INTRA:          -7.174
REMARK INTER:                  -6.463
REMARK INTRA:                  -0.711
REMARK UNBOUND:                -1.179
REMARK SMILES CCCCCCCCCCCC(=O)[O-]
REMARK SMILES IDX 7 1 8 2 9 3 10 4 11 5 12 6 13 7 14 8 6 9 5 10 4 11 3 12 2 13
REMARK SMILES IDX 1 14
REMARK H PARENT
REMARK Flexibility Score: inf
ROOT
ATOM      1  C   UNL     1     -22.984 -12.904 -17.618  1.00  0.00     0.000 C 
ENDROOT
BRANCH   1   2
ATOM      2  C   UNL     1     -22.648 -12.069 -18.868  1.00  0.00     0.000 C 
BRANCH   2   3
ATOM      3  C   UNL     1     -22.186 -12.930 -20.057  1.00  0.00     0.000 C 
BRANCH   3   4
ATOM      4  C   UNL     1     -20.715 -12.665 -20.438  1.00  0.00     0.006 C 
BRANCH   4   5
ATOM      5  C   UNL     1     -19.840 -12.238 -19.249  1.00  0.00     0.053 C 
BRANCH   5   6
ATOM      6  C   UNL     1     -19.225 -13.408 -18.547  1.00  0.00     0.041 C 
ATOM      7  O   UNL     1     -19.602 -13.721 -17.387  1.00  0.00    -0.550 OA
ATOM      8  O   UNL     1     -18.218 -14.138 -19.164  1.00  0.00    -0.550 OA
ENDBRANCH   5   6
ENDBRANCH   4   5
ENDBRANCH   3   4
ENDBRANCH   2   3
ENDBRANCH   1   2
BRANCH   1   9
ATOM      9  C   UNL     1     -22.957 -12.124 -16.292  1.00  0.00     0.000 C 
BRANCH   9  10
ATOM     10  C   UNL     1     -22.924 -13.044 -15.059  1.00  0.00    -0.000 C 
BRANCH  10  11
ATOM     11  C   UNL     1     -24.264 -13.073 -14.308  1.00  0.00    -0.000 C 
BRANCH  11  12
ATOM     12  C   UNL     1     -24.729 -14.502 -13.988  1.00  0.00    -0.000 C 
BRANCH  12  13
ATOM     13  C   UNL     1     -24.073 -15.516 -14.932  1.00  0.00    -0.003 C 
ATOM     14  C   UNL     1     -24.659 -16.911 -14.737  1.00  0.00     0.004 C 
ENDBRANCH  12  13
ENDBRANCH  11  12
ENDBRANCH  10  11
ENDBRANCH   9  10
ENDBRANCH   1   9
TORSDOF 10
ENDMDL
