MODEL 1
REMARK VINA RESULT:    -2.309      0.000      0.000
REMARK INTER + INTRA:          -2.309
REMARK INTER:                  -2.309
REMARK INTRA:                   0.000
REMARK UNBOUND:                 0.000
REMARK SMILES CC(=O)[O-]
REMARK SMILES IDX 1 1 2 2 3 3 4 4
REMARK H PARENT
REMARK Flexibility Score: inf
ROOT
ATOM      1  C   UNL     1      -6.939  -0.044   1.875  1.00  0.00     0.063 C 
ATOM      2  C   UNL     1      -8.316  -0.476   2.251  1.00  0.00     0.038 C 
ATOM      3  O   UNL     1      -9.313   0.195   1.876  1.00  0.00    -0.550 OA
ATOM      4  O   UNL     1      -8.499  -1.590   3.060  1.00  0.00    -0.550 OA
ENDROOT
TORSDOF 0
ENDMDL
MODEL 2
REMARK VINA RESULT:    -2.204      0.529      1.640
REMARK INTER + INTRA:          -2.204
REMARK INTER:                  -2.204
REMARK INTRA:                   0.000
REMARK UNBOUND:                 0.000
REMARK SMILES CC(=O)[O-]
REMARK SMILES IDX 1 1 2 2 3 3 4 4
REMARK H PARENT
REMARK Flexibility Score: inf
ROOT
ATOM      1  C   UNL     1      -7.191  -0.132   1.888  1.00  0.00     0.063 C 
ATOM      2  C   UNL     1      -8.433  -0.495   2.628  1.00  0.00     0.038 C 
ATOM      3  O   UNL     1      -8.580  -1.660   3.083  1.00  0.00    -0.550 OA
ATOM      4  O   UNL     1      -9.455   0.435   2.771  1.00  0.00    -0.550 OA
ENDROOT
TORSDOF 0
ENDMDL
MODEL 3
REMARK VINA RESULT:    -2.126      4.135      4.665
REMARK INTER + INTRA:          -2.126
REMARK INTER:                  -2.126
REMARK INTRA:                   0.000
REMARK UNBOUND:                 0.000
REMARK SMILES CC(=O)[O-]
REMARK SMILES IDX 1 1 2 2 3 3 4 4
REMARK H PARENT
REMARK Flexibility Score: inf
ROOT
ATOM      1  C   UNL     1      -8.314  -4.158   6.468  1.00  0.00     0.063 C 
ATOM      2  C   UNL     1      -8.878  -3.474   5.269  1.00  0.00     0.038 C 
ATOM      3  O   UNL     1      -8.133  -3.191   4.295  1.00  0.00    -0.550 OA
ATOM      4  O   UNL     1     -10.215  -3.101   5.245  1.00  0.00    -0.550 OA
ENDROOT
TORSDOF 0
ENDMDL
MODEL 4
REMARK VINA RESULT:    -2.074      1.345      1.788
REMARK INTER + INTRA:          -2.074
REMARK INTER:                  -2.074
REMARK INTRA:                   0.000
REMARK UNBOUND:                 0.000
REMARK SMILES CC(=O)[O-]
REMARK SMILES IDX 1 1 2 2 3 3 4 4
REMARK H PARENT
REMARK Flexibility Score: inf
ROOT
ATOM      1  C   UNL     1      -8.883  -1.652   3.256  1.00  0.00     0.063 C 
ATOM      2  C   UNL     1      -8.421  -0.489   2.446  1.00  0.00     0.038 C 
ATOM      3  O   UNL     1      -9.260   0.257   1.875  1.00  0.00    -0.550 OA
ATOM      4  O   UNL     1      -7.063  -0.255   2.276  1.00  0.00    -0.550 OA
ENDROOT
TORSDOF 0
ENDMDL
MODEL 5
REMARK VINA RESULT:    -2.038      1.431      2.117
REMARK INTER + INTRA:          -2.038
REMARK INTER:                  -2.038
REMARK INTRA:                   0.000
REMARK UNBOUND:                 0.000
REMARK SMILES CC(=O)[O-]
REMARK SMILES IDX 1 1 2 2 3 3 4 4
REMARK H PARENT
REMARK Flexibility Score: inf
ROOT
ATOM      1  C   UNL     1      -9.615   0.233   2.263  1.00  0.00     0.063 C 
ATOM      2  C   UNL     1      -8.424  -0.599   2.600  1.00  0.00     0.038 C 
ATOM      3  O   UNL     1      -8.568  -1.690   3.212  1.00  0.00    -0.550 OA
ATOM      4  O   UNL     1      -7.149  -0.147   2.288  1.00  0.00    -0.550 OA
ENDROOT
TORSDOF 0
ENDMDL
MODEL 6
REMARK VINA RESULT:    -2.013      4.651      4.999
REMARK INTER + INTRA:          -2.013
REMARK INTER:                  -2.013
REMARK INTRA:                   0.000
REMARK UNBOUND:                 0.000
REMARK SMILES CC(=O)[O-]
REMARK SMILES IDX 1 1 2 2 3 3 4 4
REMARK H PARENT
REMARK Flexibility Score: inf
ROOT
ATOM      1  C   UNL     1      -8.462  -3.263   4.466  1.00  0.00     0.063 C 
ATOM      2  C   UNL     1      -8.915  -3.853   5.758  1.00  0.00     0.038 C 
ATOM      3  O   UNL     1     -10.091  -4.287   5.877  1.00  0.00    -0.550 OA
ATOM      4  O   UNL     1      -8.057  -3.879   6.850  1.00  0.00    -0.550 OA
ENDROOT
TORSDOF 0
ENDMDL
MODEL 7
REMARK VINA RESULT:    -1.971      1.734      1.932
REMARK INTER + INTRA:          -1.971
REMARK INTER:                  -1.971
REMARK INTRA:                   0.000
REMARK UNBOUND:                 0.000
REMARK SMILES CC(=O)[O-]
REMARK SMILES IDX 1 1 2 2 3 3 4 4
REMARK H PARENT
REMARK Flexibility Score: inf
ROOT
ATOM      1  C   UNL     1      -8.328  -0.612   2.670  1.00  0.00     0.063 C 
ATOM      2  C   UNL     1      -8.997  -1.890   3.047  1.00  0.00     0.038 C 
ATOM      3  O   UNL     1     -10.111  -2.193   2.543  1.00  0.00    -0.550 OA
ATOM      4  O   UNL     1      -8.420  -2.725   3.994  1.00  0.00    -0.550 OA
ENDROOT
TORSDOF 0
ENDMDL
MODEL 8
REMARK VINA RESULT:    -1.963      2.359      2.967
REMARK INTER + INTRA:          -1.963
REMARK INTER:                  -1.963
REMARK INTRA:                   0.000
REMARK UNBOUND:                 0.000
REMARK SMILES CC(=O)[O-]
REMARK SMILES IDX 1 1 2 2 3 3 4 4
REMARK H PARENT
REMARK Flexibility Score: inf
ROOT
ATOM      1  C   UNL     1      -8.643  -3.192   4.444  1.00  0.00     0.063 C 
ATOM      2  C   UNL     1      -9.174  -2.366   3.322  1.00  0.00     0.038 C 
ATOM      3  O   UNL     1     -10.137  -2.787   2.628  1.00  0.00    -0.550 OA
ATOM      4  O   UNL     1      -8.575  -1.153   3.006  1.00  0.00    -0.550 OA
ENDROOT
TORSDOF 0
ENDMDL
MODEL 9
REMARK VINA RESULT:    -1.925      2.102      2.607
REMARK INTER + INTRA:          -1.925
REMARK INTER:                  -1.925
REMARK INTRA:                   0.000
REMARK UNBOUND:                 0.000
REMARK SMILES CC(=O)[O-]
REMARK SMILES IDX 1 1 2 2 3 3 4 4
REMARK H PARENT
REMARK Flexibility Score: inf
ROOT
ATOM      1  C   UNL     1     -10.268  -2.491   2.493  1.00  0.00     0.063 C 
ATOM      2  C   UNL     1      -9.052  -2.034   3.225  1.00  0.00     0.038 C 
ATOM      3  O   UNL     1      -8.574  -0.890   3.005  1.00  0.00    -0.550 OA
ATOM      4  O   UNL     1      -8.412  -2.890   4.113  1.00  0.00    -0.550 OA
ENDROOT
TORSDOF 0
ENDMDL
