MODEL 1
REMARK VINA RESULT:    -5.038      0.000      0.000
REMARK INTER + INTRA:         -10.534
REMARK INTER:                  -9.161
REMARK INTRA:                  -1.373
REMARK UNBOUND:                -1.373
REMARK SMILES CCCCCCCCCCCCCCCC(=O)[O-]
REMARK SMILES IDX 9 1 10 2 11 3 12 4 13 5 14 6 15 7 16 8 17 9 18 10 8 11 7 12
REMARK SMILES IDX 6 13 5 14 4 15 3 16 2 17 1 18
REMARK H PARENT
REMARK Flexibility Score: inf
ROOT
ATOM      1  C   UNL     1     -20.694  41.354  87.146  1.00  0.00     0.000 C 
ENDROOT
BRANCH   1   2
ATOM      2  C   UNL     1     -19.736  40.155  87.023  1.00  0.00     0.000 C 
BRANCH   2   3
ATOM      3  C   UNL     1     -20.463  38.849  86.669  1.00  0.00     0.000 C 
BRANCH   3   4
ATOM      4  C   UNL     1     -19.514  37.783  86.093  1.00  0.00     0.000 C 
BRANCH   4   5
ATOM      5  C   UNL     1     -19.353  37.898  84.568  1.00  0.00     0.000 C 
BRANCH   5   6
ATOM      6  C   UNL     1     -18.285  36.939  84.011  1.00  0.00     0.006 C 
BRANCH   6   7
ATOM      7  C   UNL     1     -17.399  37.612  82.955  1.00  0.00     0.053 C 
BRANCH   7   8
ATOM      8  C   UNL     1     -17.044  36.672  81.842  1.00  0.00     0.041 C 
ATOM      9  O   UNL     1     -16.629  35.512  82.100  1.00  0.00    -0.550 OA
ATOM     10  O   UNL     1     -17.198  37.070  80.520  1.00  0.00    -0.550 OA
ENDBRANCH   7   8
ENDBRANCH   6   7
ENDBRANCH   5   6
ENDBRANCH   4   5
ENDBRANCH   3   4
ENDBRANCH   2   3
ENDBRANCH   1   2
BRANCH   1  11
ATOM     11  C   UNL     1     -20.796  41.891  88.584  1.00  0.00     0.000 C 
BRANCH  11  12
ATOM     12  C   UNL     1     -20.041  41.062  89.644  1.00  0.00    -0.000 C 
BRANCH  12  13
ATOM     13  C   UNL     1     -20.937  40.243  90.593  1.00  0.00    -0.000 C 
BRANCH  13  14
ATOM     14  C   UNL     1     -20.401  38.844  90.946  1.00  0.00    -0.000 C 
BRANCH  14  15
ATOM     15  C   UNL     1     -18.862  38.779  91.060  1.00  0.00    -0.000 C 
BRANCH  15  16
ATOM     16  C   UNL     1     -18.208  38.106  89.840  1.00  0.00    -0.000 C 
BRANCH  16  17
ATOM     17  C   UNL     1     -18.831  36.740  89.516  1.00  0.00    -0.003 C 
ATOM     18  C   UNL     1     -17.788  35.693  89.125  1.00  0.00     0.004 C 
ENDBRANCH  16  17
ENDBRANCH  15  16
ENDBRANCH  14  15
ENDBRANCH  13  14
ENDBRANCH  12  13
ENDBRANCH  11  12
ENDBRANCH   1  11
TORSDOF 14
ENDMDL
MODEL 2
REMARK VINA RESULT:    -4.977      3.759      8.143
REMARK INTER + INTRA:         -10.424
REMARK INTER:                  -9.456
REMARK INTRA:                  -0.968
REMARK UNBOUND:                -1.373
REMARK SMILES CCCCCCCCCCCCCCCC(=O)[O-]
REMARK SMILES IDX 9 1 10 2 11 3 12 4 13 5 14 6 15 7 16 8 17 9 18 10 8 11 7 12
REMARK SMILES IDX 6 13 5 14 4 15 3 16 2 17 1 18
REMARK H PARENT
REMARK Flexibility Score: inf
ROOT
ATOM      1  C   UNL     1     -19.460  38.543  85.637  1.00  0.00     0.000 C 
ENDROOT
BRANCH   1   2
ATOM      2  C   UNL     1     -20.821  38.498  86.355  1.00  0.00     0.000 C 
BRANCH   2   3
ATOM      3  C   UNL     1     -20.683  38.380  87.881  1.00  0.00     0.000 C 
BRANCH   3   4
ATOM      4  C   UNL     1     -19.331  37.778  88.304  1.00  0.00     0.000 C 
BRANCH   4   5
ATOM      5  C   UNL     1     -19.247  37.520  89.817  1.00  0.00     0.000 C 
BRANCH   5   6
ATOM      6  C   UNL     1     -20.228  38.392  90.623  1.00  0.00     0.006 C 
BRANCH   6   7
ATOM      7  C   UNL     1     -19.503  39.305  91.621  1.00  0.00     0.053 C 
BRANCH   7   8
ATOM      8  C   UNL     1     -18.736  40.391  90.930  1.00  0.00     0.041 C 
ATOM      9  O   UNL     1     -17.546  40.634  91.260  1.00  0.00    -0.550 OA
ATOM     10  O   UNL     1     -19.327  41.115  89.903  1.00  0.00    -0.550 OA
ENDBRANCH   7   8
ENDBRANCH   6   7
ENDBRANCH   5   6
ENDBRANCH   4   5
ENDBRANCH   3   4
ENDBRANCH   2   3
ENDBRANCH   1   2
BRANCH   1  11
ATOM     11  C   UNL     1     -19.349  37.506  84.505  1.00  0.00     0.000 C 
BRANCH  11  12
ATOM     12  C   UNL     1     -18.076  37.620  83.640  1.00  0.00    -0.000 C 
BRANCH  12  13
ATOM     13  C   UNL     1     -17.316  36.298  83.420  1.00  0.00    -0.000 C 
BRANCH  13  14
ATOM     14  C   UNL     1     -16.829  36.062  81.978  1.00  0.00    -0.000 C 
BRANCH  14  15
ATOM     15  C   UNL     1     -17.422  34.797  81.321  1.00  0.00    -0.000 C 
BRANCH  15  16
ATOM     16  C   UNL     1     -18.208  35.112  80.036  1.00  0.00    -0.000 C 
BRANCH  16  17
ATOM     17  C   UNL     1     -18.715  36.561  79.997  1.00  0.00    -0.003 C 
ATOM     18  C   UNL     1     -18.478  37.233  78.644  1.00  0.00     0.004 C 
ENDBRANCH  16  17
ENDBRANCH  15  16
ENDBRANCH  14  15
ENDBRANCH  13  14
ENDBRANCH  12  13
ENDBRANCH  11  12
ENDBRANCH   1  11
TORSDOF 14
ENDMDL
MODEL 3
REMARK VINA RESULT:    -4.874      7.611     10.508
REMARK INTER + INTRA:         -10.237
REMARK INTER:                  -8.569
REMARK INTRA:                  -1.668
REMARK UNBOUND:                -1.373
REMARK SMILES CCCCCCCCCCCCCCCC(=O)[O-]
REMARK SMILES IDX 9 1 10 2 11 3 12 4 13 5 14 6 15 7 16 8 17 9 18 10 8 11 7 12
REMARK SMILES IDX 6 13 5 14 4 15 3 16 2 17 1 18
REMARK H PARENT
REMARK Flexibility Score: inf
ROOT
ATOM      1  C   UNL     1     -24.777  46.867  86.290  1.00  0.00     0.000 C 
ENDROOT
BRANCH   1   2
ATOM      2  C   UNL     1     -25.647  45.983  87.201  1.00  0.00     0.000 C 
BRANCH   2   3
ATOM      3  C   UNL     1     -26.278  46.768  88.361  1.00  0.00     0.000 C 
BRANCH   3   4
ATOM      4  C   UNL     1     -26.173  46.021  89.703  1.00  0.00     0.000 C 
BRANCH   4   5
ATOM      5  C   UNL     1     -25.276  44.776  89.618  1.00  0.00     0.000 C 
BRANCH   5   6
ATOM      6  C   UNL     1     -25.689  43.678  90.615  1.00  0.00     0.006 C 
BRANCH   6   7
ATOM      7  C   UNL     1     -27.086  43.925  91.199  1.00  0.00     0.053 C 
BRANCH   7   8
ATOM      8  C   UNL     1     -28.092  42.943  90.677  1.00  0.00     0.041 C 
ATOM      9  O   UNL     1     -29.107  42.652  91.361  1.00  0.00    -0.550 OA
ATOM     10  O   UNL     1     -27.921  42.373  89.422  1.00  0.00    -0.550 OA
ENDBRANCH   7   8
ENDBRANCH   6   7
ENDBRANCH   5   6
ENDBRANCH   4   5
ENDBRANCH   3   4
ENDBRANCH   2   3
ENDBRANCH   1   2
BRANCH   1  11
ATOM     11  C   UNL     1     -23.308  46.409  86.241  1.00  0.00     0.000 C 
BRANCH  11  12
ATOM     12  C   UNL     1     -22.469  46.778  87.482  1.00  0.00    -0.000 C 
BRANCH  12  13
ATOM     13  C   UNL     1     -21.918  45.580  88.279  1.00  0.00    -0.000 C 
BRANCH  13  14
ATOM     14  C   UNL     1     -22.124  44.208  87.611  1.00  0.00    -0.000 C 
BRANCH  14  15
ATOM     15  C   UNL     1     -20.811  43.538  87.150  1.00  0.00    -0.000 C 
BRANCH  15  16
ATOM     16  C   UNL     1     -20.466  43.862  85.686  1.00  0.00    -0.000 C 
BRANCH  16  17
ATOM     17  C   UNL     1     -19.521  45.065  85.555  1.00  0.00    -0.003 C 
ATOM     18  C   UNL     1     -18.315  44.774  84.660  1.00  0.00     0.004 C 
ENDBRANCH  16  17
ENDBRANCH  15  16
ENDBRANCH  14  15
ENDBRANCH  13  14
ENDBRANCH  12  13
ENDBRANCH  11  12
ENDBRANCH   1  11
TORSDOF 14
ENDMDL
MODEL 4
REMARK VINA RESULT:    -4.862      5.060      7.743
REMARK INTER + INTRA:         -10.216
REMARK INTER:                  -8.919
REMARK INTRA:                  -1.297
REMARK UNBOUND:                -1.373
REMARK SMILES CCCCCCCCCCCCCCCC(=O)[O-]
REMARK SMILES IDX 9 1 10 2 11 3 12 4 13 5 14 6 15 7 16 8 17 9 18 10 8 11 7 12
REMARK SMILES IDX 6 13 5 14 4 15 3 16 2 17 1 18
REMARK H PARENT
REMARK Flexibility Score: inf
ROOT
ATOM      1  C   UNL     1     -20.051  42.850  86.124  1.00  0.00     0.000 C 
ENDROOT
BRANCH   1   2
ATOM      2  C   UNL     1     -19.836  41.607  87.005  1.00  0.00     0.000 C 
BRANCH   2   3
ATOM      3  C   UNL     1     -20.989  40.597  86.895  1.00  0.00     0.000 C 
BRANCH   3   4
ATOM      4  C   UNL     1     -20.490  39.150  86.733  1.00  0.00     0.000 C 
BRANCH   4   5
ATOM      5  C   UNL     1     -20.839  38.265  87.941  1.00  0.00     0.000 C 
BRANCH   5   6
ATOM      6  C   UNL     1     -19.595  37.625  88.586  1.00  0.00     0.006 C 
BRANCH   6   7
ATOM      7  C   UNL     1     -19.536  37.876  90.099  1.00  0.00     0.053 C 
BRANCH   7   8
ATOM      8  C   UNL     1     -19.873  39.295  90.444  1.00  0.00     0.041 C 
ATOM      9  O   UNL     1     -19.054  40.219  90.198  1.00  0.00    -0.550 OA
ATOM     10  O   UNL     1     -21.104  39.599  91.011  1.00  0.00    -0.550 OA
ENDBRANCH   7   8
ENDBRANCH   6   7
ENDBRANCH   5   6
ENDBRANCH   4   5
ENDBRANCH   3   4
ENDBRANCH   2   3
ENDBRANCH   1   2
BRANCH   1  11
ATOM     11  C   UNL     1     -20.624  44.045  86.907  1.00  0.00     0.000 C 
BRANCH  11  12
ATOM     12  C   UNL     1     -21.070  45.240  86.039  1.00  0.00    -0.000 C 
BRANCH  12  13
ATOM     13  C   UNL     1     -20.954  45.022  84.518  1.00  0.00    -0.000 C 
BRANCH  13  14
ATOM     14  C   UNL     1     -21.069  46.302  83.669  1.00  0.00    -0.000 C 
BRANCH  14  15
ATOM     15  C   UNL     1     -19.706  46.888  83.240  1.00  0.00    -0.000 C 
BRANCH  15  16
ATOM     16  C   UNL     1     -18.565  45.861  83.339  1.00  0.00    -0.000 C 
BRANCH  16  17
ATOM     17  C   UNL     1     -17.505  46.257  84.377  1.00  0.00    -0.003 C 
ATOM     18  C   UNL     1     -17.173  45.120  85.344  1.00  0.00     0.004 C 
ENDBRANCH  16  17
ENDBRANCH  15  16
ENDBRANCH  14  15
ENDBRANCH  13  14
ENDBRANCH  12  13
ENDBRANCH  11  12
ENDBRANCH   1  11
TORSDOF 14
ENDMDL
MODEL 5
REMARK VINA RESULT:    -4.846      7.874     10.995
REMARK INTER + INTRA:         -10.186
REMARK INTER:                  -8.983
REMARK INTRA:                  -1.203
REMARK UNBOUND:                -1.373
REMARK SMILES CCCCCCCCCCCCCCCC(=O)[O-]
REMARK SMILES IDX 9 1 10 2 11 3 12 4 13 5 14 6 15 7 16 8 17 9 18 10 8 11 7 12
REMARK SMILES IDX 6 13 5 14 4 15 3 16 2 17 1 18
REMARK H PARENT
REMARK Flexibility Score: inf
ROOT
ATOM      1  C   UNL     1     -21.629  46.092  86.364  1.00  0.00     0.000 C 
ENDROOT
BRANCH   1   2
ATOM      2  C   UNL     1     -23.136  46.386  86.247  1.00  0.00     0.000 C 
BRANCH   2   3
ATOM      3  C   UNL     1     -23.945  45.811  87.419  1.00  0.00     0.000 C 
BRANCH   3   4
ATOM      4  C   UNL     1     -25.463  45.861  87.168  1.00  0.00     0.000 C 
BRANCH   4   5
ATOM      5  C   UNL     1     -26.224  46.589  88.288  1.00  0.00     0.000 C 
BRANCH   5   6
ATOM      6  C   UNL     1     -25.742  46.182  89.693  1.00  0.00     0.006 C 
BRANCH   6   7
ATOM      7  C   UNL     1     -26.910  45.823  90.622  1.00  0.00     0.053 C 
BRANCH   7   8
ATOM      8  C   UNL     1     -26.869  44.385  91.042  1.00  0.00     0.041 C 
ATOM      9  O   UNL     1     -25.791  43.871  91.439  1.00  0.00    -0.550 OA
ATOM     10  O   UNL     1     -28.029  43.621  91.023  1.00  0.00    -0.550 OA
ENDBRANCH   7   8
ENDBRANCH   6   7
ENDBRANCH   5   6
ENDBRANCH   4   5
ENDBRANCH   3   4
ENDBRANCH   2   3
ENDBRANCH   1   2
BRANCH   1  11
ATOM     11  C   UNL     1     -21.325  44.898  87.287  1.00  0.00     0.000 C 
BRANCH  11  12
ATOM     12  C   UNL     1     -20.484  43.775  86.645  1.00  0.00    -0.000 C 
BRANCH  12  13
ATOM     13  C   UNL     1     -19.805  44.148  85.313  1.00  0.00    -0.000 C 
BRANCH  13  14
ATOM     14  C   UNL     1     -18.357  44.656  85.444  1.00  0.00    -0.000 C 
BRANCH  14  15
ATOM     15  C   UNL     1     -17.892  45.521  84.252  1.00  0.00    -0.000 C 
BRANCH  15  16
ATOM     16  C   UNL     1     -18.776  46.763  84.044  1.00  0.00    -0.000 C 
BRANCH  16  17
ATOM     17  C   UNL     1     -19.411  46.807  82.646  1.00  0.00    -0.003 C 
ATOM     18  C   UNL     1     -20.915  46.530  82.672  1.00  0.00     0.004 C 
ENDBRANCH  16  17
ENDBRANCH  15  16
ENDBRANCH  14  15
ENDBRANCH  13  14
ENDBRANCH  12  13
ENDBRANCH  11  12
ENDBRANCH   1  11
TORSDOF 14
ENDMDL
MODEL 6
REMARK VINA RESULT:    -4.831      5.208      8.126
REMARK INTER + INTRA:         -10.159
REMARK INTER:                  -9.114
REMARK INTRA:                  -1.045
REMARK UNBOUND:                -1.373
REMARK SMILES CCCCCCCCCCCCCCCC(=O)[O-]
REMARK SMILES IDX 9 1 10 2 11 3 12 4 13 5 14 6 15 7 16 8 17 9 18 10 8 11 7 12
REMARK SMILES IDX 6 13 5 14 4 15 3 16 2 17 1 18
REMARK H PARENT
REMARK Flexibility Score: inf
ROOT
ATOM      1  C   UNL     1     -20.636  41.787  86.828  1.00  0.00     0.000 C 
ENDROOT
BRANCH   1   2
ATOM      2  C   UNL     1     -19.936  40.705  87.670  1.00  0.00     0.000 C 
BRANCH   2   3
ATOM      3  C   UNL     1     -20.917  39.662  88.228  1.00  0.00     0.000 C 
BRANCH   3   4
ATOM      4  C   UNL     1     -20.400  38.221  88.063  1.00  0.00     0.000 C 
BRANCH   4   5
ATOM      5  C   UNL     1     -19.427  37.811  89.180  1.00  0.00     0.000 C 
BRANCH   5   6
ATOM      6  C   UNL     1     -19.844  38.356  90.559  1.00  0.00     0.006 C 
BRANCH   6   7
ATOM      7  C   UNL     1     -18.669  39.005  91.303  1.00  0.00     0.053 C 
BRANCH   7   8
ATOM      8  C   UNL     1     -18.839  40.488  91.430  1.00  0.00     0.041 C 
ATOM      9  O   UNL     1     -19.981  41.007  91.328  1.00  0.00    -0.550 OA
ATOM     10  O   UNL     1     -17.738  41.295  91.690  1.00  0.00    -0.550 OA
ENDBRANCH   7   8
ENDBRANCH   6   7
ENDBRANCH   5   6
ENDBRANCH   4   5
ENDBRANCH   3   4
ENDBRANCH   2   3
ENDBRANCH   1   2
BRANCH   1  11
ATOM     11  C   UNL     1     -20.553  43.185  87.466  1.00  0.00     0.000 C 
BRANCH  11  12
ATOM     12  C   UNL     1     -20.333  44.344  86.472  1.00  0.00    -0.000 C 
BRANCH  12  13
ATOM     13  C   UNL     1     -19.283  44.075  85.378  1.00  0.00    -0.000 C 
BRANCH  13  14
ATOM     14  C   UNL     1     -17.955  44.836  85.552  1.00  0.00    -0.000 C 
BRANCH  14  15
ATOM     15  C   UNL     1     -17.607  45.758  84.363  1.00  0.00    -0.000 C 
BRANCH  15  16
ATOM     16  C   UNL     1     -18.628  45.654  83.216  1.00  0.00    -0.000 C 
BRANCH  16  17
ATOM     17  C   UNL     1     -19.346  46.984  82.944  1.00  0.00    -0.003 C 
ATOM     18  C   UNL     1     -20.841  46.804  82.680  1.00  0.00     0.004 C 
ENDBRANCH  16  17
ENDBRANCH  15  16
ENDBRANCH  14  15
ENDBRANCH  13  14
ENDBRANCH  12  13
ENDBRANCH  11  12
ENDBRANCH   1  11
TORSDOF 14
ENDMDL
MODEL 7
REMARK VINA RESULT:    -4.816      7.914     10.879
REMARK INTER + INTRA:         -10.131
REMARK INTER:                  -8.945
REMARK INTRA:                  -1.186
REMARK UNBOUND:                -1.373
REMARK SMILES CCCCCCCCCCCCCCCC(=O)[O-]
REMARK SMILES IDX 9 1 10 2 11 3 12 4 13 5 14 6 15 7 16 8 17 9 18 10 8 11 7 12
REMARK SMILES IDX 6 13 5 14 4 15 3 16 2 17 1 18
REMARK H PARENT
REMARK Flexibility Score: inf
ROOT
ATOM      1  C   UNL     1     -22.043  45.217  86.536  1.00  0.00     0.000 C 
ENDROOT
BRANCH   1   2
ATOM      2  C   UNL     1     -23.122  45.014  87.615  1.00  0.00     0.000 C 
BRANCH   2   3
ATOM      3  C   UNL     1     -24.420  45.775  87.307  1.00  0.00     0.000 C 
BRANCH   3   4
ATOM      4  C   UNL     1     -25.612  45.269  88.139  1.00  0.00     0.000 C 
BRANCH   4   5
ATOM      5  C   UNL     1     -25.410  45.481  89.648  1.00  0.00     0.000 C 
BRANCH   5   6
ATOM      6  C   UNL     1     -25.860  44.267  90.483  1.00  0.00     0.006 C 
BRANCH   6   7
ATOM      7  C   UNL     1     -27.313  44.399  90.957  1.00  0.00     0.053 C 
BRANCH   7   8
ATOM      8  C   UNL     1     -28.155  43.244  90.506  1.00  0.00     0.041 C 
ATOM      9  O   UNL     1     -29.257  43.007  91.066  1.00  0.00    -0.550 OA
ATOM     10  O   UNL     1     -27.735  42.448  89.448  1.00  0.00    -0.550 OA
ENDBRANCH   7   8
ENDBRANCH   6   7
ENDBRANCH   5   6
ENDBRANCH   4   5
ENDBRANCH   3   4
ENDBRANCH   2   3
ENDBRANCH   1   2
BRANCH   1  11
ATOM     11  C   UNL     1     -22.355  46.394  85.595  1.00  0.00     0.000 C 
BRANCH  11  12
ATOM     12  C   UNL     1     -21.148  46.927  84.796  1.00  0.00    -0.000 C 
BRANCH  12  13
ATOM     13  C   UNL     1     -21.046  46.413  83.347  1.00  0.00    -0.000 C 
BRANCH  13  14
ATOM     14  C   UNL     1     -19.631  46.459  82.740  1.00  0.00    -0.000 C 
BRANCH  14  15
ATOM     15  C   UNL     1     -18.523  46.766  83.770  1.00  0.00    -0.000 C 
BRANCH  15  16
ATOM     16  C   UNL     1     -17.657  45.535  84.091  1.00  0.00    -0.000 C 
BRANCH  16  17
ATOM     17  C   UNL     1     -17.950  44.955  85.483  1.00  0.00    -0.003 C 
ATOM     18  C   UNL     1     -18.929  43.781  85.439  1.00  0.00     0.004 C 
ENDBRANCH  16  17
ENDBRANCH  15  16
ENDBRANCH  14  15
ENDBRANCH  13  14
ENDBRANCH  12  13
ENDBRANCH  11  12
ENDBRANCH   1  11
TORSDOF 14
ENDMDL
MODEL 8
REMARK VINA RESULT:    -4.801      7.194     10.231
REMARK INTER + INTRA:         -10.104
REMARK INTER:                  -8.430
REMARK INTRA:                  -1.674
REMARK UNBOUND:                -1.373
REMARK SMILES CCCCCCCCCCCCCCCC(=O)[O-]
REMARK SMILES IDX 9 1 10 2 11 3 12 4 13 5 14 6 15 7 16 8 17 9 18 10 8 11 7 12
REMARK SMILES IDX 6 13 5 14 4 15 3 16 2 17 1 18
REMARK H PARENT
REMARK Flexibility Score: inf
ROOT
ATOM      1  C   UNL     1     -23.438  45.590  86.916  1.00  0.00     0.000 C 
ENDROOT
BRANCH   1   2
ATOM      2  C   UNL     1     -24.637  46.532  87.126  1.00  0.00     0.000 C 
BRANCH   2   3
ATOM      3  C   UNL     1     -25.871  45.806  87.685  1.00  0.00     0.000 C 
BRANCH   3   4
ATOM      4  C   UNL     1     -26.519  46.564  88.857  1.00  0.00     0.000 C 
BRANCH   4   5
ATOM      5  C   UNL     1     -26.165  45.954  90.223  1.00  0.00     0.000 C 
BRANCH   5   6
ATOM      6  C   UNL     1     -26.084  44.417  90.183  1.00  0.00     0.006 C 
BRANCH   6   7
ATOM      7  C   UNL     1     -26.972  43.764  91.250  1.00  0.00     0.053 C 
BRANCH   7   8
ATOM      8  C   UNL     1     -28.102  42.991  90.642  1.00  0.00     0.041 C 
ATOM      9  O   UNL     1     -28.048  42.633  89.436  1.00  0.00    -0.550 OA
ATOM     10  O   UNL     1     -29.201  42.639  91.415  1.00  0.00    -0.550 OA
ENDBRANCH   7   8
ENDBRANCH   6   7
ENDBRANCH   5   6
ENDBRANCH   4   5
ENDBRANCH   3   4
ENDBRANCH   2   3
ENDBRANCH   1   2
BRANCH   1  11
ATOM     11  C   UNL     1     -23.025  44.854  88.203  1.00  0.00     0.000 C 
BRANCH  11  12
ATOM     12  C   UNL     1     -22.966  43.316  88.084  1.00  0.00    -0.000 C 
BRANCH  12  13
ATOM     13  C   UNL     1     -21.922  42.631  88.986  1.00  0.00    -0.000 C 
BRANCH  13  14
ATOM     14  C   UNL     1     -20.647  42.161  88.262  1.00  0.00    -0.000 C 
BRANCH  14  15
ATOM     15  C   UNL     1     -20.771  42.159  86.723  1.00  0.00    -0.000 C 
BRANCH  15  16
ATOM     16  C   UNL     1     -19.646  42.955  86.040  1.00  0.00    -0.000 C 
BRANCH  16  17
ATOM     17  C   UNL     1     -19.953  44.458  85.960  1.00  0.00    -0.003 C 
ATOM     18  C   UNL     1     -20.692  44.842  84.678  1.00  0.00     0.004 C 
ENDBRANCH  16  17
ENDBRANCH  15  16
ENDBRANCH  14  15
ENDBRANCH  13  14
ENDBRANCH  12  13
ENDBRANCH  11  12
ENDBRANCH   1  11
TORSDOF 14
ENDMDL
MODEL 9
REMARK VINA RESULT:    -4.799      4.282      7.379
REMARK INTER + INTRA:         -10.100
REMARK INTER:                  -8.678
REMARK INTRA:                  -1.422
REMARK UNBOUND:                -1.373
REMARK SMILES CCCCCCCCCCCCCCCC(=O)[O-]
REMARK SMILES IDX 9 1 10 2 11 3 12 4 13 5 14 6 15 7 16 8 17 9 18 10 8 11 7 12
REMARK SMILES IDX 6 13 5 14 4 15 3 16 2 17 1 18
REMARK H PARENT
REMARK Flexibility Score: inf
ROOT
ATOM      1  C   UNL     1     -19.854  42.653  86.150  1.00  0.00     0.000 C 
ENDROOT
BRANCH   1   2
ATOM      2  C   UNL     1     -19.736  41.328  86.925  1.00  0.00     0.000 C 
BRANCH   2   3
ATOM      3  C   UNL     1     -20.620  41.294  88.180  1.00  0.00     0.000 C 
BRANCH   3   4
ATOM      4  C   UNL     1     -19.809  41.056  89.466  1.00  0.00     0.000 C 
BRANCH   4   5
ATOM      5  C   UNL     1     -20.661  40.470  90.603  1.00  0.00     0.000 C 
BRANCH   5   6
ATOM      6  C   UNL     1     -20.628  38.931  90.636  1.00  0.00     0.006 C 
BRANCH   6   7
ATOM      7  C   UNL     1     -19.214  38.379  90.410  1.00  0.00     0.053 C 
BRANCH   7   8
ATOM      8  C   UNL     1     -19.166  37.418  89.261  1.00  0.00     0.041 C 
ATOM      9  O   UNL     1     -18.702  36.260  89.423  1.00  0.00    -0.550 OA
ATOM     10  O   UNL     1     -19.661  37.794  88.018  1.00  0.00    -0.550 OA
ENDBRANCH   7   8
ENDBRANCH   6   7
ENDBRANCH   5   6
ENDBRANCH   4   5
ENDBRANCH   3   4
ENDBRANCH   2   3
ENDBRANCH   1   2
BRANCH   1  11
ATOM     11  C   UNL     1     -20.276  43.832  87.045  1.00  0.00     0.000 C 
BRANCH  11  12
ATOM     12  C   UNL     1     -21.586  44.532  86.626  1.00  0.00    -0.000 C 
BRANCH  12  13
ATOM     13  C   UNL     1     -21.415  45.961  86.077  1.00  0.00    -0.000 C 
BRANCH  13  14
ATOM     14  C   UNL     1     -20.849  46.044  84.648  1.00  0.00    -0.000 C 
BRANCH  14  15
ATOM     15  C   UNL     1     -19.720  47.085  84.486  1.00  0.00    -0.000 C 
BRANCH  15  16
ATOM     16  C   UNL     1     -18.560  46.567  83.617  1.00  0.00    -0.000 C 
BRANCH  16  17
ATOM     17  C   UNL     1     -18.063  45.183  84.063  1.00  0.00    -0.003 C 
ATOM     18  C   UNL     1     -17.197  45.245  85.322  1.00  0.00     0.004 C 
ENDBRANCH  16  17
ENDBRANCH  15  16
ENDBRANCH  14  15
ENDBRANCH  13  14
ENDBRANCH  12  13
ENDBRANCH  11  12
ENDBRANCH   1  11
TORSDOF 14
ENDMDL
