MODEL 1
REMARK VINA RESULT:    -3.674      0.000      0.000
REMARK INTER + INTRA:          -4.865
REMARK INTER:                  -4.749
REMARK INTRA:                  -0.116
REMARK UNBOUND:                -0.116
REMARK SMILES C=CC(=O)CCCCC
REMARK SMILES IDX 6 1 7 2 8 3 9 4 5 5 3 6 4 7 2 8 1 9
REMARK H PARENT
REMARK Flexibility Score: inf
ROOT
ATOM      1  C   UNL     1     142.309 155.127 203.038  1.00  0.00     0.008 C 
ENDROOT
BRANCH   1   2
ATOM      2  C   UNL     1     142.093 156.645 203.111  1.00  0.00     0.000 C 
BRANCH   2   3
ATOM      3  C   UNL     1     142.737 157.231 204.372  1.00  0.00    -0.003 C 
ATOM      4  C   UNL     1     142.734 156.219 205.514  1.00  0.00     0.004 C 
ENDBRANCH   2   3
ENDBRANCH   1   2
BRANCH   1   5
ATOM      5  C   UNL     1     142.015 154.563 201.641  1.00  0.00     0.080 C 
BRANCH   5   6
ATOM      6  C   UNL     1     142.434 153.126 201.517  1.00  0.00     0.155 C 
ATOM      7  O   UNL     1     143.377 152.695 202.235  1.00  0.00    -0.295 OA
BRANCH   6   8
ATOM      8  C   UNL     1     141.768 152.239 200.543  1.00  0.00     0.039 C 
ATOM      9  C   UNL     1     142.440 151.363 199.798  1.00  0.00     0.012 C 
ENDBRANCH   6   8
ENDBRANCH   5   6
ENDBRANCH   1   5
TORSDOF 5
ENDMDL
MODEL 2
REMARK VINA RESULT:    -3.661      2.007      4.702
REMARK INTER + INTRA:          -4.847
REMARK INTER:                  -4.565
REMARK INTRA:                  -0.282
REMARK UNBOUND:                -0.116
REMARK SMILES C=CC(=O)CCCCC
REMARK SMILES IDX 6 1 7 2 8 3 9 4 5 5 3 6 4 7 2 8 1 9
REMARK H PARENT
REMARK Flexibility Score: inf
ROOT
ATOM      1  C   UNL     1     141.313 155.906 202.518  1.00  0.00     0.008 C 
ENDROOT
BRANCH   1   2
ATOM      2  C   UNL     1     141.924 155.119 201.349  1.00  0.00     0.000 C 
BRANCH   2   3
ATOM      3  C   UNL     1     142.284 153.692 201.777  1.00  0.00    -0.003 C 
ATOM      4  C   UNL     1     143.111 152.987 200.706  1.00  0.00     0.004 C 
ENDBRANCH   2   3
ENDBRANCH   1   2
BRANCH   1   5
ATOM      5  C   UNL     1     142.383 156.580 203.388  1.00  0.00     0.080 C 
BRANCH   5   6
ATOM      6  C   UNL     1     142.356 156.074 204.801  1.00  0.00     0.155 C 
ATOM      7  O   UNL     1     141.247 155.931 205.383  1.00  0.00    -0.295 OA
BRANCH   6   8
ATOM      8  C   UNL     1     143.618 155.777 205.508  1.00  0.00     0.039 C 
ATOM      9  C   UNL     1     144.138 154.552 205.559  1.00  0.00     0.012 C 
ENDBRANCH   6   8
ENDBRANCH   5   6
ENDBRANCH   1   5
TORSDOF 5
ENDMDL
MODEL 3
REMARK VINA RESULT:    -3.592      1.284      1.400
REMARK INTER + INTRA:          -4.758
REMARK INTER:                  -4.564
REMARK INTRA:                  -0.194
REMARK UNBOUND:                -0.116
REMARK SMILES C=CC(=O)CCCCC
REMARK SMILES IDX 6 1 7 2 8 3 9 4 5 5 3 6 4 7 2 8 1 9
REMARK H PARENT
REMARK Flexibility Score: inf
ROOT
ATOM      1  C   UNL     1     142.182 155.069 202.684  1.00  0.00     0.008 C 
ENDROOT
BRANCH   1   2
ATOM      2  C   UNL     1     141.979 156.584 202.835  1.00  0.00     0.000 C 
BRANCH   2   3
ATOM      3  C   UNL     1     142.630 157.099 204.123  1.00  0.00    -0.003 C 
ATOM      4  C   UNL     1     142.341 156.169 205.298  1.00  0.00     0.004 C 
ENDBRANCH   2   3
ENDBRANCH   1   2
BRANCH   1   5
ATOM      5  C   UNL     1     141.737 154.556 201.308  1.00  0.00     0.080 C 
BRANCH   5   6
ATOM      6  C   UNL     1     142.071 153.105 201.117  1.00  0.00     0.155 C 
ATOM      7  O   UNL     1     141.402 152.422 200.294  1.00  0.00    -0.295 OA
BRANCH   6   8
ATOM      8  C   UNL     1     143.149 152.480 201.908  1.00  0.00     0.039 C 
ATOM      9  C   UNL     1     143.467 151.191 201.790  1.00  0.00     0.012 C 
ENDBRANCH   6   8
ENDBRANCH   5   6
ENDBRANCH   1   5
TORSDOF 5
ENDMDL
MODEL 4
REMARK VINA RESULT:    -3.522      1.666      5.176
REMARK INTER + INTRA:          -4.668
REMARK INTER:                  -4.511
REMARK INTRA:                  -0.157
REMARK UNBOUND:                -0.116
REMARK SMILES C=CC(=O)CCCCC
REMARK SMILES IDX 6 1 7 2 8 3 9 4 5 5 3 6 4 7 2 8 1 9
REMARK H PARENT
REMARK Flexibility Score: inf
ROOT
ATOM      1  C   UNL     1     142.052 154.001 201.094  1.00  0.00     0.008 C 
ENDROOT
BRANCH   1   2
ATOM      2  C   UNL     1     142.916 152.738 200.971  1.00  0.00     0.000 C 
BRANCH   2   3
ATOM      3  C   UNL     1     142.281 151.731 200.006  1.00  0.00    -0.003 C 
ATOM      4  C   UNL     1     140.947 151.219 200.542  1.00  0.00     0.004 C 
ENDBRANCH   2   3
ENDBRANCH   1   2
BRANCH   1   5
ATOM      5  C   UNL     1     142.170 154.655 202.478  1.00  0.00     0.080 C 
BRANCH   5   6
ATOM      6  C   UNL     1     142.057 156.150 202.402  1.00  0.00     0.155 C 
ATOM      7  O   UNL     1     141.753 156.690 201.304  1.00  0.00    -0.295 OA
BRANCH   6   8
ATOM      8  C   UNL     1     142.331 156.977 203.594  1.00  0.00     0.039 C 
ATOM      9  C   UNL     1     142.618 156.447 204.782  1.00  0.00     0.012 C 
ENDBRANCH   6   8
ENDBRANCH   5   6
ENDBRANCH   1   5
TORSDOF 5
ENDMDL
MODEL 5
REMARK VINA RESULT:    -3.488     10.609     11.959
REMARK INTER + INTRA:          -4.623
REMARK INTER:                  -4.041
REMARK INTRA:                  -0.582
REMARK UNBOUND:                -0.116
REMARK SMILES C=CC(=O)CCCCC
REMARK SMILES IDX 6 1 7 2 8 3 9 4 5 5 3 6 4 7 2 8 1 9
REMARK H PARENT
REMARK Flexibility Score: inf
ROOT
ATOM      1  C   UNL     1     152.175 161.051 199.671  1.00  0.00     0.008 C 
ENDROOT
BRANCH   1   2
ATOM      2  C   UNL     1     152.133 159.635 199.079  1.00  0.00     0.000 C 
BRANCH   2   3
ATOM      3  C   UNL     1     150.691 159.197 198.805  1.00  0.00    -0.003 C 
ATOM      4  C   UNL     1     149.700 160.300 199.168  1.00  0.00     0.004 C 
ENDBRANCH   2   3
ENDBRANCH   1   2
BRANCH   1   5
ATOM      5  C   UNL     1     152.966 161.111 200.985  1.00  0.00     0.080 C 
BRANCH   5   6
ATOM      6  C   UNL     1     152.092 161.480 202.149  1.00  0.00     0.155 C 
ATOM      7  O   UNL     1     152.270 162.587 202.726  1.00  0.00    -0.295 OA
BRANCH   6   8
ATOM      8  C   UNL     1     151.057 160.542 202.628  1.00  0.00     0.039 C 
ATOM      9  C   UNL     1     151.312 159.257 202.866  1.00  0.00     0.012 C 
ENDBRANCH   6   8
ENDBRANCH   5   6
ENDBRANCH   1   5
TORSDOF 5
ENDMDL
MODEL 6
REMARK VINA RESULT:    -3.424      1.434      1.802
REMARK INTER + INTRA:          -4.541
REMARK INTER:                  -4.392
REMARK INTRA:                  -0.149
REMARK UNBOUND:                -0.116
REMARK SMILES C=CC(=O)CCCCC
REMARK SMILES IDX 6 1 7 2 8 3 9 4 5 5 3 6 4 7 2 8 1 9
REMARK H PARENT
REMARK Flexibility Score: inf
ROOT
ATOM      1  C   UNL     1     141.693 154.877 201.239  1.00  0.00     0.008 C 
ENDROOT
BRANCH   1   2
ATOM      2  C   UNL     1     142.105 156.190 201.920  1.00  0.00     0.000 C 
BRANCH   2   3
ATOM      3  C   UNL     1     141.763 156.166 203.413  1.00  0.00    -0.003 C 
ATOM      4  C   UNL     1     142.684 157.088 204.206  1.00  0.00     0.004 C 
ENDBRANCH   2   3
ENDBRANCH   1   2
BRANCH   1   5
ATOM      5  C   UNL     1     142.493 153.675 201.760  1.00  0.00     0.080 C 
BRANCH   5   6
ATOM      6  C   UNL     1     142.637 152.604 200.718  1.00  0.00     0.155 C 
ATOM      7  O   UNL     1     141.601 152.081 200.224  1.00  0.00    -0.295 OA
BRANCH   6   8
ATOM      8  C   UNL     1     143.978 152.148 200.300  1.00  0.00     0.039 C 
ATOM      9  C   UNL     1     144.243 151.749 199.057  1.00  0.00     0.012 C 
ENDBRANCH   6   8
ENDBRANCH   5   6
ENDBRANCH   1   5
TORSDOF 5
ENDMDL
MODEL 7
REMARK VINA RESULT:    -3.422     10.074     11.080
REMARK INTER + INTRA:          -4.539
REMARK INTER:                  -3.977
REMARK INTRA:                  -0.562
REMARK UNBOUND:                -0.116
REMARK SMILES C=CC(=O)CCCCC
REMARK SMILES IDX 6 1 7 2 8 3 9 4 5 5 3 6 4 7 2 8 1 9
REMARK H PARENT
REMARK Flexibility Score: inf
ROOT
ATOM      1  C   UNL     1     152.861 160.793 200.789  1.00  0.00     0.008 C 
ENDROOT
BRANCH   1   2
ATOM      2  C   UNL     1     152.363 161.667 201.949  1.00  0.00     0.000 C 
BRANCH   2   3
ATOM      3  C   UNL     1     151.288 160.939 202.763  1.00  0.00    -0.003 C 
ATOM      4  C   UNL     1     151.610 159.453 202.898  1.00  0.00     0.004 C 
ENDBRANCH   2   3
ENDBRANCH   1   2
BRANCH   1   5
ATOM      5  C   UNL     1     152.068 161.033 199.497  1.00  0.00     0.080 C 
BRANCH   5   6
ATOM      6  C   UNL     1     151.066 159.944 199.244  1.00  0.00     0.155 C 
ATOM      7  O   UNL     1     151.457 158.746 199.197  1.00  0.00    -0.295 OA
BRANCH   6   8
ATOM      8  C   UNL     1     149.645 160.277 199.022  1.00  0.00     0.039 C 
ATOM      9  C   UNL     1     148.811 160.553 200.023  1.00  0.00     0.012 C 
ENDBRANCH   6   8
ENDBRANCH   5   6
ENDBRANCH   1   5
TORSDOF 5
ENDMDL
MODEL 8
REMARK VINA RESULT:    -3.367     10.838     12.026
REMARK INTER + INTRA:          -4.468
REMARK INTER:                  -3.885
REMARK INTRA:                  -0.583
REMARK UNBOUND:                -0.116
REMARK SMILES C=CC(=O)CCCCC
REMARK SMILES IDX 6 1 7 2 8 3 9 4 5 5 3 6 4 7 2 8 1 9
REMARK H PARENT
REMARK Flexibility Score: inf
ROOT
ATOM      1  C   UNL     1     152.057 161.143 200.407  1.00  0.00     0.008 C 
ENDROOT
BRANCH   1   2
ATOM      2  C   UNL     1     153.435 160.664 199.928  1.00  0.00     0.000 C 
BRANCH   2   3
ATOM      3  C   UNL     1     154.456 160.700 201.069  1.00  0.00    -0.003 C 
ATOM      4  C   UNL     1     155.097 159.331 201.280  1.00  0.00     0.004 C 
ENDBRANCH   2   3
ENDBRANCH   1   2
BRANCH   1   5
ATOM      5  C   UNL     1     151.996 161.310 201.931  1.00  0.00     0.080 C 
BRANCH   5   6
ATOM      6  C   UNL     1     151.123 160.271 202.574  1.00  0.00     0.155 C 
ATOM      7  O   UNL     1     149.874 160.444 202.596  1.00  0.00    -0.295 OA
BRANCH   6   8
ATOM      8  C   UNL     1     151.725 159.076 203.199  1.00  0.00     0.039 C 
ATOM      9  C   UNL     1     151.870 157.924 202.546  1.00  0.00     0.012 C 
ENDBRANCH   6   8
ENDBRANCH   5   6
ENDBRANCH   1   5
TORSDOF 5
ENDMDL
MODEL 9
REMARK VINA RESULT:    -3.269     10.425     11.158
REMARK INTER + INTRA:          -4.340
REMARK INTER:                  -3.828
REMARK INTRA:                  -0.512
REMARK UNBOUND:                -0.116
REMARK SMILES C=CC(=O)CCCCC
REMARK SMILES IDX 6 1 7 2 8 3 9 4 5 5 3 6 4 7 2 8 1 9
REMARK H PARENT
REMARK Flexibility Score: inf
ROOT
ATOM      1  C   UNL     1     152.887 160.877 200.864  1.00  0.00     0.008 C 
ENDROOT
BRANCH   1   2
ATOM      2  C   UNL     1     152.257 161.712 201.988  1.00  0.00     0.000 C 
BRANCH   2   3
ATOM      3  C   UNL     1     151.239 160.885 202.781  1.00  0.00    -0.003 C 
ATOM      4  C   UNL     1     151.658 159.420 202.858  1.00  0.00     0.004 C 
ENDBRANCH   2   3
ENDBRANCH   1   2
BRANCH   1   5
ATOM      5  C   UNL     1     152.204 161.113 199.510  1.00  0.00     0.080 C 
BRANCH   5   6
ATOM      6  C   UNL     1     151.154 160.078 199.225  1.00  0.00     0.155 C 
ATOM      7  O   UNL     1     149.946 160.342 199.472  1.00  0.00    -0.295 OA
BRANCH   6   8
ATOM      8  C   UNL     1     151.538 158.756 198.691  1.00  0.00     0.039 C 
ATOM      9  C   UNL     1     151.616 157.670 199.458  1.00  0.00     0.012 C 
ENDBRANCH   6   8
ENDBRANCH   5   6
ENDBRANCH   1   5
TORSDOF 5
ENDMDL
