MODEL 1
REMARK VINA RESULT:    -4.588      0.000      0.000
REMARK INTER + INTRA:          -9.380
REMARK INTER:                  -7.807
REMARK INTRA:                  -1.573
REMARK UNBOUND:                -1.573
REMARK SMILES CCCCCCCCCCCCCC(=O)[O-]
REMARK SMILES IDX 8 1 9 2 10 3 11 4 12 5 13 6 14 7 15 8 16 9 7 10 6 11 5 12
REMARK SMILES IDX 4 13 3 14 2 15 1 16
REMARK H PARENT
REMARK Flexibility Score: inf
ROOT
ATOM      1  C   UNL     1     -24.911 -63.337   3.165  1.00  0.00     0.000 C 
ENDROOT
BRANCH   1   2
ATOM      2  C   UNL     1     -23.390 -63.205   2.975  1.00  0.00     0.000 C 
BRANCH   2   3
ATOM      3  C   UNL     1     -22.968 -63.321   1.501  1.00  0.00     0.000 C 
BRANCH   3   4
ATOM      4  C   UNL     1     -21.875 -62.305   1.121  1.00  0.00     0.000 C 
BRANCH   4   5
ATOM      5  C   UNL     1     -22.230 -61.502  -0.140  1.00  0.00     0.006 C 
BRANCH   5   6
ATOM      6  C   UNL     1     -22.203 -59.987   0.098  1.00  0.00     0.053 C 
BRANCH   6   7
ATOM      7  C   UNL     1     -23.021 -59.281  -0.935  1.00  0.00     0.041 C 
ATOM      8  O   UNL     1     -23.776 -59.934  -1.703  1.00  0.00    -0.550 OA
ATOM      9  O   UNL     1     -22.990 -57.894  -1.018  1.00  0.00    -0.550 OA
ENDBRANCH   6   7
ENDBRANCH   5   6
ENDBRANCH   4   5
ENDBRANCH   3   4
ENDBRANCH   2   3
ENDBRANCH   1   2
BRANCH   1  10
ATOM     10  C   UNL     1     -25.590 -61.987   3.439  1.00  0.00     0.000 C 
BRANCH  10  11
ATOM     11  C   UNL     1     -25.141 -60.891   2.458  1.00  0.00    -0.000 C 
BRANCH  11  12
ATOM     12  C   UNL     1     -24.872 -59.546   3.155  1.00  0.00    -0.000 C 
BRANCH  12  13
ATOM     13  C   UNL     1     -23.378 -59.304   3.469  1.00  0.00    -0.000 C 
BRANCH  13  14
ATOM     14  C   UNL     1     -23.130 -58.811   4.906  1.00  0.00    -0.000 C 
BRANCH  14  15
ATOM     15  C   UNL     1     -23.407 -59.902   5.950  1.00  0.00    -0.003 C 
ATOM     16  C   UNL     1     -22.450 -61.078   5.783  1.00  0.00     0.004 C 
ENDBRANCH  14  15
ENDBRANCH  13  14
ENDBRANCH  12  13
ENDBRANCH  11  12
ENDBRANCH  10  11
ENDBRANCH   1  10
TORSDOF 12
ENDMDL
MODEL 2
REMARK VINA RESULT:    -4.520      3.017      5.638
REMARK INTER + INTRA:          -9.264
REMARK INTER:                  -7.336
REMARK INTRA:                  -1.928
REMARK UNBOUND:                -1.573
REMARK SMILES CCCCCCCCCCCCCC(=O)[O-]
REMARK SMILES IDX 8 1 9 2 10 3 11 4 12 5 13 6 14 7 15 8 16 9 7 10 6 11 5 12
REMARK SMILES IDX 4 13 3 14 2 15 1 16
REMARK H PARENT
REMARK Flexibility Score: inf
ROOT
ATOM      1  C   UNL     1     -21.875 -59.001   0.903  1.00  0.00     0.000 C 
ENDROOT
BRANCH   1   2
ATOM      2  C   UNL     1     -22.772 -58.144   1.814  1.00  0.00     0.000 C 
BRANCH   2   3
ATOM      3  C   UNL     1     -23.695 -58.995   2.701  1.00  0.00     0.000 C 
BRANCH   3   4
ATOM      4  C   UNL     1     -23.230 -60.459   2.801  1.00  0.00     0.000 C 
BRANCH   4   5
ATOM      5  C   UNL     1     -24.295 -61.451   2.307  1.00  0.00     0.006 C 
BRANCH   5   6
ATOM      6  C   UNL     1     -24.489 -62.633   3.264  1.00  0.00     0.053 C 
BRANCH   6   7
ATOM      7  C   UNL     1     -23.520 -63.727   2.947  1.00  0.00     0.041 C 
ATOM      8  O   UNL     1     -22.900 -63.727   1.851  1.00  0.00    -0.550 OA
ATOM      9  O   UNL     1     -23.263 -64.721   3.883  1.00  0.00    -0.550 OA
ENDBRANCH   6   7
ENDBRANCH   5   6
ENDBRANCH   4   5
ENDBRANCH   3   4
ENDBRANCH   2   3
ENDBRANCH   1   2
BRANCH   1  10
ATOM     10  C   UNL     1     -22.251 -58.873  -0.581  1.00  0.00     0.000 C 
BRANCH  10  11
ATOM     11  C   UNL     1     -23.196 -59.992  -1.049  1.00  0.00    -0.000 C 
BRANCH  11  12
ATOM     12  C   UNL     1     -24.546 -59.456  -1.554  1.00  0.00    -0.000 C 
BRANCH  12  13
ATOM     13  C   UNL     1     -25.678 -59.554  -0.505  1.00  0.00    -0.000 C 
BRANCH  13  14
ATOM     14  C   UNL     1     -26.117 -58.186   0.046  1.00  0.00    -0.000 C 
BRANCH  14  15
ATOM     15  C   UNL     1     -25.441 -57.020  -0.689  1.00  0.00    -0.003 C 
ATOM     16  C   UNL     1     -25.265 -55.817   0.232  1.00  0.00     0.004 C 
ENDBRANCH  14  15
ENDBRANCH  13  14
ENDBRANCH  12  13
ENDBRANCH  11  12
ENDBRANCH  10  11
ENDBRANCH   1  10
TORSDOF 12
ENDMDL
MODEL 3
REMARK VINA RESULT:    -4.518      1.151      2.264
REMARK INTER + INTRA:          -9.260
REMARK INTER:                  -7.509
REMARK INTRA:                  -1.751
REMARK UNBOUND:                -1.573
REMARK SMILES CCCCCCCCCCCCCC(=O)[O-]
REMARK SMILES IDX 8 1 9 2 10 3 11 4 12 5 13 6 14 7 15 8 16 9 7 10 6 11 5 12
REMARK SMILES IDX 4 13 3 14 2 15 1 16
REMARK H PARENT
REMARK Flexibility Score: inf
ROOT
ATOM      1  C   UNL     1     -25.012 -62.108   2.869  1.00  0.00     0.000 C 
ENDROOT
BRANCH   1   2
ATOM      2  C   UNL     1     -24.031 -63.238   2.513  1.00  0.00     0.000 C 
BRANCH   2   3
ATOM      3  C   UNL     1     -22.646 -62.709   2.103  1.00  0.00     0.000 C 
BRANCH   3   4
ATOM      4  C   UNL     1     -22.697 -61.256   1.598  1.00  0.00     0.000 C 
BRANCH   4   5
ATOM      5  C   UNL     1     -22.257 -61.126   0.132  1.00  0.00     0.006 C 
BRANCH   5   6
ATOM      6  C   UNL     1     -21.953 -59.676  -0.267  1.00  0.00     0.053 C 
BRANCH   6   7
ATOM      7  C   UNL     1     -23.077 -59.110  -1.074  1.00  0.00     0.041 C 
ATOM      8  O   UNL     1     -23.237 -57.863  -1.153  1.00  0.00    -0.550 OA
ATOM      9  O   UNL     1     -23.920 -59.957  -1.782  1.00  0.00    -0.550 OA
ENDBRANCH   6   7
ENDBRANCH   5   6
ENDBRANCH   4   5
ENDBRANCH   3   4
ENDBRANCH   2   3
ENDBRANCH   1   2
BRANCH   1  10
ATOM     10  C   UNL     1     -25.996 -62.510   3.978  1.00  0.00     0.000 C 
BRANCH  10  11
ATOM     11  C   UNL     1     -25.370 -63.474   5.001  1.00  0.00    -0.000 C 
BRANCH  11  12
ATOM     12  C   UNL     1     -24.679 -62.739   6.162  1.00  0.00    -0.000 C 
BRANCH  12  13
ATOM     13  C   UNL     1     -23.136 -62.813   6.105  1.00  0.00    -0.000 C 
BRANCH  13  14
ATOM     14  C   UNL     1     -22.476 -61.473   5.734  1.00  0.00    -0.000 C 
BRANCH  14  15
ATOM     15  C   UNL     1     -23.440 -60.288   5.890  1.00  0.00    -0.003 C 
ATOM     16  C   UNL     1     -23.276 -59.292   4.746  1.00  0.00     0.004 C 
ENDBRANCH  14  15
ENDBRANCH  13  14
ENDBRANCH  12  13
ENDBRANCH  11  12
ENDBRANCH  10  11
ENDBRANCH   1  10
TORSDOF 12
ENDMDL
MODEL 4
REMARK VINA RESULT:    -4.420      2.271      4.244
REMARK INTER + INTRA:          -9.094
REMARK INTER:                  -8.119
REMARK INTRA:                  -0.975
REMARK UNBOUND:                -1.573
REMARK SMILES CCCCCCCCCCCCCC(=O)[O-]
REMARK SMILES IDX 8 1 9 2 10 3 11 4 12 5 13 6 14 7 15 8 16 9 7 10 6 11 5 12
REMARK SMILES IDX 4 13 3 14 2 15 1 16
REMARK H PARENT
REMARK Flexibility Score: inf
ROOT
ATOM      1  C   UNL     1     -22.980 -59.432   1.999  1.00  0.00     0.000 C 
ENDROOT
BRANCH   1   2
ATOM      2  C   UNL     1     -21.956 -59.587   0.861  1.00  0.00     0.000 C 
BRANCH   2   3
ATOM      3  C   UNL     1     -22.402 -58.886  -0.433  1.00  0.00     0.000 C 
BRANCH   3   4
ATOM      4  C   UNL     1     -23.200 -59.818  -1.362  1.00  0.00     0.000 C 
BRANCH   4   5
ATOM      5  C   UNL     1     -24.715 -59.570  -1.285  1.00  0.00     0.006 C 
BRANCH   5   6
ATOM      6  C   UNL     1     -25.125 -58.223  -1.892  1.00  0.00     0.053 C 
BRANCH   6   7
ATOM      7  C   UNL     1     -26.027 -58.432  -3.066  1.00  0.00     0.041 C 
ATOM      8  O   UNL     1     -25.934 -59.478  -3.759  1.00  0.00    -0.550 OA
ATOM      9  O   UNL     1     -27.007 -57.493  -3.365  1.00  0.00    -0.550 OA
ENDBRANCH   6   7
ENDBRANCH   5   6
ENDBRANCH   4   5
ENDBRANCH   3   4
ENDBRANCH   2   3
ENDBRANCH   1   2
BRANCH   1  10
ATOM     10  C   UNL     1     -23.649 -60.762   2.374  1.00  0.00     0.000 C 
BRANCH  10  11
ATOM     11  C   UNL     1     -22.903 -61.980   1.803  1.00  0.00    -0.000 C 
BRANCH  11  12
ATOM     12  C   UNL     1     -23.486 -63.316   2.294  1.00  0.00    -0.000 C 
BRANCH  12  13
ATOM     13  C   UNL     1     -24.777 -63.154   3.129  1.00  0.00    -0.000 C 
BRANCH  13  14
ATOM     14  C   UNL     1     -25.166 -64.428   3.901  1.00  0.00    -0.000 C 
BRANCH  14  15
ATOM     15  C   UNL     1     -26.478 -64.257   4.680  1.00  0.00    -0.003 C 
ATOM     16  C   UNL     1     -26.975 -62.817   4.609  1.00  0.00     0.004 C 
ENDBRANCH  14  15
ENDBRANCH  13  14
ENDBRANCH  12  13
ENDBRANCH  11  12
ENDBRANCH  10  11
ENDBRANCH   1  10
TORSDOF 12
ENDMDL
MODEL 5
REMARK VINA RESULT:    -4.410      1.732      3.628
REMARK INTER + INTRA:          -9.077
REMARK INTER:                  -7.304
REMARK INTRA:                  -1.773
REMARK UNBOUND:                -1.573
REMARK SMILES CCCCCCCCCCCCCC(=O)[O-]
REMARK SMILES IDX 8 1 9 2 10 3 11 4 12 5 13 6 14 7 15 8 16 9 7 10 6 11 5 12
REMARK SMILES IDX 4 13 3 14 2 15 1 16
REMARK H PARENT
REMARK Flexibility Score: inf
ROOT
ATOM      1  C   UNL     1     -23.358 -58.014   2.585  1.00  0.00     0.000 C 
ENDROOT
BRANCH   1   2
ATOM      2  C   UNL     1     -22.254 -57.771   1.542  1.00  0.00     0.000 C 
BRANCH   2   3
ATOM      3  C   UNL     1     -21.894 -59.043   0.757  1.00  0.00     0.000 C 
BRANCH   3   4
ATOM      4  C   UNL     1     -22.410 -59.005  -0.693  1.00  0.00     0.000 C 
BRANCH   4   5
ATOM      5  C   UNL     1     -23.618 -59.929  -0.912  1.00  0.00     0.006 C 
BRANCH   5   6
ATOM      6  C   UNL     1     -24.949 -59.167  -0.931  1.00  0.00     0.053 C 
BRANCH   6   7
ATOM      7  C   UNL     1     -25.224 -58.629  -2.299  1.00  0.00     0.041 C 
ATOM      8  O   UNL     1     -24.927 -57.440  -2.585  1.00  0.00    -0.550 OA
ATOM      9  O   UNL     1     -25.761 -59.458  -3.276  1.00  0.00    -0.550 OA
ENDBRANCH   6   7
ENDBRANCH   5   6
ENDBRANCH   4   5
ENDBRANCH   3   4
ENDBRANCH   2   3
ENDBRANCH   1   2
BRANCH   1  10
ATOM     10  C   UNL     1     -23.503 -59.497   2.956  1.00  0.00     0.000 C 
BRANCH  10  11
ATOM     11  C   UNL     1     -24.934 -60.021   2.748  1.00  0.00    -0.000 C 
BRANCH  11  12
ATOM     12  C   UNL     1     -24.978 -61.536   2.484  1.00  0.00    -0.000 C 
BRANCH  12  13
ATOM     13  C   UNL     1     -23.647 -62.105   1.941  1.00  0.00    -0.000 C 
BRANCH  13  14
ATOM     14  C   UNL     1     -23.104 -63.280   2.774  1.00  0.00    -0.000 C 
BRANCH  14  15
ATOM     15  C   UNL     1     -23.469 -63.156   4.260  1.00  0.00    -0.003 C 
ATOM     16  C   UNL     1     -22.298 -62.607   5.070  1.00  0.00     0.004 C 
ENDBRANCH  14  15
ENDBRANCH  13  14
ENDBRANCH  12  13
ENDBRANCH  11  12
ENDBRANCH  10  11
ENDBRANCH   1  10
TORSDOF 12
ENDMDL
MODEL 6
REMARK VINA RESULT:    -4.378      1.528      3.155
REMARK INTER + INTRA:          -9.023
REMARK INTER:                  -7.050
REMARK INTRA:                  -1.973
REMARK UNBOUND:                -1.573
REMARK SMILES CCCCCCCCCCCCCC(=O)[O-]
REMARK SMILES IDX 8 1 9 2 10 3 11 4 12 5 13 6 14 7 15 8 16 9 7 10 6 11 5 12
REMARK SMILES IDX 4 13 3 14 2 15 1 16
REMARK H PARENT
REMARK Flexibility Score: inf
ROOT
ATOM      1  C   UNL     1     -22.061 -61.994   0.733  1.00  0.00     0.000 C 
ENDROOT
BRANCH   1   2
ATOM      2  C   UNL     1     -22.334 -60.494   0.530  1.00  0.00     0.000 C 
BRANCH   2   3
ATOM      3  C   UNL     1     -22.784 -59.796   1.824  1.00  0.00     0.000 C 
BRANCH   3   4
ATOM      4  C   UNL     1     -24.167 -59.135   1.685  1.00  0.00     0.000 C 
BRANCH   4   5
ATOM      5  C   UNL     1     -25.081 -59.881   0.700  1.00  0.00     0.006 C 
BRANCH   5   6
ATOM      6  C   UNL     1     -25.837 -58.933  -0.239  1.00  0.00     0.053 C 
BRANCH   6   7
ATOM      7  C   UNL     1     -25.028 -58.659  -1.466  1.00  0.00     0.041 C 
ATOM      8  O   UNL     1     -24.571 -59.612  -2.151  1.00  0.00    -0.550 OA
ATOM      9  O   UNL     1     -24.822 -57.350  -1.884  1.00  0.00    -0.550 OA
ENDBRANCH   6   7
ENDBRANCH   5   6
ENDBRANCH   4   5
ENDBRANCH   3   4
ENDBRANCH   2   3
ENDBRANCH   1   2
BRANCH   1  10
ATOM     10  C   UNL     1     -22.445 -62.478   2.139  1.00  0.00     0.000 C 
BRANCH  10  11
ATOM     11  C   UNL     1     -23.588 -63.507   2.118  1.00  0.00    -0.000 C 
BRANCH  11  12
ATOM     12  C   UNL     1     -24.425 -63.490   3.408  1.00  0.00    -0.000 C 
BRANCH  12  13
ATOM     13  C   UNL     1     -25.456 -62.339   3.457  1.00  0.00    -0.000 C 
BRANCH  13  14
ATOM     14  C   UNL     1     -25.114 -61.260   4.501  1.00  0.00    -0.000 C 
BRANCH  14  15
ATOM     15  C   UNL     1     -23.969 -61.692   5.429  1.00  0.00    -0.003 C 
ATOM     16  C   UNL     1     -22.861 -60.645   5.459  1.00  0.00     0.004 C 
ENDBRANCH  14  15
ENDBRANCH  13  14
ENDBRANCH  12  13
ENDBRANCH  11  12
ENDBRANCH  10  11
ENDBRANCH   1  10
TORSDOF 12
ENDMDL
MODEL 7
REMARK VINA RESULT:    -4.343      2.853      5.288
REMARK INTER + INTRA:          -8.963
REMARK INTER:                  -7.257
REMARK INTRA:                  -1.706
REMARK UNBOUND:                -1.573
REMARK SMILES CCCCCCCCCCCCCC(=O)[O-]
REMARK SMILES IDX 8 1 9 2 10 3 11 4 12 5 13 6 14 7 15 8 16 9 7 10 6 11 5 12
REMARK SMILES IDX 4 13 3 14 2 15 1 16
REMARK H PARENT
REMARK Flexibility Score: inf
ROOT
ATOM      1  C   UNL     1     -24.801 -59.720  -0.086  1.00  0.00     0.000 C 
ENDROOT
BRANCH   1   2
ATOM      2  C   UNL     1     -25.264 -58.448   0.646  1.00  0.00     0.000 C 
BRANCH   2   3
ATOM      3  C   UNL     1     -24.191 -57.347   0.650  1.00  0.00     0.000 C 
BRANCH   3   4
ATOM      4  C   UNL     1     -23.732 -56.979   2.072  1.00  0.00     0.000 C 
BRANCH   4   5
ATOM      5  C   UNL     1     -22.919 -58.100   2.739  1.00  0.00     0.006 C 
BRANCH   5   6
ATOM      6  C   UNL     1     -23.619 -58.682   3.973  1.00  0.00     0.053 C 
BRANCH   6   7
ATOM      7  C   UNL     1     -22.766 -58.508   5.188  1.00  0.00     0.041 C 
ATOM      8  O   UNL     1     -22.552 -59.480   5.959  1.00  0.00    -0.550 OA
ATOM      9  O   UNL     1     -22.164 -57.282   5.444  1.00  0.00    -0.550 OA
ENDBRANCH   6   7
ENDBRANCH   5   6
ENDBRANCH   4   5
ENDBRANCH   3   4
ENDBRANCH   2   3
ENDBRANCH   1   2
BRANCH   1  10
ATOM     10  C   UNL     1     -23.861 -59.415  -1.262  1.00  0.00     0.000 C 
BRANCH  10  11
ATOM     11  C   UNL     1     -22.596 -60.289  -1.248  1.00  0.00    -0.000 C 
BRANCH  11  12
ATOM     12  C   UNL     1     -22.031 -60.492   0.169  1.00  0.00    -0.000 C 
BRANCH  12  13
ATOM     13  C   UNL     1     -22.214 -61.930   0.704  1.00  0.00    -0.000 C 
BRANCH  13  14
ATOM     14  C   UNL     1     -22.624 -61.980   2.187  1.00  0.00    -0.000 C 
BRANCH  14  15
ATOM     15  C   UNL     1     -23.887 -62.823   2.412  1.00  0.00    -0.003 C 
ATOM     16  C   UNL     1     -25.055 -61.954   2.868  1.00  0.00     0.004 C 
ENDBRANCH  14  15
ENDBRANCH  13  14
ENDBRANCH  12  13
ENDBRANCH  11  12
ENDBRANCH  10  11
ENDBRANCH   1  10
TORSDOF 12
ENDMDL
MODEL 8
REMARK VINA RESULT:    -4.290      1.883      3.129
REMARK INTER + INTRA:          -8.872
REMARK INTER:                  -7.164
REMARK INTRA:                  -1.708
REMARK UNBOUND:                -1.573
REMARK SMILES CCCCCCCCCCCCCC(=O)[O-]
REMARK SMILES IDX 8 1 9 2 10 3 11 4 12 5 13 6 14 7 15 8 16 9 7 10 6 11 5 12
REMARK SMILES IDX 4 13 3 14 2 15 1 16
REMARK H PARENT
REMARK Flexibility Score: inf
ROOT
ATOM      1  C   UNL     1     -22.608 -62.221   2.018  1.00  0.00     0.000 C 
ENDROOT
BRANCH   1   2
ATOM      2  C   UNL     1     -21.953 -62.035   0.638  1.00  0.00     0.000 C 
BRANCH   2   3
ATOM      3  C   UNL     1     -21.877 -60.559   0.216  1.00  0.00     0.000 C 
BRANCH   3   4
ATOM      4  C   UNL     1     -22.749 -60.253  -1.015  1.00  0.00     0.000 C 
BRANCH   4   5
ATOM      5  C   UNL     1     -23.881 -59.262  -0.705  1.00  0.00     0.006 C 
BRANCH   5   6
ATOM      6  C   UNL     1     -25.130 -59.505  -1.561  1.00  0.00     0.053 C 
BRANCH   6   7
ATOM      7  C   UNL     1     -25.426 -58.307  -2.406  1.00  0.00     0.041 C 
ATOM      8  O   UNL     1     -26.523 -58.216  -3.017  1.00  0.00    -0.550 OA
ATOM      9  O   UNL     1     -24.511 -57.264  -2.477  1.00  0.00    -0.550 OA
ENDBRANCH   6   7
ENDBRANCH   5   6
ENDBRANCH   4   5
ENDBRANCH   3   4
ENDBRANCH   2   3
ENDBRANCH   1   2
BRANCH   1  10
ATOM     10  C   UNL     1     -24.121 -61.962   1.992  1.00  0.00     0.000 C 
BRANCH  10  11
ATOM     11  C   UNL     1     -24.554 -60.892   3.010  1.00  0.00    -0.000 C 
BRANCH  11  12
ATOM     12  C   UNL     1     -23.388 -60.398   3.883  1.00  0.00    -0.000 C 
BRANCH  12  13
ATOM     13  C   UNL     1     -23.329 -58.860   4.017  1.00  0.00    -0.000 C 
BRANCH  13  14
ATOM     14  C   UNL     1     -23.058 -58.142   2.683  1.00  0.00    -0.000 C 
BRANCH  14  15
ATOM     15  C   UNL     1     -23.864 -56.842   2.548  1.00  0.00    -0.003 C 
ATOM     16  C   UNL     1     -25.197 -57.092   1.850  1.00  0.00     0.004 C 
ENDBRANCH  14  15
ENDBRANCH  13  14
ENDBRANCH  12  13
ENDBRANCH  11  12
ENDBRANCH  10  11
ENDBRANCH   1  10
TORSDOF 12
ENDMDL
MODEL 9
REMARK VINA RESULT:    -4.258      1.926      3.653
REMARK INTER + INTRA:          -8.818
REMARK INTER:                  -7.016
REMARK INTRA:                  -1.803
REMARK UNBOUND:                -1.573
REMARK SMILES CCCCCCCCCCCCCC(=O)[O-]
REMARK SMILES IDX 8 1 9 2 10 3 11 4 12 5 13 6 14 7 15 8 16 9 7 10 6 11 5 12
REMARK SMILES IDX 4 13 3 14 2 15 1 16
REMARK H PARENT
REMARK Flexibility Score: inf
ROOT
ATOM      1  C   UNL     1     -21.875 -61.479   0.014  1.00  0.00     0.000 C 
ENDROOT
BRANCH   1   2
ATOM      2  C   UNL     1     -21.905 -59.942  -0.037  1.00  0.00     0.000 C 
BRANCH   2   3
ATOM      3  C   UNL     1     -22.664 -59.407  -1.262  1.00  0.00     0.000 C 
BRANCH   3   4
ATOM      4  C   UNL     1     -24.159 -59.774  -1.234  1.00  0.00     0.000 C 
BRANCH   4   5
ATOM      5  C   UNL     1     -24.949 -58.952  -0.203  1.00  0.00     0.006 C 
BRANCH   5   6
ATOM      6  C   UNL     1     -25.040 -57.467  -0.577  1.00  0.00     0.053 C 
BRANCH   6   7
ATOM      7  C   UNL     1     -25.635 -57.307  -1.939  1.00  0.00     0.041 C 
ATOM      8  O   UNL     1     -26.838 -57.615  -2.146  1.00  0.00    -0.550 OA
ATOM      9  O   UNL     1     -24.875 -56.769  -2.970  1.00  0.00    -0.550 OA
ENDBRANCH   6   7
ENDBRANCH   5   6
ENDBRANCH   4   5
ENDBRANCH   3   4
ENDBRANCH   2   3
ENDBRANCH   1   2
BRANCH   1  10
ATOM     10  C   UNL     1     -21.942 -62.022   1.449  1.00  0.00     0.000 C 
BRANCH  10  11
ATOM     11  C   UNL     1     -23.327 -62.592   1.801  1.00  0.00    -0.000 C 
BRANCH  11  12
ATOM     12  C   UNL     1     -24.252 -61.544   2.443  1.00  0.00    -0.000 C 
BRANCH  12  13
ATOM     13  C   UNL     1     -23.492 -60.361   3.084  1.00  0.00    -0.000 C 
BRANCH  13  14
ATOM     14  C   UNL     1     -24.415 -59.207   3.515  1.00  0.00    -0.000 C 
BRANCH  14  15
ATOM     15  C   UNL     1     -23.640 -57.903   3.754  1.00  0.00    -0.003 C 
ATOM     16  C   UNL     1     -22.668 -57.623   2.612  1.00  0.00     0.004 C 
ENDBRANCH  14  15
ENDBRANCH  13  14
ENDBRANCH  12  13
ENDBRANCH  11  12
ENDBRANCH  10  11
ENDBRANCH   1  10
TORSDOF 12
ENDMDL
