MODEL 1
REMARK VINA RESULT:    -3.877      0.000      0.000
REMARK INTER + INTRA:          -4.849
REMARK INTER:                  -4.783
REMARK INTRA:                  -0.066
REMARK UNBOUND:                -0.066
REMARK SMILES CCCCCC(=O)[O-]
REMARK SMILES IDX 4 1 5 2 6 3 7 4 8 5 3 6 2 7 1 8
REMARK H PARENT
REMARK Flexibility Score: inf
ROOT
ATOM      1  C   UNL     1      -3.392  36.520  17.294  1.00  0.00     0.006 C 
ENDROOT
BRANCH   1   2
ATOM      2  C   UNL     1      -3.290  37.373  18.562  1.00  0.00     0.053 C 
BRANCH   2   3
ATOM      3  C   UNL     1      -4.383  37.018  19.522  1.00  0.00     0.041 C 
ATOM      4  O   UNL     1      -5.097  37.920  20.032  1.00  0.00    -0.550 OA
ATOM      5  O   UNL     1      -4.580  35.692  19.890  1.00  0.00    -0.550 OA
ENDBRANCH   2   3
ENDBRANCH   1   2
BRANCH   1   6
ATOM      6  C   UNL     1      -2.524  37.098  16.171  1.00  0.00     0.000 C 
BRANCH   6   7
ATOM      7  C   UNL     1      -2.989  36.592  14.801  1.00  0.00    -0.003 C 
ATOM      8  C   UNL     1      -3.983  37.558  14.165  1.00  0.00     0.004 C 
ENDBRANCH   6   7
ENDBRANCH   1   6
TORSDOF 4
ENDMDL
MODEL 2
REMARK VINA RESULT:    -3.872      0.157      1.142
REMARK INTER + INTRA:          -4.843
REMARK INTER:                  -4.766
REMARK INTRA:                  -0.077
REMARK UNBOUND:                -0.066
REMARK SMILES CCCCCC(=O)[O-]
REMARK SMILES IDX 4 1 5 2 6 3 7 4 8 5 3 6 2 7 1 8
REMARK H PARENT
REMARK Flexibility Score: inf
ROOT
ATOM      1  C   UNL     1      -3.398  36.477  17.219  1.00  0.00     0.006 C 
ENDROOT
BRANCH   1   2
ATOM      2  C   UNL     1      -3.332  37.353  18.473  1.00  0.00     0.053 C 
BRANCH   2   3
ATOM      3  C   UNL     1      -4.373  36.931  19.462  1.00  0.00     0.041 C 
ATOM      4  O   UNL     1      -4.677  35.716  19.583  1.00  0.00    -0.550 OA
ATOM      5  O   UNL     1      -5.042  37.888  20.216  1.00  0.00    -0.550 OA
ENDBRANCH   2   3
ENDBRANCH   1   2
BRANCH   1   6
ATOM      6  C   UNL     1      -2.489  37.027  16.114  1.00  0.00     0.000 C 
BRANCH   6   7
ATOM      7  C   UNL     1      -3.007  36.632  14.727  1.00  0.00    -0.003 C 
ATOM      8  C   UNL     1      -4.010  37.654  14.201  1.00  0.00     0.004 C 
ENDBRANCH   6   7
ENDBRANCH   1   6
TORSDOF 4
ENDMDL
MODEL 3
REMARK VINA RESULT:    -3.627      2.799      4.471
REMARK INTER + INTRA:          -4.541
REMARK INTER:                  -4.419
REMARK INTRA:                  -0.122
REMARK UNBOUND:                -0.066
REMARK SMILES CCCCCC(=O)[O-]
REMARK SMILES IDX 4 1 5 2 6 3 7 4 8 5 3 6 2 7 1 8
REMARK H PARENT
REMARK Flexibility Score: inf
ROOT
ATOM      1  C   UNL     1      -2.400  37.507  18.084  1.00  0.00     0.006 C 
ENDROOT
BRANCH   1   2
ATOM      2  C   UNL     1      -3.286  36.705  17.125  1.00  0.00     0.053 C 
BRANCH   2   3
ATOM      3  C   UNL     1      -2.986  37.070  15.705  1.00  0.00     0.041 C 
ATOM      4  O   UNL     1      -3.679  37.938  15.113  1.00  0.00    -0.550 OA
ATOM      5  O   UNL     1      -1.971  36.414  15.020  1.00  0.00    -0.550 OA
ENDBRANCH   2   3
ENDBRANCH   1   2
BRANCH   1   6
ATOM      6  C   UNL     1      -2.963  37.477  19.509  1.00  0.00     0.000 C 
BRANCH   6   7
ATOM      7  C   UNL     1      -4.345  36.814  19.542  1.00  0.00    -0.003 C 
ATOM      8  C   UNL     1      -4.418  35.745  20.627  1.00  0.00     0.004 C 
ENDBRANCH   6   7
ENDBRANCH   1   6
TORSDOF 4
ENDMDL
MODEL 4
REMARK VINA RESULT:    -3.613      1.336      1.741
REMARK INTER + INTRA:          -4.524
REMARK INTER:                  -4.444
REMARK INTRA:                  -0.080
REMARK UNBOUND:                -0.066
REMARK SMILES CCCCCC(=O)[O-]
REMARK SMILES IDX 4 1 5 2 6 3 7 4 8 5 3 6 2 7 1 8
REMARK H PARENT
REMARK Flexibility Score: inf
ROOT
ATOM      1  C   UNL     1      -2.828  37.376  18.631  1.00  0.00     0.006 C 
ENDROOT
BRANCH   1   2
ATOM      2  C   UNL     1      -4.067  37.339  19.530  1.00  0.00     0.053 C 
BRANCH   2   3
ATOM      3  C   UNL     1      -4.356  35.938  19.968  1.00  0.00     0.041 C 
ATOM      4  O   UNL     1      -5.123  35.207  19.289  1.00  0.00    -0.550 OA
ATOM      5  O   UNL     1      -3.815  35.456  21.154  1.00  0.00    -0.550 OA
ENDBRANCH   2   3
ENDBRANCH   1   2
BRANCH   1   6
ATOM      6  C   UNL     1      -3.219  37.310  17.151  1.00  0.00     0.000 C 
BRANCH   6   7
ATOM      7  C   UNL     1      -2.098  36.686  16.312  1.00  0.00    -0.003 C 
ATOM      8  C   UNL     1      -2.551  36.452  14.874  1.00  0.00     0.004 C 
ENDBRANCH   6   7
ENDBRANCH   1   6
TORSDOF 4
ENDMDL
MODEL 5
REMARK VINA RESULT:    -3.379      3.186      4.937
REMARK INTER + INTRA:          -4.235
REMARK INTER:                  -4.107
REMARK INTRA:                  -0.128
REMARK UNBOUND:                -0.066
REMARK SMILES CCCCCC(=O)[O-]
REMARK SMILES IDX 4 1 5 2 6 3 7 4 8 5 3 6 2 7 1 8
REMARK H PARENT
REMARK Flexibility Score: inf
ROOT
ATOM      1  C   UNL     1      -4.485  36.710  19.268  1.00  0.00     0.006 C 
ENDROOT
BRANCH   1   2
ATOM      2  C   UNL     1      -3.197  37.292  19.857  1.00  0.00     0.053 C 
BRANCH   2   3
ATOM      3  C   UNL     1      -2.230  37.634  18.767  1.00  0.00     0.041 C 
ATOM      4  O   UNL     1      -1.081  38.063  19.050  1.00  0.00    -0.550 OA
ATOM      5  O   UNL     1      -2.616  37.524  17.437  1.00  0.00    -0.550 OA
ENDBRANCH   2   3
ENDBRANCH   1   2
BRANCH   1   6
ATOM      6  C   UNL     1      -5.120  35.696  20.226  1.00  0.00     0.000 C 
BRANCH   6   7
ATOM      7  C   UNL     1      -4.258  35.509  21.480  1.00  0.00    -0.003 C 
ATOM      8  C   UNL     1      -5.121  35.218  22.703  1.00  0.00     0.004 C 
ENDBRANCH   6   7
ENDBRANCH   1   6
TORSDOF 4
ENDMDL
MODEL 6
REMARK VINA RESULT:    -2.302      2.286      2.982
REMARK INTER + INTRA:          -2.907
REMARK INTER:                  -2.786
REMARK INTRA:                  -0.121
REMARK UNBOUND:                -0.066
REMARK SMILES CCCCCC(=O)[O-]
REMARK SMILES IDX 4 1 5 2 6 3 7 4 8 5 3 6 2 7 1 8
REMARK H PARENT
REMARK Flexibility Score: inf
ROOT
ATOM      1  C   UNL     1      -2.905  37.106  19.500  1.00  0.00     0.006 C 
ENDROOT
BRANCH   1   2
ATOM      2  C   UNL     1      -4.395  37.188  19.843  1.00  0.00     0.053 C 
BRANCH   2   3
ATOM      3  C   UNL     1      -4.916  35.844  20.245  1.00  0.00     0.041 C 
ATOM      4  O   UNL     1      -5.124  35.583  21.459  1.00  0.00    -0.550 OA
ATOM      5  O   UNL     1      -5.125  34.864  19.283  1.00  0.00    -0.550 OA
ENDBRANCH   2   3
ENDBRANCH   1   2
BRANCH   1   6
ATOM      6  C   UNL     1      -2.677  37.264  17.992  1.00  0.00     0.000 C 
BRANCH   6   7
ATOM      7  C   UNL     1      -1.256  37.758  17.699  1.00  0.00    -0.003 C 
ATOM      8  C   UNL     1      -0.500  38.061  18.989  1.00  0.00     0.004 C 
ENDBRANCH   6   7
ENDBRANCH   1   6
TORSDOF 4
ENDMDL
MODEL 7
REMARK VINA RESULT:    -1.940      3.026      3.895
REMARK INTER + INTRA:          -2.460
REMARK INTER:                  -2.304
REMARK INTRA:                  -0.156
REMARK UNBOUND:                -0.066
REMARK SMILES CCCCCC(=O)[O-]
REMARK SMILES IDX 4 1 5 2 6 3 7 4 8 5 3 6 2 7 1 8
REMARK H PARENT
REMARK Flexibility Score: inf
ROOT
ATOM      1  C   UNL     1      -4.818  36.490  19.849  1.00  0.00     0.006 C 
ENDROOT
BRANCH   1   2
ATOM      2  C   UNL     1      -4.203  35.513  20.855  1.00  0.00     0.053 C 
BRANCH   2   3
ATOM      3  C   UNL     1      -4.826  35.688  22.204  1.00  0.00     0.041 C 
ATOM      4  O   UNL     1      -5.122  34.682  22.901  1.00  0.00    -0.550 OA
ATOM      5  O   UNL     1      -5.125  36.962  22.671  1.00  0.00    -0.550 OA
ENDBRANCH   2   3
ENDBRANCH   1   2
BRANCH   1   6
ATOM      6  C   UNL     1      -3.735  37.151  18.990  1.00  0.00     0.000 C 
BRANCH   6   7
ATOM      7  C   UNL     1      -2.499  37.494  19.829  1.00  0.00    -0.003 C 
ATOM      8  C   UNL     1      -1.320  37.881  18.942  1.00  0.00     0.004 C 
ENDBRANCH   6   7
ENDBRANCH   1   6
TORSDOF 4
ENDMDL
MODEL 8
REMARK VINA RESULT:    -1.575      2.209      2.995
REMARK INTER + INTRA:          -2.009
REMARK INTER:                  -1.835
REMARK INTRA:                  -0.174
REMARK UNBOUND:                -0.066
REMARK SMILES CCCCCC(=O)[O-]
REMARK SMILES IDX 4 1 5 2 6 3 7 4 8 5 3 6 2 7 1 8
REMARK H PARENT
REMARK Flexibility Score: inf
ROOT
ATOM      1  C   UNL     1      -2.907  37.659  16.457  1.00  0.00     0.006 C 
ENDROOT
BRANCH   1   2
ATOM      2  C   UNL     1      -1.632  37.229  17.188  1.00  0.00     0.053 C 
BRANCH   2   3
ATOM      3  C   UNL     1      -1.659  37.696  18.609  1.00  0.00     0.041 C 
ATOM      4  O   UNL     1      -0.588  37.998  19.198  1.00  0.00    -0.550 OA
ATOM      5  O   UNL     1      -2.864  37.751  19.299  1.00  0.00    -0.550 OA
ENDBRANCH   2   3
ENDBRANCH   1   2
BRANCH   1   6
ATOM      6  C   UNL     1      -3.656  36.445  15.895  1.00  0.00     0.000 C 
BRANCH   6   7
ATOM      7  C   UNL     1      -3.465  35.217  16.791  1.00  0.00    -0.003 C 
ATOM      8  C   UNL     1      -4.586  35.106  17.820  1.00  0.00     0.004 C 
ENDBRANCH   6   7
ENDBRANCH   1   6
TORSDOF 4
ENDMDL
