MODEL 1
REMARK VINA RESULT:    -2.816      0.000      0.000
REMARK INTER + INTRA:          -4.678
REMARK INTER:                  -4.298
REMARK INTRA:                  -0.380
REMARK UNBOUND:                -0.380
REMARK SMILES O=C([O-])CCCCCCCCC(=O)[O-]
REMARK SMILES IDX 7 1 6 2 5 3 4 4 2 5 1 6 3 7 8 8 9 9 10 10 11 11 12 12 13 13
REMARK SMILES IDX 14 14
REMARK H PARENT
REMARK Flexibility Score: inf
ROOT
ATOM      1  C   UNL     1      -2.121 -17.071 -25.430  1.00  0.00     0.000 C 
ENDROOT
BRANCH   1   2
ATOM      2  C   UNL     1      -1.069 -18.098 -25.875  1.00  0.00     0.000 C 
BRANCH   2   3
ATOM      3  C   UNL     1      -1.458 -19.545 -25.517  1.00  0.00     0.006 C 
BRANCH   3   4
ATOM      4  C   UNL     1      -0.639 -20.621 -26.250  1.00  0.00     0.053 C 
BRANCH   4   5
ATOM      5  C   UNL     1       0.298 -21.341 -25.329  1.00  0.00     0.041 C 
ATOM      6  O   UNL     1       0.878 -20.718 -24.402  1.00  0.00    -0.550 OA
ATOM      7  O   UNL     1       0.502 -22.707 -25.476  1.00  0.00    -0.550 OA
ENDBRANCH   4   5
ENDBRANCH   3   4
ENDBRANCH   2   3
ENDBRANCH   1   2
BRANCH   1   8
ATOM      8  C   UNL     1      -2.066 -15.813 -26.309  1.00  0.00     0.000 C 
BRANCH   8   9
ATOM      9  C   UNL     1      -0.957 -15.874 -27.375  1.00  0.00     0.000 C 
BRANCH   9  10
ATOM     10  C   UNL     1      -0.351 -14.510 -27.767  1.00  0.00     0.006 C 
BRANCH  10  11
ATOM     11  C   UNL     1      -1.376 -13.375 -27.918  1.00  0.00     0.053 C 
BRANCH  11  12
ATOM     12  C   UNL     1      -1.222 -12.333 -26.854  1.00  0.00     0.041 C 
ATOM     13  O   UNL     1      -1.960 -12.355 -25.834  1.00  0.00    -0.550 OA
ATOM     14  O   UNL     1      -0.287 -11.316 -27.005  1.00  0.00    -0.550 OA
ENDBRANCH  11  12
ENDBRANCH  10  11
ENDBRANCH   9  10
ENDBRANCH   8   9
ENDBRANCH   1   8
TORSDOF 9
ENDMDL
