MODEL 1
REMARK VINA RESULT:    -5.691      0.000      0.000
REMARK INTER + INTRA:          -8.801
REMARK INTER:                  -7.853
REMARK INTRA:                  -0.948
REMARK UNBOUND:                -0.948
REMARK SMILES O=C([O-])[C@@H]1O[C@H](Oc2cc3oc(-c4ccccc4)cc(=O)c3c(O)c2O)[C@@H](O)[C@@H](O)[C@H]1O
REMARK SMILES IDX 7 1 6 2 4 3 31 4 5 5 29 6 27 7 2 8 1 9 3 10 32 11 30 13
REMARK SMILES IDX 28 15 8 17 25 18 9 19 23 20 10 21 22 22 11 23 20 24 12 25
REMARK SMILES IDX 19 26 21 27 26 28 24 30 13 32 14 33 18 34 15 35 17 36 16 37
REMARK H PARENT 32 12 30 14 28 16 26 29 24 31
REMARK Flexibility Score: inf
ROOT
ATOM      1  O   UNL     1      57.456  -1.389 -48.597  1.00  0.00    -0.458 OA
ENDROOT
BRANCH   1   2
ATOM      2  C   UNL     1      58.877  -1.289 -48.757  1.00  0.00     0.339 C 
ATOM      3  C   UNL     1      59.436  -2.230 -46.635  1.00  0.00     0.199 C 
ATOM      4  C   UNL     1      60.030  -3.511 -47.271  1.00  0.00     0.180 C 
ATOM      5  O   UNL     1      59.510  -1.099 -47.496  1.00  0.00    -0.328 OA
ATOM      6  C   UNL     1      59.415  -3.772 -48.659  1.00  0.00     0.181 C 
ATOM      7  C   UNL     1      59.451  -2.507 -49.526  1.00  0.00     0.214 C 
BRANCH   3   8
ATOM      8  C   UNL     1      58.057  -2.400 -46.042  1.00  0.00     0.073 C 
ATOM      9  O   UNL     1      57.449  -3.501 -46.104  1.00  0.00    -0.547 OA
ATOM     10  O   UNL     1      57.456  -1.324 -45.399  1.00  0.00    -0.547 OA
ENDBRANCH   3   8
BRANCH   4  11
ATOM     11  O   UNL     1      61.427  -3.367 -47.370  1.00  0.00    -0.387 OA
ATOM     12  H   UNL     1      61.789  -4.234 -47.688  1.00  0.00     0.211 HD
ENDBRANCH   4  11
BRANCH   6  13
ATOM     13  O   UNL     1      60.085  -4.818 -49.314  1.00  0.00    -0.387 OA
ATOM     14  H   UNL     1      59.386  -5.445 -49.638  1.00  0.00     0.211 HD
ENDBRANCH   6  13
BRANCH   7  15
ATOM     15  O   UNL     1      60.750  -2.254 -50.011  1.00  0.00    -0.384 OA
ATOM     16  H   UNL     1      61.223  -3.119 -50.116  1.00  0.00     0.211 HD
ENDBRANCH   7  15
ENDBRANCH   1   2
BRANCH   1  17
ATOM     17  C   UNL     1      56.535  -1.764 -49.593  1.00  0.00     0.172 A 
ATOM     18  C   UNL     1      56.284  -0.871 -50.651  1.00  0.00     0.201 A 
ATOM     19  C   UNL     1      55.864  -3.000 -49.568  1.00  0.00     0.098 A 
ATOM     20  C   UNL     1      55.360  -1.198 -51.662  1.00  0.00     0.176 A 
ATOM     21  C   UNL     1      54.947  -3.335 -50.565  1.00  0.00     0.146 A 
ATOM     22  C   UNL     1      54.681  -2.437 -51.621  1.00  0.00     0.111 A 
ATOM     23  O   UNL     1      54.329  -4.511 -50.504  1.00  0.00    -0.456 OA
ATOM     24  C   UNL     1      53.734  -2.830 -52.591  1.00  0.00     0.197 A 
ATOM     25  C   UNL     1      53.440  -4.918 -51.407  1.00  0.00     0.138 A 
ATOM     26  C   UNL     1      53.111  -4.074 -52.480  1.00  0.00     0.100 A 
ATOM     27  O   UNL     1      53.432  -2.080 -53.557  1.00  0.00    -0.289 OA
BRANCH  18  28
ATOM     28  O   UNL     1      56.953   0.353 -50.716  1.00  0.00    -0.502 OA
ATOM     29  H   UNL     1      57.637   0.561 -51.430  1.00  0.00     0.293 HD
ENDBRANCH  18  28
BRANCH  20  30
ATOM     30  O   UNL     1      55.118  -0.296 -52.702  1.00  0.00    -0.504 OA
ATOM     31  H   UNL     1      55.765   0.446 -52.941  1.00  0.00     0.293 HD
ENDBRANCH  20  30
BRANCH  25  32
ATOM     32  C   UNL     1      52.809  -6.252 -51.236  1.00  0.00     0.017 A 
ATOM     33  C   UNL     1      52.832  -6.934 -50.002  1.00  0.00     0.012 A 
ATOM     34  C   UNL     1      52.146  -6.849 -52.326  1.00  0.00     0.012 A 
ATOM     35  C   UNL     1      52.224  -8.186 -49.873  1.00  0.00     0.001 A 
ATOM     36  C   UNL     1      51.542  -8.102 -52.192  1.00  0.00     0.001 A 
ATOM     37  C   UNL     1      51.582  -8.771 -50.967  1.00  0.00     0.000 A 
ENDBRANCH  25  32
ENDBRANCH   1  17
TORSDOF 9
ENDMDL
MODEL 2
REMARK VINA RESULT:    -5.668      3.123      4.652
REMARK INTER + INTRA:          -8.771
REMARK INTER:                  -7.861
REMARK INTRA:                  -0.910
REMARK UNBOUND:                -0.948
REMARK SMILES O=C([O-])[C@@H]1O[C@H](Oc2cc3oc(-c4ccccc4)cc(=O)c3c(O)c2O)[C@@H](O)[C@@H](O)[C@H]1O
REMARK SMILES IDX 7 1 6 2 4 3 31 4 5 5 29 6 27 7 2 8 1 9 3 10 32 11 30 13
REMARK SMILES IDX 28 15 8 17 25 18 9 19 23 20 10 21 22 22 11 23 20 24 12 25
REMARK SMILES IDX 19 26 21 27 26 28 24 30 13 32 14 33 18 34 15 35 17 36 16 37
REMARK H PARENT 32 12 30 14 28 16 26 29 24 31
REMARK Flexibility Score: inf
ROOT
ATOM      1  O   UNL     1      57.822  -4.039 -46.386  1.00  0.00    -0.458 OA
ENDROOT
BRANCH   1   2
ATOM      2  C   UNL     1      58.591  -3.765 -47.564  1.00  0.00     0.339 C 
ATOM      3  C   UNL     1      60.349  -2.594 -46.452  1.00  0.00     0.199 C 
ATOM      4  C   UNL     1      61.380  -3.715 -46.732  1.00  0.00     0.180 C 
ATOM      5  O   UNL     1      59.308  -2.545 -47.421  1.00  0.00    -0.328 OA
ATOM      6  C   UNL     1      60.678  -5.071 -46.930  1.00  0.00     0.181 C 
ATOM      7  C   UNL     1      59.518  -4.953 -47.927  1.00  0.00     0.214 C 
BRANCH   3   8
ATOM      8  C   UNL     1      59.809  -2.571 -45.041  1.00  0.00     0.073 C 
ATOM      9  O   UNL     1      60.192  -3.406 -44.179  1.00  0.00    -0.547 OA
ATOM     10  O   UNL     1      58.884  -1.597 -44.683  1.00  0.00    -0.547 OA
ENDBRANCH   3   8
BRANCH   4  11
ATOM     11  O   UNL     1      62.125  -3.374 -47.876  1.00  0.00    -0.387 OA
ATOM     12  H   UNL     1      61.587  -3.641 -48.667  1.00  0.00     0.211 HD
ENDBRANCH   4  11
BRANCH   6  13
ATOM     13  O   UNL     1      61.588  -6.047 -47.369  1.00  0.00    -0.387 OA
ATOM     14  H   UNL     1      61.048  -6.808 -47.709  1.00  0.00     0.211 HD
ENDBRANCH   6  13
BRANCH   7  15
ATOM     15  O   UNL     1      59.989  -4.863 -49.252  1.00  0.00    -0.384 OA
ATOM     16  H   UNL     1      59.595  -4.056 -49.674  1.00  0.00     0.211 HD
ENDBRANCH   7  15
ENDBRANCH   1   2
BRANCH   1  17
ATOM     17  C   UNL     1      56.589  -4.717 -46.340  1.00  0.00     0.172 A 
ATOM     18  C   UNL     1      55.989  -4.942 -45.087  1.00  0.00     0.201 A 
ATOM     19  C   UNL     1      55.938  -5.169 -47.501  1.00  0.00     0.098 A 
ATOM     20  C   UNL     1      54.763  -5.629 -44.992  1.00  0.00     0.176 A 
ATOM     21  C   UNL     1      54.722  -5.850 -47.420  1.00  0.00     0.146 A 
ATOM     22  C   UNL     1      54.123  -6.092 -46.164  1.00  0.00     0.111 A 
ATOM     23  O   UNL     1      54.139  -6.266 -48.539  1.00  0.00    -0.456 OA
ATOM     24  C   UNL     1      52.900  -6.796 -46.149  1.00  0.00     0.197 A 
ATOM     25  C   UNL     1      52.982  -6.923 -48.562  1.00  0.00     0.138 A 
ATOM     26  C   UNL     1      52.331  -7.213 -47.352  1.00  0.00     0.100 A 
ATOM     27  O   UNL     1      52.309  -7.062 -45.069  1.00  0.00    -0.289 OA
BRANCH  18  28
ATOM     28  O   UNL     1      56.600  -4.484 -43.918  1.00  0.00    -0.502 OA
ATOM     29  H   UNL     1      56.465  -4.932 -43.023  1.00  0.00     0.293 HD
ENDBRANCH  18  28
BRANCH  20  30
ATOM     30  O   UNL     1      54.185  -5.850 -43.739  1.00  0.00    -0.504 OA
ATOM     31  H   UNL     1      54.251  -5.180 -42.982  1.00  0.00     0.293 HD
ENDBRANCH  20  30
BRANCH  25  32
ATOM     32  C   UNL     1      52.425  -7.343 -49.874  1.00  0.00     0.017 A 
ATOM     33  C   UNL     1      52.539  -6.535 -51.024  1.00  0.00     0.012 A 
ATOM     34  C   UNL     1      51.787  -8.593 -49.986  1.00  0.00     0.012 A 
ATOM     35  C   UNL     1      52.009  -6.962 -52.245  1.00  0.00     0.001 A 
ATOM     36  C   UNL     1      51.256  -9.013 -51.209  1.00  0.00     0.001 A 
ATOM     37  C   UNL     1      51.365  -8.199 -52.337  1.00  0.00     0.000 A 
ENDBRANCH  25  32
ENDBRANCH   1  17
TORSDOF 9
ENDMDL
MODEL 3
REMARK VINA RESULT:    -5.580      2.483      4.417
REMARK INTER + INTRA:          -8.649
REMARK INTER:                  -7.434
REMARK INTRA:                  -1.214
REMARK UNBOUND:                -0.948
REMARK SMILES O=C([O-])[C@@H]1O[C@H](Oc2cc3oc(-c4ccccc4)cc(=O)c3c(O)c2O)[C@@H](O)[C@@H](O)[C@H]1O
REMARK SMILES IDX 7 1 6 2 4 3 31 4 5 5 29 6 27 7 2 8 1 9 3 10 32 11 30 13
REMARK SMILES IDX 28 15 8 17 25 18 9 19 23 20 10 21 22 22 11 23 20 24 12 25
REMARK SMILES IDX 19 26 21 27 26 28 24 30 13 32 14 33 18 34 15 35 17 36 16 37
REMARK H PARENT 32 12 30 14 28 16 26 29 24 31
REMARK Flexibility Score: inf
ROOT
ATOM      1  O   UNL     1      57.621  -1.848 -50.015  1.00  0.00    -0.458 OA
ENDROOT
BRANCH   1   2
ATOM      2  C   UNL     1      58.994  -2.018 -50.388  1.00  0.00     0.339 C 
ATOM      3  C   UNL     1      59.906  -1.463 -48.253  1.00  0.00     0.199 C 
ATOM      4  C   UNL     1      60.392  -2.910 -47.995  1.00  0.00     0.180 C 
ATOM      5  O   UNL     1      59.829  -1.143 -49.638  1.00  0.00    -0.328 OA
ATOM      6  C   UNL     1      59.554  -3.922 -48.799  1.00  0.00     0.181 C 
ATOM      7  C   UNL     1      59.437  -3.499 -50.269  1.00  0.00     0.214 C 
BRANCH   3   8
ATOM      8  C   UNL     1      58.647  -1.077 -47.512  1.00  0.00     0.073 C 
ATOM      9  O   UNL     1      58.228   0.110 -47.506  1.00  0.00    -0.547 OA
ATOM     10  O   UNL     1      57.927  -2.058 -46.840  1.00  0.00    -0.547 OA
ENDBRANCH   3   8
BRANCH   4  11
ATOM     11  O   UNL     1      61.751  -3.005 -48.347  1.00  0.00    -0.387 OA
ATOM     12  H   UNL     1      62.265  -3.110 -47.504  1.00  0.00     0.211 HD
ENDBRANCH   4  11
BRANCH   6  13
ATOM     13  O   UNL     1      60.109  -5.209 -48.717  1.00  0.00    -0.387 OA
ATOM     14  H   UNL     1      60.488  -5.415 -49.611  1.00  0.00     0.211 HD
ENDBRANCH   6  13
BRANCH   7  15
ATOM     15  O   UNL     1      60.635  -3.744 -50.970  1.00  0.00    -0.384 OA
ATOM     16  H   UNL     1      60.553  -3.361 -51.881  1.00  0.00     0.211 HD
ENDBRANCH   7  15
ENDBRANCH   1   2
BRANCH   1  17
ATOM     17  C   UNL     1      56.509  -2.419 -50.663  1.00  0.00     0.172 A 
ATOM     18  C   UNL     1      55.728  -3.357 -49.962  1.00  0.00     0.201 A 
ATOM     19  C   UNL     1      56.152  -2.079 -51.980  1.00  0.00     0.098 A 
ATOM     20  C   UNL     1      54.616  -3.965 -50.576  1.00  0.00     0.176 A 
ATOM     21  C   UNL     1      55.051  -2.674 -52.598  1.00  0.00     0.146 A 
ATOM     22  C   UNL     1      54.273  -3.627 -51.905  1.00  0.00     0.111 A 
ATOM     23  O   UNL     1      54.748  -2.332 -53.846  1.00  0.00    -0.456 OA
ATOM     24  C   UNL     1      53.180  -4.201 -52.589  1.00  0.00     0.197 A 
ATOM     25  C   UNL     1      53.719  -2.844 -54.517  1.00  0.00     0.138 A 
ATOM     26  C   UNL     1      52.906  -3.808 -53.899  1.00  0.00     0.100 A 
ATOM     27  O   UNL     1      52.445  -5.066 -52.044  1.00  0.00    -0.289 OA
BRANCH  18  28
ATOM     28  O   UNL     1      56.044  -3.696 -48.645  1.00  0.00    -0.502 OA
ATOM     29  H   UNL     1      56.988  -3.662 -48.286  1.00  0.00     0.293 HD
ENDBRANCH  18  28
BRANCH  20  30
ATOM     30  O   UNL     1      53.856  -4.899 -49.868  1.00  0.00    -0.504 OA
ATOM     31  H   UNL     1      53.171  -4.630 -49.171  1.00  0.00     0.293 HD
ENDBRANCH  20  30
BRANCH  25  32
ATOM     32  C   UNL     1      53.477  -2.388 -55.909  1.00  0.00     0.017 A 
ATOM     33  C   UNL     1      52.642  -3.103 -56.792  1.00  0.00     0.012 A 
ATOM     34  C   UNL     1      54.073  -1.194 -56.360  1.00  0.00     0.012 A 
ATOM     35  C   UNL     1      52.429  -2.644 -58.095  1.00  0.00     0.001 A 
ATOM     36  C   UNL     1      53.859  -0.741 -57.665  1.00  0.00     0.001 A 
ATOM     37  C   UNL     1      53.040  -1.465 -58.533  1.00  0.00     0.000 A 
ENDBRANCH  25  32
ENDBRANCH   1  17
TORSDOF 9
ENDMDL
MODEL 4
REMARK VINA RESULT:    -5.571      6.395      9.800
REMARK INTER + INTRA:          -8.637
REMARK INTER:                  -7.379
REMARK INTRA:                  -1.258
REMARK UNBOUND:                -0.948
REMARK SMILES O=C([O-])[C@@H]1O[C@H](Oc2cc3oc(-c4ccccc4)cc(=O)c3c(O)c2O)[C@@H](O)[C@@H](O)[C@H]1O
REMARK SMILES IDX 7 1 6 2 4 3 31 4 5 5 29 6 27 7 2 8 1 9 3 10 32 11 30 13
REMARK SMILES IDX 28 15 8 17 25 18 9 19 23 20 10 21 22 22 11 23 20 24 12 25
REMARK SMILES IDX 19 26 21 27 26 28 24 30 13 32 14 33 18 34 15 35 17 36 16 37
REMARK H PARENT 32 12 30 14 28 16 26 29 24 31
REMARK Flexibility Score: inf
ROOT
ATOM      1  O   UNL     1      54.952   5.815 -47.918  1.00  0.00    -0.458 OA
ENDROOT
BRANCH   1   2
ATOM      2  C   UNL     1      53.830   5.680 -48.800  1.00  0.00     0.339 C 
ATOM      3  C   UNL     1      52.172   6.277 -47.190  1.00  0.00     0.199 C 
ATOM      4  C   UNL     1      51.844   7.611 -47.905  1.00  0.00     0.180 C 
ATOM      5  O   UNL     1      52.671   5.282 -48.077  1.00  0.00    -0.328 OA
ATOM      6  C   UNL     1      53.045   8.097 -48.738  1.00  0.00     0.181 C 
ATOM      7  C   UNL     1      53.595   6.972 -49.624  1.00  0.00     0.214 C 
BRANCH   3   8
ATOM      8  C   UNL     1      53.031   6.416 -45.955  1.00  0.00     0.073 C 
ATOM      9  O   UNL     1      53.576   7.511 -45.656  1.00  0.00    -0.547 OA
ATOM     10  O   UNL     1      53.207   5.318 -45.122  1.00  0.00    -0.547 OA
ENDBRANCH   3   8
BRANCH   4  11
ATOM     11  O   UNL     1      50.717   7.424 -48.726  1.00  0.00    -0.387 OA
ATOM     12  H   UNL     1      51.050   7.175 -49.628  1.00  0.00     0.211 HD
ENDBRANCH   4  11
BRANCH   6  13
ATOM     13  O   UNL     1      52.689   9.199 -49.533  1.00  0.00    -0.387 OA
ATOM     14  H   UNL     1      52.316   8.833 -50.378  1.00  0.00     0.211 HD
ENDBRANCH   6  13
BRANCH   7  15
ATOM     15  O   UNL     1      52.759   6.738 -50.734  1.00  0.00    -0.384 OA
ATOM     16  H   UNL     1      53.089   5.938 -51.217  1.00  0.00     0.211 HD
ENDBRANCH   7  15
ENDBRANCH   1   2
BRANCH   1  17
ATOM     17  C   UNL     1      55.815   4.780 -47.511  1.00  0.00     0.172 A 
ATOM     18  C   UNL     1      56.454   4.886 -46.262  1.00  0.00     0.201 A 
ATOM     19  C   UNL     1      56.053   3.645 -48.307  1.00  0.00     0.098 A 
ATOM     20  C   UNL     1      57.337   3.882 -45.820  1.00  0.00     0.176 A 
ATOM     21  C   UNL     1      56.925   2.643 -47.879  1.00  0.00     0.146 A 
ATOM     22  C   UNL     1      57.580   2.751 -46.633  1.00  0.00     0.111 A 
ATOM     23  O   UNL     1      57.129   1.587 -48.661  1.00  0.00    -0.456 OA
ATOM     24  C   UNL     1      58.458   1.710 -46.263  1.00  0.00     0.197 A 
ATOM     25  C   UNL     1      57.940   0.583 -48.339  1.00  0.00     0.138 A 
ATOM     26  C   UNL     1      58.639   0.625 -47.121  1.00  0.00     0.100 A 
ATOM     27  O   UNL     1      59.089   1.738 -45.173  1.00  0.00    -0.289 OA
BRANCH  18  28
ATOM     28  O   UNL     1      56.219   5.989 -45.439  1.00  0.00    -0.502 OA
ATOM     29  H   UNL     1      56.144   5.912 -44.434  1.00  0.00     0.293 HD
ENDBRANCH  18  28
BRANCH  20  30
ATOM     30  O   UNL     1      57.968   4.007 -44.580  1.00  0.00    -0.504 OA
ATOM     31  H   UNL     1      58.911   3.677 -44.412  1.00  0.00     0.293 HD
ENDBRANCH  20  30
BRANCH  25  32
ATOM     32  C   UNL     1      58.093  -0.545 -49.293  1.00  0.00     0.017 A 
ATOM     33  C   UNL     1      59.275  -1.312 -49.357  1.00  0.00     0.012 A 
ATOM     34  C   UNL     1      57.022  -0.882 -50.144  1.00  0.00     0.012 A 
ATOM     35  C   UNL     1      59.385  -2.371 -50.262  1.00  0.00     0.001 A 
ATOM     36  C   UNL     1      57.139  -1.941 -51.049  1.00  0.00     0.001 A 
ATOM     37  C   UNL     1      58.319  -2.684 -51.109  1.00  0.00     0.000 A 
ENDBRANCH  25  32
ENDBRANCH   1  17
TORSDOF 9
ENDMDL
MODEL 5
REMARK VINA RESULT:    -5.540      2.371      3.379
REMARK INTER + INTRA:          -8.594
REMARK INTER:                  -7.664
REMARK INTRA:                  -0.930
REMARK UNBOUND:                -0.948
REMARK SMILES O=C([O-])[C@@H]1O[C@H](Oc2cc3oc(-c4ccccc4)cc(=O)c3c(O)c2O)[C@@H](O)[C@@H](O)[C@H]1O
REMARK SMILES IDX 7 1 6 2 4 3 31 4 5 5 29 6 27 7 2 8 1 9 3 10 32 11 30 13
REMARK SMILES IDX 28 15 8 17 25 18 9 19 23 20 10 21 22 22 11 23 20 24 12 25
REMARK SMILES IDX 19 26 21 27 26 28 24 30 13 32 14 33 18 34 15 35 17 36 16 37
REMARK H PARENT 32 12 30 14 28 16 26 29 24 31
REMARK Flexibility Score: inf
ROOT
ATOM      1  O   UNL     1      57.025  -1.879 -50.099  1.00  0.00    -0.458 OA
ENDROOT
BRANCH   1   2
ATOM      2  C   UNL     1      58.306  -1.987 -50.735  1.00  0.00     0.339 C 
ATOM      3  C   UNL     1      59.569  -1.115 -48.907  1.00  0.00     0.199 C 
ATOM      4  C   UNL     1      60.238  -2.481 -48.615  1.00  0.00     0.180 C 
ATOM      5  O   UNL     1      59.183  -0.969 -50.269  1.00  0.00    -0.328 OA
ATOM      6  C   UNL     1      59.360  -3.642 -49.119  1.00  0.00     0.181 C 
ATOM      7  C   UNL     1      58.908  -3.406 -50.565  1.00  0.00     0.214 C 
BRANCH   3   8
ATOM      8  C   UNL     1      58.453  -0.743 -47.960  1.00  0.00     0.073 C 
ATOM      9  O   UNL     1      58.098  -1.514 -47.030  1.00  0.00    -0.547 OA
ATOM     10  O   UNL     1      57.819   0.486 -48.106  1.00  0.00    -0.547 OA
ENDBRANCH   3   8
BRANCH   4  11
ATOM     11  O   UNL     1      61.501  -2.513 -49.234  1.00  0.00    -0.387 OA
ATOM     12  H   UNL     1      61.473  -1.869 -49.989  1.00  0.00     0.211 HD
ENDBRANCH   4  11
BRANCH   6  13
ATOM     13  O   UNL     1      60.045  -4.864 -49.027  1.00  0.00    -0.387 OA
ATOM     14  H   UNL     1      59.649  -5.466 -49.711  1.00  0.00     0.211 HD
ENDBRANCH   6  13
BRANCH   7  15
ATOM     15  O   UNL     1      59.958  -3.640 -51.475  1.00  0.00    -0.384 OA
ATOM     16  H   UNL     1      60.421  -4.478 -51.217  1.00  0.00     0.211 HD
ENDBRANCH   7  15
ENDBRANCH   1   2
BRANCH   1  17
ATOM     17  C   UNL     1      55.978  -2.816 -50.181  1.00  0.00     0.172 A 
ATOM     18  C   UNL     1      55.300  -2.966 -51.405  1.00  0.00     0.201 A 
ATOM     19  C   UNL     1      55.594  -3.609 -49.084  1.00  0.00     0.098 A 
ATOM     20  C   UNL     1      54.237  -3.881 -51.529  1.00  0.00     0.176 A 
ATOM     21  C   UNL     1      54.542  -4.519 -49.195  1.00  0.00     0.146 A 
ATOM     22  C   UNL     1      53.849  -4.664 -50.417  1.00  0.00     0.111 A 
ATOM     23  O   UNL     1      54.204  -5.247 -48.135  1.00  0.00    -0.456 OA
ATOM     24  C   UNL     1      52.788  -5.593 -50.460  1.00  0.00     0.197 A 
ATOM     25  C   UNL     1      53.217  -6.140 -48.144  1.00  0.00     0.138 A 
ATOM     26  C   UNL     1      52.472  -6.330 -49.319  1.00  0.00     0.100 A 
ATOM     27  O   UNL     1      52.113  -5.771 -51.509  1.00  0.00    -0.289 OA
BRANCH  18  28
ATOM     28  O   UNL     1      55.676  -2.211 -52.518  1.00  0.00    -0.502 OA
ATOM     29  H   UNL     1      55.293  -2.374 -53.439  1.00  0.00     0.293 HD
ENDBRANCH  18  28
BRANCH  20  30
ATOM     30  O   UNL     1      53.571  -4.013 -52.750  1.00  0.00    -0.504 OA
ATOM     31  H   UNL     1      53.921  -3.605 -53.608  1.00  0.00     0.293 HD
ENDBRANCH  20  30
BRANCH  25  32
ATOM     32  C   UNL     1      52.926  -6.894 -46.899  1.00  0.00     0.017 A 
ATOM     33  C   UNL     1      53.945  -7.263 -45.996  1.00  0.00     0.012 A 
ATOM     34  C   UNL     1      51.594  -7.234 -46.590  1.00  0.00     0.012 A 
ATOM     35  C   UNL     1      53.637  -7.968 -44.829  1.00  0.00     0.001 A 
ATOM     36  C   UNL     1      51.293  -7.941 -45.423  1.00  0.00     0.001 A 
ATOM     37  C   UNL     1      52.312  -8.310 -44.544  1.00  0.00     0.000 A 
ENDBRANCH  25  32
ENDBRANCH   1  17
TORSDOF 9
ENDMDL
MODEL 6
REMARK VINA RESULT:    -5.358     10.735     12.788
REMARK INTER + INTRA:          -8.343
REMARK INTER:                  -7.412
REMARK INTRA:                  -0.931
REMARK UNBOUND:                -0.948
REMARK SMILES O=C([O-])[C@@H]1O[C@H](Oc2cc3oc(-c4ccccc4)cc(=O)c3c(O)c2O)[C@@H](O)[C@@H](O)[C@H]1O
REMARK SMILES IDX 7 1 6 2 4 3 31 4 5 5 29 6 27 7 2 8 1 9 3 10 32 11 30 13
REMARK SMILES IDX 28 15 8 17 25 18 9 19 23 20 10 21 22 22 11 23 20 24 12 25
REMARK SMILES IDX 19 26 21 27 26 28 24 30 13 32 14 33 18 34 15 35 17 36 16 37
REMARK H PARENT 32 12 30 14 28 16 26 29 24 31
REMARK Flexibility Score: inf
ROOT
ATOM      1  O   UNL     1      47.028   1.727 -43.681  1.00  0.00    -0.458 OA
ENDROOT
BRANCH   1   2
ATOM      2  C   UNL     1      45.877   2.559 -43.486  1.00  0.00     0.339 C 
ATOM      3  C   UNL     1      46.163   3.852 -45.472  1.00  0.00     0.199 C 
ATOM      4  C   UNL     1      44.903   3.250 -46.141  1.00  0.00     0.180 C 
ATOM      5  O   UNL     1      46.091   3.848 -44.051  1.00  0.00    -0.328 OA
ATOM      6  C   UNL     1      44.584   1.859 -45.560  1.00  0.00     0.181 C 
ATOM      7  C   UNL     1      44.589   1.886 -44.026  1.00  0.00     0.214 C 
BRANCH   3   8
ATOM      8  C   UNL     1      47.473   3.293 -45.974  1.00  0.00     0.073 C 
ATOM      9  O   UNL     1      47.506   2.369 -46.829  1.00  0.00    -0.547 OA
ATOM     10  O   UNL     1      48.666   3.822 -45.495  1.00  0.00    -0.547 OA
ENDBRANCH   3   8
BRANCH   4  11
ATOM     11  O   UNL     1      43.819   4.126 -45.945  1.00  0.00    -0.387 OA
ATOM     12  H   UNL     1      43.476   4.372 -46.844  1.00  0.00     0.211 HD
ENDBRANCH   4  11
BRANCH   6  13
ATOM     13  O   UNL     1      43.343   1.395 -46.025  1.00  0.00    -0.387 OA
ATOM     14  H   UNL     1      42.646   1.900 -45.529  1.00  0.00     0.211 HD
ENDBRANCH   6  13
BRANCH   7  15
ATOM     15  O   UNL     1      43.427   2.502 -43.521  1.00  0.00    -0.384 OA
ATOM     16  H   UNL     1      42.704   1.824 -43.474  1.00  0.00     0.211 HD
ENDBRANCH   7  15
ENDBRANCH   1   2
BRANCH   1  17
ATOM     17  C   UNL     1      47.156   0.384 -43.279  1.00  0.00     0.172 A 
ATOM     18  C   UNL     1      47.485   0.109 -41.938  1.00  0.00     0.201 A 
ATOM     19  C   UNL     1      46.960  -0.688 -44.169  1.00  0.00     0.098 A 
ATOM     20  C   UNL     1      47.638  -1.219 -41.496  1.00  0.00     0.176 A 
ATOM     21  C   UNL     1      47.108  -2.008 -43.741  1.00  0.00     0.146 A 
ATOM     22  C   UNL     1      47.453  -2.289 -42.401  1.00  0.00     0.111 A 
ATOM     23  O   UNL     1      46.920  -2.994 -44.612  1.00  0.00    -0.456 OA
ATOM     24  C   UNL     1      47.598  -3.644 -42.034  1.00  0.00     0.197 A 
ATOM     25  C   UNL     1      47.038  -4.281 -44.299  1.00  0.00     0.138 A 
ATOM     26  C   UNL     1      47.393  -4.641 -42.988  1.00  0.00     0.100 A 
ATOM     27  O   UNL     1      47.916  -3.977 -40.862  1.00  0.00    -0.289 OA
BRANCH  18  28
ATOM     28  O   UNL     1      47.662   1.151 -41.026  1.00  0.00    -0.502 OA
ATOM     29  H   UNL     1      48.533   1.304 -40.538  1.00  0.00     0.293 HD
ENDBRANCH  18  28
BRANCH  20  30
ATOM     30  O   UNL     1      47.972  -1.474 -40.163  1.00  0.00    -0.504 OA
ATOM     31  H   UNL     1      47.313  -1.868 -39.502  1.00  0.00     0.293 HD
ENDBRANCH  20  30
BRANCH  25  32
ATOM     32  C   UNL     1      46.807  -5.298 -45.356  1.00  0.00     0.017 A 
ATOM     33  C   UNL     1      47.427  -6.564 -45.320  1.00  0.00     0.012 A 
ATOM     34  C   UNL     1      45.926  -5.007 -46.416  1.00  0.00     0.012 A 
ATOM     35  C   UNL     1      47.184  -7.502 -46.328  1.00  0.00     0.001 A 
ATOM     36  C   UNL     1      45.689  -5.947 -47.423  1.00  0.00     0.001 A 
ATOM     37  C   UNL     1      46.318  -7.193 -47.380  1.00  0.00     0.000 A 
ENDBRANCH  25  32
ENDBRANCH   1  17
TORSDOF 9
ENDMDL
MODEL 7
REMARK VINA RESULT:    -5.304      6.363     10.325
REMARK INTER + INTRA:          -8.269
REMARK INTER:                  -7.074
REMARK INTRA:                  -1.195
REMARK UNBOUND:                -0.948
REMARK SMILES O=C([O-])[C@@H]1O[C@H](Oc2cc3oc(-c4ccccc4)cc(=O)c3c(O)c2O)[C@@H](O)[C@@H](O)[C@H]1O
REMARK SMILES IDX 7 1 6 2 4 3 31 4 5 5 29 6 27 7 2 8 1 9 3 10 32 11 30 13
REMARK SMILES IDX 28 15 8 17 25 18 9 19 23 20 10 21 22 22 11 23 20 24 12 25
REMARK SMILES IDX 19 26 21 27 26 28 24 30 13 32 14 33 18 34 15 35 17 36 16 37
REMARK H PARENT 32 12 30 14 28 16 26 29 24 31
REMARK Flexibility Score: inf
ROOT
ATOM      1  O   UNL     1      47.610  -4.439 -47.949  1.00  0.00    -0.458 OA
ENDROOT
BRANCH   1   2
ATOM      2  C   UNL     1      46.280  -4.641 -48.446  1.00  0.00     0.339 C 
ATOM      3  C   UNL     1      45.218  -4.691 -46.309  1.00  0.00     0.199 C 
ATOM      4  C   UNL     1      44.489  -3.347 -46.551  1.00  0.00     0.180 C 
ATOM      5  O   UNL     1      45.507  -5.389 -47.515  1.00  0.00    -0.328 OA
ATOM      6  C   UNL     1      45.251  -2.485 -47.576  1.00  0.00     0.181 C 
ATOM      7  C   UNL     1      45.605  -3.299 -48.827  1.00  0.00     0.214 C 
BRANCH   3   8
ATOM      8  C   UNL     1      46.424  -4.602 -45.404  1.00  0.00     0.073 C 
ATOM      9  O   UNL     1      47.048  -5.633 -45.040  1.00  0.00    -0.547 OA
ATOM     10  O   UNL     1      46.865  -3.353 -44.980  1.00  0.00    -0.547 OA
ENDBRANCH   3   8
BRANCH   4  11
ATOM     11  O   UNL     1      43.183  -3.610 -47.003  1.00  0.00    -0.387 OA
ATOM     12  H   UNL     1      42.979  -4.555 -46.776  1.00  0.00     0.211 HD
ENDBRANCH   4  11
BRANCH   6  13
ATOM     13  O   UNL     1      44.500  -1.356 -47.938  1.00  0.00    -0.387 OA
ATOM     14  H   UNL     1      43.938  -1.122 -47.153  1.00  0.00     0.211 HD
ENDBRANCH   6  13
BRANCH   7  15
ATOM     15  O   UNL     1      44.475  -3.496 -49.646  1.00  0.00    -0.384 OA
ATOM     16  H   UNL     1      43.678  -3.601 -49.066  1.00  0.00     0.211 HD
ENDBRANCH   7  15
ENDBRANCH   1   2
BRANCH   1  17
ATOM     17  C   UNL     1      48.775  -5.075 -48.418  1.00  0.00     0.172 A 
ATOM     18  C   UNL     1      49.075  -6.367 -47.948  1.00  0.00     0.201 A 
ATOM     19  C   UNL     1      49.642  -4.465 -49.343  1.00  0.00     0.098 A 
ATOM     20  C   UNL     1      50.237  -7.035 -48.380  1.00  0.00     0.176 A 
ATOM     21  C   UNL     1      50.796  -5.118 -49.778  1.00  0.00     0.146 A 
ATOM     22  C   UNL     1      51.109  -6.408 -49.298  1.00  0.00     0.111 A 
ATOM     23  O   UNL     1      51.594  -4.507 -50.648  1.00  0.00    -0.456 OA
ATOM     24  C   UNL     1      52.297  -7.009 -49.768  1.00  0.00     0.197 A 
ATOM     25  C   UNL     1      52.715  -5.048 -51.120  1.00  0.00     0.138 A 
ATOM     26  C   UNL     1      53.101  -6.325 -50.679  1.00  0.00     0.100 A 
ATOM     27  O   UNL     1      52.653  -8.153 -49.379  1.00  0.00    -0.289 OA
BRANCH  18  28
ATOM     28  O   UNL     1      48.220  -7.008 -47.050  1.00  0.00    -0.502 OA
ATOM     29  H   UNL     1      47.370  -6.581 -46.709  1.00  0.00     0.293 HD
ENDBRANCH  18  28
BRANCH  20  30
ATOM     30  O   UNL     1      50.523  -8.315 -47.898  1.00  0.00    -0.504 OA
ATOM     31  H   UNL     1      50.447  -9.144 -48.475  1.00  0.00     0.293 HD
ENDBRANCH  20  30
BRANCH  25  32
ATOM     32  C   UNL     1      53.530  -4.271 -52.087  1.00  0.00     0.017 A 
ATOM     33  C   UNL     1      54.527  -3.368 -51.664  1.00  0.00     0.012 A 
ATOM     34  C   UNL     1      53.327  -4.455 -53.469  1.00  0.00     0.012 A 
ATOM     35  C   UNL     1      55.282  -2.656 -52.601  1.00  0.00     0.001 A 
ATOM     36  C   UNL     1      54.083  -3.739 -54.401  1.00  0.00     0.001 A 
ATOM     37  C   UNL     1      55.058  -2.839 -53.968  1.00  0.00     0.000 A 
ENDBRANCH  25  32
ENDBRANCH   1  17
TORSDOF 9
ENDMDL
MODEL 8
REMARK VINA RESULT:    -5.290      6.016      9.309
REMARK INTER + INTRA:          -8.249
REMARK INTER:                  -6.954
REMARK INTRA:                  -1.295
REMARK UNBOUND:                -0.948
REMARK SMILES O=C([O-])[C@@H]1O[C@H](Oc2cc3oc(-c4ccccc4)cc(=O)c3c(O)c2O)[C@@H](O)[C@@H](O)[C@H]1O
REMARK SMILES IDX 7 1 6 2 4 3 31 4 5 5 29 6 27 7 2 8 1 9 3 10 32 11 30 13
REMARK SMILES IDX 28 15 8 17 25 18 9 19 23 20 10 21 22 22 11 23 20 24 12 25
REMARK SMILES IDX 19 26 21 27 26 28 24 30 13 32 14 33 18 34 15 35 17 36 16 37
REMARK H PARENT 32 12 30 14 28 16 26 29 24 31
REMARK Flexibility Score: inf
ROOT
ATOM      1  O   UNL     1      57.396   1.133 -47.475  1.00  0.00    -0.458 OA
ENDROOT
BRANCH   1   2
ATOM      2  C   UNL     1      58.750   0.732 -47.719  1.00  0.00     0.339 C 
ATOM      3  C   UNL     1      58.564  -1.420 -46.702  1.00  0.00     0.199 C 
ATOM      4  C   UNL     1      58.704  -2.160 -48.055  1.00  0.00     0.180 C 
ATOM      5  O   UNL     1      59.204  -0.149 -46.697  1.00  0.00    -0.328 OA
ATOM      6  C   UNL     1      58.260  -1.259 -49.223  1.00  0.00     0.181 C 
ATOM      7  C   UNL     1      58.918   0.124 -49.136  1.00  0.00     0.214 C 
BRANCH   3   8
ATOM      8  C   UNL     1      57.153  -1.345 -46.166  1.00  0.00     0.073 C 
ATOM      9  O   UNL     1      56.182  -1.822 -46.810  1.00  0.00    -0.547 OA
ATOM     10  O   UNL     1      56.926  -0.753 -44.929  1.00  0.00    -0.547 OA
ENDBRANCH   3   8
BRANCH   4  11
ATOM     11  O   UNL     1      60.044  -2.557 -48.221  1.00  0.00    -0.387 OA
ATOM     12  H   UNL     1      60.066  -3.206 -48.972  1.00  0.00     0.211 HD
ENDBRANCH   4  11
BRANCH   6  13
ATOM     13  O   UNL     1      58.563  -1.854 -50.458  1.00  0.00    -0.387 OA
ATOM     14  H   UNL     1      58.627  -1.118 -51.121  1.00  0.00     0.211 HD
ENDBRANCH   6  13
BRANCH   7  15
ATOM     15  O   UNL     1      60.271   0.073 -49.526  1.00  0.00    -0.384 OA
ATOM     16  H   UNL     1      60.313  -0.112 -50.500  1.00  0.00     0.211 HD
ENDBRANCH   7  15
ENDBRANCH   1   2
BRANCH   1  17
ATOM     17  C   UNL     1      56.967   2.423 -47.113  1.00  0.00     0.172 A 
ATOM     18  C   UNL     1      57.121   2.836 -45.776  1.00  0.00     0.201 A 
ATOM     19  C   UNL     1      56.396   3.312 -48.041  1.00  0.00     0.098 A 
ATOM     20  C   UNL     1      56.693   4.113 -45.366  1.00  0.00     0.176 A 
ATOM     21  C   UNL     1      55.968   4.581 -47.646  1.00  0.00     0.146 A 
ATOM     22  C   UNL     1      56.108   4.994 -46.303  1.00  0.00     0.111 A 
ATOM     23  O   UNL     1      55.429   5.391 -48.551  1.00  0.00    -0.456 OA
ATOM     24  C   UNL     1      55.645   6.284 -45.966  1.00  0.00     0.197 A 
ATOM     25  C   UNL     1      54.993   6.616 -48.270  1.00  0.00     0.138 A 
ATOM     26  C   UNL     1      55.085   7.094 -46.953  1.00  0.00     0.100 A 
ATOM     27  O   UNL     1      55.723   6.722 -44.787  1.00  0.00    -0.289 OA
BRANCH  18  28
ATOM     28  O   UNL     1      57.707   1.985 -44.837  1.00  0.00    -0.502 OA
ATOM     29  H   UNL     1      58.661   1.661 -44.918  1.00  0.00     0.293 HD
ENDBRANCH  18  28
BRANCH  20  30
ATOM     30  O   UNL     1      56.848   4.504 -44.033  1.00  0.00    -0.504 OA
ATOM     31  H   UNL     1      57.256   5.393 -43.770  1.00  0.00     0.293 HD
ENDBRANCH  20  30
BRANCH  25  32
ATOM     32  C   UNL     1      54.404   7.433 -49.362  1.00  0.00     0.017 A 
ATOM     33  C   UNL     1      54.562   7.085 -50.720  1.00  0.00     0.012 A 
ATOM     34  C   UNL     1      53.645   8.575 -49.041  1.00  0.00     0.012 A 
ATOM     35  C   UNL     1      53.990   7.872 -51.724  1.00  0.00     0.001 A 
ATOM     36  C   UNL     1      53.078   9.359 -50.049  1.00  0.00     0.001 A 
ATOM     37  C   UNL     1      53.252   9.009 -51.390  1.00  0.00     0.000 A 
ENDBRANCH  25  32
ENDBRANCH   1  17
TORSDOF 9
ENDMDL
MODEL 9
REMARK VINA RESULT:    -5.283      4.155      7.248
REMARK INTER + INTRA:          -8.239
REMARK INTER:                  -6.979
REMARK INTRA:                  -1.260
REMARK UNBOUND:                -0.948
REMARK SMILES O=C([O-])[C@@H]1O[C@H](Oc2cc3oc(-c4ccccc4)cc(=O)c3c(O)c2O)[C@@H](O)[C@@H](O)[C@H]1O
REMARK SMILES IDX 7 1 6 2 4 3 31 4 5 5 29 6 27 7 2 8 1 9 3 10 32 11 30 13
REMARK SMILES IDX 28 15 8 17 25 18 9 19 23 20 10 21 22 22 11 23 20 24 12 25
REMARK SMILES IDX 19 26 21 27 26 28 24 30 13 32 14 33 18 34 15 35 17 36 16 37
REMARK H PARENT 32 12 30 14 28 16 26 29 24 31
REMARK Flexibility Score: inf
ROOT
ATOM      1  O   UNL     1      59.367  -2.257 -48.304  1.00  0.00    -0.458 OA
ENDROOT
BRANCH   1   2
ATOM      2  C   UNL     1      59.085  -3.282 -47.343  1.00  0.00     0.339 C 
ATOM      3  C   UNL     1      60.623  -4.882 -48.221  1.00  0.00     0.199 C 
ATOM      4  C   UNL     1      61.556  -4.780 -46.989  1.00  0.00     0.180 C 
ATOM      5  O   UNL     1      59.268  -4.571 -47.917  1.00  0.00    -0.328 OA
ATOM      6  C   UNL     1      61.395  -3.418 -46.289  1.00  0.00     0.181 C 
ATOM      7  C   UNL     1      59.915  -3.091 -46.047  1.00  0.00     0.214 C 
BRANCH   3   8
ATOM      8  C   UNL     1      61.112  -4.145 -49.446  1.00  0.00     0.073 C 
ATOM      9  O   UNL     1      62.125  -3.398 -49.400  1.00  0.00    -0.547 OA
ATOM     10  O   UNL     1      60.439  -4.308 -50.651  1.00  0.00    -0.547 OA
ENDBRANCH   3   8
BRANCH   4  11
ATOM     11  O   UNL     1      61.255  -5.829 -46.100  1.00  0.00    -0.387 OA
ATOM     12  H   UNL     1      61.918  -6.550 -46.262  1.00  0.00     0.211 HD
ENDBRANCH   4  11
BRANCH   6  13
ATOM     13  O   UNL     1      62.093  -3.394 -45.071  1.00  0.00    -0.387 OA
ATOM     14  H   UNL     1      62.162  -4.336 -44.764  1.00  0.00     0.211 HD
ENDBRANCH   6  13
BRANCH   7  15
ATOM     15  O   UNL     1      59.393  -3.844 -44.976  1.00  0.00    -0.384 OA
ATOM     16  H   UNL     1      59.483  -3.314 -44.143  1.00  0.00     0.211 HD
ENDBRANCH   7  15
ENDBRANCH   1   2
BRANCH   1  17
ATOM     17  C   UNL     1      58.422  -1.408 -48.911  1.00  0.00     0.172 A 
ATOM     18  C   UNL     1      57.708  -1.881 -50.028  1.00  0.00     0.201 A 
ATOM     19  C   UNL     1      58.166  -0.109 -48.436  1.00  0.00     0.098 A 
ATOM     20  C   UNL     1      56.764  -1.061 -50.675  1.00  0.00     0.176 A 
ATOM     21  C   UNL     1      57.232   0.712 -49.069  1.00  0.00     0.146 A 
ATOM     22  C   UNL     1      56.523   0.248 -50.198  1.00  0.00     0.111 A 
ATOM     23  O   UNL     1      57.021   1.935 -48.593  1.00  0.00    -0.456 OA
ATOM     24  C   UNL     1      55.602   1.131 -50.799  1.00  0.00     0.197 A 
ATOM     25  C   UNL     1      56.153   2.790 -49.128  1.00  0.00     0.138 A 
ATOM     26  C   UNL     1      55.419   2.405 -50.263  1.00  0.00     0.100 A 
ATOM     27  O   UNL     1      54.939   0.796 -51.817  1.00  0.00    -0.289 OA
BRANCH  18  28
ATOM     28  O   UNL     1      57.923  -3.174 -50.508  1.00  0.00    -0.502 OA
ATOM     29  H   UNL     1      57.440  -3.980 -50.133  1.00  0.00     0.293 HD
ENDBRANCH  18  28
BRANCH  20  30
ATOM     30  O   UNL     1      56.068  -1.545 -51.786  1.00  0.00    -0.504 OA
ATOM     31  H   UNL     1      55.175  -2.016 -51.708  1.00  0.00     0.293 HD
ENDBRANCH  20  30
BRANCH  25  32
ATOM     32  C   UNL     1      56.001   4.133 -48.514  1.00  0.00     0.017 A 
ATOM     33  C   UNL     1      56.282   4.365 -47.152  1.00  0.00     0.012 A 
ATOM     34  C   UNL     1      55.591   5.218 -49.313  1.00  0.00     0.012 A 
ATOM     35  C   UNL     1      56.136   5.643 -46.605  1.00  0.00     0.001 A 
ATOM     36  C   UNL     1      55.444   6.493 -48.761  1.00  0.00     0.001 A 
ATOM     37  C   UNL     1      55.714   6.706 -47.408  1.00  0.00     0.000 A 
ENDBRANCH  25  32
ENDBRANCH   1  17
TORSDOF 9
ENDMDL
