MODEL 1
REMARK VINA RESULT:    -3.174      0.000      0.000
REMARK INTER + INTRA:          -3.555
REMARK INTER:                  -3.545
REMARK INTRA:                  -0.010
REMARK UNBOUND:                -0.010
REMARK SMILES CCCC(=O)[O-]
REMARK SMILES IDX 3 1 4 2 5 3 6 4 2 5 1 6
REMARK H PARENT
REMARK Flexibility Score: inf
ROOT
ATOM      1  C   UNL     1      -6.901  26.293   4.456  1.00  0.00     0.052 C 
ENDROOT
BRANCH   1   2
ATOM      2  C   UNL     1      -7.662  26.455   3.176  1.00  0.00     0.041 C 
ATOM      3  O   UNL     1      -7.219  27.203   2.265  1.00  0.00    -0.550 OA
ATOM      4  O   UNL     1      -8.843  25.752   2.976  1.00  0.00    -0.550 OA
ENDBRANCH   1   2
BRANCH   1   5
ATOM      5  C   UNL     1      -7.743  25.598   5.534  1.00  0.00     0.003 C 
ATOM      6  C   UNL     1      -7.309  25.985   6.948  1.00  0.00     0.004 C 
ENDBRANCH   1   5
TORSDOF 2
ENDMDL
MODEL 2
REMARK VINA RESULT:    -2.985      2.258      2.767
REMARK INTER + INTRA:          -3.344
REMARK INTER:                  -3.305
REMARK INTRA:                  -0.039
REMARK UNBOUND:                -0.010
REMARK SMILES CCCC(=O)[O-]
REMARK SMILES IDX 3 1 4 2 5 3 6 4 2 5 1 6
REMARK H PARENT
REMARK Flexibility Score: inf
ROOT
ATOM      1  C   UNL     1      -7.344  25.745   2.171  1.00  0.00     0.052 C 
ENDROOT
BRANCH   1   2
ATOM      2  C   UNL     1      -7.318  24.360   1.602  1.00  0.00     0.041 C 
ATOM      3  O   UNL     1      -6.455  23.530   1.993  1.00  0.00    -0.550 OA
ATOM      4  O   UNL     1      -8.269  23.974   0.666  1.00  0.00    -0.550 OA
ENDBRANCH   1   2
BRANCH   1   5
ATOM      5  C   UNL     1      -8.304  25.852   3.363  1.00  0.00     0.003 C 
ATOM      6  C   UNL     1      -7.577  25.759   4.704  1.00  0.00     0.004 C 
ENDBRANCH   1   5
TORSDOF 2
ENDMDL
MODEL 3
REMARK VINA RESULT:    -2.941      2.239      2.819
REMARK INTER + INTRA:          -3.294
REMARK INTER:                  -3.257
REMARK INTRA:                  -0.037
REMARK UNBOUND:                -0.010
REMARK SMILES CCCC(=O)[O-]
REMARK SMILES IDX 3 1 4 2 5 3 6 4 2 5 1 6
REMARK H PARENT
REMARK Flexibility Score: inf
ROOT
ATOM      1  C   UNL     1      -7.439  25.785   2.176  1.00  0.00     0.052 C 
ENDROOT
BRANCH   1   2
ATOM      2  C   UNL     1      -7.307  24.369   1.709  1.00  0.00     0.041 C 
ATOM      3  O   UNL     1      -8.038  23.937   0.779  1.00  0.00    -0.550 OA
ATOM      4  O   UNL     1      -6.351  23.535   2.276  1.00  0.00    -0.550 OA
ENDBRANCH   1   2
BRANCH   1   5
ATOM      5  C   UNL     1      -8.362  25.897   3.397  1.00  0.00     0.003 C 
ATOM      6  C   UNL     1      -7.597  25.777   4.715  1.00  0.00     0.004 C 
ENDBRANCH   1   5
TORSDOF 2
ENDMDL
MODEL 4
REMARK VINA RESULT:    -2.800      2.614      3.384
REMARK INTER + INTRA:          -3.137
REMARK INTER:                  -3.128
REMARK INTRA:                  -0.009
REMARK UNBOUND:                -0.010
REMARK SMILES CCCC(=O)[O-]
REMARK SMILES IDX 3 1 4 2 5 3 6 4 2 5 1 6
REMARK H PARENT
REMARK Flexibility Score: inf
ROOT
ATOM      1  C   UNL     1      -6.720  26.240   4.517  1.00  0.00     0.052 C 
ENDROOT
BRANCH   1   2
ATOM      2  C   UNL     1      -6.693  26.325   6.012  1.00  0.00     0.041 C 
ATOM      3  O   UNL     1      -5.924  27.140   6.587  1.00  0.00    -0.550 OA
ATOM      4  O   UNL     1      -7.542  25.529   6.769  1.00  0.00    -0.550 OA
ENDBRANCH   1   2
BRANCH   1   5
ATOM      5  C   UNL     1      -8.104  25.835   3.995  1.00  0.00     0.003 C 
ATOM      6  C   UNL     1      -8.091  25.518   2.500  1.00  0.00     0.004 C 
ENDBRANCH   1   5
TORSDOF 2
ENDMDL
MODEL 5
REMARK VINA RESULT:    -2.737      3.485      4.240
REMARK INTER + INTRA:          -3.066
REMARK INTER:                  -3.033
REMARK INTRA:                  -0.033
REMARK UNBOUND:                -0.010
REMARK SMILES CCCC(=O)[O-]
REMARK SMILES IDX 3 1 4 2 5 3 6 4 2 5 1 6
REMARK H PARENT
REMARK Flexibility Score: inf
ROOT
ATOM      1  C   UNL     1      -6.320  25.106   1.346  1.00  0.00     0.052 C 
ENDROOT
BRANCH   1   2
ATOM      2  C   UNL     1      -7.776  24.765   1.419  1.00  0.00     0.041 C 
ATOM      3  O   UNL     1      -8.240  23.815   0.734  1.00  0.00    -0.550 OA
ATOM      4  O   UNL     1      -8.615  25.474   2.269  1.00  0.00    -0.550 OA
ENDBRANCH   1   2
BRANCH   1   5
ATOM      5  C   UNL     1      -5.439  23.938   1.808  1.00  0.00     0.003 C 
ATOM      6  C   UNL     1      -4.453  23.492   0.728  1.00  0.00     0.004 C 
ENDBRANCH   1   5
TORSDOF 2
ENDMDL
MODEL 6
REMARK VINA RESULT:    -2.611      2.937      3.344
REMARK INTER + INTRA:          -2.927
REMARK INTER:                  -2.920
REMARK INTRA:                  -0.007
REMARK UNBOUND:                -0.010
REMARK SMILES CCCC(=O)[O-]
REMARK SMILES IDX 3 1 4 2 5 3 6 4 2 5 1 6
REMARK H PARENT
REMARK Flexibility Score: inf
ROOT
ATOM      1  C   UNL     1      -6.373  25.961   2.141  1.00  0.00     0.052 C 
ENDROOT
BRANCH   1   2
ATOM      2  C   UNL     1      -7.572  25.090   1.930  1.00  0.00     0.041 C 
ATOM      3  O   UNL     1      -8.706  25.462   2.334  1.00  0.00    -0.550 OA
ATOM      4  O   UNL     1      -7.444  23.881   1.258  1.00  0.00    -0.550 OA
ENDBRANCH   1   2
BRANCH   1   5
ATOM      5  C   UNL     1      -5.088  25.136   2.281  1.00  0.00     0.003 C 
ATOM      6  C   UNL     1      -3.989  25.894   3.025  1.00  0.00     0.004 C 
ENDBRANCH   1   5
TORSDOF 2
ENDMDL
MODEL 7
REMARK VINA RESULT:    -2.600      7.737      9.093
REMARK INTER + INTRA:          -2.914
REMARK INTER:                  -2.908
REMARK INTRA:                  -0.005
REMARK UNBOUND:                -0.010
REMARK SMILES CCCC(=O)[O-]
REMARK SMILES IDX 3 1 4 2 5 3 6 4 2 5 1 6
REMARK H PARENT
REMARK Flexibility Score: inf
ROOT
ATOM      1  C   UNL     1      -7.245  33.067  -1.856  1.00  0.00     0.052 C 
ENDROOT
BRANCH   1   2
ATOM      2  C   UNL     1      -7.423  31.870  -0.974  1.00  0.00     0.041 C 
ATOM      3  O   UNL     1      -7.105  30.724  -1.388  1.00  0.00    -0.550 OA
ATOM      4  O   UNL     1      -7.909  32.024   0.318  1.00  0.00    -0.550 OA
ENDBRANCH   1   2
BRANCH   1   5
ATOM      5  C   UNL     1      -5.777  33.508  -1.925  1.00  0.00     0.003 C 
ATOM      6  C   UNL     1      -5.633  34.995  -2.248  1.00  0.00     0.004 C 
ENDBRANCH   1   5
TORSDOF 2
ENDMDL
MODEL 8
REMARK VINA RESULT:    -2.582     10.757     11.821
REMARK INTER + INTRA:          -2.894
REMARK INTER:                  -2.829
REMARK INTRA:                  -0.064
REMARK UNBOUND:                -0.010
REMARK SMILES CCCC(=O)[O-]
REMARK SMILES IDX 3 1 4 2 5 3 6 4 2 5 1 6
REMARK H PARENT
REMARK Flexibility Score: inf
ROOT
ATOM      1  C   UNL     1     -12.641  26.018  -7.067  1.00  0.00     0.052 C 
ENDROOT
BRANCH   1   2
ATOM      2  C   UNL     1     -13.858  26.531  -6.363  1.00  0.00     0.041 C 
ATOM      3  O   UNL     1     -14.202  27.737  -6.486  1.00  0.00    -0.550 OA
ATOM      4  O   UNL     1     -14.633  25.670  -5.597  1.00  0.00    -0.550 OA
ENDBRANCH   1   2
BRANCH   1   5
ATOM      5  C   UNL     1     -11.768  25.160  -6.143  1.00  0.00     0.003 C 
ATOM      6  C   UNL     1     -11.131  25.980  -5.020  1.00  0.00     0.004 C 
ENDBRANCH   1   5
TORSDOF 2
ENDMDL
MODEL 9
REMARK VINA RESULT:    -2.529     12.456     13.499
REMARK INTER + INTRA:          -2.834
REMARK INTER:                  -2.767
REMARK INTRA:                  -0.068
REMARK UNBOUND:                -0.010
REMARK SMILES CCCC(=O)[O-]
REMARK SMILES IDX 3 1 4 2 5 3 6 4 2 5 1 6
REMARK H PARENT
REMARK Flexibility Score: inf
ROOT
ATOM      1  C   UNL     1     -12.853  25.963  -7.285  1.00  0.00     0.052 C 
ENDROOT
BRANCH   1   2
ATOM      2  C   UNL     1     -13.945  26.522  -6.426  1.00  0.00     0.041 C 
ATOM      3  O   UNL     1     -14.575  25.773  -5.634  1.00  0.00    -0.550 OA
ATOM      4  O   UNL     1     -14.243  27.877  -6.475  1.00  0.00    -0.550 OA
ENDBRANCH   1   2
BRANCH   1   5
ATOM      5  C   UNL     1     -13.132  26.187  -8.777  1.00  0.00     0.003 C 
ATOM      6  C   UNL     1     -14.492  25.635  -9.202  1.00  0.00     0.004 C 
ENDBRANCH   1   5
TORSDOF 2
ENDMDL
