MODEL 1
REMARK VINA RESULT:    -4.794      0.000      0.000
REMARK INTER + INTRA:          -5.979
REMARK INTER:                  -5.775
REMARK INTRA:                  -0.204
REMARK UNBOUND:                -0.204
REMARK SMILES C=CCc1ccc(O)c(OC)c1
REMARK SMILES IDX 9 1 7 2 6 3 5 4 4 5 12 6 10 7 11 8 8 9 3 11 2 12 1 13
REMARK H PARENT 8 10
REMARK Flexibility Score: inf
ROOT
ATOM      1  C   UNL     1      31.469 -32.307  -8.963  1.00  0.00     0.160 A 
ATOM      2  C   UNL     1      31.264 -33.324  -9.915  1.00  0.00     0.157 A 
ATOM      3  C   UNL     1      31.195 -34.660  -9.509  1.00  0.00     0.050 A 
ATOM      4  C   UNL     1      31.326 -34.998  -8.160  1.00  0.00     0.008 A 
ATOM      5  C   UNL     1      31.521 -33.997  -7.198  1.00  0.00    -0.040 A 
ATOM      6  C   UNL     1      31.601 -32.655  -7.603  1.00  0.00     0.054 A 
ENDROOT
BRANCH   1   7
ATOM      7  O   UNL     1      31.539 -30.975  -9.400  1.00  0.00    -0.493 OA
ATOM      8  C   UNL     1      32.322 -29.961  -8.778  1.00  0.00     0.278 C 
ENDBRANCH   1   7
BRANCH   2   9
ATOM      9  O   UNL     1      31.128 -33.025 -11.270  1.00  0.00    -0.504 OA
ATOM     10  H   UNL     1      31.450 -33.653 -11.997  1.00  0.00     0.293 HD
ENDBRANCH   2   9
BRANCH   5  11
ATOM     11  C   UNL     1      31.691 -34.361  -5.747  1.00  0.00     0.062 C 
BRANCH  11  12
ATOM     12  C   UNL     1      32.431 -35.662  -5.606  1.00  0.00    -0.030 C 
ATOM     13  C   UNL     1      32.899 -36.079  -4.426  1.00  0.00     0.004 C 
ENDBRANCH  11  12
ENDBRANCH   5  11
TORSDOF 4
ENDMDL
MODEL 2
REMARK VINA RESULT:    -4.707      8.134      9.196
REMARK INTER + INTRA:          -5.874
REMARK INTER:                  -5.666
REMARK INTRA:                  -0.207
REMARK UNBOUND:                -0.204
REMARK SMILES C=CCc1ccc(O)c(OC)c1
REMARK SMILES IDX 9 1 7 2 6 3 5 4 4 5 12 6 10 7 11 8 8 9 3 11 2 12 1 13
REMARK H PARENT 8 10
REMARK Flexibility Score: inf
ROOT
ATOM      1  C   UNL     1      22.504 -36.378  -9.064  1.00  0.00     0.160 A 
ATOM      2  C   UNL     1      22.964 -37.021 -10.228  1.00  0.00     0.157 A 
ATOM      3  C   UNL     1      24.294 -36.876 -10.631  1.00  0.00     0.050 A 
ATOM      4  C   UNL     1      25.179 -36.095  -9.883  1.00  0.00     0.008 A 
ATOM      5  C   UNL     1      24.740 -35.455  -8.715  1.00  0.00    -0.040 A 
ATOM      6  C   UNL     1      23.402 -35.591  -8.314  1.00  0.00     0.054 A 
ENDROOT
BRANCH   1   7
ATOM      7  O   UNL     1      21.161 -36.538  -8.687  1.00  0.00    -0.493 OA
ATOM      8  C   UNL     1      20.726 -37.243  -7.529  1.00  0.00     0.278 C 
ENDBRANCH   1   7
BRANCH   2   9
ATOM      9  O   UNL     1      22.110 -37.809 -11.000  1.00  0.00    -0.504 OA
ATOM     10  H   UNL     1      21.123 -37.902 -10.791  1.00  0.00     0.293 HD
ENDBRANCH   2   9
BRANCH   5  11
ATOM     11  C   UNL     1      25.683 -34.590  -7.922  1.00  0.00     0.062 C 
BRANCH  11  12
ATOM     12  C   UNL     1      25.213 -33.162  -7.908  1.00  0.00    -0.030 C 
ATOM     13  C   UNL     1      26.057 -32.143  -8.096  1.00  0.00     0.004 C 
ENDBRANCH  11  12
ENDBRANCH   5  11
TORSDOF 4
ENDMDL
MODEL 3
REMARK VINA RESULT:    -4.634      8.507      9.583
REMARK INTER + INTRA:          -5.786
REMARK INTER:                  -5.609
REMARK INTRA:                  -0.176
REMARK UNBOUND:                -0.204
REMARK SMILES C=CCc1ccc(O)c(OC)c1
REMARK SMILES IDX 9 1 7 2 6 3 5 4 4 5 12 6 10 7 11 8 8 9 3 11 2 12 1 13
REMARK H PARENT 8 10
REMARK Flexibility Score: inf
ROOT
ATOM      1  C   UNL     1      23.630 -35.334  -8.844  1.00  0.00     0.160 A 
ATOM      2  C   UNL     1      24.967 -34.907  -8.736  1.00  0.00     0.157 A 
ATOM      3  C   UNL     1      25.275 -33.739  -8.032  1.00  0.00     0.050 A 
ATOM      4  C   UNL     1      24.263 -32.988  -7.430  1.00  0.00     0.008 A 
ATOM      5  C   UNL     1      22.927 -33.404  -7.520  1.00  0.00    -0.040 A 
ATOM      6  C   UNL     1      22.613 -34.571  -8.234  1.00  0.00     0.054 A 
ENDROOT
BRANCH   1   7
ATOM      7  O   UNL     1      23.350 -36.508  -9.561  1.00  0.00    -0.493 OA
ATOM      8  C   UNL     1      22.241 -37.364  -9.308  1.00  0.00     0.278 C 
ENDBRANCH   1   7
BRANCH   2   9
ATOM      9  O   UNL     1      26.004 -35.631  -9.323  1.00  0.00    -0.504 OA
ATOM     10  H   UNL     1      26.967 -35.317  -9.293  1.00  0.00     0.293 HD
ENDBRANCH   2   9
BRANCH   5  11
ATOM     11  C   UNL     1      21.831 -32.581  -6.895  1.00  0.00     0.062 C 
BRANCH  11  12
ATOM     12  C   UNL     1      21.157 -31.721  -7.928  1.00  0.00    -0.030 C 
ATOM     13  C   UNL     1      20.421 -30.659  -7.584  1.00  0.00     0.004 C 
ENDBRANCH  11  12
ENDBRANCH   5  11
TORSDOF 4
ENDMDL
MODEL 4
REMARK VINA RESULT:    -4.567      7.612      9.022
REMARK INTER + INTRA:          -5.706
REMARK INTER:                  -5.533
REMARK INTRA:                  -0.172
REMARK UNBOUND:                -0.204
REMARK SMILES C=CCc1ccc(O)c(OC)c1
REMARK SMILES IDX 9 1 7 2 6 3 5 4 4 5 12 6 10 7 11 8 8 9 3 11 2 12 1 13
REMARK H PARENT 8 10
REMARK Flexibility Score: inf
ROOT
ATOM      1  C   UNL     1      24.846 -33.292  -8.170  1.00  0.00     0.160 A 
ATOM      2  C   UNL     1      26.126 -32.721  -8.051  1.00  0.00     0.157 A 
ATOM      3  C   UNL     1      26.397 -31.479  -8.632  1.00  0.00     0.050 A 
ATOM      4  C   UNL     1      25.402 -30.793  -9.333  1.00  0.00     0.008 A 
ATOM      5  C   UNL     1      24.118 -31.344  -9.453  1.00  0.00    -0.040 A 
ATOM      6  C   UNL     1      23.846 -32.595  -8.879  1.00  0.00     0.054 A 
ENDROOT
BRANCH   1   7
ATOM      7  O   UNL     1      24.604 -34.543  -7.580  1.00  0.00    -0.493 OA
ATOM      8  C   UNL     1      23.373 -35.252  -7.666  1.00  0.00     0.278 C 
ENDBRANCH   1   7
BRANCH   2   9
ATOM      9  O   UNL     1      27.145 -33.375  -7.358  1.00  0.00    -0.504 OA
ATOM     10  H   UNL     1      28.008 -33.657  -7.807  1.00  0.00     0.293 HD
ENDBRANCH   2   9
BRANCH   5  11
ATOM     11  C   UNL     1      23.051 -30.621 -10.232  1.00  0.00     0.062 C 
BRANCH  11  12
ATOM     12  C   UNL     1      21.895 -30.257  -9.341  1.00  0.00    -0.030 C 
ATOM     13  C   UNL     1      20.760 -29.753  -9.835  1.00  0.00     0.004 C 
ENDBRANCH  11  12
ENDBRANCH   5  11
TORSDOF 4
ENDMDL
MODEL 5
REMARK VINA RESULT:    -4.565      8.673      9.740
REMARK INTER + INTRA:          -5.703
REMARK INTER:                  -5.493
REMARK INTRA:                  -0.211
REMARK UNBOUND:                -0.204
REMARK SMILES C=CCc1ccc(O)c(OC)c1
REMARK SMILES IDX 9 1 7 2 6 3 5 4 4 5 12 6 10 7 11 8 8 9 3 11 2 12 1 13
REMARK H PARENT 8 10
REMARK Flexibility Score: inf
ROOT
ATOM      1  C   UNL     1      24.693 -30.238 -10.731  1.00  0.00     0.160 A 
ATOM      2  C   UNL     1      24.819 -30.232 -12.133  1.00  0.00     0.157 A 
ATOM      3  C   UNL     1      23.700 -30.466 -12.938  1.00  0.00     0.050 A 
ATOM      4  C   UNL     1      22.450 -30.704 -12.361  1.00  0.00     0.008 A 
ATOM      5  C   UNL     1      22.306 -30.704 -10.967  1.00  0.00    -0.040 A 
ATOM      6  C   UNL     1      23.429 -30.480 -10.155  1.00  0.00     0.054 A 
ENDROOT
BRANCH   1   7
ATOM      7  O   UNL     1      25.835 -30.005  -9.947  1.00  0.00    -0.493 OA
ATOM      8  C   UNL     1      26.159 -28.758  -9.343  1.00  0.00     0.278 C 
ENDBRANCH   1   7
BRANCH   2   9
ATOM      9  O   UNL     1      26.050 -29.998 -12.744  1.00  0.00    -0.504 OA
ATOM     10  H   UNL     1      26.134 -29.816 -13.738  1.00  0.00     0.293 HD
ENDBRANCH   2   9
BRANCH   5  11
ATOM     11  C   UNL     1      20.965 -30.988 -10.341  1.00  0.00     0.062 C 
BRANCH  11  12
ATOM     12  C   UNL     1      20.703 -30.051  -9.195  1.00  0.00    -0.030 C 
ATOM     13  C   UNL     1      20.376 -30.503  -7.980  1.00  0.00     0.004 C 
ENDBRANCH  11  12
ENDBRANCH   5  11
TORSDOF 4
ENDMDL
MODEL 6
REMARK VINA RESULT:    -4.543      7.333      7.901
REMARK INTER + INTRA:          -5.677
REMARK INTER:                  -5.458
REMARK INTRA:                  -0.219
REMARK UNBOUND:                -0.204
REMARK SMILES C=CCc1ccc(O)c(OC)c1
REMARK SMILES IDX 9 1 7 2 6 3 5 4 4 5 12 6 10 7 11 8 8 9 3 11 2 12 1 13
REMARK H PARENT 8 10
REMARK Flexibility Score: inf
ROOT
ATOM      1  C   UNL     1      25.696 -32.581  -8.248  1.00  0.00     0.160 A 
ATOM      2  C   UNL     1      26.329 -33.784  -7.885  1.00  0.00     0.157 A 
ATOM      3  C   UNL     1      25.564 -34.904  -7.546  1.00  0.00     0.050 A 
ATOM      4  C   UNL     1      24.169 -34.841  -7.566  1.00  0.00     0.008 A 
ATOM      5  C   UNL     1      23.522 -33.653  -7.934  1.00  0.00    -0.040 A 
ATOM      6  C   UNL     1      24.287 -32.523  -8.265  1.00  0.00     0.054 A 
ENDROOT
BRANCH   1   7
ATOM      7  O   UNL     1      26.489 -31.471  -8.578  1.00  0.00    -0.493 OA
ATOM      8  C   UNL     1      26.050 -30.371  -9.369  1.00  0.00     0.278 C 
ENDBRANCH   1   7
BRANCH   2   9
ATOM      9  O   UNL     1      27.719 -33.885  -7.855  1.00  0.00    -0.504 OA
ATOM     10  H   UNL     1      28.278 -33.438  -7.137  1.00  0.00     0.293 HD
ENDBRANCH   2   9
BRANCH   5  11
ATOM     11  C   UNL     1      22.018 -33.573  -7.929  1.00  0.00     0.062 C 
BRANCH  11  12
ATOM     12  C   UNL     1      21.557 -32.244  -7.399  1.00  0.00    -0.030 C 
ATOM     13  C   UNL     1      21.086 -32.110  -6.155  1.00  0.00     0.004 C 
ENDBRANCH  11  12
ENDBRANCH   5  11
TORSDOF 4
ENDMDL
MODEL 7
REMARK VINA RESULT:    -4.446      8.113      8.947
REMARK INTER + INTRA:          -5.560
REMARK INTER:                  -5.320
REMARK INTRA:                  -0.240
REMARK UNBOUND:                -0.204
REMARK SMILES C=CCc1ccc(O)c(OC)c1
REMARK SMILES IDX 9 1 7 2 6 3 5 4 4 5 12 6 10 7 11 8 8 9 3 11 2 12 1 13
REMARK H PARENT 8 10
REMARK Flexibility Score: inf
ROOT
ATOM      1  C   UNL     1      25.083 -31.463  -8.992  1.00  0.00     0.160 A 
ATOM      2  C   UNL     1      25.370 -32.435  -8.017  1.00  0.00     0.157 A 
ATOM      3  C   UNL     1      24.340 -33.211  -7.476  1.00  0.00     0.050 A 
ATOM      4  C   UNL     1      23.021 -33.030  -7.899  1.00  0.00     0.008 A 
ATOM      5  C   UNL     1      22.719 -32.071  -8.876  1.00  0.00    -0.040 A 
ATOM      6  C   UNL     1      23.749 -31.285  -9.414  1.00  0.00     0.054 A 
ENDROOT
BRANCH   1   7
ATOM      7  O   UNL     1      26.137 -30.695  -9.514  1.00  0.00    -0.493 OA
ATOM      8  C   UNL     1      25.974 -29.617 -10.429  1.00  0.00     0.278 C 
ENDBRANCH   1   7
BRANCH   2   9
ATOM      9  O   UNL     1      26.674 -32.645  -7.570  1.00  0.00    -0.504 OA
ATOM     10  H   UNL     1      27.251 -33.399  -7.923  1.00  0.00     0.293 HD
ENDBRANCH   2   9
BRANCH   5  11
ATOM     11  C   UNL     1      21.294 -31.854  -9.314  1.00  0.00     0.062 C 
BRANCH  11  12
ATOM     12  C   UNL     1      20.724 -30.617  -8.678  1.00  0.00    -0.030 C 
ATOM     13  C   UNL     1      20.283 -30.616  -7.417  1.00  0.00     0.004 C 
ENDBRANCH  11  12
ENDBRANCH   5  11
TORSDOF 4
ENDMDL
MODEL 8
REMARK VINA RESULT:    -4.406      9.737     10.294
REMARK INTER + INTRA:          -5.512
REMARK INTER:                  -5.297
REMARK INTRA:                  -0.214
REMARK UNBOUND:                -0.204
REMARK SMILES C=CCc1ccc(O)c(OC)c1
REMARK SMILES IDX 9 1 7 2 6 3 5 4 4 5 12 6 10 7 11 8 8 9 3 11 2 12 1 13
REMARK H PARENT 8 10
REMARK Flexibility Score: inf
ROOT
ATOM      1  C   UNL     1      21.779 -30.725 -10.258  1.00  0.00     0.160 A 
ATOM      2  C   UNL     1      20.689 -30.037  -9.695  1.00  0.00     0.157 A 
ATOM      3  C   UNL     1      20.243 -30.362  -8.411  1.00  0.00     0.050 A 
ATOM      4  C   UNL     1      20.875 -31.367  -7.675  1.00  0.00     0.008 A 
ATOM      5  C   UNL     1      21.969 -32.055  -8.217  1.00  0.00    -0.040 A 
ATOM      6  C   UNL     1      22.413 -31.739  -9.511  1.00  0.00     0.054 A 
ENDROOT
BRANCH   1   7
ATOM      7  O   UNL     1      22.202 -30.381 -11.552  1.00  0.00    -0.493 OA
ATOM      8  C   UNL     1      21.873 -31.110 -12.730  1.00  0.00     0.278 C 
ENDBRANCH   1   7
BRANCH   2   9
ATOM      9  O   UNL     1      20.033 -29.027 -10.399  1.00  0.00    -0.504 OA
ATOM     10  H   UNL     1      20.251 -28.813 -11.365  1.00  0.00     0.293 HD
ENDBRANCH   2   9
BRANCH   5  11
ATOM     11  C   UNL     1      22.635 -33.159  -7.438  1.00  0.00     0.062 C 
BRANCH  11  12
ATOM     12  C   UNL     1      24.131 -33.018  -7.488  1.00  0.00    -0.030 C 
ATOM     13  C   UNL     1      24.919 -34.032  -7.862  1.00  0.00     0.004 C 
ENDBRANCH  11  12
ENDBRANCH   5  11
TORSDOF 4
ENDMDL
MODEL 9
REMARK VINA RESULT:    -4.386      1.903      3.593
REMARK INTER + INTRA:          -5.486
REMARK INTER:                  -5.298
REMARK INTRA:                  -0.188
REMARK UNBOUND:                -0.204
REMARK SMILES C=CCc1ccc(O)c(OC)c1
REMARK SMILES IDX 9 1 7 2 6 3 5 4 4 5 12 6 10 7 11 8 8 9 3 11 2 12 1 13
REMARK H PARENT 8 10
REMARK Flexibility Score: inf
ROOT
ATOM      1  C   UNL     1      31.615 -31.786  -9.598  1.00  0.00     0.160 A 
ATOM      2  C   UNL     1      31.951 -31.512  -8.259  1.00  0.00     0.157 A 
ATOM      3  C   UNL     1      31.888 -32.526  -7.299  1.00  0.00     0.050 A 
ATOM      4  C   UNL     1      31.496 -33.817  -7.658  1.00  0.00     0.008 A 
ATOM      5  C   UNL     1      31.167 -34.110  -8.989  1.00  0.00    -0.040 A 
ATOM      6  C   UNL     1      31.219 -33.092  -9.953  1.00  0.00     0.054 A 
ENDROOT
BRANCH   1   7
ATOM      7  O   UNL     1      31.682 -30.747 -10.540  1.00  0.00    -0.493 OA
ATOM      8  C   UNL     1      31.673 -30.934 -11.951  1.00  0.00     0.278 C 
ENDBRANCH   1   7
BRANCH   2   9
ATOM      9  O   UNL     1      32.347 -30.235  -7.863  1.00  0.00    -0.504 OA
ATOM     10  H   UNL     1      32.321 -29.441  -8.493  1.00  0.00     0.293 HD
ENDBRANCH   2   9
BRANCH   5  11
ATOM     11  C   UNL     1      30.717 -35.494  -9.374  1.00  0.00     0.062 C 
BRANCH  11  12
ATOM     12  C   UNL     1      31.660 -36.103 -10.375  1.00  0.00    -0.030 C 
ATOM     13  C   UNL     1      31.256 -36.440 -11.603  1.00  0.00     0.004 C 
ENDBRANCH  11  12
ENDBRANCH   5  11
TORSDOF 4
ENDMDL
