MODEL 1
REMARK VINA RESULT:    -5.490      0.000      0.000
REMARK INTER + INTRA:         -11.443
REMARK INTER:                  -9.020
REMARK INTRA:                  -2.423
REMARK UNBOUND:                -2.423
REMARK SMILES COc1ccc([C@H]2CC(=O)c3c(O)cc(O[C@@H]4O[C@@H](CO[C@H]5O[C@H](C)[C@H](O)[C@@H](O)[C@@H]5O)[C@H](O)[C@H](O)[C@H]4O)cc3O2)cc1O
REMARK SMILES IDX 19 1 32 2 34 3 36 4 17 5 18 6 20 7 21 8 22 9 25 10 24 11
REMARK SMILES IDX 26 12 23 13 28 14 30 15 27 16 29 18 31 20 33 22 35 24 16 26
REMARK SMILES IDX 15 27 14 28 38 29 12 30 39 31 11 32 40 33 9 34 7 35 10 36
REMARK SMILES IDX 8 37 13 38 6 40 41 41 5 42 42 43 4 44 3 45 43 46 2 48 1 49
REMARK SMILES IDX 37 50
REMARK H PARENT 27 17 29 19 31 21 33 23 35 25 13 39 43 47 37 51
REMARK Flexibility Score: inf
ROOT
ATOM      1  C   UNL     1      20.458  66.897  16.081  1.00  0.00     0.180 C 
ATOM      2  C   UNL     1      19.751  66.017  17.142  1.00  0.00     0.177 C 
ATOM      3  C   UNL     1      19.258  66.896  18.306  1.00  0.00     0.180 C 
ATOM      4  C   UNL     1      20.403  67.783  18.826  1.00  0.00     0.214 C 
ATOM      5  C   UNL     1      21.096  68.522  17.659  1.00  0.00     0.339 C 
ATOM      6  O   UNL     1      21.540  67.606  16.670  1.00  0.00    -0.332 OA
ENDROOT
BRANCH   1   7
ATOM      7  C   UNL     1      21.027  66.052  14.928  1.00  0.00     0.198 C 
BRANCH   7   8
ATOM      8  O   UNL     1      21.149  66.823  13.746  1.00  0.00    -0.347 OA
BRANCH   8   9
ATOM      9  C   UNL     1      19.941  67.505  13.442  1.00  0.00     0.281 C 
ATOM     10  C   UNL     1      21.368  70.386  11.643  1.00  0.00     0.041 C 
ATOM     11  C   UNL     1      21.006  68.922  11.902  1.00  0.00     0.150 C 
ATOM     12  C   UNL     1      20.286  68.305  10.682  1.00  0.00     0.174 C 
ATOM     13  O   UNL     1      20.190  68.853  13.062  1.00  0.00    -0.344 OA
ATOM     14  C   UNL     1      19.904  66.845  10.985  1.00  0.00     0.179 C 
ATOM     15  C   UNL     1      19.173  66.744  12.339  1.00  0.00     0.202 C 
BRANCH  12  16
ATOM     16  O   UNL     1      19.132  69.049  10.379  1.00  0.00    -0.388 OA
ATOM     17  H   UNL     1      19.232  69.371   9.446  1.00  0.00     0.211 HD
ENDBRANCH  12  16
BRANCH  14  18
ATOM     18  O   UNL     1      21.065  66.054  10.996  1.00  0.00    -0.387 OA
ATOM     19  H   UNL     1      21.513  66.211  11.868  1.00  0.00     0.211 HD
ENDBRANCH  14  18
BRANCH  15  20
ATOM     20  O   UNL     1      17.877  67.270  12.207  1.00  0.00    -0.385 OA
ATOM     21  H   UNL     1      17.524  66.952  11.335  1.00  0.00     0.211 HD
ENDBRANCH  15  20
ENDBRANCH   8   9
ENDBRANCH   7   8
ENDBRANCH   1   7
BRANCH   2  22
ATOM     22  O   UNL     1      18.653  65.342  16.579  1.00  0.00    -0.387 OA
ATOM     23  H   UNL     1      18.683  64.402  16.902  1.00  0.00     0.211 HD
ENDBRANCH   2  22
BRANCH   3  24
ATOM     24  O   UNL     1      18.191  67.713  17.889  1.00  0.00    -0.387 OA
ATOM     25  H   UNL     1      17.579  67.811  18.664  1.00  0.00     0.211 HD
ENDBRANCH   3  24
BRANCH   5  26
ATOM     26  O   UNL     1      20.245  69.514  17.071  1.00  0.00    -0.462 OA
BRANCH  26  27
ATOM     27  C   UNL     1      20.660  70.603  16.286  1.00  0.00     0.130 A 
ATOM     28  C   UNL     1      19.914  71.790  16.166  1.00  0.00     0.093 A 
ATOM     29  C   UNL     1      21.876  70.491  15.608  1.00  0.00     0.094 A 
ATOM     30  C   UNL     1      20.372  72.843  15.360  1.00  0.00     0.133 A 
ATOM     31  C   UNL     1      22.354  71.542  14.822  1.00  0.00     0.138 A 
ATOM     32  C   UNL     1      21.598  72.720  14.677  1.00  0.00     0.102 A 
ATOM     33  O   UNL     1      23.588  71.410  14.175  1.00  0.00    -0.484 OA
ATOM     34  C   UNL     1      22.125  73.772  13.772  1.00  0.00     0.174 C 
ATOM     35  C   UNL     1      24.282  72.535  13.631  1.00  0.00     0.211 C 
ATOM     36  O   UNL     1      21.569  74.900  13.692  1.00  0.00    -0.294 OA
ATOM     37  C   UNL     1      23.306  73.467  12.895  1.00  0.00     0.131 C 
BRANCH  30  38
ATOM     38  O   UNL     1      19.604  74.001  15.236  1.00  0.00    -0.507 OA
ATOM     39  H   UNL     1      19.980  74.847  14.823  1.00  0.00     0.293 HD
ENDBRANCH  30  38
BRANCH  35  40
ATOM     40  C   UNL     1      25.379  72.067  12.706  1.00  0.00    -0.003 A 
ATOM     41  C   UNL     1      26.690  71.904  13.180  1.00  0.00     0.057 A 
ATOM     42  C   UNL     1      25.088  71.741  11.372  1.00  0.00     0.011 A 
ATOM     43  C   UNL     1      27.703  71.442  12.332  1.00  0.00     0.158 A 
ATOM     44  C   UNL     1      26.096  71.281  10.521  1.00  0.00     0.051 A 
ATOM     45  C   UNL     1      27.415  71.128  10.992  1.00  0.00     0.160 A 
BRANCH  43  46
ATOM     46  O   UNL     1      28.994  71.301  12.844  1.00  0.00    -0.504 OA
ATOM     47  H   UNL     1      29.166  71.042  13.807  1.00  0.00     0.293 HD
ENDBRANCH  43  46
BRANCH  45  48
ATOM     48  O   UNL     1      28.451  70.668  10.164  1.00  0.00    -0.493 OA
ATOM     49  C   UNL     1      28.454  70.769   8.743  1.00  0.00     0.278 C 
ENDBRANCH  45  48
ENDBRANCH  35  40
ENDBRANCH  26  27
ENDBRANCH   5  26
BRANCH   4  50
ATOM     50  O   UNL     1      21.357  66.994  19.492  1.00  0.00    -0.384 OA
ATOM     51  H   UNL     1      22.006  66.683  18.808  1.00  0.00     0.211 HD
ENDBRANCH   4  50
TORSDOF 15
ENDMDL
MODEL 2
REMARK VINA RESULT:    -4.857      3.084      9.008
REMARK INTER + INTRA:         -10.403
REMARK INTER:                  -8.492
REMARK INTRA:                  -1.911
REMARK UNBOUND:                -2.423
REMARK SMILES COc1ccc([C@H]2CC(=O)c3c(O)cc(O[C@@H]4O[C@@H](CO[C@H]5O[C@H](C)[C@H](O)[C@@H](O)[C@@H]5O)[C@H](O)[C@H](O)[C@H]4O)cc3O2)cc1O
REMARK SMILES IDX 19 1 32 2 34 3 36 4 17 5 18 6 20 7 21 8 22 9 25 10 24 11
REMARK SMILES IDX 26 12 23 13 28 14 30 15 27 16 29 18 31 20 33 22 35 24 16 26
REMARK SMILES IDX 15 27 14 28 38 29 12 30 39 31 11 32 40 33 9 34 7 35 10 36
REMARK SMILES IDX 8 37 13 38 6 40 41 41 5 42 42 43 4 44 3 45 43 46 2 48 1 49
REMARK SMILES IDX 37 50
REMARK H PARENT 27 17 29 19 31 21 33 23 35 25 13 39 43 47 37 51
REMARK Flexibility Score: inf
ROOT
ATOM      1  C   UNL     1      24.511  76.118  10.564  1.00  0.00     0.180 C 
ATOM      2  C   UNL     1      25.378  77.386  10.752  1.00  0.00     0.177 C 
ATOM      3  C   UNL     1      24.698  78.343  11.748  1.00  0.00     0.180 C 
ATOM      4  C   UNL     1      23.234  78.585  11.340  1.00  0.00     0.214 C 
ATOM      5  C   UNL     1      22.511  77.246  11.076  1.00  0.00     0.339 C 
ATOM      6  O   UNL     1      23.210  76.471  10.114  1.00  0.00    -0.332 OA
ENDROOT
BRANCH   1   7
ATOM      7  C   UNL     1      25.120  75.160   9.525  1.00  0.00     0.198 C 
BRANCH   7   8
ATOM      8  O   UNL     1      26.085  74.312  10.120  1.00  0.00    -0.347 OA
BRANCH   8   9
ATOM      9  C   UNL     1      25.607  72.979  10.233  1.00  0.00     0.281 C 
ATOM     10  C   UNL     1      28.254  71.275   8.321  1.00  0.00     0.041 C 
ATOM     11  C   UNL     1      27.635  72.076   9.468  1.00  0.00     0.150 C 
ATOM     12  C   UNL     1      27.990  71.451  10.836  1.00  0.00     0.174 C 
ATOM     13  O   UNL     1      26.228  72.124   9.282  1.00  0.00    -0.344 OA
ATOM     14  C   UNL     1      27.325  72.256  11.967  1.00  0.00     0.179 C 
ATOM     15  C   UNL     1      25.825  72.466  11.674  1.00  0.00     0.202 C 
BRANCH  12  16
ATOM     16  O   UNL     1      27.555  70.114  10.880  1.00  0.00    -0.388 OA
ATOM     17  H   UNL     1      27.352  69.845   9.946  1.00  0.00     0.211 HD
ENDBRANCH  12  16
BRANCH  14  18
ATOM     18  O   UNL     1      27.975  73.494  12.100  1.00  0.00    -0.387 OA
ATOM     19  H   UNL     1      27.382  74.074  12.644  1.00  0.00     0.211 HD
ENDBRANCH  14  18
BRANCH  15  20
ATOM     20  O   UNL     1      25.142  71.253  11.860  1.00  0.00    -0.385 OA
ATOM     21  H   UNL     1      24.172  71.464  11.855  1.00  0.00     0.211 HD
ENDBRANCH  15  20
ENDBRANCH   8   9
ENDBRANCH   7   8
ENDBRANCH   1   7
BRANCH   2  22
ATOM     22  O   UNL     1      26.656  77.051  11.236  1.00  0.00    -0.387 OA
ATOM     23  H   UNL     1      26.598  77.011  12.228  1.00  0.00     0.211 HD
ENDBRANCH   2  22
BRANCH   3  24
ATOM     24  O   UNL     1      24.734  77.806  13.049  1.00  0.00    -0.387 OA
ATOM     25  H   UNL     1      25.085  76.881  12.974  1.00  0.00     0.211 HD
ENDBRANCH   3  24
BRANCH   5  26
ATOM     26  O   UNL     1      22.323  76.491  12.281  1.00  0.00    -0.462 OA
BRANCH  26  27
ATOM     27  C   UNL     1      21.459  75.396  12.447  1.00  0.00     0.130 A 
ATOM     28  C   UNL     1      20.185  75.327  11.854  1.00  0.00     0.093 A 
ATOM     29  C   UNL     1      21.904  74.329  13.231  1.00  0.00     0.094 A 
ATOM     30  C   UNL     1      19.359  74.213  12.060  1.00  0.00     0.133 A 
ATOM     31  C   UNL     1      21.101  73.203  13.425  1.00  0.00     0.138 A 
ATOM     32  C   UNL     1      19.815  73.142  12.856  1.00  0.00     0.102 A 
ATOM     33  O   UNL     1      21.584  72.138  14.193  1.00  0.00    -0.484 OA
ATOM     34  C   UNL     1      18.982  71.951  13.156  1.00  0.00     0.174 C 
ATOM     35  C   UNL     1      20.971  70.847  14.170  1.00  0.00     0.211 C 
ATOM     36  O   UNL     1      17.875  71.769  12.582  1.00  0.00    -0.294 OA
ATOM     37  C   UNL     1      19.440  70.976  14.203  1.00  0.00     0.131 C 
BRANCH  30  38
ATOM     38  O   UNL     1      18.091  74.177  11.483  1.00  0.00    -0.507 OA
ATOM     39  H   UNL     1      17.942  74.418  10.510  1.00  0.00     0.293 HD
ENDBRANCH  30  38
BRANCH  35  40
ATOM     40  C   UNL     1      21.466  70.020  15.331  1.00  0.00    -0.003 A 
ATOM     41  C   UNL     1      21.854  70.636  16.531  1.00  0.00     0.057 A 
ATOM     42  C   UNL     1      21.497  68.620  15.240  1.00  0.00     0.011 A 
ATOM     43  C   UNL     1      22.287  69.870  17.620  1.00  0.00     0.158 A 
ATOM     44  C   UNL     1      21.929  67.850  16.324  1.00  0.00     0.051 A 
ATOM     45  C   UNL     1      22.330  68.468  17.524  1.00  0.00     0.160 A 
BRANCH  43  46
ATOM     46  O   UNL     1      22.669  70.526  18.791  1.00  0.00    -0.504 OA
ATOM     47  H   UNL     1      23.340  70.130  19.436  1.00  0.00     0.293 HD
ENDBRANCH  43  46
BRANCH  45  48
ATOM     48  O   UNL     1      22.770  67.725  18.631  1.00  0.00    -0.493 OA
ATOM     49  C   UNL     1      22.561  66.326  18.800  1.00  0.00     0.278 C 
ENDBRANCH  45  48
ENDBRANCH  35  40
ENDBRANCH  26  27
ENDBRANCH   5  26
BRANCH   4  50
ATOM     50  O   UNL     1      23.186  79.364  10.170  1.00  0.00    -0.384 OA
ATOM     51  H   UNL     1      23.320  80.309  10.444  1.00  0.00     0.211 HD
ENDBRANCH   4  50
TORSDOF 15
ENDMDL
MODEL 3
REMARK VINA RESULT:    -4.767      4.830      7.384
REMARK INTER + INTRA:         -10.255
REMARK INTER:                  -8.573
REMARK INTRA:                  -1.682
REMARK UNBOUND:                -2.423
REMARK SMILES COc1ccc([C@H]2CC(=O)c3c(O)cc(O[C@@H]4O[C@@H](CO[C@H]5O[C@H](C)[C@H](O)[C@@H](O)[C@@H]5O)[C@H](O)[C@H](O)[C@H]4O)cc3O2)cc1O
REMARK SMILES IDX 19 1 32 2 34 3 36 4 17 5 18 6 20 7 21 8 22 9 25 10 24 11
REMARK SMILES IDX 26 12 23 13 28 14 30 15 27 16 29 18 31 20 33 22 35 24 16 26
REMARK SMILES IDX 15 27 14 28 38 29 12 30 39 31 11 32 40 33 9 34 7 35 10 36
REMARK SMILES IDX 8 37 13 38 6 40 41 41 5 42 42 43 4 44 3 45 43 46 2 48 1 49
REMARK SMILES IDX 37 50
REMARK H PARENT 27 17 29 19 31 21 33 23 35 25 13 39 43 47 37 51
REMARK Flexibility Score: inf
ROOT
ATOM      1  C   UNL     1      21.606  71.671  15.041  1.00  0.00     0.180 C 
ATOM      2  C   UNL     1      23.081  71.582  15.504  1.00  0.00     0.177 C 
ATOM      3  C   UNL     1      23.886  72.753  14.912  1.00  0.00     0.180 C 
ATOM      4  C   UNL     1      23.664  72.838  13.391  1.00  0.00     0.214 C 
ATOM      5  C   UNL     1      22.156  72.807  13.056  1.00  0.00     0.339 C 
ATOM      6  O   UNL     1      21.533  71.665  13.622  1.00  0.00    -0.332 OA
ENDROOT
BRANCH   1   7
ATOM      7  C   UNL     1      20.776  70.482  15.556  1.00  0.00     0.198 C 
BRANCH   7   8
ATOM      8  O   UNL     1      21.597  69.541  16.226  1.00  0.00    -0.347 OA
BRANCH   8   9
ATOM      9  C   UNL     1      20.891  68.339  16.502  1.00  0.00     0.281 C 
ATOM     10  C   UNL     1      23.745  66.009  16.500  1.00  0.00     0.041 C 
ATOM     11  C   UNL     1      22.869  67.167  16.982  1.00  0.00     0.150 C 
ATOM     12  C   UNL     1      22.539  67.024  18.485  1.00  0.00     0.174 C 
ATOM     13  O   UNL     1      21.682  67.196  16.203  1.00  0.00    -0.344 OA
ATOM     14  C   UNL     1      21.629  68.182  18.933  1.00  0.00     0.179 C 
ATOM     15  C   UNL     1      20.428  68.331  17.975  1.00  0.00     0.202 C 
BRANCH  12  16
ATOM     16  O   UNL     1      21.899  65.794  18.721  1.00  0.00    -0.388 OA
ATOM     17  H   UNL     1      22.268  65.435  19.569  1.00  0.00     0.211 HD
ENDBRANCH  12  16
BRANCH  14  18
ATOM     18  O   UNL     1      22.375  69.372  18.969  1.00  0.00    -0.387 OA
ATOM     19  H   UNL     1      22.178  69.861  18.128  1.00  0.00     0.211 HD
ENDBRANCH  14  18
BRANCH  15  20
ATOM     20  O   UNL     1      19.530  67.272  18.190  1.00  0.00    -0.385 OA
ATOM     21  H   UNL     1      19.218  66.973  17.296  1.00  0.00     0.211 HD
ENDBRANCH  15  20
ENDBRANCH   8   9
ENDBRANCH   7   8
ENDBRANCH   1   7
BRANCH   2  22
ATOM     22  O   UNL     1      23.169  71.628  16.908  1.00  0.00    -0.387 OA
ATOM     23  H   UNL     1      22.469  71.022  17.270  1.00  0.00     0.211 HD
ENDBRANCH   2  22
BRANCH   3  24
ATOM     24  O   UNL     1      23.498  73.968  15.506  1.00  0.00    -0.387 OA
ATOM     25  H   UNL     1      22.517  73.924  15.646  1.00  0.00     0.211 HD
ENDBRANCH   3  24
BRANCH   5  26
ATOM     26  O   UNL     1      21.488  74.001  13.484  1.00  0.00    -0.462 OA
BRANCH  26  27
ATOM     27  C   UNL     1      21.468  75.229  12.802  1.00  0.00     0.130 A 
ATOM     28  C   UNL     1      20.419  75.616  11.948  1.00  0.00     0.093 A 
ATOM     29  C   UNL     1      22.542  76.102  13.000  1.00  0.00     0.094 A 
ATOM     30  C   UNL     1      20.455  76.851  11.285  1.00  0.00     0.133 A 
ATOM     31  C   UNL     1      22.577  77.344  12.364  1.00  0.00     0.138 A 
ATOM     32  C   UNL     1      21.544  77.723  11.488  1.00  0.00     0.102 A 
ATOM     33  O   UNL     1      23.653  78.207  12.602  1.00  0.00    -0.484 OA
ATOM     34  C   UNL     1      21.673  79.025  10.788  1.00  0.00     0.174 C 
ATOM     35  C   UNL     1      23.605  79.593  12.255  1.00  0.00     0.211 C 
ATOM     36  O   UNL     1      20.731  79.486  10.089  1.00  0.00    -0.294 OA
ATOM     37  C   UNL     1      22.970  79.779  10.867  1.00  0.00     0.131 C 
BRANCH  30  38
ATOM     38  O   UNL     1      19.416  77.203  10.424  1.00  0.00    -0.507 OA
ATOM     39  H   UNL     1      19.537  77.205   9.417  1.00  0.00     0.293 HD
ENDBRANCH  30  38
BRANCH  35  40
ATOM     40  C   UNL     1      24.992  80.184  12.296  1.00  0.00    -0.003 A 
ATOM     41  C   UNL     1      25.868  79.875  13.348  1.00  0.00     0.057 A 
ATOM     42  C   UNL     1      25.440  81.012  11.254  1.00  0.00     0.011 A 
ATOM     43  C   UNL     1      27.165  80.399  13.375  1.00  0.00     0.158 A 
ATOM     44  C   UNL     1      26.734  81.538  11.276  1.00  0.00     0.051 A 
ATOM     45  C   UNL     1      27.610  81.238  12.337  1.00  0.00     0.160 A 
BRANCH  43  46
ATOM     46  O   UNL     1      28.000  80.069  14.444  1.00  0.00    -0.504 OA
ATOM     47  H   UNL     1      27.929  80.526  15.344  1.00  0.00     0.293 HD
ENDBRANCH  43  46
BRANCH  45  48
ATOM     48  O   UNL     1      28.916  81.750  12.390  1.00  0.00    -0.493 OA
ATOM     49  C   UNL     1      29.684  82.125  11.250  1.00  0.00     0.278 C 
ENDBRANCH  45  48
ENDBRANCH  35  40
ENDBRANCH  26  27
ENDBRANCH   5  26
BRANCH   4  50
ATOM     50  O   UNL     1      24.292  71.753  12.755  1.00  0.00    -0.384 OA
ATOM     51  H   UNL     1      23.818  71.607  11.894  1.00  0.00     0.211 HD
ENDBRANCH   4  50
TORSDOF 15
ENDMDL
MODEL 4
REMARK VINA RESULT:    -4.710      5.432      8.172
REMARK INTER + INTRA:         -10.162
REMARK INTER:                  -8.683
REMARK INTRA:                  -1.479
REMARK UNBOUND:                -2.423
REMARK SMILES COc1ccc([C@H]2CC(=O)c3c(O)cc(O[C@@H]4O[C@@H](CO[C@H]5O[C@H](C)[C@H](O)[C@@H](O)[C@@H]5O)[C@H](O)[C@H](O)[C@H]4O)cc3O2)cc1O
REMARK SMILES IDX 19 1 32 2 34 3 36 4 17 5 18 6 20 7 21 8 22 9 25 10 24 11
REMARK SMILES IDX 26 12 23 13 28 14 30 15 27 16 29 18 31 20 33 22 35 24 16 26
REMARK SMILES IDX 15 27 14 28 38 29 12 30 39 31 11 32 40 33 9 34 7 35 10 36
REMARK SMILES IDX 8 37 13 38 6 40 41 41 5 42 42 43 4 44 3 45 43 46 2 48 1 49
REMARK SMILES IDX 37 50
REMARK H PARENT 27 17 29 19 31 21 33 23 35 25 13 39 43 47 37 51
REMARK Flexibility Score: inf
ROOT
ATOM      1  C   UNL     1      22.654  72.320  12.385  1.00  0.00     0.180 C 
ATOM      2  C   UNL     1      22.307  71.453  13.619  1.00  0.00     0.177 C 
ATOM      3  C   UNL     1      21.743  72.343  14.741  1.00  0.00     0.180 C 
ATOM      4  C   UNL     1      22.683  73.533  15.001  1.00  0.00     0.214 C 
ATOM      5  C   UNL     1      23.041  74.247  13.678  1.00  0.00     0.339 C 
ATOM      6  O   UNL     1      23.586  73.332  12.739  1.00  0.00    -0.332 OA
ENDROOT
BRANCH   1   7
ATOM      7  C   UNL     1      23.284  71.480  11.259  1.00  0.00     0.198 C 
BRANCH   7   8
ATOM      8  O   UNL     1      24.610  71.902  10.991  1.00  0.00    -0.347 OA
BRANCH   8   9
ATOM      9  C   UNL     1      25.551  70.884  11.300  1.00  0.00     0.281 C 
ATOM     10  C   UNL     1      26.685  70.121   7.879  1.00  0.00     0.041 C 
ATOM     11  C   UNL     1      26.488  70.953   9.148  1.00  0.00     0.150 C 
ATOM     12  C   UNL     1      27.830  71.539   9.640  1.00  0.00     0.174 C 
ATOM     13  O   UNL     1      25.897  70.132  10.144  1.00  0.00    -0.344 OA
ATOM     14  C   UNL     1      27.606  72.341  10.935  1.00  0.00     0.179 C 
ATOM     15  C   UNL     1      26.802  71.510  11.956  1.00  0.00     0.202 C 
BRANCH  12  16
ATOM     16  O   UNL     1      28.751  70.501   9.872  1.00  0.00    -0.388 OA
ATOM     17  H   UNL     1      28.970  70.522  10.840  1.00  0.00     0.211 HD
ENDBRANCH  12  16
BRANCH  14  18
ATOM     18  O   UNL     1      26.927  73.533  10.632  1.00  0.00    -0.387 OA
ATOM     19  H   UNL     1      26.985  73.656   9.649  1.00  0.00     0.211 HD
ENDBRANCH  14  18
BRANCH  15  20
ATOM     20  O   UNL     1      27.624  70.500  12.482  1.00  0.00    -0.385 OA
ATOM     21  H   UNL     1      27.126  70.084  13.234  1.00  0.00     0.211 HD
ENDBRANCH  15  20
ENDBRANCH   8   9
ENDBRANCH   7   8
ENDBRANCH   1   7
BRANCH   2  22
ATOM     22  O   UNL     1      21.354  70.472  13.289  1.00  0.00    -0.387 OA
ATOM     23  H   UNL     1      20.975  70.711  12.401  1.00  0.00     0.211 HD
ENDBRANCH   2  22
BRANCH   3  24
ATOM     24  O   UNL     1      20.468  72.827  14.393  1.00  0.00    -0.387 OA
ATOM     25  H   UNL     1      20.269  72.495  13.480  1.00  0.00     0.211 HD
ENDBRANCH   3  24
BRANCH   5  26
ATOM     26  O   UNL     1      21.912  74.926  13.112  1.00  0.00    -0.462 OA
BRANCH  26  27
ATOM     27  C   UNL     1      21.903  76.234  12.600  1.00  0.00     0.130 A 
ATOM     28  C   UNL     1      20.772  76.813  11.995  1.00  0.00     0.093 A 
ATOM     29  C   UNL     1      23.074  76.986  12.715  1.00  0.00     0.094 A 
ATOM     30  C   UNL     1      20.821  78.121  11.492  1.00  0.00     0.133 A 
ATOM     31  C   UNL     1      23.128  78.298  12.239  1.00  0.00     0.138 A 
ATOM     32  C   UNL     1      22.009  78.871  11.608  1.00  0.00     0.102 A 
ATOM     33  O   UNL     1      24.308  79.036  12.391  1.00  0.00    -0.484 OA
ATOM     34  C   UNL     1      22.150  80.243  11.061  1.00  0.00     0.174 C 
ATOM     35  C   UNL     1      24.340  80.457  12.230  1.00  0.00     0.211 C 
ATOM     36  O   UNL     1      21.158  80.866  10.598  1.00  0.00    -0.294 OA
ATOM     37  C   UNL     1      23.511  80.879  11.006  1.00  0.00     0.131 C 
BRANCH  30  38
ATOM     38  O   UNL     1      19.696  78.665  10.873  1.00  0.00    -0.507 OA
ATOM     39  H   UNL     1      19.142  78.132  10.212  1.00  0.00     0.293 HD
ENDBRANCH  30  38
BRANCH  35  40
ATOM     40  C   UNL     1      25.767  80.929  12.102  1.00  0.00    -0.003 A 
ATOM     41  C   UNL     1      26.614  80.952  13.221  1.00  0.00     0.057 A 
ATOM     42  C   UNL     1      26.278  81.306  10.850  1.00  0.00     0.011 A 
ATOM     43  C   UNL     1      27.946  81.363  13.100  1.00  0.00     0.158 A 
ATOM     44  C   UNL     1      27.607  81.717  10.724  1.00  0.00     0.051 A 
ATOM     45  C   UNL     1      28.455  81.752  11.848  1.00  0.00     0.160 A 
BRANCH  43  46
ATOM     46  O   UNL     1      28.750  81.374  14.241  1.00  0.00    -0.504 OA
ATOM     47  H   UNL     1      29.349  80.597  14.487  1.00  0.00     0.293 HD
ENDBRANCH  43  46
BRANCH  45  48
ATOM     48  O   UNL     1      29.794  82.160  11.757  1.00  0.00    -0.493 OA
ATOM     49  C   UNL     1      30.369  82.796  10.619  1.00  0.00     0.278 C 
ENDBRANCH  45  48
ENDBRANCH  35  40
ENDBRANCH  26  27
ENDBRANCH   5  26
BRANCH   4  50
ATOM     50  O   UNL     1      23.869  73.083  15.608  1.00  0.00    -0.384 OA
ATOM     51  H   UNL     1      24.469  72.775  14.880  1.00  0.00     0.211 HD
ENDBRANCH   4  50
TORSDOF 15
ENDMDL
MODEL 5
REMARK VINA RESULT:    -4.689      2.676      9.320
REMARK INTER + INTRA:         -10.127
REMARK INTER:                  -8.167
REMARK INTRA:                  -1.960
REMARK UNBOUND:                -2.423
REMARK SMILES COc1ccc([C@H]2CC(=O)c3c(O)cc(O[C@@H]4O[C@@H](CO[C@H]5O[C@H](C)[C@H](O)[C@@H](O)[C@@H]5O)[C@H](O)[C@H](O)[C@H]4O)cc3O2)cc1O
REMARK SMILES IDX 19 1 32 2 34 3 36 4 17 5 18 6 20 7 21 8 22 9 25 10 24 11
REMARK SMILES IDX 26 12 23 13 28 14 30 15 27 16 29 18 31 20 33 22 35 24 16 26
REMARK SMILES IDX 15 27 14 28 38 29 12 30 39 31 11 32 40 33 9 34 7 35 10 36
REMARK SMILES IDX 8 37 13 38 6 40 41 41 5 42 42 43 4 44 3 45 43 46 2 48 1 49
REMARK SMILES IDX 37 50
REMARK H PARENT 27 17 29 19 31 21 33 23 35 25 13 39 43 47 37 51
REMARK Flexibility Score: inf
ROOT
ATOM      1  C   UNL     1      24.668  75.893  10.509  1.00  0.00     0.180 C 
ATOM      2  C   UNL     1      24.857  77.358  10.974  1.00  0.00     0.177 C 
ATOM      3  C   UNL     1      23.712  77.757  11.923  1.00  0.00     0.180 C 
ATOM      4  C   UNL     1      22.351  77.426  11.286  1.00  0.00     0.214 C 
ATOM      5  C   UNL     1      22.331  75.971  10.765  1.00  0.00     0.339 C 
ATOM      6  O   UNL     1      23.408  75.737   9.871  1.00  0.00    -0.332 OA
ENDROOT
BRANCH   1   7
ATOM      7  C   UNL     1      25.755  75.470   9.505  1.00  0.00     0.198 C 
BRANCH   7   8
ATOM      8  O   UNL     1      26.559  74.432  10.035  1.00  0.00    -0.347 OA
BRANCH   8   9
ATOM      9  C   UNL     1      25.875  73.187  10.023  1.00  0.00     0.281 C 
ATOM     10  C   UNL     1      28.507  71.121   8.483  1.00  0.00     0.041 C 
ATOM     11  C   UNL     1      27.840  71.992   9.549  1.00  0.00     0.150 C 
ATOM     12  C   UNL     1      27.876  71.302  10.931  1.00  0.00     0.174 C 
ATOM     13  O   UNL     1      26.504  72.259   9.149  1.00  0.00    -0.344 OA
ATOM     14  C   UNL     1      27.168  72.185  11.974  1.00  0.00     0.179 C 
ATOM     15  C   UNL     1      25.782  72.628  11.460  1.00  0.00     0.202 C 
BRANCH  12  16
ATOM     16  O   UNL     1      27.244  70.048  10.857  1.00  0.00    -0.388 OA
ATOM     17  H   UNL     1      26.674  70.059  10.044  1.00  0.00     0.211 HD
ENDBRANCH  12  16
BRANCH  14  18
ATOM     18  O   UNL     1      27.966  73.307  12.252  1.00  0.00    -0.387 OA
ATOM     19  H   UNL     1      28.865  73.123  11.873  1.00  0.00     0.211 HD
ENDBRANCH  14  18
BRANCH  15  20
ATOM     20  O   UNL     1      24.904  71.532  11.493  1.00  0.00    -0.385 OA
ATOM     21  H   UNL     1      25.388  70.787  11.937  1.00  0.00     0.211 HD
ENDBRANCH  15  20
ENDBRANCH   8   9
ENDBRANCH   7   8
ENDBRANCH   1   7
BRANCH   2  22
ATOM     22  O   UNL     1      26.085  77.516  11.643  1.00  0.00    -0.387 OA
ATOM     23  H   UNL     1      26.786  77.090  11.082  1.00  0.00     0.211 HD
ENDBRANCH   2  22
BRANCH   3  24
ATOM     24  O   UNL     1      23.828  77.076  13.149  1.00  0.00    -0.387 OA
ATOM     25  H   UNL     1      24.103  77.744  13.830  1.00  0.00     0.211 HD
ENDBRANCH   3  24
BRANCH   5  26
ATOM     26  O   UNL     1      22.356  75.018  11.835  1.00  0.00    -0.462 OA
BRANCH  26  27
ATOM     27  C   UNL     1      22.018  73.658  11.742  1.00  0.00     0.130 A 
ATOM     28  C   UNL     1      21.864  72.988  10.514  1.00  0.00     0.093 A 
ATOM     29  C   UNL     1      21.841  72.947  12.932  1.00  0.00     0.094 A 
ATOM     30  C   UNL     1      21.516  71.630  10.478  1.00  0.00     0.133 A 
ATOM     31  C   UNL     1      21.518  71.588  12.909  1.00  0.00     0.138 A 
ATOM     32  C   UNL     1      21.336  70.922  11.684  1.00  0.00     0.102 A 
ATOM     33  O   UNL     1      21.372  70.897  14.117  1.00  0.00    -0.484 OA
ATOM     34  C   UNL     1      20.925  69.497  11.726  1.00  0.00     0.174 C 
ATOM     35  C   UNL     1      21.364  69.468  14.178  1.00  0.00     0.211 C 
ATOM     36  O   UNL     1      20.866  68.804  10.675  1.00  0.00    -0.294 OA
ATOM     37  C   UNL     1      20.516  68.886  13.036  1.00  0.00     0.131 C 
BRANCH  30  38
ATOM     38  O   UNL     1      21.344  70.993   9.250  1.00  0.00    -0.507 OA
ATOM     39  H   UNL     1      21.968  71.164   8.469  1.00  0.00     0.293 HD
ENDBRANCH  30  38
BRANCH  35  40
ATOM     40  C   UNL     1      20.848  69.011  15.520  1.00  0.00    -0.003 A 
ATOM     41  C   UNL     1      21.616  69.198  16.680  1.00  0.00     0.057 A 
ATOM     42  C   UNL     1      19.572  68.438  15.628  1.00  0.00     0.011 A 
ATOM     43  C   UNL     1      21.127  68.801  17.930  1.00  0.00     0.158 A 
ATOM     44  C   UNL     1      19.080  68.039  16.874  1.00  0.00     0.051 A 
ATOM     45  C   UNL     1      19.853  68.215  18.038  1.00  0.00     0.160 A 
BRANCH  43  46
ATOM     46  O   UNL     1      21.927  69.000  19.056  1.00  0.00    -0.504 OA
ATOM     47  H   UNL     1      21.955  69.884  19.548  1.00  0.00     0.293 HD
ENDBRANCH  43  46
BRANCH  45  48
ATOM     48  O   UNL     1      19.390  67.825  19.304  1.00  0.00    -0.493 OA
ATOM     49  C   UNL     1      18.185  67.102  19.536  1.00  0.00     0.278 C 
ENDBRANCH  45  48
ENDBRANCH  35  40
ENDBRANCH  26  27
ENDBRANCH   5  26
BRANCH   4  50
ATOM     50  O   UNL     1      22.102  78.296  10.210  1.00  0.00    -0.384 OA
ATOM     51  H   UNL     1      21.450  77.842   9.614  1.00  0.00     0.211 HD
ENDBRANCH   4  50
TORSDOF 15
ENDMDL
MODEL 6
REMARK VINA RESULT:    -4.572      6.424      9.293
REMARK INTER + INTRA:          -9.935
REMARK INTER:                  -7.914
REMARK INTRA:                  -2.021
REMARK UNBOUND:                -2.423
REMARK SMILES COc1ccc([C@H]2CC(=O)c3c(O)cc(O[C@@H]4O[C@@H](CO[C@H]5O[C@H](C)[C@H](O)[C@@H](O)[C@@H]5O)[C@H](O)[C@H](O)[C@H]4O)cc3O2)cc1O
REMARK SMILES IDX 19 1 32 2 34 3 36 4 17 5 18 6 20 7 21 8 22 9 25 10 24 11
REMARK SMILES IDX 26 12 23 13 28 14 30 15 27 16 29 18 31 20 33 22 35 24 16 26
REMARK SMILES IDX 15 27 14 28 38 29 12 30 39 31 11 32 40 33 9 34 7 35 10 36
REMARK SMILES IDX 8 37 13 38 6 40 41 41 5 42 42 43 4 44 3 45 43 46 2 48 1 49
REMARK SMILES IDX 37 50
REMARK H PARENT 27 17 29 19 31 21 33 23 35 25 13 39 43 47 37 51
REMARK Flexibility Score: inf
ROOT
ATOM      1  C   UNL     1      22.848  73.794  10.076  1.00  0.00     0.180 C 
ATOM      2  C   UNL     1      22.116  72.843  11.054  1.00  0.00     0.177 C 
ATOM      3  C   UNL     1      21.656  73.626  12.298  1.00  0.00     0.180 C 
ATOM      4  C   UNL     1      22.832  74.423  12.891  1.00  0.00     0.214 C 
ATOM      5  C   UNL     1      23.545  75.243  11.793  1.00  0.00     0.339 C 
ATOM      6  O   UNL     1      23.955  74.408  10.720  1.00  0.00    -0.332 OA
ENDROOT
BRANCH   1   7
ATOM      7  C   UNL     1      23.384  73.041   8.845  1.00  0.00     0.198 C 
BRANCH   7   8
ATOM      8  O   UNL     1      24.794  72.920   8.898  1.00  0.00    -0.347 OA
BRANCH   8   9
ATOM      9  C   UNL     1      25.203  71.561   8.831  1.00  0.00     0.281 C 
ATOM     10  C   UNL     1      28.752  72.089   7.998  1.00  0.00     0.041 C 
ATOM     11  C   UNL     1      27.479  72.136   8.846  1.00  0.00     0.150 C 
ATOM     12  C   UNL     1      27.726  71.538  10.249  1.00  0.00     0.174 C 
ATOM     13  O   UNL     1      26.453  71.429   8.166  1.00  0.00    -0.344 OA
ATOM     14  C   UNL     1      26.421  71.567  11.066  1.00  0.00     0.179 C 
ATOM     15  C   UNL     1      25.258  70.961  10.253  1.00  0.00     0.202 C 
BRANCH  12  16
ATOM     16  O   UNL     1      28.188  70.215  10.132  1.00  0.00    -0.388 OA
ATOM     17  H   UNL     1      27.645  69.780   9.425  1.00  0.00     0.211 HD
ENDBRANCH  12  16
BRANCH  14  18
ATOM     18  O   UNL     1      26.127  72.893  11.424  1.00  0.00    -0.387 OA
ATOM     19  H   UNL     1      25.720  72.864  12.329  1.00  0.00     0.211 HD
ENDBRANCH  14  18
BRANCH  15  20
ATOM     20  O   UNL     1      25.421  69.567  10.180  1.00  0.00    -0.385 OA
ATOM     21  H   UNL     1      24.759  69.233   9.519  1.00  0.00     0.211 HD
ENDBRANCH  15  20
ENDBRANCH   8   9
ENDBRANCH   7   8
ENDBRANCH   1   7
BRANCH   2  22
ATOM     22  O   UNL     1      20.993  72.259  10.438  1.00  0.00    -0.387 OA
ATOM     23  H   UNL     1      20.536  71.700  11.121  1.00  0.00     0.211 HD
ENDBRANCH   2  22
BRANCH   3  24
ATOM     24  O   UNL     1      20.615  74.512  11.966  1.00  0.00    -0.387 OA
ATOM     25  H   UNL     1      20.921  75.425  12.208  1.00  0.00     0.211 HD
ENDBRANCH   3  24
BRANCH   5  26
ATOM     26  O   UNL     1      22.726  76.313  11.304  1.00  0.00    -0.462 OA
BRANCH  26  27
ATOM     27  C   UNL     1      22.916  77.682  11.553  1.00  0.00     0.130 A 
ATOM     28  C   UNL     1      21.881  78.536  11.979  1.00  0.00     0.093 A 
ATOM     29  C   UNL     1      24.199  78.205  11.375  1.00  0.00     0.094 A 
ATOM     30  C   UNL     1      22.125  79.898  12.203  1.00  0.00     0.133 A 
ATOM     31  C   UNL     1      24.460  79.555  11.618  1.00  0.00     0.138 A 
ATOM     32  C   UNL     1      23.422  80.417  12.018  1.00  0.00     0.102 A 
ATOM     33  O   UNL     1      25.761  80.044  11.456  1.00  0.00    -0.484 OA
ATOM     34  C   UNL     1      23.746  81.855  12.192  1.00  0.00     0.174 C 
ATOM     35  C   UNL     1      26.168  81.308  11.986  1.00  0.00     0.211 C 
ATOM     36  O   UNL     1      22.902  82.660  12.668  1.00  0.00    -0.294 OA
ATOM     37  C   UNL     1      25.083  82.370  11.740  1.00  0.00     0.131 C 
BRANCH  30  38
ATOM     38  O   UNL     1      21.079  80.730  12.601  1.00  0.00    -0.507 OA
ATOM     39  H   UNL     1      21.247  81.665  12.956  1.00  0.00     0.293 HD
ENDBRANCH  30  38
BRANCH  35  40
ATOM     40  C   UNL     1      27.480  81.727  11.371  1.00  0.00    -0.003 A 
ATOM     41  C   UNL     1      28.658  81.728  12.135  1.00  0.00     0.057 A 
ATOM     42  C   UNL     1      27.546  82.075  10.013  1.00  0.00     0.011 A 
ATOM     43  C   UNL     1      29.881  82.089  11.560  1.00  0.00     0.158 A 
ATOM     44  C   UNL     1      28.765  82.437   9.434  1.00  0.00     0.051 A 
ATOM     45  C   UNL     1      29.945  82.449  10.202  1.00  0.00     0.160 A 
BRANCH  43  46
ATOM     46  O   UNL     1      31.026  82.080  12.359  1.00  0.00    -0.504 OA
ATOM     47  H   UNL     1      31.656  81.288  12.391  1.00  0.00     0.293 HD
ENDBRANCH  43  46
BRANCH  45  48
ATOM     48  O   UNL     1      31.186  82.808   9.653  1.00  0.00    -0.493 OA
ATOM     49  C   UNL     1      31.983  81.957   8.833  1.00  0.00     0.278 C 
ENDBRANCH  45  48
ENDBRANCH  35  40
ENDBRANCH  26  27
ENDBRANCH   5  26
BRANCH   4  50
ATOM     50  O   UNL     1      23.761  73.543  13.474  1.00  0.00    -0.384 OA
ATOM     51  H   UNL     1      24.621  74.034  13.547  1.00  0.00     0.211 HD
ENDBRANCH   4  50
TORSDOF 15
ENDMDL
MODEL 7
REMARK VINA RESULT:    -4.516      3.670      6.967
REMARK INTER + INTRA:          -9.843
REMARK INTER:                  -8.121
REMARK INTRA:                  -1.722
REMARK UNBOUND:                -2.423
REMARK SMILES COc1ccc([C@H]2CC(=O)c3c(O)cc(O[C@@H]4O[C@@H](CO[C@H]5O[C@H](C)[C@H](O)[C@@H](O)[C@@H]5O)[C@H](O)[C@H](O)[C@H]4O)cc3O2)cc1O
REMARK SMILES IDX 19 1 32 2 34 3 36 4 17 5 18 6 20 7 21 8 22 9 25 10 24 11
REMARK SMILES IDX 26 12 23 13 28 14 30 15 27 16 29 18 31 20 33 22 35 24 16 26
REMARK SMILES IDX 15 27 14 28 38 29 12 30 39 31 11 32 40 33 9 34 7 35 10 36
REMARK SMILES IDX 8 37 13 38 6 40 41 41 5 42 42 43 4 44 3 45 43 46 2 48 1 49
REMARK SMILES IDX 37 50
REMARK H PARENT 27 17 29 19 31 21 33 23 35 25 13 39 43 47 37 51
REMARK Flexibility Score: inf
ROOT
ATOM      1  C   UNL     1      21.223  70.302  14.585  1.00  0.00     0.180 C 
ATOM      2  C   UNL     1      19.801  69.745  14.330  1.00  0.00     0.177 C 
ATOM      3  C   UNL     1      19.423  69.935  12.850  1.00  0.00     0.180 C 
ATOM      4  C   UNL     1      19.659  71.394  12.422  1.00  0.00     0.214 C 
ATOM      5  C   UNL     1      21.073  71.863  12.831  1.00  0.00     0.339 C 
ATOM      6  O   UNL     1      21.288  71.674  14.221  1.00  0.00    -0.332 OA
ENDROOT
BRANCH   1   7
ATOM      7  C   UNL     1      21.619  70.194  16.069  1.00  0.00     0.198 C 
BRANCH   7   8
ATOM      8  O   UNL     1      21.769  68.840  16.456  1.00  0.00    -0.347 OA
BRANCH   8   9
ATOM      9  C   UNL     1      21.241  68.609  17.755  1.00  0.00     0.281 C 
ATOM     10  C   UNL     1      19.552  65.400  17.104  1.00  0.00     0.041 C 
ATOM     11  C   UNL     1      20.723  66.373  17.260  1.00  0.00     0.150 C 
ATOM     12  C   UNL     1      21.789  65.806  18.224  1.00  0.00     0.174 C 
ATOM     13  O   UNL     1      20.224  67.616  17.730  1.00  0.00    -0.344 OA
ATOM     14  C   UNL     1      22.936  66.819  18.388  1.00  0.00     0.179 C 
ATOM     15  C   UNL     1      22.381  68.219  18.722  1.00  0.00     0.202 C 
BRANCH  12  16
ATOM     16  O   UNL     1      21.208  65.533  19.476  1.00  0.00    -0.388 OA
ATOM     17  H   UNL     1      21.034  66.409  19.910  1.00  0.00     0.211 HD
ENDBRANCH  12  16
BRANCH  14  18
ATOM     18  O   UNL     1      23.691  66.863  17.204  1.00  0.00    -0.387 OA
ATOM     19  H   UNL     1      24.613  67.127  17.459  1.00  0.00     0.211 HD
ENDBRANCH  14  18
BRANCH  15  20
ATOM     20  O   UNL     1      21.911  68.228  20.046  1.00  0.00    -0.385 OA
ATOM     21  H   UNL     1      21.433  69.088  20.177  1.00  0.00     0.211 HD
ENDBRANCH  15  20
ENDBRANCH   8   9
ENDBRANCH   7   8
ENDBRANCH   1   7
BRANCH   2  22
ATOM     22  O   UNL     1      19.736  68.376  14.649  1.00  0.00    -0.387 OA
ATOM     23  H   UNL     1      19.915  67.867  13.814  1.00  0.00     0.211 HD
ENDBRANCH   2  22
BRANCH   3  24
ATOM     24  O   UNL     1      20.189  69.083  12.032  1.00  0.00    -0.387 OA
ATOM     25  H   UNL     1      19.753  69.063  11.141  1.00  0.00     0.211 HD
ENDBRANCH   3  24
BRANCH   5  26
ATOM     26  O   UNL     1      22.097  71.202  12.075  1.00  0.00    -0.462 OA
BRANCH  26  27
ATOM     27  C   UNL     1      23.140  71.825  11.371  1.00  0.00     0.130 A 
ATOM     28  C   UNL     1      24.041  71.120  10.552  1.00  0.00     0.093 A 
ATOM     29  C   UNL     1      23.269  73.211  11.489  1.00  0.00     0.094 A 
ATOM     30  C   UNL     1      25.071  71.792   9.877  1.00  0.00     0.133 A 
ATOM     31  C   UNL     1      24.276  73.895  10.804  1.00  0.00     0.138 A 
ATOM     32  C   UNL     1      25.195  73.190  10.006  1.00  0.00     0.102 A 
ATOM     33  O   UNL     1      24.364  75.286  10.922  1.00  0.00    -0.484 OA
ATOM     34  C   UNL     1      26.285  73.963   9.359  1.00  0.00     0.174 C 
ATOM     35  C   UNL     1      25.142  76.076  10.019  1.00  0.00     0.211 C 
ATOM     36  O   UNL     1      27.066  73.422   8.533  1.00  0.00    -0.294 OA
ATOM     37  C   UNL     1      26.495  75.402   9.741  1.00  0.00     0.131 C 
BRANCH  30  38
ATOM     38  O   UNL     1      25.967  71.069   9.091  1.00  0.00    -0.507 OA
ATOM     39  H   UNL     1      26.717  70.524   9.503  1.00  0.00     0.293 HD
ENDBRANCH  30  38
BRANCH  35  40
ATOM     40  C   UNL     1      25.338  77.462  10.582  1.00  0.00    -0.003 A 
ATOM     41  C   UNL     1      24.975  77.751  11.907  1.00  0.00     0.057 A 
ATOM     42  C   UNL     1      25.930  78.466   9.801  1.00  0.00     0.011 A 
ATOM     43  C   UNL     1      25.182  79.027  12.442  1.00  0.00     0.158 A 
ATOM     44  C   UNL     1      26.138  79.743  10.330  1.00  0.00     0.051 A 
ATOM     45  C   UNL     1      25.764  80.037  11.656  1.00  0.00     0.160 A 
BRANCH  43  46
ATOM     46  O   UNL     1      24.801  79.271  13.763  1.00  0.00    -0.504 OA
ATOM     47  H   UNL     1      23.833  79.388  14.032  1.00  0.00     0.293 HD
ENDBRANCH  43  46
BRANCH  45  48
ATOM     48  O   UNL     1      25.958  81.308  12.218  1.00  0.00    -0.493 OA
ATOM     49  C   UNL     1      27.185  81.764  12.782  1.00  0.00     0.278 C 
ENDBRANCH  45  48
ENDBRANCH  35  40
ENDBRANCH  26  27
ENDBRANCH   5  26
BRANCH   4  50
ATOM     50  O   UNL     1      18.710  72.232  13.034  1.00  0.00    -0.384 OA
ATOM     51  H   UNL     1      18.271  72.751  12.311  1.00  0.00     0.211 HD
ENDBRANCH   4  50
TORSDOF 15
ENDMDL
MODEL 8
REMARK VINA RESULT:    -4.487      7.891     11.035
REMARK INTER + INTRA:          -9.795
REMARK INTER:                  -8.428
REMARK INTRA:                  -1.367
REMARK UNBOUND:                -2.423
REMARK SMILES COc1ccc([C@H]2CC(=O)c3c(O)cc(O[C@@H]4O[C@@H](CO[C@H]5O[C@H](C)[C@H](O)[C@@H](O)[C@@H]5O)[C@H](O)[C@H](O)[C@H]4O)cc3O2)cc1O
REMARK SMILES IDX 19 1 32 2 34 3 36 4 17 5 18 6 20 7 21 8 22 9 25 10 24 11
REMARK SMILES IDX 26 12 23 13 28 14 30 15 27 16 29 18 31 20 33 22 35 24 16 26
REMARK SMILES IDX 15 27 14 28 38 29 12 30 39 31 11 32 40 33 9 34 7 35 10 36
REMARK SMILES IDX 8 37 13 38 6 40 41 41 5 42 42 43 4 44 3 45 43 46 2 48 1 49
REMARK SMILES IDX 37 50
REMARK H PARENT 27 17 29 19 31 21 33 23 35 25 13 39 43 47 37 51
REMARK Flexibility Score: inf
ROOT
ATOM      1  C   UNL     1      23.788  75.869  10.374  1.00  0.00     0.180 C 
ATOM      2  C   UNL     1      22.626  75.550  11.346  1.00  0.00     0.177 C 
ATOM      3  C   UNL     1      22.127  76.847  12.008  1.00  0.00     0.180 C 
ATOM      4  C   UNL     1      23.309  77.628  12.608  1.00  0.00     0.214 C 
ATOM      5  C   UNL     1      24.445  77.783  11.573  1.00  0.00     0.339 C 
ATOM      6  O   UNL     1      24.845  76.520  11.065  1.00  0.00    -0.332 OA
ENDROOT
BRANCH   1   7
ATOM      7  C   UNL     1      24.364  74.591   9.737  1.00  0.00     0.198 C 
BRANCH   7   8
ATOM      8  O   UNL     1      25.066  73.819  10.694  1.00  0.00    -0.347 OA
BRANCH   8   9
ATOM      9  C   UNL     1      26.377  73.503  10.247  1.00  0.00     0.281 C 
ATOM     10  C   UNL     1      27.555  71.682  13.225  1.00  0.00     0.041 C 
ATOM     11  C   UNL     1      26.707  71.953  11.981  1.00  0.00     0.150 C 
ATOM     12  C   UNL     1      26.713  70.736  11.029  1.00  0.00     0.174 C 
ATOM     13  O   UNL     1      27.212  73.110  11.329  1.00  0.00    -0.344 OA
ATOM     14  C   UNL     1      25.882  71.051   9.772  1.00  0.00     0.179 C 
ATOM     15  C   UNL     1      26.309  72.403   9.164  1.00  0.00     0.202 C 
BRANCH  12  16
ATOM     16  O   UNL     1      28.034  70.420  10.663  1.00  0.00    -0.388 OA
ATOM     17  H   UNL     1      28.262  70.990   9.883  1.00  0.00     0.211 HD
ENDBRANCH  12  16
BRANCH  14  18
ATOM     18  O   UNL     1      24.519  71.076  10.111  1.00  0.00    -0.387 OA
ATOM     19  H   UNL     1      24.148  70.185   9.881  1.00  0.00     0.211 HD
ENDBRANCH  14  18
BRANCH  15  20
ATOM     20  O   UNL     1      27.563  72.259   8.547  1.00  0.00    -0.385 OA
ATOM     21  H   UNL     1      28.000  73.150   8.570  1.00  0.00     0.211 HD
ENDBRANCH  15  20
ENDBRANCH   8   9
ENDBRANCH   7   8
ENDBRANCH   1   7
BRANCH   2  22
ATOM     22  O   UNL     1      21.556  74.941  10.664  1.00  0.00    -0.387 OA
ATOM     23  H   UNL     1      21.409  74.049  11.078  1.00  0.00     0.211 HD
ENDBRANCH   2  22
BRANCH   3  24
ATOM     24  O   UNL     1      21.466  77.658  11.067  1.00  0.00    -0.387 OA
ATOM     25  H   UNL     1      21.435  78.576  11.442  1.00  0.00     0.211 HD
ENDBRANCH   3  24
BRANCH   5  26
ATOM     26  O   UNL     1      24.075  78.657  10.498  1.00  0.00    -0.462 OA
BRANCH  26  27
ATOM     27  C   UNL     1      24.626  79.921  10.230  1.00  0.00     0.130 A 
ATOM     28  C   UNL     1      23.850  81.030   9.846  1.00  0.00     0.093 A 
ATOM     29  C   UNL     1      26.008  80.072  10.367  1.00  0.00     0.094 A 
ATOM     30  C   UNL     1      24.453  82.268   9.582  1.00  0.00     0.133 A 
ATOM     31  C   UNL     1      26.618  81.306  10.130  1.00  0.00     0.138 A 
ATOM     32  C   UNL     1      25.849  82.410   9.719  1.00  0.00     0.102 A 
ATOM     33  O   UNL     1      28.001  81.433  10.301  1.00  0.00    -0.484 OA
ATOM     34  C   UNL     1      26.563  83.675   9.415  1.00  0.00     0.174 C 
ATOM     35  C   UNL     1      28.640  82.709  10.393  1.00  0.00     0.211 C 
ATOM     36  O   UNL     1      25.931  84.736   9.164  1.00  0.00    -0.294 OA
ATOM     37  C   UNL     1      28.064  83.677   9.347  1.00  0.00     0.131 C 
BRANCH  30  38
ATOM     38  O   UNL     1      23.667  83.347   9.178  1.00  0.00    -0.507 OA
ATOM     39  H   UNL     1      22.717  83.219   8.847  1.00  0.00     0.293 HD
ENDBRANCH  30  38
BRANCH  35  40
ATOM     40  C   UNL     1      30.130  82.553  10.218  1.00  0.00    -0.003 A 
ATOM     41  C   UNL     1      30.990  82.629  11.326  1.00  0.00     0.057 A 
ATOM     42  C   UNL     1      30.670  82.282   8.952  1.00  0.00     0.011 A 
ATOM     43  C   UNL     1      32.370  82.456  11.172  1.00  0.00     0.158 A 
ATOM     44  C   UNL     1      32.047  82.110   8.792  1.00  0.00     0.051 A 
ATOM     45  C   UNL     1      32.912  82.197   9.900  1.00  0.00     0.160 A 
BRANCH  43  46
ATOM     46  O   UNL     1      33.187  82.545  12.300  1.00  0.00    -0.504 OA
ATOM     47  H   UNL     1      33.429  83.432  12.722  1.00  0.00     0.293 HD
ENDBRANCH  43  46
BRANCH  45  48
ATOM     48  O   UNL     1      34.300  82.030   9.775  1.00  0.00    -0.493 OA
ATOM     49  C   UNL     1      34.936  81.326   8.712  1.00  0.00     0.278 C 
ENDBRANCH  45  48
ENDBRANCH  35  40
ENDBRANCH  26  27
ENDBRANCH   5  26
BRANCH   4  50
ATOM     50  O   UNL     1      23.811  76.949  13.732  1.00  0.00    -0.384 OA
ATOM     51  H   UNL     1      23.244  77.207  14.505  1.00  0.00     0.211 HD
ENDBRANCH   4  50
TORSDOF 15
ENDMDL
MODEL 9
REMARK VINA RESULT:    -4.445      1.779      5.254
REMARK INTER + INTRA:          -9.727
REMARK INTER:                  -6.918
REMARK INTRA:                  -2.809
REMARK UNBOUND:                -2.423
REMARK SMILES COc1ccc([C@H]2CC(=O)c3c(O)cc(O[C@@H]4O[C@@H](CO[C@H]5O[C@H](C)[C@H](O)[C@@H](O)[C@@H]5O)[C@H](O)[C@H](O)[C@H]4O)cc3O2)cc1O
REMARK SMILES IDX 19 1 32 2 34 3 36 4 17 5 18 6 20 7 21 8 22 9 25 10 24 11
REMARK SMILES IDX 26 12 23 13 28 14 30 15 27 16 29 18 31 20 33 22 35 24 16 26
REMARK SMILES IDX 15 27 14 28 38 29 12 30 39 31 11 32 40 33 9 34 7 35 10 36
REMARK SMILES IDX 8 37 13 38 6 40 41 41 5 42 42 43 4 44 3 45 43 46 2 48 1 49
REMARK SMILES IDX 37 50
REMARK H PARENT 27 17 29 19 31 21 33 23 35 25 13 39 43 47 37 51
REMARK Flexibility Score: inf
ROOT
ATOM      1  C   UNL     1      21.093  69.363  16.904  1.00  0.00     0.180 C 
ATOM      2  C   UNL     1      21.360  68.937  18.369  1.00  0.00     0.177 C 
ATOM      3  C   UNL     1      20.973  67.460  18.562  1.00  0.00     0.180 C 
ATOM      4  C   UNL     1      19.548  67.209  18.039  1.00  0.00     0.214 C 
ATOM      5  C   UNL     1      19.381  67.777  16.612  1.00  0.00     0.339 C 
ATOM      6  O   UNL     1      19.728  69.152  16.570  1.00  0.00    -0.332 OA
ENDROOT
BRANCH   1   7
ATOM      7  C   UNL     1      21.404  70.854  16.680  1.00  0.00     0.198 C 
BRANCH   7   8
ATOM      8  O   UNL     1      22.276  71.031  15.578  1.00  0.00    -0.347 OA
BRANCH   8   9
ATOM      9  C   UNL     1      22.769  72.361  15.514  1.00  0.00     0.281 C 
ATOM     10  C   UNL     1      25.237  71.909  12.817  1.00  0.00     0.041 C 
ATOM     11  C   UNL     1      23.854  71.971  13.468  1.00  0.00     0.150 C 
ATOM     12  C   UNL     1      22.909  72.898  12.673  1.00  0.00     0.174 C 
ATOM     13  O   UNL     1      24.001  72.423  14.806  1.00  0.00    -0.344 OA
ATOM     14  C   UNL     1      21.538  72.969  13.370  1.00  0.00     0.179 C 
ATOM     15  C   UNL     1      21.708  73.282  14.871  1.00  0.00     0.202 C 
BRANCH  12  16
ATOM     16  O   UNL     1      23.466  74.186  12.580  1.00  0.00    -0.388 OA
ATOM     17  H   UNL     1      23.244  74.659  13.424  1.00  0.00     0.211 HD
ENDBRANCH  12  16
BRANCH  14  18
ATOM     18  O   UNL     1      20.866  71.747  13.199  1.00  0.00    -0.387 OA
ATOM     19  H   UNL     1      21.377  71.064  13.706  1.00  0.00     0.211 HD
ENDBRANCH  14  18
BRANCH  15  20
ATOM     20  O   UNL     1      22.083  74.627  15.024  1.00  0.00    -0.385 OA
ATOM     21  H   UNL     1      21.256  75.170  14.937  1.00  0.00     0.211 HD
ENDBRANCH  15  20
ENDBRANCH   8   9
ENDBRANCH   7   8
ENDBRANCH   1   7
BRANCH   2  22
ATOM     22  O   UNL     1      22.717  69.104  18.699  1.00  0.00    -0.387 OA
ATOM     23  H   UNL     1      22.910  68.513  19.475  1.00  0.00     0.211 HD
ENDBRANCH   2  22
BRANCH   3  24
ATOM     24  O   UNL     1      21.873  66.621  17.878  1.00  0.00    -0.387 OA
ATOM     25  H   UNL     1      22.756  67.074  17.883  1.00  0.00     0.211 HD
ENDBRANCH   3  24
BRANCH   5  26
ATOM     26  O   UNL     1      20.145  67.041  15.648  1.00  0.00    -0.462 OA
BRANCH  26  27
ATOM     27  C   UNL     1      20.049  67.156  14.252  1.00  0.00     0.130 A 
ATOM     28  C   UNL     1      19.184  66.365  13.474  1.00  0.00     0.093 A 
ATOM     29  C   UNL     1      20.849  68.113  13.621  1.00  0.00     0.094 A 
ATOM     30  C   UNL     1      19.136  66.516  12.080  1.00  0.00     0.133 A 
ATOM     31  C   UNL     1      20.792  68.290  12.237  1.00  0.00     0.138 A 
ATOM     32  C   UNL     1      19.949  67.482  11.452  1.00  0.00     0.102 A 
ATOM     33  O   UNL     1      21.585  69.274  11.637  1.00  0.00    -0.484 OA
ATOM     34  C   UNL     1      19.985  67.668   9.981  1.00  0.00     0.174 C 
ATOM     35  C   UNL     1      21.350  69.727  10.301  1.00  0.00     0.211 C 
ATOM     36  O   UNL     1      19.170  67.072   9.228  1.00  0.00    -0.294 OA
ATOM     37  C   UNL     1      21.049  68.539   9.374  1.00  0.00     0.131 C 
BRANCH  30  38
ATOM     38  O   UNL     1      18.290  65.703  11.327  1.00  0.00    -0.507 OA
ATOM     39  H   UNL     1      18.090  65.901  10.353  1.00  0.00     0.293 HD
ENDBRANCH  30  38
BRANCH  35  40
ATOM     40  C   UNL     1      22.541  70.509   9.805  1.00  0.00    -0.003 A 
ATOM     41  C   UNL     1      23.838  69.986   9.926  1.00  0.00     0.057 A 
ATOM     42  C   UNL     1      22.360  71.748   9.171  1.00  0.00     0.011 A 
ATOM     43  C   UNL     1      24.943  70.695   9.441  1.00  0.00     0.158 A 
ATOM     44  C   UNL     1      23.460  72.461   8.685  1.00  0.00     0.051 A 
ATOM     45  C   UNL     1      24.763  71.942   8.817  1.00  0.00     0.160 A 
BRANCH  43  46
ATOM     46  O   UNL     1      26.214  70.139   9.588  1.00  0.00    -0.504 OA
ATOM     47  H   UNL     1      26.356  69.203   9.946  1.00  0.00     0.293 HD
ENDBRANCH  43  46
BRANCH  45  48
ATOM     48  O   UNL     1      25.888  72.632   8.341  1.00  0.00    -0.493 OA
ATOM     49  C   UNL     1      26.412  73.823   8.923  1.00  0.00     0.278 C 
ENDBRANCH  45  48
ENDBRANCH  35  40
ENDBRANCH  26  27
ENDBRANCH   5  26
BRANCH   4  50
ATOM     50  O   UNL     1      18.611  67.827  18.886  1.00  0.00    -0.384 OA
ATOM     51  H   UNL     1      19.071  68.594  19.317  1.00  0.00     0.211 HD
ENDBRANCH   4  50
TORSDOF 15
ENDMDL
