MODEL 1
REMARK VINA RESULT:    -8.161      0.000      0.000
REMARK INTER + INTRA:          -9.888
REMARK INTER:                  -9.593
REMARK INTRA:                  -0.295
REMARK UNBOUND:                -0.295
REMARK SMILES O=c1cc(-c2ccc(O)c(O)c2)oc2cc(O)cc(O)c12
REMARK SMILES IDX 4 1 3 2 2 3 1 4 21 5 19 6 18 7 16 8 15 9 14 10 13 11 5 12
REMARK SMILES IDX 6 13 7 14 8 15 12 16 10 17 9 18 11 20 20 22 17 24
REMARK H PARENT 9 19 11 21 20 23 17 25
REMARK Flexibility Score: inf
ROOT
ATOM      1  C   UNL     1      -0.851  -6.885  27.920  1.00  0.00     0.138 A 
ATOM      2  C   UNL     1      -0.714  -7.813  28.965  1.00  0.00     0.100 A 
ATOM      3  C   UNL     1      -1.659  -8.829  29.109  1.00  0.00     0.197 A 
ATOM      4  O   UNL     1      -1.527  -9.658  30.051  1.00  0.00    -0.289 OA
ATOM      5  C   UNL     1      -2.734  -8.914  28.202  1.00  0.00     0.107 A 
ATOM      6  C   UNL     1      -3.735  -9.911  28.277  1.00  0.00     0.134 A 
ATOM      7  C   UNL     1      -4.771  -9.929  27.331  1.00  0.00     0.093 A 
ATOM      8  C   UNL     1      -4.823  -8.969  26.312  1.00  0.00     0.123 A 
ATOM      9  C   UNL     1      -3.837  -7.984  26.235  1.00  0.00     0.094 A 
ATOM     10  C   UNL     1      -2.798  -7.948  27.169  1.00  0.00     0.146 A 
ATOM     11  O   UNL     1      -1.873  -6.998  27.074  1.00  0.00    -0.456 OA
ENDROOT
BRANCH   1  12
ATOM     12  C   UNL     1       0.124  -5.784  27.718  1.00  0.00     0.021 A 
ATOM     13  C   UNL     1       0.601  -5.010  28.793  1.00  0.00     0.016 A 
ATOM     14  C   UNL     1       1.511  -3.973  28.572  1.00  0.00     0.051 A 
ATOM     15  C   UNL     1       1.954  -3.686  27.276  1.00  0.00     0.157 A 
ATOM     16  C   UNL     1       0.565  -5.479  26.417  1.00  0.00     0.062 A 
ATOM     17  C   UNL     1       1.478  -4.438  26.196  1.00  0.00     0.158 A 
BRANCH  15  18
ATOM     18  O   UNL     1       2.861  -2.653  27.053  1.00  0.00    -0.504 OA
ATOM     19  H   UNL     1       3.843  -2.750  27.281  1.00  0.00     0.293 HD
ENDBRANCH  15  18
BRANCH  17  20
ATOM     20  O   UNL     1       1.917  -4.148  24.905  1.00  0.00    -0.504 OA
ATOM     21  H   UNL     1       2.899  -4.004  24.699  1.00  0.00     0.293 HD
ENDBRANCH  17  20
ENDBRANCH   1  12
BRANCH   6  22
ATOM     22  O   UNL     1      -3.709 -10.880  29.280  1.00  0.00    -0.507 OA
ATOM     23  H   UNL     1      -2.860 -11.379  29.518  1.00  0.00     0.293 HD
ENDBRANCH   6  22
BRANCH   8  24
ATOM     24  O   UNL     1      -5.850  -8.988  25.373  1.00  0.00    -0.508 OA
ATOM     25  H   UNL     1      -6.060  -8.179  24.799  1.00  0.00     0.293 HD
ENDBRANCH   8  24
TORSDOF 5
ENDMDL
MODEL 2
REMARK VINA RESULT:    -7.999      1.534      6.730
REMARK INTER + INTRA:          -9.697
REMARK INTER:                  -9.381
REMARK INTRA:                  -0.317
REMARK UNBOUND:                -0.295
REMARK SMILES O=c1cc(-c2ccc(O)c(O)c2)oc2cc(O)cc(O)c12
REMARK SMILES IDX 4 1 3 2 2 3 1 4 21 5 19 6 18 7 16 8 15 9 14 10 13 11 5 12
REMARK SMILES IDX 6 13 7 14 8 15 12 16 10 17 9 18 11 20 20 22 17 24
REMARK H PARENT 9 19 11 21 20 23 17 25
REMARK Flexibility Score: inf
ROOT
ATOM      1  C   UNL     1      -1.187  -7.499  27.813  1.00  0.00     0.138 A 
ATOM      2  C   UNL     1      -0.215  -7.848  28.764  1.00  0.00     0.100 A 
ATOM      3  C   UNL     1       0.982  -7.134  28.817  1.00  0.00     0.197 A 
ATOM      4  O   UNL     1       1.849  -7.455  29.676  1.00  0.00    -0.289 OA
ATOM      5  C   UNL     1       1.198  -6.070  27.919  1.00  0.00     0.107 A 
ATOM      6  C   UNL     1       2.382  -5.296  27.904  1.00  0.00     0.134 A 
ATOM      7  C   UNL     1       2.517  -4.249  26.980  1.00  0.00     0.093 A 
ATOM      8  C   UNL     1       1.490  -3.962  26.072  1.00  0.00     0.123 A 
ATOM      9  C   UNL     1       0.320  -4.723  26.084  1.00  0.00     0.094 A 
ATOM     10  C   UNL     1       0.167  -5.772  26.996  1.00  0.00     0.146 A 
ATOM     11  O   UNL     1      -0.957  -6.483  26.985  1.00  0.00    -0.456 OA
ENDROOT
BRANCH   1  12
ATOM     12  C   UNL     1      -2.479  -8.223  27.711  1.00  0.00     0.021 A 
ATOM     13  C   UNL     1      -2.887  -9.151  28.688  1.00  0.00     0.016 A 
ATOM     14  C   UNL     1      -4.105  -9.825  28.561  1.00  0.00     0.051 A 
ATOM     15  C   UNL     1      -4.930  -9.590  27.456  1.00  0.00     0.157 A 
ATOM     16  C   UNL     1      -3.310  -8.003  26.597  1.00  0.00     0.062 A 
ATOM     17  C   UNL     1      -4.532  -8.680  26.470  1.00  0.00     0.158 A 
BRANCH  15  18
ATOM     18  O   UNL     1      -6.145 -10.261  27.327  1.00  0.00    -0.504 OA
ATOM     19  H   UNL     1      -6.329 -11.125  27.822  1.00  0.00     0.293 HD
ENDBRANCH  15  18
BRANCH  17  20
ATOM     20  O   UNL     1      -5.355  -8.451  25.369  1.00  0.00    -0.504 OA
ATOM     21  H   UNL     1      -6.093  -7.758  25.393  1.00  0.00     0.293 HD
ENDBRANCH  17  20
ENDBRANCH   1  12
BRANCH   6  22
ATOM     22  O   UNL     1       3.422  -5.558  28.797  1.00  0.00    -0.507 OA
ATOM     23  H   UNL     1       3.485  -6.435  29.300  1.00  0.00     0.293 HD
ENDBRANCH   6  22
BRANCH   8  24
ATOM     24  O   UNL     1       1.624  -2.922  25.156  1.00  0.00    -0.508 OA
ATOM     25  H   UNL     1       0.833  -2.580  24.622  1.00  0.00     0.293 HD
ENDBRANCH   8  24
TORSDOF 5
ENDMDL
MODEL 3
REMARK VINA RESULT:    -7.996      3.578      9.209
REMARK INTER + INTRA:          -9.694
REMARK INTER:                  -9.382
REMARK INTRA:                  -0.312
REMARK UNBOUND:                -0.295
REMARK SMILES O=c1cc(-c2ccc(O)c(O)c2)oc2cc(O)cc(O)c12
REMARK SMILES IDX 4 1 3 2 2 3 1 4 21 5 19 6 18 7 16 8 15 9 14 10 13 11 5 12
REMARK SMILES IDX 6 13 7 14 8 15 12 16 10 17 9 18 11 20 20 22 17 24
REMARK H PARENT 9 19 11 21 20 23 17 25
REMARK Flexibility Score: inf
ROOT
ATOM      1  C   UNL     1       2.853  -2.972  26.452  1.00  0.00     0.138 A 
ATOM      2  C   UNL     1       3.933  -2.577  27.260  1.00  0.00     0.100 A 
ATOM      3  C   UNL     1       4.669  -1.443  26.915  1.00  0.00     0.197 A 
ATOM      4  O   UNL     1       5.636  -1.096  27.647  1.00  0.00    -0.289 OA
ATOM      5  C   UNL     1       4.319  -0.708  25.765  1.00  0.00     0.107 A 
ATOM      6  C   UNL     1       5.013   0.450  25.344  1.00  0.00     0.134 A 
ATOM      7  C   UNL     1       4.598   1.129  24.188  1.00  0.00     0.093 A 
ATOM      8  C   UNL     1       3.501   0.669  23.448  1.00  0.00     0.123 A 
ATOM      9  C   UNL     1       2.813  -0.473  23.860  1.00  0.00     0.094 A 
ATOM     10  C   UNL     1       3.214  -1.164  25.008  1.00  0.00     0.146 A 
ATOM     11  O   UNL     1       2.543  -2.251  25.377  1.00  0.00    -0.456 OA
ENDROOT
BRANCH   1  12
ATOM     12  C   UNL     1       2.034  -4.168  26.771  1.00  0.00     0.021 A 
ATOM     13  C   UNL     1       2.536  -5.221  27.559  1.00  0.00     0.016 A 
ATOM     14  C   UNL     1       1.745  -6.339  27.834  1.00  0.00     0.051 A 
ATOM     15  C   UNL     1       0.445  -6.429  27.322  1.00  0.00     0.157 A 
ATOM     16  C   UNL     1       0.732  -4.274  26.249  1.00  0.00     0.062 A 
ATOM     17  C   UNL     1      -0.062  -5.397  26.526  1.00  0.00     0.158 A 
BRANCH  15  18
ATOM     18  O   UNL     1      -0.346  -7.544  27.596  1.00  0.00    -0.504 OA
ATOM     19  H   UNL     1      -0.044  -8.263  28.242  1.00  0.00     0.293 HD
ENDBRANCH  15  18
BRANCH  17  20
ATOM     20  O   UNL     1      -1.355  -5.490  26.013  1.00  0.00    -0.504 OA
ATOM     21  H   UNL     1      -1.584  -5.151  25.087  1.00  0.00     0.293 HD
ENDBRANCH  17  20
ENDBRANCH   1  12
BRANCH   6  22
ATOM     22  O   UNL     1       6.109   0.931  26.062  1.00  0.00    -0.507 OA
ATOM     23  H   UNL     1       6.994   1.132  25.613  1.00  0.00     0.293 HD
ENDBRANCH   6  22
BRANCH   8  24
ATOM     24  O   UNL     1       3.088   1.343  22.301  1.00  0.00    -0.508 OA
ATOM     25  H   UNL     1       2.106   1.494  22.099  1.00  0.00     0.293 HD
ENDBRANCH   8  24
TORSDOF 5
ENDMDL
MODEL 4
REMARK VINA RESULT:    -7.834      3.148      5.424
REMARK INTER + INTRA:          -9.503
REMARK INTER:                  -9.193
REMARK INTRA:                  -0.310
REMARK UNBOUND:                -0.295
REMARK SMILES O=c1cc(-c2ccc(O)c(O)c2)oc2cc(O)cc(O)c12
REMARK SMILES IDX 4 1 3 2 2 3 1 4 21 5 19 6 18 7 16 8 15 9 14 10 13 11 5 12
REMARK SMILES IDX 6 13 7 14 8 15 12 16 10 17 9 18 11 20 20 22 17 24
REMARK H PARENT 9 19 11 21 20 23 17 25
REMARK Flexibility Score: inf
ROOT
ATOM      1  C   UNL     1       2.887  -3.378  26.468  1.00  0.00     0.138 A 
ATOM      2  C   UNL     1       3.732  -4.196  27.237  1.00  0.00     0.100 A 
ATOM      3  C   UNL     1       3.244  -5.399  27.748  1.00  0.00     0.197 A 
ATOM      4  O   UNL     1       4.011  -6.127  28.435  1.00  0.00    -0.289 OA
ATOM      5  C   UNL     1       1.914  -5.779  27.483  1.00  0.00     0.107 A 
ATOM      6  C   UNL     1       1.341  -6.981  27.963  1.00  0.00     0.134 A 
ATOM      7  C   UNL     1       0.008  -7.290  27.651  1.00  0.00     0.093 A 
ATOM      8  C   UNL     1      -0.760  -6.419  26.868  1.00  0.00     0.123 A 
ATOM      9  C   UNL     1      -0.198  -5.233  26.391  1.00  0.00     0.094 A 
ATOM     10  C   UNL     1       1.127  -4.907  26.693  1.00  0.00     0.146 A 
ATOM     11  O   UNL     1       1.637  -3.771  26.229  1.00  0.00    -0.456 OA
ENDROOT
BRANCH   1  12
ATOM     12  C   UNL     1       3.351  -2.088  25.899  1.00  0.00     0.021 A 
ATOM     13  C   UNL     1       4.404  -1.358  26.481  1.00  0.00     0.016 A 
ATOM     14  C   UNL     1       4.813  -0.141  25.929  1.00  0.00     0.051 A 
ATOM     15  C   UNL     1       4.175   0.369  24.793  1.00  0.00     0.157 A 
ATOM     16  C   UNL     1       2.706  -1.560  24.765  1.00  0.00     0.062 A 
ATOM     17  C   UNL     1       3.118  -0.339  24.211  1.00  0.00     0.158 A 
BRANCH  15  18
ATOM     18  O   UNL     1       4.582   1.582  24.239  1.00  0.00    -0.504 OA
ATOM     19  H   UNL     1       4.134   1.966  23.416  1.00  0.00     0.293 HD
ENDBRANCH  15  18
BRANCH  17  20
ATOM     20  O   UNL     1       2.481   0.173  23.082  1.00  0.00    -0.504 OA
ATOM     21  H   UNL     1       2.365  -0.380  22.242  1.00  0.00     0.293 HD
ENDBRANCH  17  20
ENDBRANCH   1  12
BRANCH   6  22
ATOM     22  O   UNL     1       2.082  -7.867  28.746  1.00  0.00    -0.507 OA
ATOM     23  H   UNL     1       1.655  -8.668  29.195  1.00  0.00     0.293 HD
ENDBRANCH   6  22
BRANCH   8  24
ATOM     24  O   UNL     1      -2.082  -6.726  26.557  1.00  0.00    -0.508 OA
ATOM     25  H   UNL     1      -2.491  -6.469  25.665  1.00  0.00     0.293 HD
ENDBRANCH   8  24
TORSDOF 5
ENDMDL
MODEL 5
REMARK VINA RESULT:    -7.373      2.051      7.179
REMARK INTER + INTRA:          -8.961
REMARK INTER:                  -8.674
REMARK INTRA:                  -0.287
REMARK UNBOUND:                -0.295
REMARK SMILES O=c1cc(-c2ccc(O)c(O)c2)oc2cc(O)cc(O)c12
REMARK SMILES IDX 4 1 3 2 2 3 1 4 21 5 19 6 18 7 16 8 15 9 14 10 13 11 5 12
REMARK SMILES IDX 6 13 7 14 8 15 12 16 10 17 9 18 11 20 20 22 17 24
REMARK H PARENT 9 19 11 21 20 23 17 25
REMARK Flexibility Score: inf
ROOT
ATOM      1  C   UNL     1      -1.137  -7.256  27.485  1.00  0.00     0.138 A 
ATOM      2  C   UNL     1      -1.064  -6.046  26.777  1.00  0.00     0.100 A 
ATOM      3  C   UNL     1       0.129  -5.322  26.776  1.00  0.00     0.197 A 
ATOM      4  O   UNL     1       0.185  -4.236  26.136  1.00  0.00    -0.289 OA
ATOM      5  C   UNL     1       1.244  -5.816  27.481  1.00  0.00     0.107 A 
ATOM      6  C   UNL     1       2.489  -5.145  27.533  1.00  0.00     0.134 A 
ATOM      7  C   UNL     1       3.553  -5.707  28.254  1.00  0.00     0.093 A 
ATOM      8  C   UNL     1       3.394  -6.928  28.923  1.00  0.00     0.123 A 
ATOM      9  C   UNL     1       2.168  -7.593  28.874  1.00  0.00     0.094 A 
ATOM     10  C   UNL     1       1.095  -7.048  28.162  1.00  0.00     0.146 A 
ATOM     11  O   UNL     1      -0.063  -7.701  28.134  1.00  0.00    -0.456 OA
ENDROOT
BRANCH   1  12
ATOM     12  C   UNL     1      -2.378  -8.069  27.521  1.00  0.00     0.021 A 
ATOM     13  C   UNL     1      -2.659  -8.946  28.586  1.00  0.00     0.016 A 
ATOM     14  C   UNL     1      -3.832  -9.706  28.588  1.00  0.00     0.051 A 
ATOM     15  C   UNL     1      -4.738  -9.610  27.527  1.00  0.00     0.157 A 
ATOM     16  C   UNL     1      -3.290  -7.989  26.452  1.00  0.00     0.062 A 
ATOM     17  C   UNL     1      -4.466  -8.753  26.455  1.00  0.00     0.158 A 
BRANCH  15  18
ATOM     18  O   UNL     1      -5.909 -10.367  27.527  1.00  0.00    -0.504 OA
ATOM     19  H   UNL     1      -6.127 -11.006  28.281  1.00  0.00     0.293 HD
ENDBRANCH  15  18
BRANCH  17  20
ATOM     20  O   UNL     1      -5.369  -8.661  25.396  1.00  0.00    -0.504 OA
ATOM     21  H   UNL     1      -6.326  -8.980  25.487  1.00  0.00     0.293 HD
ENDBRANCH  17  20
ENDBRANCH   1  12
BRANCH   6  22
ATOM     22  O   UNL     1       2.676  -3.928  26.876  1.00  0.00    -0.507 OA
ATOM     23  H   UNL     1       2.878  -3.883  25.884  1.00  0.00     0.293 HD
ENDBRANCH   6  22
BRANCH   8  24
ATOM     24  O   UNL     1       4.450  -7.486  29.638  1.00  0.00    -0.508 OA
ATOM     25  H   UNL     1       5.355  -7.649  29.209  1.00  0.00     0.293 HD
ENDBRANCH   8  24
TORSDOF 5
ENDMDL
MODEL 6
REMARK VINA RESULT:    -6.917      4.539      7.717
REMARK INTER + INTRA:          -8.425
REMARK INTER:                  -8.109
REMARK INTRA:                  -0.316
REMARK UNBOUND:                -0.295
REMARK SMILES O=c1cc(-c2ccc(O)c(O)c2)oc2cc(O)cc(O)c12
REMARK SMILES IDX 4 1 3 2 2 3 1 4 21 5 19 6 18 7 16 8 15 9 14 10 13 11 5 12
REMARK SMILES IDX 6 13 7 14 8 15 12 16 10 17 9 18 11 20 20 22 17 24
REMARK H PARENT 9 19 11 21 20 23 17 25
REMARK Flexibility Score: inf
ROOT
ATOM      1  C   UNL     1       3.902  -1.370  25.716  1.00  0.00     0.138 A 
ATOM      2  C   UNL     1       4.646  -1.683  26.865  1.00  0.00     0.100 A 
ATOM      3  C   UNL     1       4.247  -2.749  27.673  1.00  0.00     0.197 A 
ATOM      4  O   UNL     1       4.923  -3.023  28.702  1.00  0.00    -0.289 OA
ATOM      5  C   UNL     1       3.107  -3.499  27.322  1.00  0.00     0.107 A 
ATOM      6  C   UNL     1       2.634  -4.593  28.085  1.00  0.00     0.134 A 
ATOM      7  C   UNL     1       1.492  -5.292  27.665  1.00  0.00     0.093 A 
ATOM      8  C   UNL     1       0.817  -4.917  26.496  1.00  0.00     0.123 A 
ATOM      9  C   UNL     1       1.280  -3.839  25.741  1.00  0.00     0.094 A 
ATOM     10  C   UNL     1       2.415  -3.129  26.144  1.00  0.00     0.146 A 
ATOM     11  O   UNL     1       2.835  -2.104  25.408  1.00  0.00    -0.456 OA
ENDROOT
BRANCH   1  12
ATOM     12  C   UNL     1       4.279  -0.249  24.820  1.00  0.00     0.021 A 
ATOM     13  C   UNL     1       5.527   0.395  24.924  1.00  0.00     0.016 A 
ATOM     14  C   UNL     1       5.851   1.455  24.073  1.00  0.00     0.051 A 
ATOM     15  C   UNL     1       4.935   1.894  23.111  1.00  0.00     0.157 A 
ATOM     16  C   UNL     1       3.360   0.209  23.859  1.00  0.00     0.062 A 
ATOM     17  C   UNL     1       3.686   1.273  23.005  1.00  0.00     0.158 A 
BRANCH  15  18
ATOM     18  O   UNL     1       5.256   2.951  22.261  1.00  0.00    -0.504 OA
ATOM     19  H   UNL     1       5.268   2.838  21.255  1.00  0.00     0.293 HD
ENDBRANCH  15  18
BRANCH  17  20
ATOM     20  O   UNL     1       2.773   1.716  22.049  1.00  0.00    -0.504 OA
ATOM     21  H   UNL     1       3.078   2.119  21.171  1.00  0.00     0.293 HD
ENDBRANCH  17  20
ENDBRANCH   1  12
BRANCH   6  22
ATOM     22  O   UNL     1       3.287  -4.989  29.253  1.00  0.00    -0.507 OA
ATOM     23  H   UNL     1       2.999  -5.810  29.772  1.00  0.00     0.293 HD
ENDBRANCH   6  22
BRANCH   8  24
ATOM     24  O   UNL     1      -0.315  -5.612  26.079  1.00  0.00    -0.508 OA
ATOM     25  H   UNL     1      -0.675  -6.404  26.599  1.00  0.00     0.293 HD
ENDBRANCH   8  24
TORSDOF 5
ENDMDL
MODEL 7
REMARK VINA RESULT:    -6.803      2.017      7.322
REMARK INTER + INTRA:          -8.291
REMARK INTER:                  -7.996
REMARK INTRA:                  -0.295
REMARK UNBOUND:                -0.295
REMARK SMILES O=c1cc(-c2ccc(O)c(O)c2)oc2cc(O)cc(O)c12
REMARK SMILES IDX 4 1 3 2 2 3 1 4 21 5 19 6 18 7 16 8 15 9 14 10 13 11 5 12
REMARK SMILES IDX 6 13 7 14 8 15 12 16 10 17 9 18 11 20 20 22 17 24
REMARK H PARENT 9 19 11 21 20 23 17 25
REMARK Flexibility Score: inf
ROOT
ATOM      1  C   UNL     1       0.809  -5.809  27.806  1.00  0.00     0.138 A 
ATOM      2  C   UNL     1       2.053  -6.270  28.268  1.00  0.00     0.100 A 
ATOM      3  C   UNL     1       3.208  -5.550  27.964  1.00  0.00     0.197 A 
ATOM      4  O   UNL     1       4.320  -5.972  28.384  1.00  0.00    -0.289 OA
ATOM      5  C   UNL     1       3.112  -4.368  27.204  1.00  0.00     0.107 A 
ATOM      6  C   UNL     1       4.232  -3.579  26.851  1.00  0.00     0.134 A 
ATOM      7  C   UNL     1       4.051  -2.411  26.095  1.00  0.00     0.093 A 
ATOM      8  C   UNL     1       2.770  -2.019  25.686  1.00  0.00     0.123 A 
ATOM      9  C   UNL     1       1.662  -2.794  26.031  1.00  0.00     0.094 A 
ATOM     10  C   UNL     1       1.823  -3.962  26.783  1.00  0.00     0.146 A 
ATOM     11  O   UNL     1       0.751  -4.683  27.097  1.00  0.00    -0.456 OA
ENDROOT
BRANCH   1  12
ATOM     12  C   UNL     1      -0.453  -6.533  28.099  1.00  0.00     0.021 A 
ATOM     13  C   UNL     1      -0.712  -7.087  29.367  1.00  0.00     0.016 A 
ATOM     14  C   UNL     1      -1.905  -7.773  29.611  1.00  0.00     0.051 A 
ATOM     15  C   UNL     1      -2.854  -7.924  28.593  1.00  0.00     0.157 A 
ATOM     16  C   UNL     1      -1.407  -6.702  27.078  1.00  0.00     0.062 A 
ATOM     17  C   UNL     1      -2.604  -7.390  27.324  1.00  0.00     0.158 A 
BRANCH  15  18
ATOM     18  O   UNL     1      -4.045  -8.607  28.834  1.00  0.00    -0.504 OA
ATOM     19  H   UNL     1      -4.621  -8.953  28.076  1.00  0.00     0.293 HD
ENDBRANCH  15  18
BRANCH  17  20
ATOM     20  O   UNL     1      -3.549  -7.545  26.311  1.00  0.00    -0.504 OA
ATOM     21  H   UNL     1      -3.364  -7.241  25.363  1.00  0.00     0.293 HD
ENDBRANCH  17  20
ENDBRANCH   1  12
BRANCH   6  22
ATOM     22  O   UNL     1       5.520  -3.945  27.245  1.00  0.00    -0.507 OA
ATOM     23  H   UNL     1       5.769  -4.910  27.424  1.00  0.00     0.293 HD
ENDBRANCH   6  22
BRANCH   8  24
ATOM     24  O   UNL     1       2.590  -0.859  24.936  1.00  0.00    -0.508 OA
ATOM     25  H   UNL     1       2.726   0.061  25.340  1.00  0.00     0.293 HD
ENDBRANCH   8  24
TORSDOF 5
ENDMDL
MODEL 8
REMARK VINA RESULT:    -6.787     10.865     12.613
REMARK INTER + INTRA:          -8.272
REMARK INTER:                  -7.958
REMARK INTRA:                  -0.314
REMARK UNBOUND:                -0.295
REMARK SMILES O=c1cc(-c2ccc(O)c(O)c2)oc2cc(O)cc(O)c12
REMARK SMILES IDX 4 1 3 2 2 3 1 4 21 5 19 6 18 7 16 8 15 9 14 10 13 11 5 12
REMARK SMILES IDX 6 13 7 14 8 15 12 16 10 17 9 18 11 20 20 22 17 24
REMARK H PARENT 9 19 11 21 20 23 17 25
REMARK Flexibility Score: inf
ROOT
ATOM      1  C   UNL     1      -0.015  -5.700  15.680  1.00  0.00     0.138 A 
ATOM      2  C   UNL     1      -0.875  -6.809  15.624  1.00  0.00     0.100 A 
ATOM      3  C   UNL     1      -0.477  -8.016  16.198  1.00  0.00     0.197 A 
ATOM      4  O   UNL     1      -1.257  -9.006  16.145  1.00  0.00    -0.289 OA
ATOM      5  C   UNL     1       0.780  -8.106  16.829  1.00  0.00     0.107 A 
ATOM      6  C   UNL     1       1.261  -9.291  17.434  1.00  0.00     0.134 A 
ATOM      7  C   UNL     1       2.523  -9.297  18.047  1.00  0.00     0.093 A 
ATOM      8  C   UNL     1       3.311  -8.139  18.065  1.00  0.00     0.123 A 
ATOM      9  C   UNL     1       2.841  -6.968  17.469  1.00  0.00     0.094 A 
ATOM     10  C   UNL     1       1.586  -6.943  16.852  1.00  0.00     0.146 A 
ATOM     11  O   UNL     1       1.162  -5.815  16.290  1.00  0.00    -0.456 OA
ENDROOT
BRANCH   1  12
ATOM     12  C   UNL     1      -0.386  -4.390  15.087  1.00  0.00     0.021 A 
ATOM     13  C   UNL     1      -1.715  -4.087  14.734  1.00  0.00     0.016 A 
ATOM     14  C   UNL     1      -2.034  -2.849  14.169  1.00  0.00     0.051 A 
ATOM     15  C   UNL     1      -1.033  -1.899  13.940  1.00  0.00     0.157 A 
ATOM     16  C   UNL     1       0.615  -3.433  14.840  1.00  0.00     0.062 A 
ATOM     17  C   UNL     1       0.295  -2.192  14.272  1.00  0.00     0.158 A 
BRANCH  15  18
ATOM     18  O   UNL     1      -1.348  -0.664  13.376  1.00  0.00    -0.504 OA
ATOM     19  H   UNL     1      -0.831  -0.293  12.588  1.00  0.00     0.293 HD
ENDBRANCH  15  18
BRANCH  17  20
ATOM     20  O   UNL     1       1.291  -1.245  14.039  1.00  0.00    -0.504 OA
ATOM     21  H   UNL     1       2.270  -1.501  14.011  1.00  0.00     0.293 HD
ENDBRANCH  17  20
ENDBRANCH   1  12
BRANCH   6  22
ATOM     22  O   UNL     1       0.497 -10.459  17.432  1.00  0.00    -0.507 OA
ATOM     23  H   UNL     1      -0.185 -10.649  16.707  1.00  0.00     0.293 HD
ENDBRANCH   6  22
BRANCH   8  24
ATOM     24  O   UNL     1       4.564  -8.144  18.673  1.00  0.00    -0.508 OA
ATOM     25  H   UNL     1       4.958  -8.990  19.070  1.00  0.00     0.293 HD
ENDBRANCH   8  24
TORSDOF 5
ENDMDL
MODEL 9
REMARK VINA RESULT:    -6.719     12.142     13.888
REMARK INTER + INTRA:          -8.192
REMARK INTER:                  -7.902
REMARK INTRA:                  -0.290
REMARK UNBOUND:                -0.295
REMARK SMILES O=c1cc(-c2ccc(O)c(O)c2)oc2cc(O)cc(O)c12
REMARK SMILES IDX 4 1 3 2 2 3 1 4 21 5 19 6 18 7 16 8 15 9 14 10 13 11 5 12
REMARK SMILES IDX 6 13 7 14 8 15 12 16 10 17 9 18 11 20 20 22 17 24
REMARK H PARENT 9 19 11 21 20 23 17 25
REMARK Flexibility Score: inf
ROOT
ATOM      1  C   UNL     1      -6.110  -2.556  15.810  1.00  0.00     0.138 A 
ATOM      2  C   UNL     1      -7.013  -2.717  14.747  1.00  0.00     0.100 A 
ATOM      3  C   UNL     1      -6.945  -3.864  13.955  1.00  0.00     0.197 A 
ATOM      4  O   UNL     1      -7.761  -3.999  13.003  1.00  0.00    -0.289 OA
ATOM      5  C   UNL     1      -5.975  -4.846  14.236  1.00  0.00     0.107 A 
ATOM      6  C   UNL     1      -5.837  -6.037  13.484  1.00  0.00     0.134 A 
ATOM      7  C   UNL     1      -4.848  -6.969  13.831  1.00  0.00     0.093 A 
ATOM      8  C   UNL     1      -3.996  -6.732  14.917  1.00  0.00     0.123 A 
ATOM      9  C   UNL     1      -4.129  -5.559  15.662  1.00  0.00     0.094 A 
ATOM     10  C   UNL     1      -5.107  -4.618  15.330  1.00  0.00     0.146 A 
ATOM     11  O   UNL     1      -5.212  -3.507  16.055  1.00  0.00    -0.456 OA
ENDROOT
BRANCH   1  12
ATOM     12  C   UNL     1      -6.136  -1.358  16.686  1.00  0.00     0.021 A 
ATOM     13  C   UNL     1      -6.160  -0.054  16.155  1.00  0.00     0.016 A 
ATOM     14  C   UNL     1      -6.174   1.057  17.004  1.00  0.00     0.051 A 
ATOM     15  C   UNL     1      -6.157   0.885  18.392  1.00  0.00     0.157 A 
ATOM     16  C   UNL     1      -6.106  -1.520  18.083  1.00  0.00     0.062 A 
ATOM     17  C   UNL     1      -6.120  -0.405  18.934  1.00  0.00     0.158 A 
BRANCH  15  18
ATOM     18  O   UNL     1      -6.172   1.990  19.241  1.00  0.00    -0.504 OA
ATOM     19  H   UNL     1      -5.399   2.644  19.274  1.00  0.00     0.293 HD
ENDBRANCH  15  18
BRANCH  17  20
ATOM     20  O   UNL     1      -6.099  -0.573  20.317  1.00  0.00    -0.504 OA
ATOM     21  H   UNL     1      -5.650  -1.373  20.747  1.00  0.00     0.293 HD
ENDBRANCH  17  20
ENDBRANCH   1  12
BRANCH   6  22
ATOM     22  O   UNL     1      -6.672  -6.300  12.397  1.00  0.00    -0.507 OA
ATOM     23  H   UNL     1      -6.616  -7.168  11.879  1.00  0.00     0.293 HD
ENDBRANCH   6  22
BRANCH   8  24
ATOM     24  O   UNL     1      -3.015  -7.658  15.263  1.00  0.00    -0.508 OA
ATOM     25  H   UNL     1      -3.026  -8.604  14.900  1.00  0.00     0.293 HD
ENDBRANCH   8  24
TORSDOF 5
ENDMDL
