MODEL 1
REMARK VINA RESULT:    -3.088      0.000      0.000
REMARK INTER + INTRA:          -3.088
REMARK INTER:                  -3.088
REMARK INTRA:                   0.000
REMARK UNBOUND:                 0.000
REMARK SMILES CC1(C)C(=O)[C@]2(C)CC[C@H]1C2
REMARK SMILES IDX 1 1 2 2 10 3 9 4 8 5 6 6 11 7 4 8 5 9 7 10 3 11
REMARK H PARENT
REMARK Flexibility Score: inf
ROOT
ATOM      1  C   UNL     1     238.257 226.741 236.576  1.00  0.00     0.020 C 
ATOM      2  C   UNL     1     237.910 227.022 235.097  1.00  0.00     0.027 C 
ATOM      3  C   UNL     1     236.379 226.917 234.763  1.00  0.00     0.003 C 
ATOM      4  C   UNL     1     235.527 227.706 235.790  1.00  0.00     0.005 C 
ATOM      5  C   UNL     1     235.891 229.177 235.490  1.00  0.00     0.015 C 
ATOM      6  C   UNL     1     236.822 229.050 234.269  1.00  0.00     0.027 C 
ATOM      7  C   UNL     1     236.234 227.848 233.559  1.00  0.00     0.019 C 
ATOM      8  C   UNL     1     238.123 228.466 234.748  1.00  0.00     0.144 C 
ATOM      9  O   UNL     1     239.166 229.085 234.900  1.00  0.00    -0.298 OA
ATOM     10  C   UNL     1     236.946 230.307 233.405  1.00  0.00     0.020 C 
ATOM     11  C   UNL     1     238.754 226.097 234.195  1.00  0.00     0.020 C 
ENDROOT
TORSDOF 0
ENDMDL
MODEL 2
REMARK VINA RESULT:    -3.082      8.647     10.057
REMARK INTER + INTRA:          -3.082
REMARK INTER:                  -3.082
REMARK INTRA:                   0.000
REMARK UNBOUND:                 0.000
REMARK SMILES CC1(C)C(=O)[C@]2(C)CC[C@H]1C2
REMARK SMILES IDX 1 1 2 2 10 3 9 4 8 5 6 6 11 7 4 8 5 9 7 10 3 11
REMARK H PARENT
REMARK Flexibility Score: inf
ROOT
ATOM      1  C   UNL     1     226.723 230.136 236.542  1.00  0.00     0.020 C 
ATOM      2  C   UNL     1     227.015 230.498 235.070  1.00  0.00     0.027 C 
ATOM      3  C   UNL     1     226.862 232.026 234.739  1.00  0.00     0.003 C 
ATOM      4  C   UNL     1     227.604 232.902 235.781  1.00  0.00     0.005 C 
ATOM      5  C   UNL     1     229.091 232.591 235.503  1.00  0.00     0.015 C 
ATOM      6  C   UNL     1     229.017 231.660 234.278  1.00  0.00     0.027 C 
ATOM      7  C   UNL     1     227.806 232.208 233.550  1.00  0.00     0.019 C 
ATOM      8  C   UNL     1     228.472 230.338 234.743  1.00  0.00     0.144 C 
ATOM      9  O   UNL     1     229.124 229.317 234.902  1.00  0.00    -0.298 OA
ATOM     10  C   UNL     1     230.291 231.584 233.433  1.00  0.00     0.020 C 
ATOM     11  C   UNL     1     226.135 229.626 234.150  1.00  0.00     0.020 C 
ENDROOT
TORSDOF 0
ENDMDL
MODEL 3
REMARK VINA RESULT:    -3.079      8.596     10.024
REMARK INTER + INTRA:          -3.079
REMARK INTER:                  -3.079
REMARK INTRA:                   0.000
REMARK UNBOUND:                 0.000
REMARK SMILES CC1(C)C(=O)[C@]2(C)CC[C@H]1C2
REMARK SMILES IDX 1 1 2 2 10 3 9 4 8 5 6 6 11 7 4 8 5 9 7 10 3 11
REMARK H PARENT
REMARK Flexibility Score: inf
ROOT
ATOM      1  C   UNL     1     241.677 238.231 236.539  1.00  0.00     0.020 C 
ATOM      2  C   UNL     1     241.398 237.896 235.057  1.00  0.00     0.027 C 
ATOM      3  C   UNL     1     241.506 236.368 234.709  1.00  0.00     0.003 C 
ATOM      4  C   UNL     1     240.719 235.505 235.728  1.00  0.00     0.005 C 
ATOM      5  C   UNL     1     239.247 235.869 235.431  1.00  0.00     0.015 C 
ATOM      6  C   UNL     1     239.372 236.811 234.218  1.00  0.00     0.027 C 
ATOM      7  C   UNL     1     240.576 236.232 233.504  1.00  0.00     0.019 C 
ATOM      8  C   UNL     1     239.953 238.109 234.709  1.00  0.00     0.144 C 
ATOM      9  O   UNL     1     239.332 239.149 234.870  1.00  0.00    -0.298 OA
ATOM     10  C   UNL     1     238.116 236.940 233.355  1.00  0.00     0.020 C 
ATOM     11  C   UNL     1     242.321 238.750 234.162  1.00  0.00     0.020 C 
ENDROOT
TORSDOF 0
ENDMDL
MODEL 4
REMARK VINA RESULT:    -3.076     12.194     14.300
REMARK INTER + INTRA:          -3.076
REMARK INTER:                  -3.076
REMARK INTRA:                   0.000
REMARK UNBOUND:                 0.000
REMARK SMILES CC1(C)C(=O)[C@]2(C)CC[C@H]1C2
REMARK SMILES IDX 1 1 2 2 10 3 9 4 8 5 6 6 11 7 4 8 5 9 7 10 3 11
REMARK H PARENT
REMARK Flexibility Score: inf
ROOT
ATOM      1  C   UNL     1     230.067 241.805 236.515  1.00  0.00     0.020 C 
ATOM      2  C   UNL     1     230.451 241.493 235.052  1.00  0.00     0.027 C 
ATOM      3  C   UNL     1     231.980 241.667 234.735  1.00  0.00     0.003 C 
ATOM      4  C   UNL     1     232.856 240.960 235.801  1.00  0.00     0.005 C 
ATOM      5  C   UNL     1     232.574 239.462 235.547  1.00  0.00     0.015 C 
ATOM      6  C   UNL     1     231.657 239.497 234.310  1.00  0.00     0.027 C 
ATOM      7  C   UNL     1     232.192 240.705 233.567  1.00  0.00     0.019 C 
ATOM      8  C   UNL     1     230.319 240.028 234.750  1.00  0.00     0.144 C 
ATOM      9  O   UNL     1     229.308 239.360 234.910  1.00  0.00    -0.298 OA
ATOM     10  C   UNL     1     231.612 238.207 233.488  1.00  0.00     0.020 C 
ATOM     11  C   UNL     1     229.574 242.340 234.106  1.00  0.00     0.020 C 
ENDROOT
TORSDOF 0
ENDMDL
MODEL 5
REMARK VINA RESULT:    -3.047      1.415      2.607
REMARK INTER + INTRA:          -3.047
REMARK INTER:                  -3.047
REMARK INTRA:                   0.000
REMARK UNBOUND:                 0.000
REMARK SMILES CC1(C)C(=O)[C@]2(C)CC[C@H]1C2
REMARK SMILES IDX 1 1 2 2 10 3 9 4 8 5 6 6 11 7 4 8 5 9 7 10 3 11
REMARK H PARENT
REMARK Flexibility Score: inf
ROOT
ATOM      1  C   UNL     1     234.905 228.347 236.388  1.00  0.00     0.020 C 
ATOM      2  C   UNL     1     236.127 227.493 235.984  1.00  0.00     0.027 C 
ATOM      3  C   UNL     1     236.334 227.356 234.433  1.00  0.00     0.003 C 
ATOM      4  C   UNL     1     236.248 228.737 233.732  1.00  0.00     0.005 C 
ATOM      5  C   UNL     1     237.517 229.463 234.232  1.00  0.00     0.015 C 
ATOM      6  C   UNL     1     238.218 228.376 235.069  1.00  0.00     0.027 C 
ATOM      7  C   UNL     1     237.840 227.117 234.315  1.00  0.00     0.019 C 
ATOM      8  C   UNL     1     237.416 228.183 236.328  1.00  0.00     0.144 C 
ATOM      9  O   UNL     1     237.727 228.589 237.438  1.00  0.00    -0.298 OA
ATOM     10  C   UNL     1     239.721 228.573 235.274  1.00  0.00     0.020 C 
ATOM     11  C   UNL     1     236.030 226.114 236.669  1.00  0.00     0.020 C 
ENDROOT
TORSDOF 0
ENDMDL
MODEL 6
REMARK VINA RESULT:    -3.045     12.791     13.967
REMARK INTER + INTRA:          -3.045
REMARK INTER:                  -3.045
REMARK INTRA:                   0.000
REMARK UNBOUND:                 0.000
REMARK SMILES CC1(C)C(=O)[C@]2(C)CC[C@H]1C2
REMARK SMILES IDX 1 1 2 2 10 3 9 4 8 5 6 6 11 7 4 8 5 9 7 10 3 11
REMARK H PARENT
REMARK Flexibility Score: inf
ROOT
ATOM      1  C   UNL     1     233.582 240.079 236.363  1.00  0.00     0.020 C 
ATOM      2  C   UNL     1     232.343 240.911 235.964  1.00  0.00     0.027 C 
ATOM      3  C   UNL     1     232.139 241.062 234.414  1.00  0.00     0.003 C 
ATOM      4  C   UNL     1     232.259 239.692 233.697  1.00  0.00     0.005 C 
ATOM      5  C   UNL     1     231.004 238.933 234.183  1.00  0.00     0.015 C 
ATOM      6  C   UNL     1     230.276 239.994 235.030  1.00  0.00     0.027 C 
ATOM      7  C   UNL     1     230.630 241.270 234.293  1.00  0.00     0.019 C 
ATOM      8  C   UNL     1     231.068 240.189 236.294  1.00  0.00     0.144 C 
ATOM      9  O   UNL     1     230.761 239.763 237.398  1.00  0.00    -0.298 OA
ATOM     10  C   UNL     1     228.776 239.763 235.226  1.00  0.00     0.020 C 
ATOM     11  C   UNL     1     232.407 242.283 236.666  1.00  0.00     0.020 C 
ENDROOT
TORSDOF 0
ENDMDL
MODEL 7
REMARK VINA RESULT:    -3.044      8.659     10.348
REMARK INTER + INTRA:          -3.044
REMARK INTER:                  -3.044
REMARK INTRA:                   0.000
REMARK UNBOUND:                 0.000
REMARK SMILES CC1(C)C(=O)[C@]2(C)CC[C@H]1C2
REMARK SMILES IDX 1 1 2 2 10 3 9 4 8 5 6 6 11 7 4 8 5 9 7 10 3 11
REMARK H PARENT
REMARK Flexibility Score: inf
ROOT
ATOM      1  C   UNL     1     228.328 233.566 236.373  1.00  0.00     0.020 C 
ATOM      2  C   UNL     1     227.499 232.323 235.982  1.00  0.00     0.027 C 
ATOM      3  C   UNL     1     227.377 232.091 234.433  1.00  0.00     0.003 C 
ATOM      4  C   UNL     1     228.761 232.191 233.741  1.00  0.00     0.005 C 
ATOM      5  C   UNL     1     229.505 230.942 234.265  1.00  0.00     0.015 C 
ATOM      6  C   UNL     1     228.424 230.235 235.104  1.00  0.00     0.027 C 
ATOM      7  C   UNL     1     227.165 230.580 234.336  1.00  0.00     0.019 C 
ATOM      8  C   UNL     1     228.208 231.051 236.349  1.00  0.00     0.144 C 
ATOM      9  O   UNL     1     228.612 230.763 237.466  1.00  0.00    -0.298 OA
ATOM     10  C   UNL     1     228.646 228.738 235.333  1.00  0.00     0.020 C 
ATOM     11  C   UNL     1     226.114 232.406 236.656  1.00  0.00     0.020 C 
ENDROOT
TORSDOF 0
ENDMDL
MODEL 8
REMARK VINA RESULT:    -3.041      8.093      9.777
REMARK INTER + INTRA:          -3.041
REMARK INTER:                  -3.041
REMARK INTRA:                   0.000
REMARK UNBOUND:                 0.000
REMARK SMILES CC1(C)C(=O)[C@]2(C)CC[C@H]1C2
REMARK SMILES IDX 1 1 2 2 10 3 9 4 8 5 6 6 11 7 4 8 5 9 7 10 3 11
REMARK H PARENT
REMARK Flexibility Score: inf
ROOT
ATOM      1  C   UNL     1     240.016 234.869 236.353  1.00  0.00     0.020 C 
ATOM      2  C   UNL     1     240.878 236.102 236.006  1.00  0.00     0.027 C 
ATOM      3  C   UNL     1     241.100 236.322 234.466  1.00  0.00     0.003 C 
ATOM      4  C   UNL     1     239.762 236.227 233.689  1.00  0.00     0.005 C 
ATOM      5  C   UNL     1     238.996 237.486 234.156  1.00  0.00     0.015 C 
ATOM      6  C   UNL     1     240.028 238.191 235.057  1.00  0.00     0.027 C 
ATOM      7  C   UNL     1     241.330 237.830 234.372  1.00  0.00     0.019 C 
ATOM      8  C   UNL     1     240.158 237.382 236.319  1.00  0.00     0.144 C 
ATOM      9  O   UNL     1     239.687 237.681 237.406  1.00  0.00    -0.298 OA
ATOM     10  C   UNL     1     239.805 239.691 235.261  1.00  0.00     0.020 C 
ATOM     11  C   UNL     1     242.218 236.014 236.767  1.00  0.00     0.020 C 
ENDROOT
TORSDOF 0
ENDMDL
MODEL 9
REMARK VINA RESULT:    -3.035      8.624     10.503
REMARK INTER + INTRA:          -3.035
REMARK INTER:                  -3.035
REMARK INTRA:                   0.000
REMARK UNBOUND:                 0.000
REMARK SMILES CC1(C)C(=O)[C@]2(C)CC[C@H]1C2
REMARK SMILES IDX 1 1 2 2 10 3 9 4 8 5 6 6 11 7 4 8 5 9 7 10 3 11
REMARK H PARENT
REMARK Flexibility Score: inf
ROOT
ATOM      1  C   UNL     1     239.848 235.560 235.613  1.00  0.00     0.020 C 
ATOM      2  C   UNL     1     239.918 236.907 234.861  1.00  0.00     0.027 C 
ATOM      3  C   UNL     1     240.153 238.152 235.789  1.00  0.00     0.003 C 
ATOM      4  C   UNL     1     241.321 237.901 236.777  1.00  0.00     0.005 C 
ATOM      5  C   UNL     1     242.559 237.864 235.854  1.00  0.00     0.015 C 
ATOM      6  C   UNL     1     241.960 238.198 234.475  1.00  0.00     0.027 C 
ATOM      7  C   UNL     1     240.838 239.146 234.850  1.00  0.00     0.019 C 
ATOM      8  C   UNL     1     241.160 237.006 234.024  1.00  0.00     0.144 C 
ATOM      9  O   UNL     1     241.503 236.203 233.168  1.00  0.00    -0.298 OA
ATOM     10  C   UNL     1     242.948 238.751 233.446  1.00  0.00     0.020 C 
ATOM     11  C   UNL     1     238.648 237.072 233.999  1.00  0.00     0.020 C 
ENDROOT
TORSDOF 0
ENDMDL
