MODEL 1
REMARK VINA RESULT:    -4.684      0.000      0.000
REMARK INTER + INTRA:         -13.298
REMARK INTER:                 -10.708
REMARK INTRA:                  -2.589
REMARK UNBOUND:                -2.589
REMARK SMILES CCCCCCCCCCCCCCCCCCCCCCCC(=O)[O-]
REMARK SMILES IDX 13 1 14 2 15 3 16 4 17 5 18 6 19 7 20 8 21 9 22 10 23 11
REMARK SMILES IDX 24 12 25 13 26 14 12 15 11 16 10 17 9 18 8 19 7 20 6 21 5 22
REMARK SMILES IDX 4 23 3 24 2 25 1 26
REMARK H PARENT
REMARK Flexibility Score: inf
ROOT
ATOM      1  C   UNL     1      13.621  22.188  22.631  1.00  0.00     0.000 C 
ENDROOT
BRANCH   1   2
ATOM      2  C   UNL     1      14.923  22.955  22.892  1.00  0.00     0.000 C 
BRANCH   2   3
ATOM      3  C   UNL     1      15.703  22.335  24.059  1.00  0.00     0.000 C 
BRANCH   3   4
ATOM      4  C   UNL     1      17.198  22.226  23.726  1.00  0.00     0.000 C 
BRANCH   4   5
ATOM      5  C   UNL     1      17.649  20.779  23.471  1.00  0.00     0.000 C 
BRANCH   5   6
ATOM      6  C   UNL     1      17.770  20.450  21.973  1.00  0.00     0.000 C 
BRANCH   6   7
ATOM      7  C   UNL     1      16.671  19.488  21.494  1.00  0.00     0.000 C 
BRANCH   7   8
ATOM      8  C   UNL     1      15.919  18.825  22.659  1.00  0.00     0.000 C 
BRANCH   8   9
ATOM      9  C   UNL     1      14.553  18.300  22.202  1.00  0.00     0.000 C 
BRANCH   9  10
ATOM     10  C   UNL     1      14.549  16.766  22.129  1.00  0.00     0.006 C 
BRANCH  10  11
ATOM     11  C   UNL     1      14.780  16.251  20.702  1.00  0.00     0.053 C 
BRANCH  11  12
ATOM     12  C   UNL     1      13.621  15.441  20.206  1.00  0.00     0.041 C 
ATOM     13  O   UNL     1      12.571  16.015  19.812  1.00  0.00    -0.550 OA
ATOM     14  O   UNL     1      13.685  14.054  20.215  1.00  0.00    -0.550 OA
ENDBRANCH  11  12
ENDBRANCH  10  11
ENDBRANCH   9  10
ENDBRANCH   8   9
ENDBRANCH   7   8
ENDBRANCH   6   7
ENDBRANCH   5   6
ENDBRANCH   4   5
ENDBRANCH   3   4
ENDBRANCH   2   3
ENDBRANCH   1   2
BRANCH   1  15
ATOM     15  C   UNL     1      13.599  21.613  21.208  1.00  0.00     0.000 C 
BRANCH  15  16
ATOM     16  C   UNL     1      14.577  22.329  20.260  1.00  0.00     0.000 C 
BRANCH  16  17
ATOM     17  C   UNL     1      13.917  23.286  19.249  1.00  0.00     0.000 C 
BRANCH  17  18
ATOM     18  C   UNL     1      12.375  23.212  19.236  1.00  0.00    -0.000 C 
BRANCH  18  19
ATOM     19  C   UNL     1      11.730  24.415  19.947  1.00  0.00    -0.000 C 
BRANCH  19  20
ATOM     20  C   UNL     1      10.369  24.797  19.343  1.00  0.00    -0.000 C 
BRANCH  20  21
ATOM     21  C   UNL     1      10.097  24.085  18.006  1.00  0.00    -0.000 C 
BRANCH  21  22
ATOM     22  C   UNL     1       9.409  25.001  16.982  1.00  0.00    -0.000 C 
BRANCH  22  23
ATOM     23  C   UNL     1       9.640  24.543  15.532  1.00  0.00    -0.000 C 
BRANCH  23  24
ATOM     24  C   UNL     1       9.397  23.035  15.336  1.00  0.00    -0.000 C 
BRANCH  24  25
ATOM     25  C   UNL     1       7.929  22.646  15.092  1.00  0.00    -0.003 C 
ATOM     26  C   UNL     1       7.270  23.456  13.976  1.00  0.00     0.004 C 
ENDBRANCH  24  25
ENDBRANCH  23  24
ENDBRANCH  22  23
ENDBRANCH  21  22
ENDBRANCH  20  21
ENDBRANCH  19  20
ENDBRANCH  18  19
ENDBRANCH  17  18
ENDBRANCH  16  17
ENDBRANCH  15  16
ENDBRANCH   1  15
TORSDOF 22
ENDMDL
MODEL 2
REMARK VINA RESULT:    -4.679      3.003      4.100
REMARK INTER + INTRA:         -13.286
REMARK INTER:                 -10.068
REMARK INTRA:                  -3.218
REMARK UNBOUND:                -2.589
REMARK SMILES CCCCCCCCCCCCCCCCCCCCCCCC(=O)[O-]
REMARK SMILES IDX 13 1 14 2 15 3 16 4 17 5 18 6 19 7 20 8 21 9 22 10 23 11
REMARK SMILES IDX 24 12 25 13 26 14 12 15 11 16 10 17 9 18 8 19 7 20 6 21 5 22
REMARK SMILES IDX 4 23 3 24 2 25 1 26
REMARK H PARENT
REMARK Flexibility Score: inf
ROOT
ATOM      1  C   UNL     1      14.553  22.751  24.193  1.00  0.00     0.000 C 
ENDROOT
BRANCH   1   2
ATOM      2  C   UNL     1      15.587  23.859  23.964  1.00  0.00     0.000 C 
BRANCH   2   3
ATOM      3  C   UNL     1      17.006  23.280  23.880  1.00  0.00     0.000 C 
BRANCH   3   4
ATOM      4  C   UNL     1      16.974  21.744  23.889  1.00  0.00     0.000 C 
BRANCH   4   5
ATOM      5  C   UNL     1      17.518  21.129  22.590  1.00  0.00     0.000 C 
BRANCH   5   6
ATOM      6  C   UNL     1      16.939  19.732  22.307  1.00  0.00     0.000 C 
BRANCH   6   7
ATOM      7  C   UNL     1      15.999  19.250  23.424  1.00  0.00     0.000 C 
BRANCH   7   8
ATOM      8  C   UNL     1      15.068  18.118  22.963  1.00  0.00     0.000 C 
BRANCH   8   9
ATOM      9  C   UNL     1      13.820  18.038  23.850  1.00  0.00     0.000 C 
BRANCH   9  10
ATOM     10  C   UNL     1      14.056  18.740  25.195  1.00  0.00     0.006 C 
BRANCH  10  11
ATOM     11  C   UNL     1      14.255  17.745  26.345  1.00  0.00     0.053 C 
BRANCH  11  12
ATOM     12  C   UNL     1      12.955  17.367  26.988  1.00  0.00     0.041 C 
ATOM     13  O   UNL     1      12.868  16.309  27.667  1.00  0.00    -0.550 OA
ATOM     14  O   UNL     1      11.831  18.162  26.807  1.00  0.00    -0.550 OA
ENDBRANCH  11  12
ENDBRANCH  10  11
ENDBRANCH   9  10
ENDBRANCH   8   9
ENDBRANCH   7   8
ENDBRANCH   6   7
ENDBRANCH   5   6
ENDBRANCH   4   5
ENDBRANCH   3   4
ENDBRANCH   2   3
ENDBRANCH   1   2
BRANCH   1  15
ATOM     15  C   UNL     1      13.447  22.805  23.129  1.00  0.00     0.000 C 
BRANCH  15  16
ATOM     16  C   UNL     1      13.137  21.426  22.522  1.00  0.00     0.000 C 
BRANCH  16  17
ATOM     17  C   UNL     1      13.750  21.178  21.130  1.00  0.00     0.000 C 
BRANCH  17  18
ATOM     18  C   UNL     1      14.586  22.361  20.597  1.00  0.00    -0.000 C 
BRANCH  18  19
ATOM     19  C   UNL     1      14.059  22.885  19.250  1.00  0.00    -0.000 C 
BRANCH  19  20
ATOM     20  C   UNL     1      12.915  23.897  19.415  1.00  0.00    -0.000 C 
BRANCH  20  21
ATOM     21  C   UNL     1      11.562  23.338  18.940  1.00  0.00    -0.000 C 
BRANCH  21  22
ATOM     22  C   UNL     1      10.651  24.426  18.351  1.00  0.00    -0.000 C 
BRANCH  22  23
ATOM     23  C   UNL     1       9.865  25.187  19.433  1.00  0.00    -0.000 C 
BRANCH  23  24
ATOM     24  C   UNL     1       8.583  25.844  18.890  1.00  0.00    -0.000 C 
BRANCH  24  25
ATOM     25  C   UNL     1       8.347  27.286  19.368  1.00  0.00    -0.003 C 
ATOM     26  C   UNL     1       9.197  27.665  20.580  1.00  0.00     0.004 C 
ENDBRANCH  24  25
ENDBRANCH  23  24
ENDBRANCH  22  23
ENDBRANCH  21  22
ENDBRANCH  20  21
ENDBRANCH  19  20
ENDBRANCH  18  19
ENDBRANCH  17  18
ENDBRANCH  16  17
ENDBRANCH  15  16
ENDBRANCH   1  15
TORSDOF 22
ENDMDL
MODEL 3
REMARK VINA RESULT:    -4.641      6.334     10.592
REMARK INTER + INTRA:         -13.199
REMARK INTER:                  -9.997
REMARK INTRA:                  -3.202
REMARK UNBOUND:                -2.589
REMARK SMILES CCCCCCCCCCCCCCCCCCCCCCCC(=O)[O-]
REMARK SMILES IDX 13 1 14 2 15 3 16 4 17 5 18 6 19 7 20 8 21 9 22 10 23 11
REMARK SMILES IDX 24 12 25 13 26 14 12 15 11 16 10 17 9 18 8 19 7 20 6 21 5 22
REMARK SMILES IDX 4 23 3 24 2 25 1 26
REMARK H PARENT
REMARK Flexibility Score: inf
ROOT
ATOM      1  C   UNL     1      14.701  18.993  24.847  1.00  0.00     0.000 C 
ENDROOT
BRANCH   1   2
ATOM      2  C   UNL     1      14.821  18.192  23.545  1.00  0.00     0.000 C 
BRANCH   2   3
ATOM      3  C   UNL     1      15.913  18.774  22.638  1.00  0.00     0.000 C 
BRANCH   3   4
ATOM      4  C   UNL     1      16.647  19.931  23.334  1.00  0.00     0.000 C 
BRANCH   4   5
ATOM      5  C   UNL     1      16.607  21.236  22.522  1.00  0.00     0.000 C 
BRANCH   5   6
ATOM      6  C   UNL     1      15.691  21.141  21.290  1.00  0.00     0.000 C 
BRANCH   6   7
ATOM      7  C   UNL     1      14.556  22.178  21.322  1.00  0.00     0.000 C 
BRANCH   7   8
ATOM      8  C   UNL     1      13.390  21.747  22.226  1.00  0.00     0.000 C 
BRANCH   8   9
ATOM      9  C   UNL     1      12.863  22.932  23.043  1.00  0.00     0.000 C 
BRANCH   9  10
ATOM     10  C   UNL     1      13.050  22.688  24.549  1.00  0.00     0.006 C 
BRANCH  10  11
ATOM     11  C   UNL     1      14.512  22.839  24.986  1.00  0.00     0.053 C 
BRANCH  11  12
ATOM     12  C   UNL     1      15.017  24.234  24.776  1.00  0.00     0.041 C 
ATOM     13  O   UNL     1      14.408  25.212  25.286  1.00  0.00    -0.550 OA
ATOM     14  O   UNL     1      16.137  24.458  23.985  1.00  0.00    -0.550 OA
ENDBRANCH  11  12
ENDBRANCH  10  11
ENDBRANCH   9  10
ENDBRANCH   8   9
ENDBRANCH   7   8
ENDBRANCH   6   7
ENDBRANCH   5   6
ENDBRANCH   4   5
ENDBRANCH   3   4
ENDBRANCH   2   3
ENDBRANCH   1   2
BRANCH   1  15
ATOM     15  C   UNL     1      15.005  18.108  26.065  1.00  0.00     0.000 C 
BRANCH  15  16
ATOM     16  C   UNL     1      13.737  17.523  26.708  1.00  0.00     0.000 C 
BRANCH  16  17
ATOM     17  C   UNL     1      12.547  18.497  26.802  1.00  0.00     0.000 C 
BRANCH  17  18
ATOM     18  C   UNL     1      12.618  19.450  28.014  1.00  0.00    -0.000 C 
BRANCH  18  19
ATOM     19  C   UNL     1      11.880  18.886  29.241  1.00  0.00    -0.000 C 
BRANCH  19  20
ATOM     20  C   UNL     1      10.501  18.309  28.888  1.00  0.00    -0.000 C 
BRANCH  20  21
ATOM     21  C   UNL     1      10.408  16.797  29.158  1.00  0.00    -0.000 C 
BRANCH  21  22
ATOM     22  C   UNL     1      11.748  16.199  29.618  1.00  0.00    -0.000 C 
BRANCH  22  23
ATOM     23  C   UNL     1      11.653  15.539  31.005  1.00  0.00    -0.000 C 
BRANCH  23  24
ATOM     24  C   UNL     1      10.262  15.691  31.645  1.00  0.00    -0.000 C 
BRANCH  24  25
ATOM     25  C   UNL     1      10.238  16.508  32.947  1.00  0.00    -0.003 C 
ATOM     26  C   UNL     1      10.538  17.991  32.733  1.00  0.00     0.004 C 
ENDBRANCH  24  25
ENDBRANCH  23  24
ENDBRANCH  22  23
ENDBRANCH  21  22
ENDBRANCH  20  21
ENDBRANCH  19  20
ENDBRANCH  18  19
ENDBRANCH  17  18
ENDBRANCH  16  17
ENDBRANCH  15  16
ENDBRANCH   1  15
TORSDOF 22
ENDMDL
MODEL 4
REMARK VINA RESULT:    -4.630      3.596      8.314
REMARK INTER + INTRA:         -13.175
REMARK INTER:                  -9.981
REMARK INTRA:                  -3.194
REMARK UNBOUND:                -2.589
REMARK SMILES CCCCCCCCCCCCCCCCCCCCCCCC(=O)[O-]
REMARK SMILES IDX 13 1 14 2 15 3 16 4 17 5 18 6 19 7 20 8 21 9 22 10 23 11
REMARK SMILES IDX 24 12 25 13 26 14 12 15 11 16 10 17 9 18 8 19 7 20 6 21 5 22
REMARK SMILES IDX 4 23 3 24 2 25 1 26
REMARK H PARENT
REMARK Flexibility Score: inf
ROOT
ATOM      1  C   UNL     1      17.223  19.584  21.772  1.00  0.00     0.000 C 
ENDROOT
BRANCH   1   2
ATOM      2  C   UNL     1      16.240  18.411  21.862  1.00  0.00     0.000 C 
BRANCH   2   3
ATOM      3  C   UNL     1      15.382  18.506  23.130  1.00  0.00     0.000 C 
BRANCH   3   4
ATOM      4  C   UNL     1      13.940  18.912  22.790  1.00  0.00     0.000 C 
BRANCH   4   5
ATOM      5  C   UNL     1      13.519  20.231  23.458  1.00  0.00     0.000 C 
BRANCH   5   6
ATOM      6  C   UNL     1      13.131  21.315  22.437  1.00  0.00     0.000 C 
BRANCH   6   7
ATOM      7  C   UNL     1      13.821  21.114  21.078  1.00  0.00     0.000 C 
BRANCH   7   8
ATOM      8  C   UNL     1      14.698  22.312  20.681  1.00  0.00     0.000 C 
BRANCH   8   9
ATOM      9  C   UNL     1      14.263  22.885  19.327  1.00  0.00     0.000 C 
BRANCH   9  10
ATOM     10  C   UNL     1      12.734  22.862  19.185  1.00  0.00     0.006 C 
BRANCH  10  11
ATOM     11  C   UNL     1      12.071  24.094  19.814  1.00  0.00     0.053 C 
BRANCH  11  12
ATOM     12  C   UNL     1      10.810  24.476  19.101  1.00  0.00     0.041 C 
ATOM     13  O   UNL     1      10.549  23.985  17.970  1.00  0.00    -0.550 OA
ATOM     14  O   UNL     1       9.943  25.402  19.666  1.00  0.00    -0.550 OA
ENDBRANCH  11  12
ENDBRANCH  10  11
ENDBRANCH   9  10
ENDBRANCH   8   9
ENDBRANCH   7   8
ENDBRANCH   6   7
ENDBRANCH   5   6
ENDBRANCH   4   5
ENDBRANCH   3   4
ENDBRANCH   2   3
ENDBRANCH   1   2
BRANCH   1  15
ATOM     15  C   UNL     1      17.361  20.288  23.130  1.00  0.00     0.000 C 
BRANCH  15  16
ATOM     16  C   UNL     1      17.657  21.791  22.995  1.00  0.00     0.000 C 
BRANCH  16  17
ATOM     17  C   UNL     1      17.219  22.649  24.198  1.00  0.00     0.000 C 
BRANCH  17  18
ATOM     18  C   UNL     1      15.743  23.096  24.139  1.00  0.00    -0.000 C 
BRANCH  18  19
ATOM     19  C   UNL     1      15.573  24.589  24.468  1.00  0.00    -0.000 C 
BRANCH  19  20
ATOM     20  C   UNL     1      14.239  24.893  25.167  1.00  0.00    -0.000 C 
BRANCH  20  21
ATOM     21  C   UNL     1      14.250  24.495  26.654  1.00  0.00    -0.000 C 
BRANCH  21  22
ATOM     22  C   UNL     1      12.929  23.847  27.098  1.00  0.00    -0.000 C 
BRANCH  22  23
ATOM     23  C   UNL     1      12.666  22.504  26.394  1.00  0.00    -0.000 C 
BRANCH  23  24
ATOM     24  C   UNL     1      12.606  21.318  27.373  1.00  0.00    -0.000 C 
BRANCH  24  25
ATOM     25  C   UNL     1      12.424  21.710  28.849  1.00  0.00    -0.003 C 
ATOM     26  C   UNL     1      13.402  21.002  29.785  1.00  0.00     0.004 C 
ENDBRANCH  24  25
ENDBRANCH  23  24
ENDBRANCH  22  23
ENDBRANCH  21  22
ENDBRANCH  20  21
ENDBRANCH  19  20
ENDBRANCH  18  19
ENDBRANCH  17  18
ENDBRANCH  16  17
ENDBRANCH  15  16
ENDBRANCH   1  15
TORSDOF 22
ENDMDL
MODEL 5
REMARK VINA RESULT:    -4.623      6.603      9.933
REMARK INTER + INTRA:         -13.159
REMARK INTER:                 -11.019
REMARK INTRA:                  -2.140
REMARK UNBOUND:                -2.589
REMARK SMILES CCCCCCCCCCCCCCCCCCCCCCCC(=O)[O-]
REMARK SMILES IDX 13 1 14 2 15 3 16 4 17 5 18 6 19 7 20 8 21 9 22 10 23 11
REMARK SMILES IDX 24 12 25 13 26 14 12 15 11 16 10 17 9 18 8 19 7 20 6 21 5 22
REMARK SMILES IDX 4 23 3 24 2 25 1 26
REMARK H PARENT
REMARK Flexibility Score: inf
ROOT
ATOM      1  C   UNL     1      13.380  17.978  26.995  1.00  0.00     0.000 C 
ENDROOT
BRANCH   1   2
ATOM      2  C   UNL     1      12.749  16.616  27.304  1.00  0.00     0.000 C 
BRANCH   2   3
ATOM      3  C   UNL     1      11.606  16.756  28.319  1.00  0.00     0.000 C 
BRANCH   3   4
ATOM      4  C   UNL     1      11.847  15.862  29.545  1.00  0.00     0.000 C 
BRANCH   4   5
ATOM      5  C   UNL     1      10.710  15.946  30.576  1.00  0.00     0.000 C 
BRANCH   5   6
ATOM      6  C   UNL     1      11.226  16.097  32.017  1.00  0.00     0.000 C 
BRANCH   6   7
ATOM      7  C   UNL     1      10.872  17.464  32.627  1.00  0.00     0.000 C 
BRANCH   7   8
ATOM      8  C   UNL     1       9.893  18.263  31.753  1.00  0.00     0.000 C 
BRANCH   8   9
ATOM      9  C   UNL     1      10.451  19.655  31.436  1.00  0.00     0.000 C 
BRANCH   9  10
ATOM     10  C   UNL     1      11.770  19.554  30.654  1.00  0.00     0.006 C 
BRANCH  10  11
ATOM     11  C   UNL     1      11.756  20.402  29.376  1.00  0.00     0.053 C 
BRANCH  11  12
ATOM     12  C   UNL     1      12.895  21.376  29.340  1.00  0.00     0.041 C 
ATOM     13  O   UNL     1      13.016  22.172  28.371  1.00  0.00    -0.550 OA
ATOM     14  O   UNL     1      13.843  21.377  30.354  1.00  0.00    -0.550 OA
ENDBRANCH  11  12
ENDBRANCH  10  11
ENDBRANCH   9  10
ENDBRANCH   8   9
ENDBRANCH   7   8
ENDBRANCH   6   7
ENDBRANCH   5   6
ENDBRANCH   4   5
ENDBRANCH   3   4
ENDBRANCH   2   3
ENDBRANCH   1   2
BRANCH   1  15
ATOM     15  C   UNL     1      14.770  17.808  26.364  1.00  0.00     0.000 C 
BRANCH  15  16
ATOM     16  C   UNL     1      14.969  18.685  25.116  1.00  0.00     0.000 C 
BRANCH  16  17
ATOM     17  C   UNL     1      14.523  18.040  23.790  1.00  0.00     0.000 C 
BRANCH  17  18
ATOM     18  C   UNL     1      15.533  18.224  22.638  1.00  0.00    -0.000 C 
BRANCH  18  19
ATOM     19  C   UNL     1      15.304  19.535  21.867  1.00  0.00    -0.000 C 
BRANCH  19  20
ATOM     20  C   UNL     1      16.594  20.351  21.691  1.00  0.00    -0.000 C 
BRANCH  20  21
ATOM     21  C   UNL     1      17.425  20.424  22.985  1.00  0.00    -0.000 C 
BRANCH  21  22
ATOM     22  C   UNL     1      17.458  21.839  23.583  1.00  0.00    -0.000 C 
BRANCH  22  23
ATOM     23  C   UNL     1      16.108  22.565  23.454  1.00  0.00    -0.000 C 
BRANCH  23  24
ATOM     24  C   UNL     1      15.932  23.687  24.493  1.00  0.00    -0.000 C 
BRANCH  24  25
ATOM     25  C   UNL     1      14.543  24.349  24.498  1.00  0.00    -0.003 C 
ATOM     26  C   UNL     1      14.382  25.400  25.595  1.00  0.00     0.004 C 
ENDBRANCH  24  25
ENDBRANCH  23  24
ENDBRANCH  22  23
ENDBRANCH  21  22
ENDBRANCH  20  21
ENDBRANCH  19  20
ENDBRANCH  18  19
ENDBRANCH  17  18
ENDBRANCH  16  17
ENDBRANCH  15  16
ENDBRANCH   1  15
TORSDOF 22
ENDMDL
MODEL 6
REMARK VINA RESULT:    -4.620      2.666      2.977
REMARK INTER + INTRA:         -13.150
REMARK INTER:                 -10.675
REMARK INTRA:                  -2.475
REMARK UNBOUND:                -2.589
REMARK SMILES CCCCCCCCCCCCCCCCCCCCCCCC(=O)[O-]
REMARK SMILES IDX 13 1 14 2 15 3 16 4 17 5 18 6 19 7 20 8 21 9 22 10 23 11
REMARK SMILES IDX 24 12 25 13 26 14 12 15 11 16 10 17 9 18 8 19 7 20 6 21 5 22
REMARK SMILES IDX 4 23 3 24 2 25 1 26
REMARK H PARENT
REMARK Flexibility Score: inf
ROOT
ATOM      1  C   UNL     1      13.635  22.215  22.667  1.00  0.00     0.000 C 
ENDROOT
BRANCH   1   2
ATOM      2  C   UNL     1      14.895  23.057  22.895  1.00  0.00     0.000 C 
BRANCH   2   3
ATOM      3  C   UNL     1      15.786  22.434  23.978  1.00  0.00     0.000 C 
BRANCH   3   4
ATOM      4  C   UNL     1      17.231  22.280  23.481  1.00  0.00     0.000 C 
BRANCH   4   5
ATOM      5  C   UNL     1      17.666  20.810  23.358  1.00  0.00     0.000 C 
BRANCH   5   6
ATOM      6  C   UNL     1      17.179  20.155  22.055  1.00  0.00     0.000 C 
BRANCH   6   7
ATOM      7  C   UNL     1      16.018  19.175  22.289  1.00  0.00     0.000 C 
BRANCH   7   8
ATOM      8  C   UNL     1      15.771  18.899  23.781  1.00  0.00     0.000 C 
BRANCH   8   9
ATOM      9  C   UNL     1      14.441  18.167  23.991  1.00  0.00     0.000 C 
BRANCH   9  10
ATOM     10  C   UNL     1      13.746  18.645  25.275  1.00  0.00     0.006 C 
BRANCH  10  11
ATOM     11  C   UNL     1      14.002  17.705  26.460  1.00  0.00     0.053 C 
BRANCH  11  12
ATOM     12  C   UNL     1      12.729  17.305  27.141  1.00  0.00     0.041 C 
ATOM     13  O   UNL     1      12.101  18.136  27.849  1.00  0.00    -0.550 OA
ATOM     14  O   UNL     1      12.258  16.004  27.026  1.00  0.00    -0.550 OA
ENDBRANCH  11  12
ENDBRANCH  10  11
ENDBRANCH   9  10
ENDBRANCH   8   9
ENDBRANCH   7   8
ENDBRANCH   6   7
ENDBRANCH   5   6
ENDBRANCH   4   5
ENDBRANCH   3   4
ENDBRANCH   2   3
ENDBRANCH   1   2
BRANCH   1  15
ATOM     15  C   UNL     1      13.621  21.623  21.249  1.00  0.00     0.000 C 
BRANCH  15  16
ATOM     16  C   UNL     1      14.598  22.333  20.297  1.00  0.00     0.000 C 
BRANCH  16  17
ATOM     17  C   UNL     1      13.943  23.326  19.318  1.00  0.00     0.000 C 
BRANCH  17  18
ATOM     18  C   UNL     1      12.404  23.229  19.269  1.00  0.00    -0.000 C 
BRANCH  18  19
ATOM     19  C   UNL     1      11.724  24.371  20.045  1.00  0.00    -0.000 C 
BRANCH  19  20
ATOM     20  C   UNL     1      10.355  24.750  19.460  1.00  0.00    -0.000 C 
BRANCH  20  21
ATOM     21  C   UNL     1      10.073  24.049  18.120  1.00  0.00    -0.000 C 
BRANCH  21  22
ATOM     22  C   UNL     1       9.448  24.994  17.082  1.00  0.00    -0.000 C 
BRANCH  22  23
ATOM     23  C   UNL     1       9.758  24.570  15.636  1.00  0.00    -0.000 C 
BRANCH  23  24
ATOM     24  C   UNL     1       9.398  23.100  15.355  1.00  0.00    -0.000 C 
BRANCH  24  25
ATOM     25  C   UNL     1       7.890  22.811  15.269  1.00  0.00    -0.003 C 
ATOM     26  C   UNL     1       7.158  23.722  14.285  1.00  0.00     0.004 C 
ENDBRANCH  24  25
ENDBRANCH  23  24
ENDBRANCH  22  23
ENDBRANCH  21  22
ENDBRANCH  20  21
ENDBRANCH  19  20
ENDBRANCH  18  19
ENDBRANCH  17  18
ENDBRANCH  16  17
ENDBRANCH  15  16
ENDBRANCH   1  15
TORSDOF 22
ENDMDL
MODEL 7
REMARK VINA RESULT:    -4.611      1.628      2.437
REMARK INTER + INTRA:         -13.131
REMARK INTER:                 -10.050
REMARK INTRA:                  -3.081
REMARK UNBOUND:                -2.589
REMARK SMILES CCCCCCCCCCCCCCCCCCCCCCCC(=O)[O-]
REMARK SMILES IDX 13 1 14 2 15 3 16 4 17 5 18 6 19 7 20 8 21 9 22 10 23 11
REMARK SMILES IDX 24 12 25 13 26 14 12 15 11 16 10 17 9 18 8 19 7 20 6 21 5 22
REMARK SMILES IDX 4 23 3 24 2 25 1 26
REMARK H PARENT
REMARK Flexibility Score: inf
ROOT
ATOM      1  C   UNL     1      13.108  21.960  22.881  1.00  0.00     0.000 C 
ENDROOT
BRANCH   1   2
ATOM      2  C   UNL     1      13.832  23.286  23.139  1.00  0.00     0.000 C 
BRANCH   2   3
ATOM      3  C   UNL     1      14.097  23.487  24.637  1.00  0.00     0.000 C 
BRANCH   3   4
ATOM      4  C   UNL     1      15.604  23.555  24.925  1.00  0.00     0.000 C 
BRANCH   4   5
ATOM      5  C   UNL     1      16.462  23.234  23.690  1.00  0.00     0.000 C 
BRANCH   5   6
ATOM      6  C   UNL     1      17.368  22.008  23.900  1.00  0.00     0.000 C 
BRANCH   6   7
ATOM      7  C   UNL     1      17.453  21.121  22.647  1.00  0.00     0.000 C 
BRANCH   7   8
ATOM      8  C   UNL     1      16.520  19.901  22.724  1.00  0.00     0.000 C 
BRANCH   8   9
ATOM      9  C   UNL     1      15.872  19.793  24.109  1.00  0.00     0.000 C 
BRANCH   9  10
ATOM     10  C   UNL     1      14.859  18.640  24.155  1.00  0.00     0.006 C 
BRANCH  10  11
ATOM     11  C   UNL     1      14.569  18.065  22.762  1.00  0.00     0.053 C 
BRANCH  11  12
ATOM     12  C   UNL     1      13.300  17.268  22.740  1.00  0.00     0.041 C 
ATOM     13  O   UNL     1      12.707  16.992  23.817  1.00  0.00    -0.550 OA
ATOM     14  O   UNL     1      12.795  16.797  21.536  1.00  0.00    -0.550 OA
ENDBRANCH  11  12
ENDBRANCH  10  11
ENDBRANCH   9  10
ENDBRANCH   8   9
ENDBRANCH   7   8
ENDBRANCH   6   7
ENDBRANCH   5   6
ENDBRANCH   4   5
ENDBRANCH   3   4
ENDBRANCH   2   3
ENDBRANCH   1   2
BRANCH   1  15
ATOM     15  C   UNL     1      13.454  21.408  21.490  1.00  0.00     0.000 C 
BRANCH  15  16
ATOM     16  C   UNL     1      14.396  22.332  20.700  1.00  0.00     0.000 C 
BRANCH  16  17
ATOM     17  C   UNL     1      13.921  22.678  19.275  1.00  0.00     0.000 C 
BRANCH  17  18
ATOM     18  C   UNL     1      12.390  22.825  19.148  1.00  0.00    -0.000 C 
BRANCH  18  19
ATOM     19  C   UNL     1      11.890  24.178  19.683  1.00  0.00    -0.000 C 
BRANCH  19  20
ATOM     20  C   UNL     1      10.520  24.571  19.107  1.00  0.00    -0.000 C 
BRANCH  20  21
ATOM     21  C   UNL     1      10.247  23.919  17.740  1.00  0.00    -0.000 C 
BRANCH  21  22
ATOM     22  C   UNL     1       9.999  24.956  16.633  1.00  0.00    -0.000 C 
BRANCH  22  23
ATOM     23  C   UNL     1       8.748  24.636  15.796  1.00  0.00    -0.000 C 
BRANCH  23  24
ATOM     24  C   UNL     1       7.618  25.662  15.995  1.00  0.00    -0.000 C 
BRANCH  24  25
ATOM     25  C   UNL     1       7.925  26.768  17.019  1.00  0.00    -0.003 C 
ATOM     26  C   UNL     1       6.936  27.932  16.962  1.00  0.00     0.004 C 
ENDBRANCH  24  25
ENDBRANCH  23  24
ENDBRANCH  22  23
ENDBRANCH  21  22
ENDBRANCH  20  21
ENDBRANCH  19  20
ENDBRANCH  18  19
ENDBRANCH  17  18
ENDBRANCH  16  17
ENDBRANCH  15  16
ENDBRANCH   1  15
TORSDOF 22
ENDMDL
MODEL 8
REMARK VINA RESULT:    -4.551      3.790      7.650
REMARK INTER + INTRA:         -12.994
REMARK INTER:                  -9.492
REMARK INTRA:                  -3.502
REMARK UNBOUND:                -2.589
REMARK SMILES CCCCCCCCCCCCCCCCCCCCCCCC(=O)[O-]
REMARK SMILES IDX 13 1 14 2 15 3 16 4 17 5 18 6 19 7 20 8 21 9 22 10 23 11
REMARK SMILES IDX 24 12 25 13 26 14 12 15 11 16 10 17 9 18 8 19 7 20 6 21 5 22
REMARK SMILES IDX 4 23 3 24 2 25 1 26
REMARK H PARENT
REMARK Flexibility Score: inf
ROOT
ATOM      1  C   UNL     1      11.333  18.201  16.245  1.00  0.00     0.000 C 
ENDROOT
BRANCH   1   2
ATOM      2  C   UNL     1      11.235  17.427  14.925  1.00  0.00     0.000 C 
BRANCH   2   3
ATOM      3  C   UNL     1      10.349  18.170  13.916  1.00  0.00     0.000 C 
BRANCH   3   4
ATOM      4  C   UNL     1       8.994  17.465  13.750  1.00  0.00     0.000 C 
BRANCH   4   5
ATOM      5  C   UNL     1       7.919  18.008  14.706  1.00  0.00     0.000 C 
BRANCH   5   6
ATOM      6  C   UNL     1       7.588  17.026  15.843  1.00  0.00     0.000 C 
BRANCH   6   7
ATOM      7  C   UNL     1       7.591  17.705  17.222  1.00  0.00     0.000 C 
BRANCH   7   8
ATOM      8  C   UNL     1       8.428  16.935  18.256  1.00  0.00     0.000 C 
BRANCH   8   9
ATOM      9  C   UNL     1       9.063  15.689  17.628  1.00  0.00     0.000 C 
BRANCH   9  10
ATOM     10  C   UNL     1      10.318  15.260  18.404  1.00  0.00     0.006 C 
BRANCH  10  11
ATOM     11  C   UNL     1      11.384  14.641  17.491  1.00  0.00     0.053 C 
BRANCH  11  12
ATOM     12  C   UNL     1      11.537  13.169  17.730  1.00  0.00     0.041 C 
ATOM     13  O   UNL     1      10.532  12.467  18.021  1.00  0.00    -0.550 OA
ATOM     14  O   UNL     1      12.793  12.581  17.669  1.00  0.00    -0.550 OA
ENDBRANCH  11  12
ENDBRANCH  10  11
ENDBRANCH   9  10
ENDBRANCH   8   9
ENDBRANCH   7   8
ENDBRANCH   6   7
ENDBRANCH   5   6
ENDBRANCH   4   5
ENDBRANCH   3   4
ENDBRANCH   2   3
ENDBRANCH   1   2
BRANCH   1  15
ATOM     15  C   UNL     1      11.334  19.716  15.993  1.00  0.00     0.000 C 
BRANCH  15  16
ATOM     16  C   UNL     1      10.752  20.517  17.171  1.00  0.00     0.000 C 
BRANCH  16  17
ATOM     17  C   UNL     1       9.273  20.917  17.015  1.00  0.00     0.000 C 
BRANCH  17  18
ATOM     18  C   UNL     1       8.950  21.596  15.667  1.00  0.00    -0.000 C 
BRANCH  18  19
ATOM     19  C   UNL     1       9.582  22.994  15.554  1.00  0.00    -0.000 C 
BRANCH  19  20
ATOM     20  C   UNL     1       8.836  24.049  16.386  1.00  0.00    -0.000 C 
BRANCH  20  21
ATOM     21  C   UNL     1       9.765  24.796  17.359  1.00  0.00    -0.000 C 
BRANCH  21  22
ATOM     22  C   UNL     1      10.095  23.967  18.610  1.00  0.00    -0.000 C 
BRANCH  22  23
ATOM     23  C   UNL     1      11.142  24.648  19.509  1.00  0.00    -0.000 C 
BRANCH  23  24
ATOM     24  C   UNL     1      12.121  23.646  20.149  1.00  0.00    -0.000 C 
BRANCH  24  25
ATOM     25  C   UNL     1      12.957  22.834  19.147  1.00  0.00    -0.003 C 
ATOM     26  C   UNL     1      14.463  22.990  19.354  1.00  0.00     0.004 C 
ENDBRANCH  24  25
ENDBRANCH  23  24
ENDBRANCH  22  23
ENDBRANCH  21  22
ENDBRANCH  20  21
ENDBRANCH  19  20
ENDBRANCH  18  19
ENDBRANCH  17  18
ENDBRANCH  16  17
ENDBRANCH  15  16
ENDBRANCH   1  15
TORSDOF 22
ENDMDL
MODEL 9
REMARK VINA RESULT:    -4.539      3.424      5.261
REMARK INTER + INTRA:         -12.965
REMARK INTER:                  -9.777
REMARK INTRA:                  -3.188
REMARK UNBOUND:                -2.589
REMARK SMILES CCCCCCCCCCCCCCCCCCCCCCCC(=O)[O-]
REMARK SMILES IDX 13 1 14 2 15 3 16 4 17 5 18 6 19 7 20 8 21 9 22 10 23 11
REMARK SMILES IDX 24 12 25 13 26 14 12 15 11 16 10 17 9 18 8 19 7 20 6 21 5 22
REMARK SMILES IDX 4 23 3 24 2 25 1 26
REMARK H PARENT
REMARK Flexibility Score: inf
ROOT
ATOM      1  C   UNL     1      14.719  22.140  20.764  1.00  0.00     0.000 C 
ENDROOT
BRANCH   1   2
ATOM      2  C   UNL     1      13.703  22.018  21.905  1.00  0.00     0.000 C 
BRANCH   2   3
ATOM      3  C   UNL     1      13.660  20.586  22.454  1.00  0.00     0.000 C 
BRANCH   3   4
ATOM      4  C   UNL     1      14.445  19.625  21.547  1.00  0.00     0.000 C 
BRANCH   4   5
ATOM      5  C   UNL     1      15.578  18.899  22.288  1.00  0.00     0.000 C 
BRANCH   5   6
ATOM      6  C   UNL     1      16.935  19.035  21.576  1.00  0.00     0.000 C 
BRANCH   6   7
ATOM      7  C   UNL     1      17.702  20.294  22.012  1.00  0.00     0.000 C 
BRANCH   7   8
ATOM      8  C   UNL     1      17.376  20.713  23.455  1.00  0.00     0.000 C 
BRANCH   8   9
ATOM      9  C   UNL     1      17.381  22.239  23.597  1.00  0.00     0.000 C 
BRANCH   9  10
ATOM     10  C   UNL     1      16.170  22.719  24.412  1.00  0.00     0.006 C 
BRANCH  10  11
ATOM     11  C   UNL     1      15.848  24.198  24.160  1.00  0.00     0.053 C 
BRANCH  11  12
ATOM     12  C   UNL     1      14.574  24.614  24.830  1.00  0.00     0.041 C 
ATOM     13  O   UNL     1      13.524  24.774  24.153  1.00  0.00    -0.550 OA
ATOM     14  O   UNL     1      14.556  24.864  26.196  1.00  0.00    -0.550 OA
ENDBRANCH  11  12
ENDBRANCH  10  11
ENDBRANCH   9  10
ENDBRANCH   8   9
ENDBRANCH   7   8
ENDBRANCH   6   7
ENDBRANCH   5   6
ENDBRANCH   4   5
ENDBRANCH   3   4
ENDBRANCH   2   3
ENDBRANCH   1   2
BRANCH   1  15
ATOM     15  C   UNL     1      14.069  22.753  19.515  1.00  0.00     0.000 C 
BRANCH  15  16
ATOM     16  C   UNL     1      12.554  22.965  19.674  1.00  0.00     0.000 C 
BRANCH  16  17
ATOM     17  C   UNL     1      11.675  22.064  18.785  1.00  0.00     0.000 C 
BRANCH  17  18
ATOM     18  C   UNL     1      12.104  20.581  18.786  1.00  0.00    -0.000 C 
BRANCH  18  19
ATOM     19  C   UNL     1      11.061  19.675  18.110  1.00  0.00    -0.000 C 
BRANCH  19  20
ATOM     20  C   UNL     1      11.133  19.731  16.577  1.00  0.00    -0.000 C 
BRANCH  20  21
ATOM     21  C   UNL     1       9.847  19.215  15.907  1.00  0.00    -0.000 C 
BRANCH  21  22
ATOM     22  C   UNL     1       8.809  20.328  15.692  1.00  0.00    -0.000 C 
BRANCH  22  23
ATOM     23  C   UNL     1       9.416  21.735  15.831  1.00  0.00    -0.000 C 
BRANCH  23  24
ATOM     24  C   UNL     1       8.599  22.648  16.762  1.00  0.00    -0.000 C 
BRANCH  24  25
ATOM     25  C   UNL     1       8.993  24.134  16.715  1.00  0.00    -0.003 C 
ATOM     26  C   UNL     1       9.622  24.547  15.385  1.00  0.00     0.004 C 
ENDBRANCH  24  25
ENDBRANCH  23  24
ENDBRANCH  22  23
ENDBRANCH  21  22
ENDBRANCH  20  21
ENDBRANCH  19  20
ENDBRANCH  18  19
ENDBRANCH  17  18
ENDBRANCH  16  17
ENDBRANCH  15  16
ENDBRANCH   1  15
TORSDOF 22
ENDMDL
