MODEL 1
REMARK VINA RESULT:    -7.900      0.000      0.000
REMARK INTER + INTRA:          -9.506
REMARK INTER:                  -9.516
REMARK INTRA:                   0.010
REMARK UNBOUND:                 0.010
REMARK SMILES O=c1c(O)c(-c2ccc(O)c(O)c2)oc2cc(O)cc(O)c12
REMARK SMILES IDX 5 1 3 2 2 3 1 4 22 5 20 6 19 7 17 8 16 9 15 10 14 11 6 12
REMARK SMILES IDX 7 13 8 14 9 15 13 16 11 17 10 18 12 20 4 22 21 24 18 26
REMARK H PARENT 10 19 12 21 4 23 21 25 18 27
REMARK Flexibility Score: inf
ROOT
ATOM      1  C   UNL     1       4.569 -12.980  24.196  1.00  0.00     0.180 A 
ATOM      2  C   UNL     1       4.139 -11.932  23.365  1.00  0.00     0.208 A 
ATOM      3  C   UNL     1       3.122 -11.077  23.819  1.00  0.00     0.238 A 
ATOM      4  O   UNL     1       2.779 -10.108  23.093  1.00  0.00    -0.285 OA
ATOM      5  C   UNL     1       2.539 -11.288  25.092  1.00  0.00     0.111 A 
ATOM      6  C   UNL     1       1.476 -10.508  25.636  1.00  0.00     0.134 A 
ATOM      7  C   UNL     1       1.066 -10.724  26.957  1.00  0.00     0.093 A 
ATOM      8  C   UNL     1       1.634 -11.735  27.731  1.00  0.00     0.123 A 
ATOM      9  C   UNL     1       2.634 -12.544  27.189  1.00  0.00     0.094 A 
ATOM     10  C   UNL     1       3.089 -12.328  25.886  1.00  0.00     0.146 A 
ATOM     11  O   UNL     1       4.049 -13.113  25.411  1.00  0.00    -0.452 OA
ENDROOT
BRANCH   1  12
ATOM     12  C   UNL     1       5.619 -13.938  23.777  1.00  0.00     0.025 A 
ATOM     13  C   UNL     1       5.584 -14.554  22.513  1.00  0.00     0.016 A 
ATOM     14  C   UNL     1       6.571 -15.473  22.149  1.00  0.00     0.051 A 
ATOM     15  C   UNL     1       7.598 -15.801  23.045  1.00  0.00     0.157 A 
ATOM     16  C   UNL     1       6.638 -14.287  24.680  1.00  0.00     0.062 A 
ATOM     17  C   UNL     1       7.628 -15.209  24.314  1.00  0.00     0.158 A 
BRANCH  15  18
ATOM     18  O   UNL     1       8.584 -16.717  22.684  1.00  0.00    -0.504 OA
ATOM     19  H   UNL     1       8.358 -17.681  22.469  1.00  0.00     0.293 HD
ENDBRANCH  15  18
BRANCH  17  20
ATOM     20  O   UNL     1       8.646 -15.542  25.206  1.00  0.00    -0.504 OA
ATOM     21  H   UNL     1       9.376 -16.199  24.956  1.00  0.00     0.293 HD
ENDBRANCH  17  20
ENDBRANCH   1  12
BRANCH   2  22
ATOM     22  O   UNL     1       4.743 -11.727  22.121  1.00  0.00    -0.502 OA
ATOM     23  H   UNL     1       5.721 -11.483  22.025  1.00  0.00     0.293 HD
ENDBRANCH   2  22
BRANCH   6  24
ATOM     24  O   UNL     1       0.777  -9.533  24.918  1.00  0.00    -0.507 OA
ATOM     25  H   UNL     1       0.999  -8.549  24.918  1.00  0.00     0.293 HD
ENDBRANCH   6  24
BRANCH   8  26
ATOM     26  O   UNL     1       1.192 -11.934  29.037  1.00  0.00    -0.508 OA
ATOM     27  H   UNL     1       0.915 -11.159  29.627  1.00  0.00     0.293 HD
ENDBRANCH   8  26
TORSDOF 6
ENDMDL
MODEL 2
REMARK VINA RESULT:    -7.874      1.666      3.487
REMARK INTER + INTRA:          -9.475
REMARK INTER:                  -9.577
REMARK INTRA:                   0.103
REMARK UNBOUND:                 0.010
REMARK SMILES O=c1c(O)c(-c2ccc(O)c(O)c2)oc2cc(O)cc(O)c12
REMARK SMILES IDX 5 1 3 2 2 3 1 4 22 5 20 6 19 7 17 8 16 9 15 10 14 11 6 12
REMARK SMILES IDX 7 13 8 14 9 15 13 16 11 17 10 18 12 20 4 22 21 24 18 26
REMARK H PARENT 10 19 12 21 4 23 21 25 18 27
REMARK Flexibility Score: inf
ROOT
ATOM      1  C   UNL     1       4.388 -13.227  23.419  1.00  0.00     0.180 A 
ATOM      2  C   UNL     1       3.619 -13.121  24.591  1.00  0.00     0.208 A 
ATOM      3  C   UNL     1       2.562 -12.197  24.631  1.00  0.00     0.238 A 
ATOM      4  O   UNL     1       1.844 -12.145  25.663  1.00  0.00    -0.285 OA
ATOM      5  C   UNL     1       2.297 -11.381  23.505  1.00  0.00     0.111 A 
ATOM      6  C   UNL     1       1.278 -10.383  23.449  1.00  0.00     0.134 A 
ATOM      7  C   UNL     1       1.020  -9.726  22.240  1.00  0.00     0.093 A 
ATOM      8  C   UNL     1       1.787  -9.982  21.103  1.00  0.00     0.123 A 
ATOM      9  C   UNL     1       2.826 -10.912  21.163  1.00  0.00     0.094 A 
ATOM     10  C   UNL     1       3.083 -11.610  22.345  1.00  0.00     0.146 A 
ATOM     11  O   UNL     1       4.073 -12.494  22.357  1.00  0.00    -0.452 OA
ENDROOT
BRANCH   1  12
ATOM     12  C   UNL     1       5.534 -14.160  23.310  1.00  0.00     0.025 A 
ATOM     13  C   UNL     1       5.691 -14.997  22.192  1.00  0.00     0.016 A 
ATOM     14  C   UNL     1       6.766 -15.887  22.123  1.00  0.00     0.051 A 
ATOM     15  C   UNL     1       7.690 -15.964  23.174  1.00  0.00     0.157 A 
ATOM     16  C   UNL     1       6.451 -14.256  24.371  1.00  0.00     0.062 A 
ATOM     17  C   UNL     1       7.529 -15.149  24.302  1.00  0.00     0.158 A 
BRANCH  15  18
ATOM     18  O   UNL     1       8.764 -16.850  23.108  1.00  0.00    -0.504 OA
ATOM     19  H   UNL     1       9.227 -17.183  23.945  1.00  0.00     0.293 HD
ENDBRANCH  15  18
BRANCH  17  20
ATOM     20  O   UNL     1       8.445 -15.231  25.349  1.00  0.00    -0.504 OA
ATOM     21  H   UNL     1       8.753 -16.125  25.714  1.00  0.00     0.293 HD
ENDBRANCH  17  20
ENDBRANCH   1  12
BRANCH   2  22
ATOM     22  O   UNL     1       3.884 -13.952  25.683  1.00  0.00    -0.502 OA
ATOM     23  H   UNL     1       3.167 -14.231  26.341  1.00  0.00     0.293 HD
ENDBRANCH   2  22
BRANCH   6  24
ATOM     24  O   UNL     1       0.514  -9.986  24.550  1.00  0.00    -0.507 OA
ATOM     25  H   UNL     1       0.338 -10.556  25.364  1.00  0.00     0.293 HD
ENDBRANCH   6  24
BRANCH   8  26
ATOM     26  O   UNL     1       1.514  -9.298  19.921  1.00  0.00    -0.508 OA
ATOM     27  H   UNL     1       2.256  -8.926  19.340  1.00  0.00     0.293 HD
ENDBRANCH   8  26
TORSDOF 6
ENDMDL
MODEL 3
REMARK VINA RESULT:    -7.798      4.358      5.728
REMARK INTER + INTRA:          -9.384
REMARK INTER:                  -9.121
REMARK INTRA:                  -0.262
REMARK UNBOUND:                 0.010
REMARK SMILES O=c1c(O)c(-c2ccc(O)c(O)c2)oc2cc(O)cc(O)c12
REMARK SMILES IDX 5 1 3 2 2 3 1 4 22 5 20 6 19 7 17 8 16 9 15 10 14 11 6 12
REMARK SMILES IDX 7 13 8 14 9 15 13 16 11 17 10 18 12 20 4 22 21 24 18 26
REMARK H PARENT 10 19 12 21 4 23 21 25 18 27
REMARK Flexibility Score: inf
ROOT
ATOM      1  C   UNL     1       3.311 -14.480  21.630  1.00  0.00     0.180 A 
ATOM      2  C   UNL     1       2.694 -13.228  21.468  1.00  0.00     0.208 A 
ATOM      3  C   UNL     1       1.537 -13.135  20.679  1.00  0.00     0.238 A 
ATOM      4  O   UNL     1       0.959 -12.021  20.582  1.00  0.00    -0.285 OA
ATOM      5  C   UNL     1       1.019 -14.293  20.050  1.00  0.00     0.111 A 
ATOM      6  C   UNL     1      -0.125 -14.308  19.196  1.00  0.00     0.134 A 
ATOM      7  C   UNL     1      -0.625 -15.532  18.734  1.00  0.00     0.093 A 
ATOM      8  C   UNL     1       0.014 -16.733  19.040  1.00  0.00     0.123 A 
ATOM      9  C   UNL     1       1.168 -16.724  19.824  1.00  0.00     0.094 A 
ATOM     10  C   UNL     1       1.670 -15.523  20.330  1.00  0.00     0.146 A 
ATOM     11  O   UNL     1       2.764 -15.558  21.081  1.00  0.00    -0.452 OA
ENDROOT
BRANCH   1  12
ATOM     12  C   UNL     1       4.548 -14.652  22.427  1.00  0.00     0.025 A 
ATOM     13  C   UNL     1       5.792 -14.870  21.808  1.00  0.00     0.016 A 
ATOM     14  C   UNL     1       6.941 -15.055  22.581  1.00  0.00     0.051 A 
ATOM     15  C   UNL     1       6.864 -15.037  23.980  1.00  0.00     0.157 A 
ATOM     16  C   UNL     1       4.472 -14.657  23.830  1.00  0.00     0.062 A 
ATOM     17  C   UNL     1       5.626 -14.841  24.605  1.00  0.00     0.158 A 
BRANCH  15  18
ATOM     18  O   UNL     1       8.008 -15.220  24.754  1.00  0.00    -0.504 OA
ATOM     19  H   UNL     1       8.747 -14.527  24.778  1.00  0.00     0.293 HD
ENDBRANCH  15  18
BRANCH  17  20
ATOM     20  O   UNL     1       5.550 -14.831  25.997  1.00  0.00    -0.504 OA
ATOM     21  H   UNL     1       5.889 -14.047  26.540  1.00  0.00     0.293 HD
ENDBRANCH  17  20
ENDBRANCH   1  12
BRANCH   2  22
ATOM     22  O   UNL     1       3.210 -12.101  22.116  1.00  0.00    -0.502 OA
ATOM     23  H   UNL     1       2.625 -11.454  22.631  1.00  0.00     0.293 HD
ENDBRANCH   2  22
BRANCH   6  24
ATOM     24  O   UNL     1      -0.785 -13.158  18.756  1.00  0.00    -0.507 OA
ATOM     25  H   UNL     1      -0.995 -12.950  17.791  1.00  0.00     0.293 HD
ENDBRANCH   6  24
BRANCH   8  26
ATOM     26  O   UNL     1      -0.501 -17.931  18.549  1.00  0.00    -0.508 OA
ATOM     27  H   UNL     1       0.025 -18.510  17.906  1.00  0.00     0.293 HD
ENDBRANCH   8  26
TORSDOF 6
ENDMDL
MODEL 4
REMARK VINA RESULT:    -7.756      3.346      5.138
REMARK INTER + INTRA:          -9.333
REMARK INTER:                  -9.038
REMARK INTRA:                  -0.295
REMARK UNBOUND:                 0.010
REMARK SMILES O=c1c(O)c(-c2ccc(O)c(O)c2)oc2cc(O)cc(O)c12
REMARK SMILES IDX 5 1 3 2 2 3 1 4 22 5 20 6 19 7 17 8 16 9 15 10 14 11 6 12
REMARK SMILES IDX 7 13 8 14 9 15 13 16 11 17 10 18 12 20 4 22 21 24 18 26
REMARK H PARENT 10 19 12 21 4 23 21 25 18 27
REMARK Flexibility Score: inf
ROOT
ATOM      1  C   UNL     1       2.435 -11.753  25.828  1.00  0.00     0.180 A 
ATOM      2  C   UNL     1       3.268 -11.255  26.845  1.00  0.00     0.208 A 
ATOM      3  C   UNL     1       3.063 -11.685  28.165  1.00  0.00     0.238 A 
ATOM      4  O   UNL     1       3.846 -11.278  29.062  1.00  0.00    -0.285 OA
ATOM      5  C   UNL     1       2.019 -12.598  28.455  1.00  0.00     0.111 A 
ATOM      6  C   UNL     1       1.696 -13.070  29.762  1.00  0.00     0.134 A 
ATOM      7  C   UNL     1       0.729 -14.070  29.915  1.00  0.00     0.093 A 
ATOM      8  C   UNL     1       0.026 -14.567  28.818  1.00  0.00     0.123 A 
ATOM      9  C   UNL     1       0.291 -14.068  27.542  1.00  0.00     0.094 A 
ATOM     10  C   UNL     1       1.277 -13.097  27.353  1.00  0.00     0.146 A 
ATOM     11  O   UNL     1       1.507 -12.657  26.122  1.00  0.00    -0.452 OA
ENDROOT
BRANCH   1  12
ATOM     12  C   UNL     1       2.573 -11.326  24.416  1.00  0.00     0.025 A 
ATOM     13  C   UNL     1       1.706 -10.374  23.851  1.00  0.00     0.016 A 
ATOM     14  C   UNL     1       1.840 -10.006  22.511  1.00  0.00     0.051 A 
ATOM     15  C   UNL     1       2.831 -10.591  21.711  1.00  0.00     0.157 A 
ATOM     16  C   UNL     1       3.552 -11.926  23.605  1.00  0.00     0.062 A 
ATOM     17  C   UNL     1       3.686 -11.556  22.260  1.00  0.00     0.158 A 
BRANCH  15  18
ATOM     18  O   UNL     1       2.968 -10.225  20.374  1.00  0.00    -0.504 OA
ATOM     19  H   UNL     1       2.177 -10.225  19.742  1.00  0.00     0.293 HD
ENDBRANCH  15  18
BRANCH  17  20
ATOM     20  O   UNL     1       4.667 -12.142  21.462  1.00  0.00    -0.504 OA
ATOM     21  H   UNL     1       5.157 -12.980  21.753  1.00  0.00     0.293 HD
ENDBRANCH  17  20
ENDBRANCH   1  12
BRANCH   2  22
ATOM     22  O   UNL     1       4.306 -10.372  26.533  1.00  0.00    -0.502 OA
ATOM     23  H   UNL     1       4.524 -10.103  25.582  1.00  0.00     0.293 HD
ENDBRANCH   2  22
BRANCH   6  24
ATOM     24  O   UNL     1       2.274 -12.576  30.935  1.00  0.00    -0.507 OA
ATOM     25  H   UNL     1       3.180 -12.845  31.288  1.00  0.00     0.293 HD
ENDBRANCH   6  24
BRANCH   8  26
ATOM     26  O   UNL     1      -0.942 -15.550  29.008  1.00  0.00    -0.508 OA
ATOM     27  H   UNL     1      -0.792 -16.327  29.642  1.00  0.00     0.293 HD
ENDBRANCH   8  26
TORSDOF 6
ENDMDL
MODEL 5
REMARK VINA RESULT:    -7.639      2.133      6.487
REMARK INTER + INTRA:          -9.193
REMARK INTER:                  -8.984
REMARK INTRA:                  -0.209
REMARK UNBOUND:                 0.010
REMARK SMILES O=c1c(O)c(-c2ccc(O)c(O)c2)oc2cc(O)cc(O)c12
REMARK SMILES IDX 5 1 3 2 2 3 1 4 22 5 20 6 19 7 17 8 16 9 15 10 14 11 6 12
REMARK SMILES IDX 7 13 8 14 9 15 13 16 11 17 10 18 12 20 4 22 21 24 18 26
REMARK H PARENT 10 19 12 21 4 23 21 25 18 27
REMARK Flexibility Score: inf
ROOT
ATOM      1  C   UNL     1       2.015 -12.858  26.000  1.00  0.00     0.180 A 
ATOM      2  C   UNL     1       1.801 -11.589  25.437  1.00  0.00     0.208 A 
ATOM      3  C   UNL     1       2.419 -11.271  24.217  1.00  0.00     0.238 A 
ATOM      4  O   UNL     1       2.180 -10.153  23.692  1.00  0.00    -0.285 OA
ATOM      5  C   UNL     1       3.255 -12.222  23.583  1.00  0.00     0.111 A 
ATOM      6  C   UNL     1       3.963 -11.993  22.365  1.00  0.00     0.134 A 
ATOM      7  C   UNL     1       4.656 -13.049  21.761  1.00  0.00     0.093 A 
ATOM      8  C   UNL     1       4.722 -14.306  22.362  1.00  0.00     0.123 A 
ATOM      9  C   UNL     1       4.084 -14.524  23.584  1.00  0.00     0.094 A 
ATOM     10  C   UNL     1       3.353 -13.500  24.193  1.00  0.00     0.146 A 
ATOM     11  O   UNL     1       2.751 -13.751  25.349  1.00  0.00    -0.452 OA
ENDROOT
BRANCH   1  12
ATOM     12  C   UNL     1       1.417 -13.257  27.296  1.00  0.00     0.025 A 
ATOM     13  C   UNL     1       0.376 -14.200  27.363  1.00  0.00     0.016 A 
ATOM     14  C   UNL     1      -0.189 -14.541  28.594  1.00  0.00     0.051 A 
ATOM     15  C   UNL     1       0.267 -13.937  29.774  1.00  0.00     0.157 A 
ATOM     16  C   UNL     1       1.856 -12.638  28.479  1.00  0.00     0.062 A 
ATOM     17  C   UNL     1       1.289 -12.981  29.715  1.00  0.00     0.158 A 
BRANCH  15  18
ATOM     18  O   UNL     1      -0.294 -14.276  31.003  1.00  0.00    -0.504 OA
ATOM     19  H   UNL     1       0.282 -14.557  31.788  1.00  0.00     0.293 HD
ENDBRANCH  15  18
BRANCH  17  20
ATOM     20  O   UNL     1       1.736 -12.376  30.888  1.00  0.00    -0.504 OA
ATOM     21  H   UNL     1       1.274 -11.562  31.274  1.00  0.00     0.293 HD
ENDBRANCH  17  20
ENDBRANCH   1  12
BRANCH   2  22
ATOM     22  O   UNL     1       0.954 -10.673  26.069  1.00  0.00    -0.502 OA
ATOM     23  H   UNL     1       0.738  -9.768  25.671  1.00  0.00     0.293 HD
ENDBRANCH   2  22
BRANCH   6  24
ATOM     24  O   UNL     1       4.038 -10.752  21.728  1.00  0.00    -0.507 OA
ATOM     25  H   UNL     1       3.587  -9.910  22.053  1.00  0.00     0.293 HD
ENDBRANCH   6  24
BRANCH   8  26
ATOM     26  O   UNL     1       5.434 -15.329  21.742  1.00  0.00    -0.508 OA
ATOM     27  H   UNL     1       5.174 -16.302  21.857  1.00  0.00     0.293 HD
ENDBRANCH   8  26
TORSDOF 6
ENDMDL
MODEL 6
REMARK VINA RESULT:    -7.639      2.732      6.186
REMARK INTER + INTRA:          -9.193
REMARK INTER:                  -8.926
REMARK INTRA:                  -0.266
REMARK UNBOUND:                 0.010
REMARK SMILES O=c1c(O)c(-c2ccc(O)c(O)c2)oc2cc(O)cc(O)c12
REMARK SMILES IDX 5 1 3 2 2 3 1 4 22 5 20 6 19 7 17 8 16 9 15 10 14 11 6 12
REMARK SMILES IDX 7 13 8 14 9 15 13 16 11 17 10 18 12 20 4 22 21 24 18 26
REMARK H PARENT 10 19 12 21 4 23 21 25 18 27
REMARK Flexibility Score: inf
ROOT
ATOM      1  C   UNL     1       2.596 -11.444  26.686  1.00  0.00     0.180 A 
ATOM      2  C   UNL     1       1.618 -10.536  26.244  1.00  0.00     0.208 A 
ATOM      3  C   UNL     1       1.554 -10.215  24.878  1.00  0.00     0.238 A 
ATOM      4  O   UNL     1       0.642  -9.444  24.481  1.00  0.00    -0.285 OA
ATOM      5  C   UNL     1       2.476 -10.796  23.974  1.00  0.00     0.111 A 
ATOM      6  C   UNL     1       2.528 -10.512  22.577  1.00  0.00     0.134 A 
ATOM      7  C   UNL     1       3.397 -11.242  21.756  1.00  0.00     0.093 A 
ATOM      8  C   UNL     1       4.261 -12.197  22.290  1.00  0.00     0.123 A 
ATOM      9  C   UNL     1       4.262 -12.439  23.665  1.00  0.00     0.094 A 
ATOM     10  C   UNL     1       3.380 -11.753  24.504  1.00  0.00     0.146 A 
ATOM     11  O   UNL     1       3.404 -12.021  25.804  1.00  0.00    -0.452 OA
ENDROOT
BRANCH   1  12
ATOM     12  C   UNL     1       2.742 -11.811  28.113  1.00  0.00     0.025 A 
ATOM     13  C   UNL     1       1.840 -12.691  28.738  1.00  0.00     0.016 A 
ATOM     14  C   UNL     1       1.983 -13.003  30.092  1.00  0.00     0.051 A 
ATOM     15  C   UNL     1       3.018 -12.433  30.845  1.00  0.00     0.157 A 
ATOM     16  C   UNL     1       3.765 -11.225  28.877  1.00  0.00     0.062 A 
ATOM     17  C   UNL     1       3.909 -11.539  30.236  1.00  0.00     0.158 A 
BRANCH  15  18
ATOM     18  O   UNL     1       3.164 -12.743  32.196  1.00  0.00    -0.504 OA
ATOM     19  H   UNL     1       3.968 -12.429  32.727  1.00  0.00     0.293 HD
ENDBRANCH  15  18
BRANCH  17  20
ATOM     20  O   UNL     1       4.933 -10.967  30.988  1.00  0.00    -0.504 OA
ATOM     21  H   UNL     1       5.285 -10.039  30.785  1.00  0.00     0.293 HD
ENDBRANCH  17  20
ENDBRANCH   1  12
BRANCH   2  22
ATOM     22  O   UNL     1       0.703  -9.992  27.150  1.00  0.00    -0.502 OA
ATOM     23  H   UNL     1       0.413 -10.479  27.989  1.00  0.00     0.293 HD
ENDBRANCH   2  22
BRANCH   6  24
ATOM     24  O   UNL     1       1.773  -9.514  21.954  1.00  0.00    -0.507 OA
ATOM     25  H   UNL     1       2.160  -8.739  21.437  1.00  0.00     0.293 HD
ENDBRANCH   6  24
BRANCH   8  26
ATOM     26  O   UNL     1       5.124 -12.893  21.447  1.00  0.00    -0.508 OA
ATOM     27  H   UNL     1       5.603 -13.731  21.754  1.00  0.00     0.293 HD
ENDBRANCH   8  26
TORSDOF 6
ENDMDL
MODEL 7
REMARK VINA RESULT:    -7.603      5.236      8.629
REMARK INTER + INTRA:          -9.149
REMARK INTER:                  -9.389
REMARK INTRA:                   0.240
REMARK UNBOUND:                 0.010
REMARK SMILES O=c1c(O)c(-c2ccc(O)c(O)c2)oc2cc(O)cc(O)c12
REMARK SMILES IDX 5 1 3 2 2 3 1 4 22 5 20 6 19 7 17 8 16 9 15 10 14 11 6 12
REMARK SMILES IDX 7 13 8 14 9 15 13 16 11 17 10 18 12 20 4 22 21 24 18 26
REMARK H PARENT 10 19 12 21 4 23 21 25 18 27
REMARK Flexibility Score: inf
ROOT
ATOM      1  C   UNL     1      -0.158 -14.379  29.683  1.00  0.00     0.180 A 
ATOM      2  C   UNL     1       0.007 -14.202  28.299  1.00  0.00     0.208 A 
ATOM      3  C   UNL     1       1.057 -13.392  27.836  1.00  0.00     0.238 A 
ATOM      4  O   UNL     1       1.232 -13.281  26.595  1.00  0.00    -0.285 OA
ATOM      5  C   UNL     1       1.919 -12.758  28.763  1.00  0.00     0.111 A 
ATOM      6  C   UNL     1       2.990 -11.885  28.407  1.00  0.00     0.134 A 
ATOM      7  C   UNL     1       3.860 -11.418  29.400  1.00  0.00     0.093 A 
ATOM      8  C   UNL     1       3.659 -11.739  30.742  1.00  0.00     0.123 A 
ATOM      9  C   UNL     1       2.579 -12.543  31.109  1.00  0.00     0.094 A 
ATOM     10  C   UNL     1       1.716 -13.054  30.136  1.00  0.00     0.146 A 
ATOM     11  O   UNL     1       0.707 -13.824  30.525  1.00  0.00    -0.452 OA
ENDROOT
BRANCH   1  12
ATOM     12  C   UNL     1      -1.256 -15.197  30.247  1.00  0.00     0.025 A 
ATOM     13  C   UNL     1      -1.875 -14.853  31.462  1.00  0.00     0.016 A 
ATOM     14  C   UNL     1      -2.892 -15.654  31.988  1.00  0.00     0.051 A 
ATOM     15  C   UNL     1      -3.296 -16.816  31.316  1.00  0.00     0.157 A 
ATOM     16  C   UNL     1      -1.650 -16.374  29.589  1.00  0.00     0.062 A 
ATOM     17  C   UNL     1      -2.671 -17.178  30.116  1.00  0.00     0.158 A 
BRANCH  15  18
ATOM     18  O   UNL     1      -4.311 -17.616  31.836  1.00  0.00    -0.504 OA
ATOM     19  H   UNL     1      -4.457 -17.702  32.835  1.00  0.00     0.293 HD
ENDBRANCH  15  18
BRANCH  17  20
ATOM     20  O   UNL     1      -3.070 -18.337  29.453  1.00  0.00    -0.504 OA
ATOM     21  H   UNL     1      -4.020 -18.459  29.124  1.00  0.00     0.293 HD
ENDBRANCH  17  20
ENDBRANCH   1  12
BRANCH   2  22
ATOM     22  O   UNL     1      -0.842 -14.854  27.400  1.00  0.00    -0.502 OA
ATOM     23  H   UNL     1      -1.591 -15.464  27.705  1.00  0.00     0.293 HD
ENDBRANCH   2  22
BRANCH   6  24
ATOM     24  O   UNL     1       3.226 -11.429  27.107  1.00  0.00    -0.507 OA
ATOM     25  H   UNL     1       3.355 -12.024  26.303  1.00  0.00     0.293 HD
ENDBRANCH   6  24
BRANCH   8  26
ATOM     26  O   UNL     1       4.534 -11.244  31.707  1.00  0.00    -0.508 OA
ATOM     27  H   UNL     1       5.283 -11.812  32.084  1.00  0.00     0.293 HD
ENDBRANCH   8  26
TORSDOF 6
ENDMDL
MODEL 8
REMARK VINA RESULT:    -7.530      3.656      5.191
REMARK INTER + INTRA:          -9.060
REMARK INTER:                  -9.137
REMARK INTRA:                   0.077
REMARK UNBOUND:                 0.010
REMARK SMILES O=c1c(O)c(-c2ccc(O)c(O)c2)oc2cc(O)cc(O)c12
REMARK SMILES IDX 5 1 3 2 2 3 1 4 22 5 20 6 19 7 17 8 16 9 15 10 14 11 6 12
REMARK SMILES IDX 7 13 8 14 9 15 13 16 11 17 10 18 12 20 4 22 21 24 18 26
REMARK H PARENT 10 19 12 21 4 23 21 25 18 27
REMARK Flexibility Score: inf
ROOT
ATOM      1  C   UNL     1       2.451 -13.318  22.337  1.00  0.00     0.180 A 
ATOM      2  C   UNL     1       3.780 -13.388  22.789  1.00  0.00     0.208 A 
ATOM      3  C   UNL     1       4.237 -12.433  23.711  1.00  0.00     0.238 A 
ATOM      4  O   UNL     1       5.411 -12.533  24.153  1.00  0.00    -0.285 OA
ATOM      5  C   UNL     1       3.364 -11.411  24.159  1.00  0.00     0.111 A 
ATOM      6  C   UNL     1       3.733 -10.369  25.061  1.00  0.00     0.134 A 
ATOM      7  C   UNL     1       2.753  -9.489  25.536  1.00  0.00     0.093 A 
ATOM      8  C   UNL     1       1.433  -9.572  25.093  1.00  0.00     0.123 A 
ATOM      9  C   UNL     1       1.075 -10.550  24.164  1.00  0.00     0.094 A 
ATOM     10  C   UNL     1       2.022 -11.466  23.700  1.00  0.00     0.146 A 
ATOM     11  O   UNL     1       1.639 -12.387  22.825  1.00  0.00    -0.452 OA
ENDROOT
BRANCH   1  12
ATOM     12  C   UNL     1       1.905 -14.274  21.346  1.00  0.00     0.025 A 
ATOM     13  C   UNL     1       2.129 -15.657  21.463  1.00  0.00     0.016 A 
ATOM     14  C   UNL     1       1.625 -16.537  20.503  1.00  0.00     0.051 A 
ATOM     15  C   UNL     1       0.902 -16.050  19.406  1.00  0.00     0.157 A 
ATOM     16  C   UNL     1       1.198 -13.788  20.233  1.00  0.00     0.062 A 
ATOM     17  C   UNL     1       0.691 -14.672  19.270  1.00  0.00     0.158 A 
BRANCH  15  18
ATOM     18  O   UNL     1       0.397 -16.925  18.447  1.00  0.00    -0.504 OA
ATOM     19  H   UNL     1      -0.162 -17.730  18.707  1.00  0.00     0.293 HD
ENDBRANCH  15  18
BRANCH  17  20
ATOM     20  O   UNL     1      -0.022 -14.188  18.174  1.00  0.00    -0.504 OA
ATOM     21  H   UNL     1       0.429 -14.008  17.286  1.00  0.00     0.293 HD
ENDBRANCH  17  20
ENDBRANCH   1  12
BRANCH   2  22
ATOM     22  O   UNL     1       4.618 -14.417  22.352  1.00  0.00    -0.502 OA
ATOM     23  H   UNL     1       5.574 -14.515  22.673  1.00  0.00     0.293 HD
ENDBRANCH   2  22
BRANCH   6  24
ATOM     24  O   UNL     1       5.041 -10.140  25.497  1.00  0.00    -0.507 OA
ATOM     25  H   UNL     1       5.410  -9.238  25.758  1.00  0.00     0.293 HD
ENDBRANCH   6  24
BRANCH   8  26
ATOM     26  O   UNL     1       0.487  -8.670  25.574  1.00  0.00    -0.508 OA
ATOM     27  H   UNL     1      -0.315  -8.397  25.019  1.00  0.00     0.293 HD
ENDBRANCH   8  26
TORSDOF 6
ENDMDL
MODEL 9
REMARK VINA RESULT:    -7.420      3.291      6.260
REMARK INTER + INTRA:          -8.929
REMARK INTER:                  -8.595
REMARK INTRA:                  -0.334
REMARK UNBOUND:                 0.010
REMARK SMILES O=c1c(O)c(-c2ccc(O)c(O)c2)oc2cc(O)cc(O)c12
REMARK SMILES IDX 5 1 3 2 2 3 1 4 22 5 20 6 19 7 17 8 16 9 15 10 14 11 6 12
REMARK SMILES IDX 7 13 8 14 9 15 13 16 11 17 10 18 12 20 4 22 21 24 18 26
REMARK H PARENT 10 19 12 21 4 23 21 25 18 27
REMARK Flexibility Score: inf
ROOT
ATOM      1  C   UNL     1       2.080 -11.961  25.942  1.00  0.00     0.180 A 
ATOM      2  C   UNL     1       1.484 -10.839  25.342  1.00  0.00     0.208 A 
ATOM      3  C   UNL     1       1.312 -10.823  23.948  1.00  0.00     0.238 A 
ATOM      4  O   UNL     1       0.729  -9.839  23.423  1.00  0.00    -0.285 OA
ATOM      5  C   UNL     1       1.750 -11.923  23.172  1.00  0.00     0.111 A 
ATOM      6  C   UNL     1       1.662 -11.996  21.749  1.00  0.00     0.134 A 
ATOM      7  C   UNL     1       2.006 -13.187  21.097  1.00  0.00     0.093 A 
ATOM      8  C   UNL     1       2.497 -14.281  21.807  1.00  0.00     0.123 A 
ATOM      9  C   UNL     1       2.645 -14.199  23.192  1.00  0.00     0.094 A 
ATOM     10  C   UNL     1       2.275 -13.038  23.875  1.00  0.00     0.146 A 
ATOM     11  O   UNL     1       2.420 -13.004  25.194  1.00  0.00    -0.452 OA
ENDROOT
BRANCH   1  12
ATOM     12  C   UNL     1       2.317 -12.040  27.402  1.00  0.00     0.025 A 
ATOM     13  C   UNL     1       3.498 -11.540  27.980  1.00  0.00     0.016 A 
ATOM     14  C   UNL     1       3.711 -11.648  29.356  1.00  0.00     0.051 A 
ATOM     15  C   UNL     1       2.757 -12.268  30.173  1.00  0.00     0.157 A 
ATOM     16  C   UNL     1       1.373 -12.680  28.223  1.00  0.00     0.062 A 
ATOM     17  C   UNL     1       1.587 -12.789  29.605  1.00  0.00     0.158 A 
BRANCH  15  18
ATOM     18  O   UNL     1       2.966 -12.377  31.547  1.00  0.00    -0.504 OA
ATOM     19  H   UNL     1       3.847 -12.111  31.970  1.00  0.00     0.293 HD
ENDBRANCH  15  18
BRANCH  17  20
ATOM     20  O   UNL     1       0.642 -13.411  30.418  1.00  0.00    -0.504 OA
ATOM     21  H   UNL     1       0.064 -14.168  30.074  1.00  0.00     0.293 HD
ENDBRANCH  17  20
ENDBRANCH   1  12
BRANCH   2  22
ATOM     22  O   UNL     1       1.038  -9.773  26.129  1.00  0.00    -0.502 OA
ATOM     23  H   UNL     1       0.732  -9.895  27.087  1.00  0.00     0.293 HD
ENDBRANCH   2  22
BRANCH   6  24
ATOM     24  O   UNL     1       1.270 -10.930  20.936  1.00  0.00    -0.507 OA
ATOM     25  H   UNL     1       0.746 -10.128  21.251  1.00  0.00     0.293 HD
ENDBRANCH   6  24
BRANCH   8  26
ATOM     26  O   UNL     1       2.846 -15.444  21.124  1.00  0.00    -0.508 OA
ATOM     27  H   UNL     1       3.155 -16.275  21.615  1.00  0.00     0.293 HD
ENDBRANCH   8  26
TORSDOF 6
ENDMDL
