MODEL 1
REMARK VINA RESULT:    -2.484      0.000      0.000
REMARK INTER + INTRA:          -7.567
REMARK INTER:                  -6.261
REMARK INTRA:                  -1.306
REMARK UNBOUND:                -1.306
REMARK SMILES CCCCCCCCCCCCCCCCCCCCCCCCCCCC(=O)[O-]
REMARK SMILES IDX 15 1 16 2 17 3 18 4 19 5 20 6 21 7 22 8 23 9 24 10 25 11
REMARK SMILES IDX 26 12 27 13 28 14 29 15 30 16 14 17 13 18 12 19 11 20 10 21
REMARK SMILES IDX 9 22 8 23 7 24 6 25 5 26 4 27 3 28 2 29 1 30
REMARK H PARENT
REMARK Flexibility Score: inf
ROOT
ATOM      1  C   UNL     1     108.987 106.501 110.748  1.00  0.00     0.000 C 
ENDROOT
BRANCH   1   2
ATOM      2  C   UNL     1     108.857 104.970 110.751  1.00  0.00     0.000 C 
BRANCH   2   3
ATOM      3  C   UNL     1     110.215 104.256 110.872  1.00  0.00     0.000 C 
BRANCH   3   4
ATOM      4  C   UNL     1     110.051 102.741 111.091  1.00  0.00     0.000 C 
BRANCH   4   5
ATOM      5  C   UNL     1     111.395 101.984 111.092  1.00  0.00     0.000 C 
BRANCH   5   6
ATOM      6  C   UNL     1     112.286 102.341 112.294  1.00  0.00     0.000 C 
BRANCH   6   7
ATOM      7  C   UNL     1     113.767 102.017 112.024  1.00  0.00     0.000 C 
BRANCH   7   8
ATOM      8  C   UNL     1     114.442 103.067 111.126  1.00  0.00     0.000 C 
BRANCH   8   9
ATOM      9  C   UNL     1     114.343 104.508 111.684  1.00  0.00     0.000 C 
BRANCH   9  10
ATOM     10  C   UNL     1     114.717 104.625 113.172  1.00  0.00     0.000 C 
BRANCH  10  11
ATOM     11  C   UNL     1     116.206 104.935 113.393  1.00  0.00     0.000 C 
BRANCH  11  12
ATOM     12  C   UNL     1     117.129 104.218 112.393  1.00  0.00     0.006 C 
BRANCH  12  13
ATOM     13  C   UNL     1     118.579 104.061 112.885  1.00  0.00     0.053 C 
BRANCH  13  14
ATOM     14  C   UNL     1     119.164 105.358 113.361  1.00  0.00     0.041 C 
ATOM     15  O   UNL     1     119.813 105.405 114.440  1.00  0.00    -0.550 OA
ATOM     16  O   UNL     1     119.022 106.509 112.593  1.00  0.00    -0.550 OA
ENDBRANCH  13  14
ENDBRANCH  12  13
ENDBRANCH  11  12
ENDBRANCH  10  11
ENDBRANCH   9  10
ENDBRANCH   8   9
ENDBRANCH   7   8
ENDBRANCH   6   7
ENDBRANCH   5   6
ENDBRANCH   4   5
ENDBRANCH   3   4
ENDBRANCH   2   3
ENDBRANCH   1   2
BRANCH   1  17
ATOM     17  C   UNL     1     107.930 107.191 111.631  1.00  0.00     0.000 C 
BRANCH  17  18
ATOM     18  C   UNL     1     107.744 106.488 112.992  1.00  0.00     0.000 C 
BRANCH  18  19
ATOM     19  C   UNL     1     106.353 105.852 113.188  1.00  0.00     0.000 C 
BRANCH  19  20
ATOM     20  C   UNL     1     105.269 106.788 113.749  1.00  0.00     0.000 C 
BRANCH  20  21
ATOM     21  C   UNL     1     103.830 106.235 113.708  1.00  0.00     0.000 C 
BRANCH  21  22
ATOM     22  C   UNL     1     102.935 106.881 112.630  1.00  0.00    -0.000 C 
BRANCH  22  23
ATOM     23  C   UNL     1     101.601 106.136 112.439  1.00  0.00    -0.000 C 
BRANCH  23  24
ATOM     24  C   UNL     1     100.625 106.907 111.531  1.00  0.00    -0.000 C 
BRANCH  24  25
ATOM     25  C   UNL     1     100.207 106.133 110.265  1.00  0.00    -0.000 C 
BRANCH  25  26
ATOM     26  C   UNL     1     100.367 106.971 108.983  1.00  0.00    -0.000 C 
BRANCH  26  27
ATOM     27  C   UNL     1     101.471 108.041 109.119  1.00  0.00    -0.000 C 
BRANCH  27  28
ATOM     28  C   UNL     1     101.408 109.132 108.036  1.00  0.00    -0.000 C 
BRANCH  28  29
ATOM     29  C   UNL     1     102.751 109.346 107.322  1.00  0.00    -0.003 C 
ATOM     30  C   UNL     1     103.543 108.046 107.234  1.00  0.00     0.004 C 
ENDBRANCH  28  29
ENDBRANCH  27  28
ENDBRANCH  26  27
ENDBRANCH  25  26
ENDBRANCH  24  25
ENDBRANCH  23  24
ENDBRANCH  22  23
ENDBRANCH  21  22
ENDBRANCH  20  21
ENDBRANCH  19  20
ENDBRANCH  18  19
ENDBRANCH  17  18
ENDBRANCH   1  17
TORSDOF 26
ENDMDL
MODEL 2
REMARK VINA RESULT:    -1.790      4.494     13.370
REMARK INTER + INTRA:          -5.816
REMARK INTER:                  -4.106
REMARK INTRA:                  -1.710
REMARK UNBOUND:                -1.306
REMARK SMILES CCCCCCCCCCCCCCCCCCCCCCCCCCCC(=O)[O-]
REMARK SMILES IDX 15 1 16 2 17 3 18 4 19 5 20 6 21 7 22 8 23 9 24 10 25 11
REMARK SMILES IDX 26 12 27 13 28 14 29 15 30 16 14 17 13 18 12 19 11 20 10 21
REMARK SMILES IDX 9 22 8 23 7 24 6 25 5 26 4 27 3 28 2 29 1 30
REMARK H PARENT
REMARK Flexibility Score: inf
ROOT
ATOM      1  C   UNL     1     108.591 105.065 110.834  1.00  0.00     0.000 C 
ENDROOT
BRANCH   1   2
ATOM      2  C   UNL     1     108.575 106.564 111.169  1.00  0.00     0.000 C 
BRANCH   2   3
ATOM      3  C   UNL     1     108.124 106.849 112.612  1.00  0.00     0.000 C 
BRANCH   3   4
ATOM      4  C   UNL     1     106.811 106.124 112.959  1.00  0.00     0.000 C 
BRANCH   4   5
ATOM      5  C   UNL     1     105.585 107.060 112.940  1.00  0.00     0.000 C 
BRANCH   5   6
ATOM      6  C   UNL     1     104.662 106.867 114.156  1.00  0.00     0.000 C 
BRANCH   6   7
ATOM      7  C   UNL     1     103.394 106.073 113.791  1.00  0.00     0.000 C 
BRANCH   7   8
ATOM      8  C   UNL     1     102.736 106.582 112.498  1.00  0.00     0.000 C 
BRANCH   8   9
ATOM      9  C   UNL     1     101.250 106.171 112.361  1.00  0.00     0.000 C 
BRANCH   9  10
ATOM     10  C   UNL     1     100.598 106.627 111.043  1.00  0.00     0.000 C 
BRANCH  10  11
ATOM     11  C   UNL     1     101.330 107.811 110.391  1.00  0.00     0.000 C 
BRANCH  11  12
ATOM     12  C   UNL     1     101.308 107.766 108.854  1.00  0.00     0.006 C 
BRANCH  12  13
ATOM     13  C   UNL     1     101.652 109.109 108.186  1.00  0.00     0.053 C 
BRANCH  13  14
ATOM     14  C   UNL     1     102.773 108.985 107.197  1.00  0.00     0.041 C 
ATOM     15  O   UNL     1     103.663 108.106 107.353  1.00  0.00    -0.550 OA
ATOM     16  O   UNL     1     102.815 109.817 106.084  1.00  0.00    -0.550 OA
ENDBRANCH  13  14
ENDBRANCH  12  13
ENDBRANCH  11  12
ENDBRANCH  10  11
ENDBRANCH   9  10
ENDBRANCH   8   9
ENDBRANCH   7   8
ENDBRANCH   6   7
ENDBRANCH   5   6
ENDBRANCH   4   5
ENDBRANCH   3   4
ENDBRANCH   2   3
ENDBRANCH   1   2
BRANCH   1  17
ATOM     17  C   UNL     1     109.941 104.397 111.154  1.00  0.00     0.000 C 
BRANCH  17  18
ATOM     18  C   UNL     1     110.107 103.031 110.454  1.00  0.00     0.000 C 
BRANCH  18  19
ATOM     19  C   UNL     1     111.015 102.041 111.212  1.00  0.00     0.000 C 
BRANCH  19  20
ATOM     20  C   UNL     1     111.730 102.612 112.449  1.00  0.00     0.000 C 
BRANCH  20  21
ATOM     21  C   UNL     1     113.251 102.361 112.509  1.00  0.00     0.000 C 
BRANCH  21  22
ATOM     22  C   UNL     1     114.013 102.787 111.237  1.00  0.00    -0.000 C 
BRANCH  22  23
ATOM     23  C   UNL     1     115.104 103.837 111.520  1.00  0.00    -0.000 C 
BRANCH  23  24
ATOM     24  C   UNL     1     114.636 104.911 112.520  1.00  0.00    -0.000 C 
BRANCH  24  25
ATOM     25  C   UNL     1     115.744 105.402 113.472  1.00  0.00    -0.000 C 
BRANCH  25  26
ATOM     26  C   UNL     1     117.007 104.524 113.407  1.00  0.00    -0.000 C 
BRANCH  26  27
ATOM     27  C   UNL     1     118.214 105.281 112.812  1.00  0.00    -0.000 C 
BRANCH  27  28
ATOM     28  C   UNL     1     119.420 105.364 113.765  1.00  0.00    -0.000 C 
BRANCH  28  29
ATOM     29  C   UNL     1     119.456 104.219 114.787  1.00  0.00    -0.003 C 
ATOM     30  C   UNL     1     119.556 104.753 116.212  1.00  0.00     0.004 C 
ENDBRANCH  28  29
ENDBRANCH  27  28
ENDBRANCH  26  27
ENDBRANCH  25  26
ENDBRANCH  24  25
ENDBRANCH  23  24
ENDBRANCH  22  23
ENDBRANCH  21  22
ENDBRANCH  20  21
ENDBRANCH  19  20
ENDBRANCH  18  19
ENDBRANCH  17  18
ENDBRANCH   1  17
TORSDOF 26
ENDMDL
MODEL 3
REMARK VINA RESULT:    -1.731      1.425      3.409
REMARK INTER + INTRA:          -5.669
REMARK INTER:                  -4.471
REMARK INTRA:                  -1.197
REMARK UNBOUND:                -1.306
REMARK SMILES CCCCCCCCCCCCCCCCCCCCCCCCCCCC(=O)[O-]
REMARK SMILES IDX 15 1 16 2 17 3 18 4 19 5 20 6 21 7 22 8 23 9 24 10 25 11
REMARK SMILES IDX 26 12 27 13 28 14 29 15 30 16 14 17 13 18 12 19 11 20 10 21
REMARK SMILES IDX 9 22 8 23 7 24 6 25 5 26 4 27 3 28 2 29 1 30
REMARK H PARENT
REMARK Flexibility Score: inf
ROOT
ATOM      1  C   UNL     1     106.130 105.993 113.381  1.00  0.00     0.000 C 
ENDROOT
BRANCH   1   2
ATOM      2  C   UNL     1     107.134 106.908 112.662  1.00  0.00     0.000 C 
BRANCH   2   3
ATOM      3  C   UNL     1     108.457 106.198 112.330  1.00  0.00     0.000 C 
BRANCH   3   4
ATOM      4  C   UNL     1     108.661 106.041 110.812  1.00  0.00     0.000 C 
BRANCH   4   5
ATOM      5  C   UNL     1     109.011 104.597 110.397  1.00  0.00     0.000 C 
BRANCH   5   6
ATOM      6  C   UNL     1     109.962 103.901 111.386  1.00  0.00     0.000 C 
BRANCH   6   7
ATOM      7  C   UNL     1     111.008 103.036 110.659  1.00  0.00     0.000 C 
BRANCH   7   8
ATOM      8  C   UNL     1     111.533 101.889 111.538  1.00  0.00     0.000 C 
BRANCH   8   9
ATOM      9  C   UNL     1     112.811 102.257 112.330  1.00  0.00     0.000 C 
BRANCH   9  10
ATOM     10  C   UNL     1     113.928 102.862 111.461  1.00  0.00     0.000 C 
BRANCH  10  11
ATOM     11  C   UNL     1     114.537 104.135 112.071  1.00  0.00     0.000 C 
BRANCH  11  12
ATOM     12  C   UNL     1     116.073 104.101 112.139  1.00  0.00     0.006 C 
BRANCH  12  13
ATOM     13  C   UNL     1     116.659 104.847 113.351  1.00  0.00     0.053 C 
BRANCH  13  14
ATOM     14  C   UNL     1     118.159 104.875 113.333  1.00  0.00     0.041 C 
ATOM     15  O   UNL     1     118.820 103.971 113.911  1.00  0.00    -0.550 OA
ATOM     16  O   UNL     1     118.828 105.882 112.644  1.00  0.00    -0.550 OA
ENDBRANCH  13  14
ENDBRANCH  12  13
ENDBRANCH  11  12
ENDBRANCH  10  11
ENDBRANCH   9  10
ENDBRANCH   8   9
ENDBRANCH   7   8
ENDBRANCH   6   7
ENDBRANCH   5   6
ENDBRANCH   4   5
ENDBRANCH   3   4
ENDBRANCH   2   3
ENDBRANCH   1   2
BRANCH   1  17
ATOM     17  C   UNL     1     104.993 106.776 114.064  1.00  0.00     0.000 C 
BRANCH  17  18
ATOM     18  C   UNL     1     103.608 106.134 113.831  1.00  0.00     0.000 C 
BRANCH  18  19
ATOM     19  C   UNL     1     102.834 106.725 112.635  1.00  0.00     0.000 C 
BRANCH  19  20
ATOM     20  C   UNL     1     101.399 106.203 112.451  1.00  0.00     0.000 C 
BRANCH  20  21
ATOM     21  C   UNL     1     100.537 106.977 111.433  1.00  0.00     0.000 C 
BRANCH  21  22
ATOM     22  C   UNL     1     100.311 106.231 110.101  1.00  0.00    -0.000 C 
BRANCH  22  23
ATOM     23  C   UNL     1     100.320 107.174 108.882  1.00  0.00    -0.000 C 
BRANCH  23  24
ATOM     24  C   UNL     1     101.638 107.962 108.763  1.00  0.00    -0.000 C 
BRANCH  24  25
ATOM     25  C   UNL     1     101.525 109.237 107.905  1.00  0.00    -0.000 C 
BRANCH  25  26
ATOM     26  C   UNL     1     102.802 109.513 107.090  1.00  0.00    -0.000 C 
BRANCH  26  27
ATOM     27  C   UNL     1     102.489 110.107 105.700  1.00  0.00    -0.000 C 
BRANCH  27  28
ATOM     28  C   UNL     1     103.306 109.473 104.560  1.00  0.00    -0.000 C 
BRANCH  28  29
ATOM     29  C   UNL     1     102.537 109.413 103.233  1.00  0.00    -0.003 C 
ATOM     30  C   UNL     1     101.550 110.569 103.113  1.00  0.00     0.004 C 
ENDBRANCH  28  29
ENDBRANCH  27  28
ENDBRANCH  26  27
ENDBRANCH  25  26
ENDBRANCH  24  25
ENDBRANCH  23  24
ENDBRANCH  22  23
ENDBRANCH  21  22
ENDBRANCH  20  21
ENDBRANCH  19  20
ENDBRANCH  18  19
ENDBRANCH  17  18
ENDBRANCH   1  17
TORSDOF 26
ENDMDL
MODEL 4
REMARK VINA RESULT:    -1.510      5.217     13.402
REMARK INTER + INTRA:          -5.110
REMARK INTER:                  -3.997
REMARK INTRA:                  -1.113
REMARK UNBOUND:                -1.306
REMARK SMILES CCCCCCCCCCCCCCCCCCCCCCCCCCCC(=O)[O-]
REMARK SMILES IDX 15 1 16 2 17 3 18 4 19 5 20 6 21 7 22 8 23 9 24 10 25 11
REMARK SMILES IDX 26 12 27 13 28 14 29 15 30 16 14 17 13 18 12 19 11 20 10 21
REMARK SMILES IDX 9 22 8 23 7 24 6 25 5 26 4 27 3 28 2 29 1 30
REMARK H PARENT
REMARK Flexibility Score: inf
ROOT
ATOM      1  C   UNL     1     106.359 107.089 112.571  1.00  0.00     0.000 C 
ENDROOT
BRANCH   1   2
ATOM      2  C   UNL     1     105.499 106.741 113.796  1.00  0.00     0.000 C 
BRANCH   2   3
ATOM      3  C   UNL     1     104.471 105.633 113.508  1.00  0.00     0.000 C 
BRANCH   3   4
ATOM      4  C   UNL     1     103.024 106.152 113.600  1.00  0.00     0.000 C 
BRANCH   4   5
ATOM      5  C   UNL     1     102.476 106.646 112.245  1.00  0.00     0.000 C 
BRANCH   5   6
ATOM      6  C   UNL     1     100.979 106.345 112.055  1.00  0.00     0.000 C 
BRANCH   6   7
ATOM      7  C   UNL     1     100.517 106.635 110.616  1.00  0.00     0.000 C 
BRANCH   7   8
ATOM      8  C   UNL     1     100.968 108.021 110.123  1.00  0.00     0.000 C 
BRANCH   8   9
ATOM      9  C   UNL     1     101.659 107.986 108.738  1.00  0.00     0.000 C 
BRANCH   9  10
ATOM     10  C   UNL     1     101.685 109.349 108.022  1.00  0.00     0.000 C 
BRANCH  10  11
ATOM     11  C   UNL     1     102.853 109.482 107.031  1.00  0.00     0.000 C 
BRANCH  11  12
ATOM     12  C   UNL     1     102.406 109.887 105.617  1.00  0.00     0.006 C 
BRANCH  12  13
ATOM     13  C   UNL     1     103.414 109.517 104.514  1.00  0.00     0.053 C 
BRANCH  13  14
ATOM     14  C   UNL     1     102.798 109.542 103.147  1.00  0.00     0.041 C 
ATOM     15  O   UNL     1     103.271 108.827 102.223  1.00  0.00    -0.550 OA
ATOM     16  O   UNL     1     101.678 110.330 102.902  1.00  0.00    -0.550 OA
ENDBRANCH  13  14
ENDBRANCH  12  13
ENDBRANCH  11  12
ENDBRANCH  10  11
ENDBRANCH   9  10
ENDBRANCH   8   9
ENDBRANCH   7   8
ENDBRANCH   6   7
ENDBRANCH   5   6
ENDBRANCH   4   5
ENDBRANCH   3   4
ENDBRANCH   2   3
ENDBRANCH   1   2
BRANCH   1  17
ATOM     17  C   UNL     1     107.770 106.477 112.639  1.00  0.00     0.000 C 
BRANCH  17  18
ATOM     18  C   UNL     1     108.502 106.520 111.281  1.00  0.00     0.000 C 
BRANCH  18  19
ATOM     19  C   UNL     1     108.848 105.131 110.708  1.00  0.00     0.000 C 
BRANCH  19  20
ATOM     20  C   UNL     1     109.737 104.248 111.600  1.00  0.00     0.000 C 
BRANCH  20  21
ATOM     21  C   UNL     1     110.542 103.158 110.863  1.00  0.00     0.000 C 
BRANCH  21  22
ATOM     22  C   UNL     1     111.341 102.222 111.794  1.00  0.00    -0.000 C 
BRANCH  22  23
ATOM     23  C   UNL     1     112.818 102.088 111.380  1.00  0.00    -0.000 C 
BRANCH  23  24
ATOM     24  C   UNL     1     113.530 103.452 111.306  1.00  0.00    -0.000 C 
BRANCH  24  25
ATOM     25  C   UNL     1     114.819 103.528 112.148  1.00  0.00    -0.000 C 
BRANCH  25  26
ATOM     26  C   UNL     1     114.710 104.545 113.299  1.00  0.00    -0.000 C 
BRANCH  26  27
ATOM     27  C   UNL     1     116.077 105.165 113.661  1.00  0.00    -0.000 C 
BRANCH  27  28
ATOM     28  C   UNL     1     117.239 104.642 112.797  1.00  0.00    -0.000 C 
BRANCH  28  29
ATOM     29  C   UNL     1     118.612 105.132 113.279  1.00  0.00    -0.003 C 
ATOM     30  C   UNL     1     119.144 106.249 112.388  1.00  0.00     0.004 C 
ENDBRANCH  28  29
ENDBRANCH  27  28
ENDBRANCH  26  27
ENDBRANCH  25  26
ENDBRANCH  24  25
ENDBRANCH  23  24
ENDBRANCH  22  23
ENDBRANCH  21  22
ENDBRANCH  20  21
ENDBRANCH  19  20
ENDBRANCH  18  19
ENDBRANCH  17  18
ENDBRANCH   1  17
TORSDOF 26
ENDMDL
MODEL 5
REMARK VINA RESULT:    -1.435      4.109      6.647
REMARK INTER + INTRA:          -4.922
REMARK INTER:                  -2.658
REMARK INTRA:                  -2.264
REMARK UNBOUND:                -1.306
REMARK SMILES CCCCCCCCCCCCCCCCCCCCCCCCCCCC(=O)[O-]
REMARK SMILES IDX 15 1 16 2 17 3 18 4 19 5 20 6 21 7 22 8 23 9 24 10 25 11
REMARK SMILES IDX 26 12 27 13 28 14 29 15 30 16 14 17 13 18 12 19 11 20 10 21
REMARK SMILES IDX 9 22 8 23 7 24 6 25 5 26 4 27 3 28 2 29 1 30
REMARK H PARENT
REMARK Flexibility Score: inf
ROOT
ATOM      1  C   UNL     1     110.499 102.792 110.449  1.00  0.00     0.000 C 
ENDROOT
BRANCH   1   2
ATOM      2  C   UNL     1     111.026 101.755 111.453  1.00  0.00     0.000 C 
BRANCH   2   3
ATOM      3  C   UNL     1     111.847 102.387 112.590  1.00  0.00     0.000 C 
BRANCH   3   4
ATOM      4  C   UNL     1     113.328 101.972 112.530  1.00  0.00     0.000 C 
BRANCH   4   5
ATOM      5  C   UNL     1     113.985 102.283 111.170  1.00  0.00     0.000 C 
BRANCH   5   6
ATOM      6  C   UNL     1     114.422 103.752 111.033  1.00  0.00     0.000 C 
BRANCH   6   7
ATOM      7  C   UNL     1     114.100 104.563 112.301  1.00  0.00     0.000 C 
BRANCH   7   8
ATOM      8  C   UNL     1     115.156 104.371 113.403  1.00  0.00     0.000 C 
BRANCH   8   9
ATOM      9  C   UNL     1     115.837 105.692 113.839  1.00  0.00     0.000 C 
BRANCH   9  10
ATOM     10  C   UNL     1     117.152 105.988 113.095  1.00  0.00     0.000 C 
BRANCH  10  11
ATOM     11  C   UNL     1     117.714 104.760 112.360  1.00  0.00     0.000 C 
BRANCH  11  12
ATOM     12  C   UNL     1     118.896 104.103 113.093  1.00  0.00     0.006 C 
BRANCH  12  13
ATOM     13  C   UNL     1     119.479 104.960 114.230  1.00  0.00     0.053 C 
BRANCH  13  14
ATOM     14  C   UNL     1     119.432 104.258 115.555  1.00  0.00     0.041 C 
ATOM     15  O   UNL     1     119.628 104.900 116.622  1.00  0.00    -0.550 OA
ATOM     16  O   UNL     1     119.138 102.900 115.613  1.00  0.00    -0.550 OA
ENDBRANCH  13  14
ENDBRANCH  12  13
ENDBRANCH  11  12
ENDBRANCH  10  11
ENDBRANCH   9  10
ENDBRANCH   8   9
ENDBRANCH   7   8
ENDBRANCH   6   7
ENDBRANCH   5   6
ENDBRANCH   4   5
ENDBRANCH   3   4
ENDBRANCH   2   3
ENDBRANCH   1   2
BRANCH   1  17
ATOM     17  C   UNL     1     110.306 104.185 111.076  1.00  0.00     0.000 C 
BRANCH  17  18
ATOM     18  C   UNL     1     108.870 104.722 110.897  1.00  0.00     0.000 C 
BRANCH  18  19
ATOM     19  C   UNL     1     108.222 105.233 112.200  1.00  0.00     0.000 C 
BRANCH  19  20
ATOM     20  C   UNL     1     107.924 106.741 112.245  1.00  0.00     0.000 C 
BRANCH  20  21
ATOM     21  C   UNL     1     108.266 107.523 110.960  1.00  0.00     0.000 C 
BRANCH  21  22
ATOM     22  C   UNL     1     109.629 108.245 111.004  1.00  0.00    -0.000 C 
BRANCH  22  23
ATOM     23  C   UNL     1     110.548 107.853 109.832  1.00  0.00    -0.000 C 
BRANCH  23  24
ATOM     24  C   UNL     1     111.953 107.436 110.306  1.00  0.00    -0.000 C 
BRANCH  24  25
ATOM     25  C   UNL     1     112.999 107.375 109.175  1.00  0.00    -0.000 C 
BRANCH  25  26
ATOM     26  C   UNL     1     112.652 108.306 108.000  1.00  0.00    -0.000 C 
BRANCH  26  27
ATOM     27  C   UNL     1     113.363 107.890 106.695  1.00  0.00    -0.000 C 
BRANCH  27  28
ATOM     28  C   UNL     1     112.397 107.587 105.536  1.00  0.00    -0.000 C 
BRANCH  28  29
ATOM     29  C   UNL     1     113.041 106.748 104.423  1.00  0.00    -0.003 C 
ATOM     30  C   UNL     1     114.394 107.319 104.014  1.00  0.00     0.004 C 
ENDBRANCH  28  29
ENDBRANCH  27  28
ENDBRANCH  26  27
ENDBRANCH  25  26
ENDBRANCH  24  25
ENDBRANCH  23  24
ENDBRANCH  22  23
ENDBRANCH  21  22
ENDBRANCH  20  21
ENDBRANCH  19  20
ENDBRANCH  18  19
ENDBRANCH  17  18
ENDBRANCH   1  17
TORSDOF 26
ENDMDL
MODEL 6
REMARK VINA RESULT:    -1.362      1.660      3.391
REMARK INTER + INTRA:          -4.738
REMARK INTER:                  -2.956
REMARK INTRA:                  -1.781
REMARK UNBOUND:                -1.306
REMARK SMILES CCCCCCCCCCCCCCCCCCCCCCCCCCCC(=O)[O-]
REMARK SMILES IDX 15 1 16 2 17 3 18 4 19 5 20 6 21 7 22 8 23 9 24 10 25 11
REMARK SMILES IDX 26 12 27 13 28 14 29 15 30 16 14 17 13 18 12 19 11 20 10 21
REMARK SMILES IDX 9 22 8 23 7 24 6 25 5 26 4 27 3 28 2 29 1 30
REMARK H PARENT
REMARK Flexibility Score: inf
ROOT
ATOM      1  C   UNL     1     110.369 103.876 110.973  1.00  0.00     0.000 C 
ENDROOT
BRANCH   1   2
ATOM      2  C   UNL     1     110.583 102.448 111.498  1.00  0.00     0.000 C 
BRANCH   2   3
ATOM      3  C   UNL     1     111.883 102.298 112.307  1.00  0.00     0.000 C 
BRANCH   3   4
ATOM      4  C   UNL     1     112.996 101.619 111.488  1.00  0.00     0.000 C 
BRANCH   4   5
ATOM      5  C   UNL     1     114.395 102.200 111.778  1.00  0.00     0.000 C 
BRANCH   5   6
ATOM      6  C   UNL     1     114.764 103.374 110.853  1.00  0.00     0.000 C 
BRANCH   6   7
ATOM      7  C   UNL     1     114.325 104.726 111.445  1.00  0.00     0.000 C 
BRANCH   7   8
ATOM      8  C   UNL     1     114.456 104.765 112.977  1.00  0.00     0.000 C 
BRANCH   8   9
ATOM      9  C   UNL     1     115.514 105.779 113.478  1.00  0.00     0.000 C 
BRANCH   9  10
ATOM     10  C   UNL     1     116.744 105.122 114.131  1.00  0.00     0.000 C 
BRANCH  10  11
ATOM     11  C   UNL     1     117.363 104.016 113.261  1.00  0.00     0.000 C 
BRANCH  11  12
ATOM     12  C   UNL     1     118.898 104.090 113.187  1.00  0.00     0.006 C 
BRANCH  12  13
ATOM     13  C   UNL     1     119.472 105.476 113.531  1.00  0.00     0.053 C 
BRANCH  13  14
ATOM     14  C   UNL     1     119.297 106.460 112.412  1.00  0.00     0.041 C 
ATOM     15  O   UNL     1     119.695 106.178 111.250  1.00  0.00    -0.550 OA
ATOM     16  O   UNL     1     118.663 107.675 112.647  1.00  0.00    -0.550 OA
ENDBRANCH  13  14
ENDBRANCH  12  13
ENDBRANCH  11  12
ENDBRANCH  10  11
ENDBRANCH   9  10
ENDBRANCH   8   9
ENDBRANCH   7   8
ENDBRANCH   6   7
ENDBRANCH   5   6
ENDBRANCH   4   5
ENDBRANCH   3   4
ENDBRANCH   2   3
ENDBRANCH   1   2
BRANCH   1  17
ATOM     17  C   UNL     1     108.882 104.273 110.914  1.00  0.00     0.000 C 
BRANCH  17  18
ATOM     18  C   UNL     1     108.645 105.564 110.102  1.00  0.00     0.000 C 
BRANCH  18  19
ATOM     19  C   UNL     1     109.189 106.840 110.774  1.00  0.00     0.000 C 
BRANCH  19  20
ATOM     20  C   UNL     1     108.242 107.513 111.784  1.00  0.00     0.000 C 
BRANCH  20  21
ATOM     21  C   UNL     1     107.890 106.670 113.026  1.00  0.00     0.000 C 
BRANCH  21  22
ATOM     22  C   UNL     1     106.444 106.131 113.036  1.00  0.00    -0.000 C 
BRANCH  22  23
ATOM     23  C   UNL     1     105.400 107.234 113.295  1.00  0.00    -0.000 C 
BRANCH  23  24
ATOM     24  C   UNL     1     104.280 106.766 114.243  1.00  0.00    -0.000 C 
BRANCH  24  25
ATOM     25  C   UNL     1     103.272 105.801 113.589  1.00  0.00    -0.000 C 
BRANCH  25  26
ATOM     26  C   UNL     1     102.364 106.504 112.564  1.00  0.00    -0.000 C 
BRANCH  26  27
ATOM     27  C   UNL     1     100.885 106.516 113.007  1.00  0.00    -0.000 C 
BRANCH  27  28
ATOM     28  C   UNL     1      99.890 106.428 111.836  1.00  0.00    -0.000 C 
BRANCH  28  29
ATOM     29  C   UNL     1     100.545 106.691 110.472  1.00  0.00    -0.003 C 
ATOM     30  C   UNL     1      99.953 105.792 109.393  1.00  0.00     0.004 C 
ENDBRANCH  28  29
ENDBRANCH  27  28
ENDBRANCH  26  27
ENDBRANCH  25  26
ENDBRANCH  24  25
ENDBRANCH  23  24
ENDBRANCH  22  23
ENDBRANCH  21  22
ENDBRANCH  20  21
ENDBRANCH  19  20
ENDBRANCH  18  19
ENDBRANCH  17  18
ENDBRANCH   1  17
TORSDOF 26
ENDMDL
MODEL 7
REMARK VINA RESULT:    -1.323      1.146      2.455
REMARK INTER + INTRA:          -4.640
REMARK INTER:                  -2.980
REMARK INTRA:                  -1.659
REMARK UNBOUND:                -1.306
REMARK SMILES CCCCCCCCCCCCCCCCCCCCCCCCCCCC(=O)[O-]
REMARK SMILES IDX 15 1 16 2 17 3 18 4 19 5 20 6 21 7 22 8 23 9 24 10 25 11
REMARK SMILES IDX 26 12 27 13 28 14 29 15 30 16 14 17 13 18 12 19 11 20 10 21
REMARK SMILES IDX 9 22 8 23 7 24 6 25 5 26 4 27 3 28 2 29 1 30
REMARK H PARENT
REMARK Flexibility Score: inf
ROOT
ATOM      1  C   UNL     1     110.007 104.274 110.742  1.00  0.00     0.000 C 
ENDROOT
BRANCH   1   2
ATOM      2  C   UNL     1     110.401 103.869 112.170  1.00  0.00     0.000 C 
BRANCH   2   3
ATOM      3  C   UNL     1     110.655 102.358 112.314  1.00  0.00     0.000 C 
BRANCH   3   4
ATOM      4  C   UNL     1     111.493 101.802 111.149  1.00  0.00     0.000 C 
BRANCH   4   5
ATOM      5  C   UNL     1     112.976 102.220 111.221  1.00  0.00     0.000 C 
BRANCH   5   6
ATOM      6  C   UNL     1     113.667 101.767 112.519  1.00  0.00     0.000 C 
BRANCH   6   7
ATOM      7  C   UNL     1     114.575 102.867 113.097  1.00  0.00     0.000 C 
BRANCH   7   8
ATOM      8  C   UNL     1     114.424 104.203 112.350  1.00  0.00     0.000 C 
BRANCH   8   9
ATOM      9  C   UNL     1     114.918 105.423 113.166  1.00  0.00     0.000 C 
BRANCH   9  10
ATOM     10  C   UNL     1     116.424 105.390 113.484  1.00  0.00     0.000 C 
BRANCH  10  11
ATOM     11  C   UNL     1     117.242 104.633 112.425  1.00  0.00     0.000 C 
BRANCH  11  12
ATOM     12  C   UNL     1     118.627 104.192 112.929  1.00  0.00     0.006 C 
BRANCH  12  13
ATOM     13  C   UNL     1     119.198 105.086 114.044  1.00  0.00     0.053 C 
BRANCH  13  14
ATOM     14  C   UNL     1     119.397 104.338 115.329  1.00  0.00     0.041 C 
ATOM     15  O   UNL     1     119.158 103.102 115.390  1.00  0.00    -0.550 OA
ATOM     16  O   UNL     1     119.882 105.001 116.452  1.00  0.00    -0.550 OA
ENDBRANCH  13  14
ENDBRANCH  12  13
ENDBRANCH  11  12
ENDBRANCH  10  11
ENDBRANCH   9  10
ENDBRANCH   8   9
ENDBRANCH   7   8
ENDBRANCH   6   7
ENDBRANCH   5   6
ENDBRANCH   4   5
ENDBRANCH   3   4
ENDBRANCH   2   3
ENDBRANCH   1   2
BRANCH   1  17
ATOM     17  C   UNL     1     108.634 104.967 110.675  1.00  0.00     0.000 C 
BRANCH  17  18
ATOM     18  C   UNL     1     108.749 106.494 110.481  1.00  0.00     0.000 C 
BRANCH  18  19
ATOM     19  C   UNL     1     108.298 107.321 111.702  1.00  0.00     0.000 C 
BRANCH  19  20
ATOM     20  C   UNL     1     107.840 106.504 112.923  1.00  0.00     0.000 C 
BRANCH  20  21
ATOM     21  C   UNL     1     106.356 106.081 112.918  1.00  0.00     0.000 C 
BRANCH  21  22
ATOM     22  C   UNL     1     105.512 106.727 114.036  1.00  0.00    -0.000 C 
BRANCH  22  23
ATOM     23  C   UNL     1     104.055 106.229 114.045  1.00  0.00    -0.000 C 
BRANCH  23  24
ATOM     24  C   UNL     1     103.232 106.807 112.879  1.00  0.00    -0.000 C 
BRANCH  24  25
ATOM     25  C   UNL     1     101.907 106.062 112.621  1.00  0.00    -0.000 C 
BRANCH  25  26
ATOM     26  C   UNL     1     100.883 106.927 111.865  1.00  0.00    -0.000 C 
BRANCH  26  27
ATOM     27  C   UNL     1     100.236 106.169 110.686  1.00  0.00    -0.000 C 
BRANCH  27  28
ATOM     28  C   UNL     1     100.482 106.829 109.318  1.00  0.00    -0.000 C 
BRANCH  28  29
ATOM     29  C   UNL     1     101.309 108.120 109.416  1.00  0.00    -0.003 C 
ATOM     30  C   UNL     1     101.808 108.562 108.045  1.00  0.00     0.004 C 
ENDBRANCH  28  29
ENDBRANCH  27  28
ENDBRANCH  26  27
ENDBRANCH  25  26
ENDBRANCH  24  25
ENDBRANCH  23  24
ENDBRANCH  22  23
ENDBRANCH  21  22
ENDBRANCH  20  21
ENDBRANCH  19  20
ENDBRANCH  18  19
ENDBRANCH  17  18
ENDBRANCH   1  17
TORSDOF 26
ENDMDL
MODEL 8
REMARK VINA RESULT:    -1.208      4.769     11.084
REMARK INTER + INTRA:          -4.351
REMARK INTER:                  -1.662
REMARK INTRA:                  -2.689
REMARK UNBOUND:                -1.306
REMARK SMILES CCCCCCCCCCCCCCCCCCCCCCCCCCCC(=O)[O-]
REMARK SMILES IDX 15 1 16 2 17 3 18 4 19 5 20 6 21 7 22 8 23 9 24 10 25 11
REMARK SMILES IDX 26 12 27 13 28 14 29 15 30 16 14 17 13 18 12 19 11 20 10 21
REMARK SMILES IDX 9 22 8 23 7 24 6 25 5 26 4 27 3 28 2 29 1 30
REMARK H PARENT
REMARK Flexibility Score: inf
ROOT
ATOM      1  C   UNL     1     110.369 102.958 110.379  1.00  0.00     0.000 C 
ENDROOT
BRANCH   1   2
ATOM      2  C   UNL     1     110.178 104.249 111.189  1.00  0.00     0.000 C 
BRANCH   2   3
ATOM      3  C   UNL     1     108.810 104.910 110.946  1.00  0.00     0.000 C 
BRANCH   3   4
ATOM      4  C   UNL     1     108.169 105.404 112.255  1.00  0.00     0.000 C 
BRANCH   4   5
ATOM      5  C   UNL     1     107.603 106.835 112.145  1.00  0.00     0.000 C 
BRANCH   5   6
ATOM      6  C   UNL     1     108.230 107.643 110.995  1.00  0.00     0.000 C 
BRANCH   6   7
ATOM      7  C   UNL     1     109.725 107.918 111.238  1.00  0.00     0.000 C 
BRANCH   7   8
ATOM      8  C   UNL     1     110.531 107.972 109.930  1.00  0.00     0.000 C 
BRANCH   8   9
ATOM      9  C   UNL     1     111.886 107.227 110.011  1.00  0.00     0.000 C 
BRANCH   9  10
ATOM     10  C   UNL     1     113.025 107.924 109.245  1.00  0.00     0.000 C 
BRANCH  10  11
ATOM     11  C   UNL     1     112.621 108.342 107.822  1.00  0.00     0.000 C 
BRANCH  11  12
ATOM     12  C   UNL     1     113.429 107.626 106.727  1.00  0.00     0.006 C 
BRANCH  12  13
ATOM     13  C   UNL     1     112.724 107.585 105.359  1.00  0.00     0.053 C 
BRANCH  13  14
ATOM     14  C   UNL     1     113.606 107.030 104.280  1.00  0.00     0.041 C 
ATOM     15  O   UNL     1     114.784 107.456 104.139  1.00  0.00    -0.550 OA
ATOM     16  O   UNL     1     113.137 106.016 103.451  1.00  0.00    -0.550 OA
ENDBRANCH  13  14
ENDBRANCH  12  13
ENDBRANCH  11  12
ENDBRANCH  10  11
ENDBRANCH   9  10
ENDBRANCH   8   9
ENDBRANCH   7   8
ENDBRANCH   6   7
ENDBRANCH   5   6
ENDBRANCH   4   5
ENDBRANCH   3   4
ENDBRANCH   2   3
ENDBRANCH   1   2
BRANCH   1  17
ATOM     17  C   UNL     1     110.994 101.821 111.208  1.00  0.00     0.000 C 
BRANCH  17  18
ATOM     18  C   UNL     1     111.576 102.315 112.550  1.00  0.00     0.000 C 
BRANCH  18  19
ATOM     19  C   UNL     1     113.073 101.999 112.742  1.00  0.00     0.000 C 
BRANCH  19  20
ATOM     20  C   UNL     1     113.884 101.817 111.447  1.00  0.00     0.000 C 
BRANCH  20  21
ATOM     21  C   UNL     1     114.935 102.909 111.163  1.00  0.00     0.000 C 
BRANCH  21  22
ATOM     22  C   UNL     1     114.340 104.316 110.941  1.00  0.00    -0.000 C 
BRANCH  22  23
ATOM     23  C   UNL     1     114.227 105.127 112.246  1.00  0.00    -0.000 C 
BRANCH  23  24
ATOM     24  C   UNL     1     115.193 104.622 113.334  1.00  0.00    -0.000 C 
BRANCH  24  25
ATOM     25  C   UNL     1     116.132 105.712 113.887  1.00  0.00    -0.000 C 
BRANCH  25  26
ATOM     26  C   UNL     1     117.433 105.838 113.072  1.00  0.00    -0.000 C 
BRANCH  26  27
ATOM     27  C   UNL     1     118.020 104.462 112.695  1.00  0.00    -0.000 C 
BRANCH  27  28
ATOM     28  C   UNL     1     119.021 103.914 113.728  1.00  0.00    -0.000 C 
BRANCH  28  29
ATOM     29  C   UNL     1     119.643 105.014 114.601  1.00  0.00    -0.003 C 
ATOM     30  C   UNL     1     119.541 104.667 116.082  1.00  0.00     0.004 C 
ENDBRANCH  28  29
ENDBRANCH  27  28
ENDBRANCH  26  27
ENDBRANCH  25  26
ENDBRANCH  24  25
ENDBRANCH  23  24
ENDBRANCH  22  23
ENDBRANCH  21  22
ENDBRANCH  20  21
ENDBRANCH  19  20
ENDBRANCH  18  19
ENDBRANCH  17  18
ENDBRANCH   1  17
TORSDOF 26
ENDMDL
MODEL 9
REMARK VINA RESULT:    -1.153      1.907      3.678
REMARK INTER + INTRA:          -4.210
REMARK INTER:                  -2.558
REMARK INTRA:                  -1.652
REMARK UNBOUND:                -1.306
REMARK SMILES CCCCCCCCCCCCCCCCCCCCCCCCCCCC(=O)[O-]
REMARK SMILES IDX 15 1 16 2 17 3 18 4 19 5 20 6 21 7 22 8 23 9 24 10 25 11
REMARK SMILES IDX 26 12 27 13 28 14 29 15 30 16 14 17 13 18 12 19 11 20 10 21
REMARK SMILES IDX 9 22 8 23 7 24 6 25 5 26 4 27 3 28 2 29 1 30
REMARK H PARENT
REMARK Flexibility Score: inf
ROOT
ATOM      1  C   UNL     1     110.171 103.160 111.770  1.00  0.00     0.000 C 
ENDROOT
BRANCH   1   2
ATOM      2  C   UNL     1     111.169 102.008 111.579  1.00  0.00     0.000 C 
BRANCH   2   3
ATOM      3  C   UNL     1     112.595 102.498 111.269  1.00  0.00     0.000 C 
BRANCH   3   4
ATOM      4  C   UNL     1     113.618 101.979 112.296  1.00  0.00     0.000 C 
BRANCH   4   5
ATOM      5  C   UNL     1     114.106 103.075 113.266  1.00  0.00     0.000 C 
BRANCH   5   6
ATOM      6  C   UNL     1     114.104 104.480 112.637  1.00  0.00     0.000 C 
BRANCH   6   7
ATOM      7  C   UNL     1     115.519 104.918 112.218  1.00  0.00     0.000 C 
BRANCH   7   8
ATOM      8  C   UNL     1     116.412 103.727 111.833  1.00  0.00     0.000 C 
BRANCH   8   9
ATOM      9  C   UNL     1     117.917 103.976 112.097  1.00  0.00     0.000 C 
BRANCH   9  10
ATOM     10  C   UNL     1     118.493 105.179 111.328  1.00  0.00     0.000 C 
BRANCH  10  11
ATOM     11  C   UNL     1     119.049 106.271 112.255  1.00  0.00     0.000 C 
BRANCH  11  12
ATOM     12  C   UNL     1     118.763 106.007 113.743  1.00  0.00     0.006 C 
BRANCH  12  13
ATOM     13  C   UNL     1     119.964 105.435 114.517  1.00  0.00     0.053 C 
BRANCH  13  14
ATOM     14  C   UNL     1     119.553 104.413 115.535  1.00  0.00     0.041 C 
ATOM     15  O   UNL     1     119.474 104.724 116.753  1.00  0.00    -0.550 OA
ATOM     16  O   UNL     1     119.224 103.123 115.131  1.00  0.00    -0.550 OA
ENDBRANCH  13  14
ENDBRANCH  12  13
ENDBRANCH  11  12
ENDBRANCH  10  11
ENDBRANCH   9  10
ENDBRANCH   8   9
ENDBRANCH   7   8
ENDBRANCH   6   7
ENDBRANCH   5   6
ENDBRANCH   4   5
ENDBRANCH   3   4
ENDBRANCH   2   3
ENDBRANCH   1   2
BRANCH   1  17
ATOM     17  C   UNL     1     109.900 103.937 110.469  1.00  0.00     0.000 C 
BRANCH  17  18
ATOM     18  C   UNL     1     108.669 104.862 110.576  1.00  0.00     0.000 C 
BRANCH  18  19
ATOM     19  C   UNL     1     109.015 106.355 110.748  1.00  0.00     0.000 C 
BRANCH  19  20
ATOM     20  C   UNL     1     108.219 107.099 111.834  1.00  0.00     0.000 C 
BRANCH  20  21
ATOM     21  C   UNL     1     107.836 106.258 113.069  1.00  0.00     0.000 C 
BRANCH  21  22
ATOM     22  C   UNL     1     106.323 105.984 113.202  1.00  0.00    -0.000 C 
BRANCH  22  23
ATOM     23  C   UNL     1     105.518 107.247 113.559  1.00  0.00    -0.000 C 
BRANCH  23  24
ATOM     24  C   UNL     1     104.122 107.255 112.909  1.00  0.00    -0.000 C 
BRANCH  24  25
ATOM     25  C   UNL     1     103.205 106.114 113.390  1.00  0.00    -0.000 C 
BRANCH  25  26
ATOM     26  C   UNL     1     101.721 106.381 113.079  1.00  0.00    -0.000 C 
BRANCH  26  27
ATOM     27  C   UNL     1     101.493 106.758 111.599  1.00  0.00    -0.000 C 
BRANCH  27  28
ATOM     28  C   UNL     1     100.083 106.417 111.086  1.00  0.00    -0.000 C 
BRANCH  28  29
ATOM     29  C   UNL     1     100.077 105.926 109.632  1.00  0.00    -0.003 C 
ATOM     30  C   UNL     1     100.206 104.408 109.561  1.00  0.00     0.004 C 
ENDBRANCH  28  29
ENDBRANCH  27  28
ENDBRANCH  26  27
ENDBRANCH  25  26
ENDBRANCH  24  25
ENDBRANCH  23  24
ENDBRANCH  22  23
ENDBRANCH  21  22
ENDBRANCH  20  21
ENDBRANCH  19  20
ENDBRANCH  18  19
ENDBRANCH  17  18
ENDBRANCH   1  17
TORSDOF 26
ENDMDL
