MODEL 1
REMARK VINA RESULT:    -7.320      0.000      0.000
REMARK INTER + INTRA:         -15.291
REMARK INTER:                 -12.027
REMARK INTRA:                  -3.263
REMARK UNBOUND:                -3.263
REMARK SMILES COc1ccc([C@@H]2CC(=O)c3c(O)cc(O[C@H]4O[C@@H](CO[C@@H]5O[C@@H](C)[C@@H](O)[C@@H](O)[C@H]5O)[C@@H](O)[C@@H](O)[C@@H]4O)cc3O2)cc1O
REMARK SMILES IDX 19 1 32 2 34 3 36 4 17 5 18 6 20 7 21 8 22 9 25 10 24 11
REMARK SMILES IDX 26 12 23 13 28 14 30 15 27 16 29 18 31 20 33 22 35 24 16 26
REMARK SMILES IDX 15 27 14 28 38 29 12 30 39 31 11 32 40 33 9 34 7 35 10 36
REMARK SMILES IDX 8 37 13 38 6 40 41 41 5 42 42 43 4 44 3 45 43 46 2 48 1 49
REMARK SMILES IDX 37 50
REMARK H PARENT 27 17 29 19 31 21 33 23 35 25 13 39 43 47 37 51
REMARK Flexibility Score: inf
ROOT
ATOM      1  C   UNL     1      12.471  47.243  44.603  1.00  0.00     0.180 C 
ATOM      2  C   UNL     1      11.241  46.570  45.305  1.00  0.00     0.177 C 
ATOM      3  C   UNL     1      11.499  46.351  46.822  1.00  0.00     0.180 C 
ATOM      4  C   UNL     1      11.853  47.703  47.418  1.00  0.00     0.214 C 
ATOM      5  C   UNL     1      13.120  48.241  46.716  1.00  0.00     0.339 C 
ATOM      6  O   UNL     1      12.968  48.394  45.291  1.00  0.00    -0.332 OA
ENDROOT
BRANCH   1   7
ATOM      7  C   UNL     1      13.612  46.234  44.225  1.00  0.00     0.198 C 
BRANCH   7   8
ATOM      8  O   UNL     1      14.193  46.628  43.019  1.00  0.00    -0.347 OA
BRANCH   8   9
ATOM      9  C   UNL     1      15.581  46.358  42.993  1.00  0.00     0.281 C 
ATOM     10  C   UNL     1      16.700  49.624  41.709  1.00  0.00     0.041 C 
ATOM     11  C   UNL     1      16.015  48.291  41.691  1.00  0.00     0.150 C 
ATOM     12  C   UNL     1      16.233  47.494  40.366  1.00  0.00     0.174 C 
ATOM     13  O   UNL     1      16.363  47.548  42.845  1.00  0.00    -0.344 OA
ATOM     14  C   UNL     1      15.401  46.201  40.530  1.00  0.00     0.179 C 
ATOM     15  C   UNL     1      15.790  45.388  41.815  1.00  0.00     0.202 C 
BRANCH  12  16
ATOM     16  O   UNL     1      17.593  47.299  39.954  1.00  0.00    -0.388 OA
ATOM     17  H   UNL     1      18.169  47.244  40.762  1.00  0.00     0.211 HD
ENDBRANCH  12  16
BRANCH  14  18
ATOM     18  O   UNL     1      15.428  45.352  39.402  1.00  0.00    -0.387 OA
ATOM     19  H   UNL     1      15.000  44.490  39.708  1.00  0.00     0.211 HD
ENDBRANCH  14  18
BRANCH  15  20
ATOM     20  O   UNL     1      17.126  44.932  41.758  1.00  0.00    -0.385 OA
ATOM     21  H   UNL     1      17.320  44.375  42.591  1.00  0.00     0.211 HD
ENDBRANCH  15  20
ENDBRANCH   8   9
ENDBRANCH   7   8
ENDBRANCH   1   7
BRANCH   2  22
ATOM     22  O   UNL     1      10.855  45.347  44.686  1.00  0.00    -0.387 OA
ATOM     23  H   UNL     1      10.457  44.756  45.383  1.00  0.00     0.211 HD
ENDBRANCH   2  22
BRANCH   3  24
ATOM     24  O   UNL     1      12.524  45.407  47.115  1.00  0.00    -0.387 OA
ATOM     25  H   UNL     1      12.614  44.821  46.332  1.00  0.00     0.211 HD
ENDBRANCH   3  24
BRANCH   5  26
ATOM     26  O   UNL     1      14.237  47.405  47.032  1.00  0.00    -0.462 OA
BRANCH  26  27
ATOM     27  C   UNL     1      15.544  47.848  47.284  1.00  0.00     0.130 A 
ATOM     28  C   UNL     1      15.978  48.080  48.611  1.00  0.00     0.093 A 
ATOM     29  C   UNL     1      16.357  48.181  46.200  1.00  0.00     0.094 A 
ATOM     30  C   UNL     1      17.219  48.716  48.804  1.00  0.00     0.133 A 
ATOM     31  C   UNL     1      17.559  48.858  46.393  1.00  0.00     0.138 A 
ATOM     32  C   UNL     1      17.976  49.174  47.716  1.00  0.00     0.102 A 
ATOM     33  O   UNL     1      18.189  49.462  45.309  1.00  0.00    -0.484 OA
ATOM     34  C   UNL     1      19.213  49.950  47.844  1.00  0.00     0.174 C 
ATOM     35  C   UNL     1      19.572  49.838  45.316  1.00  0.00     0.211 C 
ATOM     36  O   UNL     1      19.457  50.627  48.892  1.00  0.00    -0.294 OA
ATOM     37  C   UNL     1      20.228  49.916  46.758  1.00  0.00     0.131 C 
BRANCH  30  38
ATOM     38  O   UNL     1      17.677  48.902  50.125  1.00  0.00    -0.507 OA
ATOM     39  H   UNL     1      17.514  48.180  50.817  1.00  0.00     0.293 HD
ENDBRANCH  30  38
BRANCH  35  40
ATOM     40  C   UNL     1      20.298  48.849  44.460  1.00  0.00    -0.003 A 
ATOM     41  C   UNL     1      19.668  48.228  43.362  1.00  0.00     0.057 A 
ATOM     42  C   UNL     1      21.509  48.322  44.944  1.00  0.00     0.011 A 
ATOM     43  C   UNL     1      20.131  47.000  42.885  1.00  0.00     0.158 A 
ATOM     44  C   UNL     1      21.984  47.117  44.483  1.00  0.00     0.051 A 
ATOM     45  C   UNL     1      21.239  46.380  43.523  1.00  0.00     0.160 A 
BRANCH  43  46
ATOM     46  O   UNL     1      19.480  46.384  41.818  1.00  0.00    -0.504 OA
ATOM     47  H   UNL     1      18.484  46.195  41.821  1.00  0.00     0.293 HD
ENDBRANCH  43  46
BRANCH  45  48
ATOM     48  O   UNL     1      21.546  45.036  43.286  1.00  0.00    -0.493 OA
ATOM     49  C   UNL     1      22.132  44.163  44.279  1.00  0.00     0.278 C 
ENDBRANCH  45  48
ENDBRANCH  35  40
ENDBRANCH  26  27
ENDBRANCH   5  26
BRANCH   4  50
ATOM     50  O   UNL     1      10.777  48.614  47.263  1.00  0.00    -0.384 OA
ATOM     51  H   UNL     1      11.186  49.512  47.365  1.00  0.00     0.211 HD
ENDBRANCH   4  50
TORSDOF 15
ENDMDL
MODEL 2
REMARK VINA RESULT:    -6.855      2.082      7.350
REMARK INTER + INTRA:         -14.526
REMARK INTER:                 -11.423
REMARK INTRA:                  -3.103
REMARK UNBOUND:                -3.263
REMARK SMILES COc1ccc([C@@H]2CC(=O)c3c(O)cc(O[C@H]4O[C@@H](CO[C@@H]5O[C@@H](C)[C@@H](O)[C@@H](O)[C@H]5O)[C@@H](O)[C@@H](O)[C@@H]4O)cc3O2)cc1O
REMARK SMILES IDX 19 1 32 2 34 3 36 4 17 5 18 6 20 7 21 8 22 9 25 10 24 11
REMARK SMILES IDX 26 12 23 13 28 14 30 15 27 16 29 18 31 20 33 22 35 24 16 26
REMARK SMILES IDX 15 27 14 28 38 29 12 30 39 31 11 32 40 33 9 34 7 35 10 36
REMARK SMILES IDX 8 37 13 38 6 40 41 41 5 42 42 43 4 44 3 45 43 46 2 48 1 49
REMARK SMILES IDX 37 50
REMARK H PARENT 27 17 29 19 31 21 33 23 35 25 13 39 43 47 37 51
REMARK Flexibility Score: inf
ROOT
ATOM      1  C   UNL     1      17.212  46.689  40.315  1.00  0.00     0.180 C 
ATOM      2  C   UNL     1      17.707  46.130  38.936  1.00  0.00     0.177 C 
ATOM      3  C   UNL     1      17.007  44.788  38.581  1.00  0.00     0.180 C 
ATOM      4  C   UNL     1      15.508  45.039  38.615  1.00  0.00     0.214 C 
ATOM      5  C   UNL     1      15.113  45.507  40.033  1.00  0.00     0.339 C 
ATOM      6  O   UNL     1      15.789  46.709  40.452  1.00  0.00    -0.332 OA
ENDROOT
BRANCH   1   7
ATOM      7  C   UNL     1      17.922  46.034  41.552  1.00  0.00     0.198 C 
BRANCH   7   8
ATOM      8  O   UNL     1      18.630  47.015  42.248  1.00  0.00    -0.347 OA
BRANCH   8   9
ATOM      9  C   UNL     1      17.921  47.467  43.385  1.00  0.00     0.281 C 
ATOM     10  C   UNL     1      18.036  51.073  42.643  1.00  0.00     0.041 C 
ATOM     11  C   UNL     1      18.564  49.715  42.994  1.00  0.00     0.150 C 
ATOM     12  C   UNL     1      19.627  49.733  44.137  1.00  0.00     0.174 C 
ATOM     13  O   UNL     1      17.492  48.827  43.252  1.00  0.00    -0.344 OA
ATOM     14  C   UNL     1      20.081  48.263  44.291  1.00  0.00     0.179 C 
ATOM     15  C   UNL     1      18.885  47.286  44.572  1.00  0.00     0.202 C 
BRANCH  12  16
ATOM     16  O   UNL     1      19.246  50.388  45.354  1.00  0.00    -0.388 OA
ATOM     17  H   UNL     1      19.552  49.839  46.124  1.00  0.00     0.211 HD
ENDBRANCH  12  16
BRANCH  14  18
ATOM     18  O   UNL     1      21.091  48.071  45.259  1.00  0.00    -0.387 OA
ATOM     19  H   UNL     1      21.799  48.758  45.044  1.00  0.00     0.211 HD
ENDBRANCH  14  18
BRANCH  15  20
ATOM     20  O   UNL     1      18.248  47.582  45.798  1.00  0.00    -0.385 OA
ATOM     21  H   UNL     1      18.763  48.330  46.264  1.00  0.00     0.211 HD
ENDBRANCH  15  20
ENDBRANCH   8   9
ENDBRANCH   7   8
ENDBRANCH   1   7
BRANCH   2  22
ATOM     22  O   UNL     1      19.121  45.983  38.877  1.00  0.00    -0.387 OA
ATOM     23  H   UNL     1      19.523  46.883  38.734  1.00  0.00     0.211 HD
ENDBRANCH   2  22
BRANCH   3  24
ATOM     24  O   UNL     1      17.338  43.705  39.443  1.00  0.00    -0.387 OA
ATOM     25  H   UNL     1      16.504  43.231  39.652  1.00  0.00     0.211 HD
ENDBRANCH   3  24
BRANCH   5  26
ATOM     26  O   UNL     1      15.321  44.442  40.966  1.00  0.00    -0.462 OA
BRANCH  26  27
ATOM     27  C   UNL     1      14.801  44.384  42.267  1.00  0.00     0.130 A 
ATOM     28  C   UNL     1      14.607  43.135  42.905  1.00  0.00     0.093 A 
ATOM     29  C   UNL     1      14.356  45.565  42.864  1.00  0.00     0.094 A 
ATOM     30  C   UNL     1      13.897  43.111  44.120  1.00  0.00     0.133 A 
ATOM     31  C   UNL     1      13.607  45.532  44.037  1.00  0.00     0.138 A 
ATOM     32  C   UNL     1      13.331  44.279  44.653  1.00  0.00     0.102 A 
ATOM     33  O   UNL     1      12.906  46.665  44.437  1.00  0.00    -0.484 OA
ATOM     34  C   UNL     1      12.478  44.309  45.844  1.00  0.00     0.174 C 
ATOM     35  C   UNL     1      12.434  46.863  45.776  1.00  0.00     0.211 C 
ATOM     36  O   UNL     1      11.840  43.276  46.221  1.00  0.00    -0.294 OA
ATOM     37  C   UNL     1      12.385  45.549  46.661  1.00  0.00     0.131 C 
BRANCH  30  38
ATOM     38  O   UNL     1      13.747  41.875  44.784  1.00  0.00    -0.507 OA
ATOM     39  H   UNL     1      12.958  41.734  45.404  1.00  0.00     0.293 HD
ENDBRANCH  30  38
BRANCH  35  40
ATOM     40  C   UNL     1      13.325  47.888  46.405  1.00  0.00    -0.003 A 
ATOM     41  C   UNL     1      14.248  48.629  45.637  1.00  0.00     0.057 A 
ATOM     42  C   UNL     1      13.444  47.887  47.806  1.00  0.00     0.011 A 
ATOM     43  C   UNL     1      15.375  49.191  46.239  1.00  0.00     0.158 A 
ATOM     44  C   UNL     1      14.544  48.440  48.418  1.00  0.00     0.051 A 
ATOM     45  C   UNL     1      15.586  49.003  47.631  1.00  0.00     0.160 A 
BRANCH  43  46
ATOM     46  O   UNL     1      16.294  49.895  45.462  1.00  0.00    -0.504 OA
ATOM     47  H   UNL     1      16.182  50.018  44.461  1.00  0.00     0.293 HD
ENDBRANCH  43  46
BRANCH  45  48
ATOM     48  O   UNL     1      16.826  49.280  48.215  1.00  0.00    -0.493 OA
ATOM     49  C   UNL     1      16.988  49.679  49.596  1.00  0.00     0.278 C 
ENDBRANCH  45  48
ENDBRANCH  35  40
ENDBRANCH  26  27
ENDBRANCH   5  26
BRANCH   4  50
ATOM     50  O   UNL     1      15.144  46.015  37.652  1.00  0.00    -0.384 OA
ATOM     51  H   UNL     1      14.300  45.678  37.254  1.00  0.00     0.211 HD
ENDBRANCH   4  50
TORSDOF 15
ENDMDL
MODEL 3
REMARK VINA RESULT:    -6.818      2.246      7.475
REMARK INTER + INTRA:         -14.466
REMARK INTER:                 -12.579
REMARK INTRA:                  -1.887
REMARK UNBOUND:                -3.263
REMARK SMILES COc1ccc([C@@H]2CC(=O)c3c(O)cc(O[C@H]4O[C@@H](CO[C@@H]5O[C@@H](C)[C@@H](O)[C@@H](O)[C@H]5O)[C@@H](O)[C@@H](O)[C@@H]4O)cc3O2)cc1O
REMARK SMILES IDX 19 1 32 2 34 3 36 4 17 5 18 6 20 7 21 8 22 9 25 10 24 11
REMARK SMILES IDX 26 12 23 13 28 14 30 15 27 16 29 18 31 20 33 22 35 24 16 26
REMARK SMILES IDX 15 27 14 28 38 29 12 30 39 31 11 32 40 33 9 34 7 35 10 36
REMARK SMILES IDX 8 37 13 38 6 40 41 41 5 42 42 43 4 44 3 45 43 46 2 48 1 49
REMARK SMILES IDX 37 50
REMARK H PARENT 27 17 29 19 31 21 33 23 35 25 13 39 43 47 37 51
REMARK Flexibility Score: inf
ROOT
ATOM      1  C   UNL     1      20.960  49.069  46.854  1.00  0.00     0.180 C 
ATOM      2  C   UNL     1      21.729  50.104  47.747  1.00  0.00     0.177 C 
ATOM      3  C   UNL     1      20.779  51.210  48.286  1.00  0.00     0.180 C 
ATOM      4  C   UNL     1      19.650  50.511  49.027  1.00  0.00     0.214 C 
ATOM      5  C   UNL     1      18.909  49.580  48.043  1.00  0.00     0.339 C 
ATOM      6  O   UNL     1      19.756  48.577  47.449  1.00  0.00    -0.332 OA
ENDROOT
BRANCH   1   7
ATOM      7  C   UNL     1      20.742  49.550  45.376  1.00  0.00     0.198 C 
BRANCH   7   8
ATOM      8  O   UNL     1      20.807  48.450  44.520  1.00  0.00    -0.347 OA
BRANCH   8   9
ATOM      9  C   UNL     1      19.939  47.413  44.932  1.00  0.00     0.281 C 
ATOM     10  C   UNL     1      22.134  44.571  44.114  1.00  0.00     0.041 C 
ATOM     11  C   UNL     1      21.266  45.765  43.861  1.00  0.00     0.150 C 
ATOM     12  C   UNL     1      20.280  45.581  42.665  1.00  0.00     0.174 C 
ATOM     13  O   UNL     1      20.614  46.156  45.056  1.00  0.00    -0.344 OA
ATOM     14  C   UNL     1      19.540  46.932  42.539  1.00  0.00     0.179 C 
ATOM     15  C   UNL     1      18.826  47.359  43.870  1.00  0.00     0.202 C 
BRANCH  12  16
ATOM     16  O   UNL     1      19.438  44.422  42.703  1.00  0.00    -0.388 OA
ATOM     17  H   UNL     1      19.902  43.672  42.244  1.00  0.00     0.211 HD
ENDBRANCH  12  16
BRANCH  14  18
ATOM     18  O   UNL     1      18.622  46.988  41.466  1.00  0.00    -0.387 OA
ATOM     19  H   UNL     1      18.030  46.178  41.581  1.00  0.00     0.211 HD
ENDBRANCH  14  18
BRANCH  15  20
ATOM     20  O   UNL     1      17.813  46.443  44.234  1.00  0.00    -0.385 OA
ATOM     21  H   UNL     1      16.929  46.750  43.825  1.00  0.00     0.211 HD
ENDBRANCH  15  20
ENDBRANCH   8   9
ENDBRANCH   7   8
ENDBRANCH   1   7
BRANCH   2  22
ATOM     22  O   UNL     1      22.841  50.689  47.078  1.00  0.00    -0.387 OA
ATOM     23  H   UNL     1      22.544  50.978  46.171  1.00  0.00     0.211 HD
ENDBRANCH   2  22
BRANCH   3  24
ATOM     24  O   UNL     1      20.244  52.067  47.283  1.00  0.00    -0.387 OA
ATOM     25  H   UNL     1      19.316  51.787  47.122  1.00  0.00     0.211 HD
ENDBRANCH   3  24
BRANCH   5  26
ATOM     26  O   UNL     1      18.251  50.363  47.043  1.00  0.00    -0.462 OA
BRANCH  26  27
ATOM     27  C   UNL     1      17.282  49.893  46.144  1.00  0.00     0.130 A 
ATOM     28  C   UNL     1      17.298  50.311  44.792  1.00  0.00     0.093 A 
ATOM     29  C   UNL     1      16.232  49.117  46.637  1.00  0.00     0.094 A 
ATOM     30  C   UNL     1      16.197  49.980  43.980  1.00  0.00     0.133 A 
ATOM     31  C   UNL     1      15.120  48.839  45.847  1.00  0.00     0.138 A 
ATOM     32  C   UNL     1      15.079  49.318  44.508  1.00  0.00     0.102 A 
ATOM     33  O   UNL     1      13.959  48.353  46.441  1.00  0.00    -0.484 OA
ATOM     34  C   UNL     1      13.850  49.053  43.755  1.00  0.00     0.174 C 
ATOM     35  C   UNL     1      12.922  47.689  45.707  1.00  0.00     0.211 C 
ATOM     36  O   UNL     1      13.532  49.758  42.746  1.00  0.00    -0.294 OA
ATOM     37  C   UNL     1      12.975  47.912  44.139  1.00  0.00     0.131 C 
BRANCH  30  38
ATOM     38  O   UNL     1      16.233  50.351  42.619  1.00  0.00    -0.507 OA
ATOM     39  H   UNL     1      16.205  51.332  42.367  1.00  0.00     0.293 HD
ENDBRANCH  30  38
BRANCH  35  40
ATOM     40  C   UNL     1      13.020  46.233  46.035  1.00  0.00    -0.003 A 
ATOM     41  C   UNL     1      13.903  45.381  45.339  1.00  0.00     0.057 A 
ATOM     42  C   UNL     1      12.010  45.667  46.834  1.00  0.00     0.011 A 
ATOM     43  C   UNL     1      13.661  44.007  45.283  1.00  0.00     0.158 A 
ATOM     44  C   UNL     1      11.759  44.316  46.797  1.00  0.00     0.051 A 
ATOM     45  C   UNL     1      12.512  43.478  45.930  1.00  0.00     0.160 A 
BRANCH  43  46
ATOM     46  O   UNL     1      14.526  43.183  44.565  1.00  0.00    -0.504 OA
ATOM     47  H   UNL     1      15.211  43.547  43.913  1.00  0.00     0.293 HD
ENDBRANCH  43  46
BRANCH  45  48
ATOM     48  O   UNL     1      12.067  42.181  45.656  1.00  0.00    -0.493 OA
ATOM     49  C   UNL     1      10.815  41.889  44.994  1.00  0.00     0.278 C 
ENDBRANCH  45  48
ENDBRANCH  35  40
ENDBRANCH  26  27
ENDBRANCH   5  26
BRANCH   4  50
ATOM     50  O   UNL     1      20.159  49.770  50.124  1.00  0.00    -0.384 OA
ATOM     51  H   UNL     1      20.373  48.876  49.751  1.00  0.00     0.211 HD
ENDBRANCH   4  50
TORSDOF 15
ENDMDL
MODEL 4
REMARK VINA RESULT:    -6.647      2.006      6.446
REMARK INTER + INTRA:         -14.185
REMARK INTER:                 -10.987
REMARK INTRA:                  -3.198
REMARK UNBOUND:                -3.263
REMARK SMILES COc1ccc([C@@H]2CC(=O)c3c(O)cc(O[C@H]4O[C@@H](CO[C@@H]5O[C@@H](C)[C@@H](O)[C@@H](O)[C@H]5O)[C@@H](O)[C@@H](O)[C@@H]4O)cc3O2)cc1O
REMARK SMILES IDX 19 1 32 2 34 3 36 4 17 5 18 6 20 7 21 8 22 9 25 10 24 11
REMARK SMILES IDX 26 12 23 13 28 14 30 15 27 16 29 18 31 20 33 22 35 24 16 26
REMARK SMILES IDX 15 27 14 28 38 29 12 30 39 31 11 32 40 33 9 34 7 35 10 36
REMARK SMILES IDX 8 37 13 38 6 40 41 41 5 42 42 43 4 44 3 45 43 46 2 48 1 49
REMARK SMILES IDX 37 50
REMARK H PARENT 27 17 29 19 31 21 33 23 35 25 13 39 43 47 37 51
REMARK Flexibility Score: inf
ROOT
ATOM      1  C   UNL     1      18.222  47.939  47.668  1.00  0.00     0.180 C 
ATOM      2  C   UNL     1      17.784  48.967  48.768  1.00  0.00     0.177 C 
ATOM      3  C   UNL     1      16.310  49.421  48.570  1.00  0.00     0.180 C 
ATOM      4  C   UNL     1      15.451  48.167  48.555  1.00  0.00     0.214 C 
ATOM      5  C   UNL     1      15.910  47.262  47.391  1.00  0.00     0.339 C 
ATOM      6  O   UNL     1      17.293  46.869  47.477  1.00  0.00    -0.332 OA
ENDROOT
BRANCH   1   7
ATOM      7  C   UNL     1      18.649  48.608  46.314  1.00  0.00     0.198 C 
BRANCH   7   8
ATOM      8  O   UNL     1      19.130  47.625  45.447  1.00  0.00    -0.347 OA
BRANCH   8   9
ATOM      9  C   UNL     1      19.807  48.187  44.341  1.00  0.00     0.281 C 
ATOM     10  C   UNL     1      17.230  47.528  41.793  1.00  0.00     0.041 C 
ATOM     11  C   UNL     1      18.285  47.209  42.808  1.00  0.00     0.150 C 
ATOM     12  C   UNL     1      19.278  46.095  42.351  1.00  0.00     0.174 C 
ATOM     13  O   UNL     1      18.939  48.395  43.221  1.00  0.00    -0.344 OA
ATOM     14  C   UNL     1      20.226  45.879  43.554  1.00  0.00     0.179 C 
ATOM     15  C   UNL     1      20.941  47.201  44.007  1.00  0.00     0.202 C 
BRANCH  12  16
ATOM     16  O   UNL     1      19.926  46.296  41.088  1.00  0.00    -0.388 OA
ATOM     17  H   UNL     1      19.390  46.938  40.551  1.00  0.00     0.211 HD
ENDBRANCH  12  16
BRANCH  14  18
ATOM     18  O   UNL     1      21.185  44.861  43.355  1.00  0.00    -0.387 OA
ATOM     19  H   UNL     1      21.517  44.626  44.280  1.00  0.00     0.211 HD
ENDBRANCH  14  18
BRANCH  15  20
ATOM     20  O   UNL     1      21.782  47.711  42.992  1.00  0.00    -0.385 OA
ATOM     21  H   UNL     1      21.211  48.222  42.318  1.00  0.00     0.211 HD
ENDBRANCH  15  20
ENDBRANCH   8   9
ENDBRANCH   7   8
ENDBRANCH   1   7
BRANCH   2  22
ATOM     22  O   UNL     1      18.646  50.098  48.839  1.00  0.00    -0.387 OA
ATOM     23  H   UNL     1      19.329  50.016  48.118  1.00  0.00     0.211 HD
ENDBRANCH   2  22
BRANCH   3  24
ATOM     24  O   UNL     1      16.082  50.181  47.388  1.00  0.00    -0.387 OA
ATOM     25  H   UNL     1      15.922  51.110  47.663  1.00  0.00     0.211 HD
ENDBRANCH   3  24
BRANCH   5  26
ATOM     26  O   UNL     1      15.629  47.905  46.143  1.00  0.00    -0.462 OA
BRANCH  26  27
ATOM     27  C   UNL     1      14.819  47.387  45.122  1.00  0.00     0.130 A 
ATOM     28  C   UNL     1      13.501  47.870  44.940  1.00  0.00     0.093 A 
ATOM     29  C   UNL     1      15.288  46.300  44.382  1.00  0.00     0.094 A 
ATOM     30  C   UNL     1      12.659  47.186  44.043  1.00  0.00     0.133 A 
ATOM     31  C   UNL     1      14.435  45.593  43.538  1.00  0.00     0.138 A 
ATOM     32  C   UNL     1      13.083  46.014  43.401  1.00  0.00     0.102 A 
ATOM     33  O   UNL     1      14.819  44.341  43.067  1.00  0.00    -0.484 OA
ATOM     34  C   UNL     1      12.222  45.183  42.554  1.00  0.00     0.174 C 
ATOM     35  C   UNL     1      14.217  43.715  41.926  1.00  0.00     0.211 C 
ATOM     36  O   UNL     1      10.957  45.206  42.682  1.00  0.00    -0.294 OA
ATOM     37  C   UNL     1      12.822  44.331  41.493  1.00  0.00     0.131 C 
BRANCH  30  38
ATOM     38  O   UNL     1      11.363  47.696  43.821  1.00  0.00    -0.507 OA
ATOM     39  H   UNL     1      10.851  47.417  42.992  1.00  0.00     0.293 HD
ENDBRANCH  30  38
BRANCH  35  40
ATOM     40  C   UNL     1      15.205  43.810  40.806  1.00  0.00    -0.003 A 
ATOM     41  C   UNL     1      16.529  43.347  40.953  1.00  0.00     0.057 A 
ATOM     42  C   UNL     1      14.886  44.637  39.714  1.00  0.00     0.011 A 
ATOM     43  C   UNL     1      17.548  43.855  40.146  1.00  0.00     0.158 A 
ATOM     44  C   UNL     1      15.875  45.143  38.904  1.00  0.00     0.051 A 
ATOM     45  C   UNL     1      17.238  44.848  39.179  1.00  0.00     0.160 A 
BRANCH  43  46
ATOM     46  O   UNL     1      18.857  43.409  40.324  1.00  0.00    -0.504 OA
ATOM     47  H   UNL     1      19.557  43.953  40.816  1.00  0.00     0.293 HD
ENDBRANCH  43  46
BRANCH  45  48
ATOM     48  O   UNL     1      18.249  45.596  38.565  1.00  0.00    -0.493 OA
ATOM     49  C   UNL     1      18.434  45.664  37.133  1.00  0.00     0.278 C 
ENDBRANCH  45  48
ENDBRANCH  35  40
ENDBRANCH  26  27
ENDBRANCH   5  26
BRANCH   4  50
ATOM     50  O   UNL     1      15.556  47.477  49.790  1.00  0.00    -0.384 OA
ATOM     51  H   UNL     1      16.126  48.057  50.358  1.00  0.00     0.211 HD
ENDBRANCH   4  50
TORSDOF 15
ENDMDL
MODEL 5
REMARK VINA RESULT:    -6.558      2.737      4.592
REMARK INTER + INTRA:         -14.039
REMARK INTER:                 -11.048
REMARK INTRA:                  -2.991
REMARK UNBOUND:                -3.263
REMARK SMILES COc1ccc([C@@H]2CC(=O)c3c(O)cc(O[C@H]4O[C@@H](CO[C@@H]5O[C@@H](C)[C@@H](O)[C@@H](O)[C@H]5O)[C@@H](O)[C@@H](O)[C@@H]4O)cc3O2)cc1O
REMARK SMILES IDX 19 1 32 2 34 3 36 4 17 5 18 6 20 7 21 8 22 9 25 10 24 11
REMARK SMILES IDX 26 12 23 13 28 14 30 15 27 16 29 18 31 20 33 22 35 24 16 26
REMARK SMILES IDX 15 27 14 28 38 29 12 30 39 31 11 32 40 33 9 34 7 35 10 36
REMARK SMILES IDX 8 37 13 38 6 40 41 41 5 42 42 43 4 44 3 45 43 46 2 48 1 49
REMARK SMILES IDX 37 50
REMARK H PARENT 27 17 29 19 31 21 33 23 35 25 13 39 43 47 37 51
REMARK Flexibility Score: inf
ROOT
ATOM      1  C   UNL     1      10.359  46.370  47.398  1.00  0.00     0.180 C 
ATOM      2  C   UNL     1       9.747  46.253  48.836  1.00  0.00     0.177 C 
ATOM      3  C   UNL     1      10.639  46.960  49.895  1.00  0.00     0.180 C 
ATOM      4  C   UNL     1      10.818  48.400  49.444  1.00  0.00     0.214 C 
ATOM      5  C   UNL     1      11.499  48.407  48.058  1.00  0.00     0.339 C 
ATOM      6  O   UNL     1      10.756  47.699  47.046  1.00  0.00    -0.332 OA
ENDROOT
BRANCH   1   7
ATOM      7  C   UNL     1      11.483  45.315  47.102  1.00  0.00     0.198 C 
BRANCH   7   8
ATOM      8  O   UNL     1      11.431  44.954  45.755  1.00  0.00    -0.347 OA
BRANCH   8   9
ATOM      9  C   UNL     1      12.659  45.200  45.099  1.00  0.00     0.281 C 
ATOM     10  C   UNL     1      12.110  43.019  42.181  1.00  0.00     0.041 C 
ATOM     11  C   UNL     1      12.328  43.376  43.620  1.00  0.00     0.150 C 
ATOM     12  C   UNL     1      13.353  42.449  44.347  1.00  0.00     0.174 C 
ATOM     13  O   UNL     1      12.648  44.750  43.739  1.00  0.00    -0.344 OA
ATOM     14  C   UNL     1      13.377  42.943  45.812  1.00  0.00     0.179 C 
ATOM     15  C   UNL     1      13.727  44.468  45.932  1.00  0.00     0.202 C 
BRANCH  12  16
ATOM     16  O   UNL     1      14.638  42.307  43.726  1.00  0.00    -0.388 OA
ATOM     17  H   UNL     1      14.791  41.346  43.523  1.00  0.00     0.211 HD
ENDBRANCH  12  16
BRANCH  14  18
ATOM     18  O   UNL     1      14.222  42.191  46.659  1.00  0.00    -0.387 OA
ATOM     19  H   UNL     1      13.817  42.275  47.580  1.00  0.00     0.211 HD
ENDBRANCH  14  18
BRANCH  15  20
ATOM     20  O   UNL     1      15.028  44.743  45.454  1.00  0.00    -0.385 OA
ATOM     21  H   UNL     1      15.473  43.864  45.187  1.00  0.00     0.211 HD
ENDBRANCH  15  20
ENDBRANCH   8   9
ENDBRANCH   7   8
ENDBRANCH   1   7
BRANCH   2  22
ATOM     22  O   UNL     1       9.496  44.905  49.220  1.00  0.00    -0.387 OA
ATOM     23  H   UNL     1       8.512  44.789  49.326  1.00  0.00     0.211 HD
ENDBRANCH   2  22
BRANCH   3  24
ATOM     24  O   UNL     1      11.910  46.351  50.095  1.00  0.00    -0.387 OA
ATOM     25  H   UNL     1      11.754  45.397  50.268  1.00  0.00     0.211 HD
ENDBRANCH   3  24
BRANCH   5  26
ATOM     26  O   UNL     1      12.832  47.898  48.174  1.00  0.00    -0.462 OA
BRANCH  26  27
ATOM     27  C   UNL     1      13.934  48.313  47.412  1.00  0.00     0.130 A 
ATOM     28  C   UNL     1      15.076  48.860  48.045  1.00  0.00     0.093 A 
ATOM     29  C   UNL     1      13.828  48.301  46.020  1.00  0.00     0.094 A 
ATOM     30  C   UNL     1      16.067  49.449  47.237  1.00  0.00     0.133 A 
ATOM     31  C   UNL     1      14.783  48.932  45.228  1.00  0.00     0.138 A 
ATOM     32  C   UNL     1      15.900  49.559  45.848  1.00  0.00     0.102 A 
ATOM     33  O   UNL     1      14.503  49.192  43.890  1.00  0.00    -0.484 OA
ATOM     34  C   UNL     1      16.829  50.267  44.963  1.00  0.00     0.174 C 
ATOM     35  C   UNL     1      15.518  49.474  42.917  1.00  0.00     0.211 C 
ATOM     36  O   UNL     1      17.594  51.179  45.408  1.00  0.00    -0.294 OA
ATOM     37  C   UNL     1      16.922  49.888  43.527  1.00  0.00     0.131 C 
BRANCH  30  38
ATOM     38  O   UNL     1      17.230  49.948  47.860  1.00  0.00    -0.507 OA
ATOM     39  H   UNL     1      17.230  50.111  48.860  1.00  0.00     0.293 HD
ENDBRANCH  30  38
BRANCH  35  40
ATOM     40  C   UNL     1      15.655  48.253  42.063  1.00  0.00    -0.003 A 
ATOM     41  C   UNL     1      15.244  46.985  42.524  1.00  0.00     0.057 A 
ATOM     42  C   UNL     1      16.472  48.335  40.922  1.00  0.00     0.011 A 
ATOM     43  C   UNL     1      15.794  45.823  41.979  1.00  0.00     0.158 A 
ATOM     44  C   UNL     1      17.020  47.202  40.367  1.00  0.00     0.051 A 
ATOM     45  C   UNL     1      16.778  45.933  40.960  1.00  0.00     0.160 A 
BRANCH  43  46
ATOM     46  O   UNL     1      15.400  44.578  42.466  1.00  0.00    -0.504 OA
ATOM     47  H   UNL     1      14.892  43.907  41.902  1.00  0.00     0.293 HD
ENDBRANCH  43  46
BRANCH  45  48
ATOM     48  O   UNL     1      17.566  44.836  40.600  1.00  0.00    -0.493 OA
ATOM     49  C   UNL     1      18.499  44.850  39.495  1.00  0.00     0.278 C 
ENDBRANCH  45  48
ENDBRANCH  35  40
ENDBRANCH  26  27
ENDBRANCH   5  26
BRANCH   4  50
ATOM     50  O   UNL     1       9.566  49.063  49.384  1.00  0.00    -0.384 OA
ATOM     51  H   UNL     1       8.984  48.462  48.850  1.00  0.00     0.211 HD
ENDBRANCH   4  50
TORSDOF 15
ENDMDL
MODEL 6
REMARK VINA RESULT:    -6.547      2.087      7.465
REMARK INTER + INTRA:         -14.020
REMARK INTER:                 -11.558
REMARK INTRA:                  -2.462
REMARK UNBOUND:                -3.263
REMARK SMILES COc1ccc([C@@H]2CC(=O)c3c(O)cc(O[C@H]4O[C@@H](CO[C@@H]5O[C@@H](C)[C@@H](O)[C@@H](O)[C@H]5O)[C@@H](O)[C@@H](O)[C@@H]4O)cc3O2)cc1O
REMARK SMILES IDX 19 1 32 2 34 3 36 4 17 5 18 6 20 7 21 8 22 9 25 10 24 11
REMARK SMILES IDX 26 12 23 13 28 14 30 15 27 16 29 18 31 20 33 22 35 24 16 26
REMARK SMILES IDX 15 27 14 28 38 29 12 30 39 31 11 32 40 33 9 34 7 35 10 36
REMARK SMILES IDX 8 37 13 38 6 40 41 41 5 42 42 43 4 44 3 45 43 46 2 48 1 49
REMARK SMILES IDX 37 50
REMARK H PARENT 27 17 29 19 31 21 33 23 35 25 13 39 43 47 37 51
REMARK Flexibility Score: inf
ROOT
ATOM      1  C   UNL     1      19.356  48.525  44.906  1.00  0.00     0.180 C 
ATOM      2  C   UNL     1      20.362  49.718  45.056  1.00  0.00     0.177 C 
ATOM      3  C   UNL     1      19.823  50.799  46.036  1.00  0.00     0.180 C 
ATOM      4  C   UNL     1      19.528  50.103  47.355  1.00  0.00     0.214 C 
ATOM      5  C   UNL     1      18.471  49.003  47.113  1.00  0.00     0.339 C 
ATOM      6  O   UNL     1      18.882  48.010  46.153  1.00  0.00    -0.332 OA
ENDROOT
BRANCH   1   7
ATOM      7  C   UNL     1      18.188  48.807  43.895  1.00  0.00     0.198 C 
BRANCH   7   8
ATOM      8  O   UNL     1      18.234  47.867  42.866  1.00  0.00    -0.347 OA
BRANCH   8   9
ATOM      9  C   UNL     1      17.181  46.929  42.964  1.00  0.00     0.281 C 
ATOM     10  C   UNL     1      17.641  45.317  39.684  1.00  0.00     0.041 C 
ATOM     11  C   UNL     1      17.316  46.412  40.654  1.00  0.00     0.150 C 
ATOM     12  C   UNL     1      16.035  47.222  40.277  1.00  0.00     0.174 C 
ATOM     13  O   UNL     1      17.276  45.900  41.973  1.00  0.00    -0.344 OA
ATOM     14  C   UNL     1      15.923  48.325  41.355  1.00  0.00     0.179 C 
ATOM     15  C   UNL     1      15.885  47.747  42.813  1.00  0.00     0.202 C 
BRANCH  12  16
ATOM     16  O   UNL     1      14.841  46.461  40.053  1.00  0.00    -0.388 OA
ATOM     17  H   UNL     1      14.375  46.822  39.253  1.00  0.00     0.211 HD
ENDBRANCH  12  16
BRANCH  14  18
ATOM     18  O   UNL     1      14.837  49.208  41.163  1.00  0.00    -0.387 OA
ATOM     19  H   UNL     1      14.601  49.130  40.184  1.00  0.00     0.211 HD
ENDBRANCH  14  18
BRANCH  15  20
ATOM     20  O   UNL     1      14.743  46.941  43.024  1.00  0.00    -0.385 OA
ATOM     21  H   UNL     1      14.887  46.381  43.865  1.00  0.00     0.211 HD
ENDBRANCH  15  20
ENDBRANCH   8   9
ENDBRANCH   7   8
ENDBRANCH   1   7
BRANCH   2  22
ATOM     22  O   UNL     1      20.706  50.309  43.808  1.00  0.00    -0.387 OA
ATOM     23  H   UNL     1      21.273  49.664  43.303  1.00  0.00     0.211 HD
ENDBRANCH   2  22
BRANCH   3  24
ATOM     24  O   UNL     1      18.663  51.483  45.578  1.00  0.00    -0.387 OA
ATOM     25  H   UNL     1      17.901  51.155  46.105  1.00  0.00     0.211 HD
ENDBRANCH   3  24
BRANCH   5  26
ATOM     26  O   UNL     1      17.228  49.605  46.739  1.00  0.00    -0.462 OA
BRANCH  26  27
ATOM     27  C   UNL     1      15.956  49.155  47.119  1.00  0.00     0.130 A 
ATOM     28  C   UNL     1      15.483  49.373  48.435  1.00  0.00     0.093 A 
ATOM     29  C   UNL     1      15.225  48.375  46.220  1.00  0.00     0.094 A 
ATOM     30  C   UNL     1      14.295  48.731  48.831  1.00  0.00     0.133 A 
ATOM     31  C   UNL     1      14.081  47.698  46.632  1.00  0.00     0.138 A 
ATOM     32  C   UNL     1      13.632  47.839  47.975  1.00  0.00     0.102 A 
ATOM     33  O   UNL     1      13.557  46.685  45.833  1.00  0.00    -0.484 OA
ATOM     34  C   UNL     1      12.464  47.043  48.361  1.00  0.00     0.174 C 
ATOM     35  C   UNL     1      12.214  46.202  45.961  1.00  0.00     0.211 C 
ATOM     36  O   UNL     1      12.232  46.768  49.581  1.00  0.00    -0.294 OA
ATOM     37  C   UNL     1      11.501  46.584  47.325  1.00  0.00     0.131 C 
BRANCH  30  38
ATOM     38  O   UNL     1      13.794  48.988  50.124  1.00  0.00    -0.507 OA
ATOM     39  H   UNL     1      14.074  48.394  50.896  1.00  0.00     0.293 HD
ENDBRANCH  30  38
BRANCH  35  40
ATOM     40  C   UNL     1      11.444  46.740  44.797  1.00  0.00    -0.003 A 
ATOM     41  C   UNL     1      10.651  47.901  44.915  1.00  0.00     0.057 A 
ATOM     42  C   UNL     1      11.281  45.910  43.674  1.00  0.00     0.011 A 
ATOM     43  C   UNL     1       9.587  48.121  44.037  1.00  0.00     0.158 A 
ATOM     44  C   UNL     1      10.243  46.113  42.795  1.00  0.00     0.051 A 
ATOM     45  C   UNL     1       9.310  47.159  43.028  1.00  0.00     0.160 A 
BRANCH  43  46
ATOM     46  O   UNL     1       8.794  49.256  44.185  1.00  0.00    -0.504 OA
ATOM     47  H   UNL     1       7.797  49.254  44.001  1.00  0.00     0.293 HD
ENDBRANCH  43  46
BRANCH  45  48
ATOM     48  O   UNL     1       8.098  47.178  42.330  1.00  0.00    -0.493 OA
ATOM     49  C   UNL     1       7.901  47.897  41.091  1.00  0.00     0.278 C 
ENDBRANCH  45  48
ENDBRANCH  35  40
ENDBRANCH  26  27
ENDBRANCH   5  26
BRANCH   4  50
ATOM     50  O   UNL     1      20.712  49.541  47.898  1.00  0.00    -0.384 OA
ATOM     51  H   UNL     1      21.273  49.318  47.110  1.00  0.00     0.211 HD
ENDBRANCH   4  50
TORSDOF 15
ENDMDL
MODEL 7
REMARK VINA RESULT:    -6.493      2.084      6.624
REMARK INTER + INTRA:         -13.931
REMARK INTER:                 -10.648
REMARK INTRA:                  -3.283
REMARK UNBOUND:                -3.263
REMARK SMILES COc1ccc([C@@H]2CC(=O)c3c(O)cc(O[C@H]4O[C@@H](CO[C@@H]5O[C@@H](C)[C@@H](O)[C@@H](O)[C@H]5O)[C@@H](O)[C@@H](O)[C@@H]4O)cc3O2)cc1O
REMARK SMILES IDX 19 1 32 2 34 3 36 4 17 5 18 6 20 7 21 8 22 9 25 10 24 11
REMARK SMILES IDX 26 12 23 13 28 14 30 15 27 16 29 18 31 20 33 22 35 24 16 26
REMARK SMILES IDX 15 27 14 28 38 29 12 30 39 31 11 32 40 33 9 34 7 35 10 36
REMARK SMILES IDX 8 37 13 38 6 40 41 41 5 42 42 43 4 44 3 45 43 46 2 48 1 49
REMARK SMILES IDX 37 50
REMARK H PARENT 27 17 29 19 31 21 33 23 35 25 13 39 43 47 37 51
REMARK Flexibility Score: inf
ROOT
ATOM      1  C   UNL     1      19.046  47.568  45.170  1.00  0.00     0.180 C 
ATOM      2  C   UNL     1      20.052  48.489  45.944  1.00  0.00     0.177 C 
ATOM      3  C   UNL     1      19.378  49.166  47.171  1.00  0.00     0.180 C 
ATOM      4  C   UNL     1      18.803  48.057  48.037  1.00  0.00     0.214 C 
ATOM      5  C   UNL     1      17.769  47.263  47.209  1.00  0.00     0.339 C 
ATOM      6  O   UNL     1      18.318  46.673  46.014  1.00  0.00    -0.332 OA
ENDROOT
BRANCH   1   7
ATOM      7  C   UNL     1      18.112  48.348  44.179  1.00  0.00     0.198 C 
BRANCH   7   8
ATOM      8  O   UNL     1      18.105  47.697  42.945  1.00  0.00    -0.347 OA
BRANCH   8   9
ATOM      9  C   UNL     1      17.020  46.797  42.832  1.00  0.00     0.281 C 
ATOM     10  C   UNL     1      17.751  45.561  39.440  1.00  0.00     0.041 C 
ATOM     11  C   UNL     1      17.364  46.548  40.499  1.00  0.00     0.150 C 
ATOM     12  C   UNL     1      16.150  47.446  40.105  1.00  0.00     0.174 C 
ATOM     13  O   UNL     1      17.182  45.887  41.738  1.00  0.00    -0.344 OA
ATOM     14  C   UNL     1      15.965  48.420  41.291  1.00  0.00     0.179 C 
ATOM     15  C   UNL     1      15.770  47.678  42.660  1.00  0.00     0.202 C 
BRANCH  12  16
ATOM     16  O   UNL     1      14.962  46.765  39.681  1.00  0.00    -0.388 OA
ATOM     17  H   UNL     1      14.835  45.958  40.247  1.00  0.00     0.211 HD
ENDBRANCH  12  16
BRANCH  14  18
ATOM     18  O   UNL     1      14.929  49.363  41.107  1.00  0.00    -0.387 OA
ATOM     19  H   UNL     1      15.389  50.262  41.088  1.00  0.00     0.211 HD
ENDBRANCH  14  18
BRANCH  15  20
ATOM     20  O   UNL     1      14.590  46.900  42.666  1.00  0.00    -0.385 OA
ATOM     21  H   UNL     1      14.070  47.097  43.523  1.00  0.00     0.211 HD
ENDBRANCH  15  20
ENDBRANCH   8   9
ENDBRANCH   7   8
ENDBRANCH   1   7
BRANCH   2  22
ATOM     22  O   UNL     1      20.658  49.468  45.107  1.00  0.00    -0.387 OA
ATOM     23  H   UNL     1      20.679  50.333  45.604  1.00  0.00     0.211 HD
ENDBRANCH   2  22
BRANCH   3  24
ATOM     24  O   UNL     1      18.359  50.102  46.840  1.00  0.00    -0.387 OA
ATOM     25  H   UNL     1      17.514  49.755  47.200  1.00  0.00     0.211 HD
ENDBRANCH   3  24
BRANCH   5  26
ATOM     26  O   UNL     1      16.649  48.101  46.907  1.00  0.00    -0.462 OA
BRANCH  26  27
ATOM     27  C   UNL     1      15.394  47.659  46.463  1.00  0.00     0.130 A 
ATOM     28  C   UNL     1      14.242  48.455  46.664  1.00  0.00     0.093 A 
ATOM     29  C   UNL     1      15.286  46.368  45.943  1.00  0.00     0.094 A 
ATOM     30  C   UNL     1      12.984  47.888  46.390  1.00  0.00     0.133 A 
ATOM     31  C   UNL     1      14.037  45.791  45.725  1.00  0.00     0.138 A 
ATOM     32  C   UNL     1      12.863  46.547  45.997  1.00  0.00     0.102 A 
ATOM     33  O   UNL     1      13.941  44.418  45.521  1.00  0.00    -0.484 OA
ATOM     34  C   UNL     1      11.583  45.856  45.815  1.00  0.00     0.174 C 
ATOM     35  C   UNL     1      12.798  43.792  44.923  1.00  0.00     0.211 C 
ATOM     36  O   UNL     1      10.529  46.261  46.400  1.00  0.00    -0.294 OA
ATOM     37  C   UNL     1      11.492  44.690  44.895  1.00  0.00     0.131 C 
BRANCH  30  38
ATOM     38  O   UNL     1      11.838  48.696  46.540  1.00  0.00    -0.507 OA
ATOM     39  H   UNL     1      11.420  49.128  45.724  1.00  0.00     0.293 HD
ENDBRANCH  30  38
BRANCH  35  40
ATOM     40  C   UNL     1      13.194  43.397  43.536  1.00  0.00    -0.003 A 
ATOM     41  C   UNL     1      14.536  43.109  43.209  1.00  0.00     0.057 A 
ATOM     42  C   UNL     1      12.267  43.609  42.500  1.00  0.00     0.011 A 
ATOM     43  C   UNL     1      14.982  43.226  41.891  1.00  0.00     0.158 A 
ATOM     44  C   UNL     1      12.686  43.722  41.195  1.00  0.00     0.051 A 
ATOM     45  C   UNL     1      14.071  43.644  40.885  1.00  0.00     0.160 A 
BRANCH  43  46
ATOM     46  O   UNL     1      16.318  42.967  41.589  1.00  0.00    -0.504 OA
ATOM     47  H   UNL     1      16.885  43.600  41.037  1.00  0.00     0.293 HD
ENDBRANCH  43  46
BRANCH  45  48
ATOM     48  O   UNL     1      14.527  44.061  39.630  1.00  0.00    -0.493 OA
ATOM     49  C   UNL     1      14.601  43.192  38.477  1.00  0.00     0.278 C 
ENDBRANCH  45  48
ENDBRANCH  35  40
ENDBRANCH  26  27
ENDBRANCH   5  26
BRANCH   4  50
ATOM     50  O   UNL     1      19.834  47.198  48.497  1.00  0.00    -0.384 OA
ATOM     51  H   UNL     1      19.545  46.287  48.231  1.00  0.00     0.211 HD
ENDBRANCH   4  50
TORSDOF 15
ENDMDL
MODEL 8
REMARK VINA RESULT:    -6.481      2.141      6.626
REMARK INTER + INTRA:         -13.913
REMARK INTER:                 -10.502
REMARK INTRA:                  -3.411
REMARK UNBOUND:                -3.263
REMARK SMILES COc1ccc([C@@H]2CC(=O)c3c(O)cc(O[C@H]4O[C@@H](CO[C@@H]5O[C@@H](C)[C@@H](O)[C@@H](O)[C@H]5O)[C@@H](O)[C@@H](O)[C@@H]4O)cc3O2)cc1O
REMARK SMILES IDX 19 1 32 2 34 3 36 4 17 5 18 6 20 7 21 8 22 9 25 10 24 11
REMARK SMILES IDX 26 12 23 13 28 14 30 15 27 16 29 18 31 20 33 22 35 24 16 26
REMARK SMILES IDX 15 27 14 28 38 29 12 30 39 31 11 32 40 33 9 34 7 35 10 36
REMARK SMILES IDX 8 37 13 38 6 40 41 41 5 42 42 43 4 44 3 45 43 46 2 48 1 49
REMARK SMILES IDX 37 50
REMARK H PARENT 27 17 29 19 31 21 33 23 35 25 13 39 43 47 37 51
REMARK Flexibility Score: inf
ROOT
ATOM      1  C   UNL     1      19.371  49.006  45.849  1.00  0.00     0.180 C 
ATOM      2  C   UNL     1      20.140  49.471  47.133  1.00  0.00     0.177 C 
ATOM      3  C   UNL     1      19.268  49.310  48.410  1.00  0.00     0.180 C 
ATOM      4  C   UNL     1      18.829  47.856  48.476  1.00  0.00     0.214 C 
ATOM      5  C   UNL     1      18.014  47.524  47.207  1.00  0.00     0.339 C 
ATOM      6  O   UNL     1      18.746  47.726  45.982  1.00  0.00    -0.332 OA
ENDROOT
BRANCH   1   7
ATOM      7  C   UNL     1      18.393  50.090  45.272  1.00  0.00     0.198 C 
BRANCH   7   8
ATOM      8  O   UNL     1      17.350  49.455  44.597  1.00  0.00    -0.347 OA
BRANCH   8   9
ATOM      9  C   UNL     1      16.980  50.155  43.425  1.00  0.00     0.281 C 
ATOM     10  C   UNL     1      13.464  49.069  43.285  1.00  0.00     0.041 C 
ATOM     11  C   UNL     1      14.955  48.936  43.238  1.00  0.00     0.150 C 
ATOM     12  C   UNL     1      15.467  48.038  42.067  1.00  0.00     0.174 C 
ATOM     13  O   UNL     1      15.560  50.216  43.255  1.00  0.00    -0.344 OA
ATOM     14  C   UNL     1      17.002  47.983  42.242  1.00  0.00     0.179 C 
ATOM     15  C   UNL     1      17.662  49.407  42.265  1.00  0.00     0.202 C 
BRANCH  12  16
ATOM     16  O   UNL     1      15.011  48.382  40.752  1.00  0.00    -0.388 OA
ATOM     17  H   UNL     1      15.663  49.008  40.340  1.00  0.00     0.211 HD
ENDBRANCH  12  16
BRANCH  14  18
ATOM     18  O   UNL     1      17.660  47.167  41.294  1.00  0.00    -0.387 OA
ATOM     19  H   UNL     1      17.399  46.221  41.531  1.00  0.00     0.211 HD
ENDBRANCH  14  18
BRANCH  15  20
ATOM     20  O   UNL     1      17.478  50.086  41.039  1.00  0.00    -0.385 OA
ATOM     21  H   UNL     1      18.376  50.464  40.735  1.00  0.00     0.211 HD
ENDBRANCH  15  20
ENDBRANCH   8   9
ENDBRANCH   7   8
ENDBRANCH   1   7
BRANCH   2  22
ATOM     22  O   UNL     1      20.629  50.804  47.031  1.00  0.00    -0.387 OA
ATOM     23  H   UNL     1      19.857  51.427  47.127  1.00  0.00     0.211 HD
ENDBRANCH   2  22
BRANCH   3  24
ATOM     24  O   UNL     1      18.130  50.164  48.456  1.00  0.00    -0.387 OA
ATOM     25  H   UNL     1      17.334  49.590  48.504  1.00  0.00     0.211 HD
ENDBRANCH   3  24
BRANCH   5  26
ATOM     26  O   UNL     1      16.792  48.268  47.211  1.00  0.00    -0.462 OA
BRANCH  26  27
ATOM     27  C   UNL     1      15.565  47.826  46.697  1.00  0.00     0.130 A 
ATOM     28  C   UNL     1      14.361  48.476  47.059  1.00  0.00     0.093 A 
ATOM     29  C   UNL     1      15.541  46.657  45.933  1.00  0.00     0.094 A 
ATOM     30  C   UNL     1      13.143  47.877  46.687  1.00  0.00     0.133 A 
ATOM     31  C   UNL     1      14.335  46.040  45.614  1.00  0.00     0.138 A 
ATOM     32  C   UNL     1      13.113  46.634  46.039  1.00  0.00     0.102 A 
ATOM     33  O   UNL     1      14.337  44.729  45.145  1.00  0.00    -0.484 OA
ATOM     34  C   UNL     1      11.885  45.895  45.733  1.00  0.00     0.174 C 
ATOM     35  C   UNL     1      13.231  44.147  44.443  1.00  0.00     0.211 C 
ATOM     36  O   UNL     1      10.817  46.094  46.393  1.00  0.00    -0.294 OA
ATOM     37  C   UNL     1      11.861  44.929  44.602  1.00  0.00     0.131 C 
BRANCH  30  38
ATOM     38  O   UNL     1      11.943  48.549  47.002  1.00  0.00    -0.507 OA
ATOM     39  H   UNL     1      11.131  48.015  47.290  1.00  0.00     0.293 HD
ENDBRANCH  30  38
BRANCH  35  40
ATOM     40  C   UNL     1      13.625  44.063  43.002  1.00  0.00    -0.003 A 
ATOM     41  C   UNL     1      14.980  44.037  42.612  1.00  0.00     0.057 A 
ATOM     42  C   UNL     1      12.637  44.314  42.033  1.00  0.00     0.011 A 
ATOM     43  C   UNL     1      15.353  44.447  41.330  1.00  0.00     0.158 A 
ATOM     44  C   UNL     1      12.984  44.714  40.764  1.00  0.00     0.051 A 
ATOM     45  C   UNL     1      14.353  44.896  40.427  1.00  0.00     0.160 A 
BRANCH  43  46
ATOM     46  O   UNL     1      16.699  44.445  40.969  1.00  0.00    -0.504 OA
ATOM     47  H   UNL     1      17.436  44.729  41.605  1.00  0.00     0.293 HD
ENDBRANCH  43  46
BRANCH  45  48
ATOM     48  O   UNL     1      14.696  45.590  39.261  1.00  0.00    -0.493 OA
ATOM     49  C   UNL     1      13.813  45.726  38.124  1.00  0.00     0.278 C 
ENDBRANCH  45  48
ENDBRANCH  35  40
ENDBRANCH  26  27
ENDBRANCH   5  26
BRANCH   4  50
ATOM     50  O   UNL     1      19.956  47.000  48.580  1.00  0.00    -0.384 OA
ATOM     51  H   UNL     1      19.765  46.251  47.959  1.00  0.00     0.211 HD
ENDBRANCH   4  50
TORSDOF 15
ENDMDL
MODEL 9
REMARK VINA RESULT:    -6.438      2.388      5.112
REMARK INTER + INTRA:         -13.841
REMARK INTER:                 -11.300
REMARK INTRA:                  -2.541
REMARK UNBOUND:                -3.263
REMARK SMILES COc1ccc([C@@H]2CC(=O)c3c(O)cc(O[C@H]4O[C@@H](CO[C@@H]5O[C@@H](C)[C@@H](O)[C@@H](O)[C@H]5O)[C@@H](O)[C@@H](O)[C@@H]4O)cc3O2)cc1O
REMARK SMILES IDX 19 1 32 2 34 3 36 4 17 5 18 6 20 7 21 8 22 9 25 10 24 11
REMARK SMILES IDX 26 12 23 13 28 14 30 15 27 16 29 18 31 20 33 22 35 24 16 26
REMARK SMILES IDX 15 27 14 28 38 29 12 30 39 31 11 32 40 33 9 34 7 35 10 36
REMARK SMILES IDX 8 37 13 38 6 40 41 41 5 42 42 43 4 44 3 45 43 46 2 48 1 49
REMARK SMILES IDX 37 50
REMARK H PARENT 27 17 29 19 31 21 33 23 35 25 13 39 43 47 37 51
REMARK Flexibility Score: inf
ROOT
ATOM      1  C   UNL     1       9.977  46.536  45.802  1.00  0.00     0.180 C 
ATOM      2  C   UNL     1       9.317  47.166  47.077  1.00  0.00     0.177 C 
ATOM      3  C   UNL     1      10.150  48.363  47.618  1.00  0.00     0.180 C 
ATOM      4  C   UNL     1      10.303  49.356  46.477  1.00  0.00     0.214 C 
ATOM      5  C   UNL     1      11.033  48.662  45.306  1.00  0.00     0.339 C 
ATOM      6  O   UNL     1      10.346  47.497  44.809  1.00  0.00    -0.332 OA
ENDROOT
BRANCH   1   7
ATOM      7  C   UNL     1      11.140  45.532  46.123  1.00  0.00     0.198 C 
BRANCH   7   8
ATOM      8  O   UNL     1      11.373  44.727  45.008  1.00  0.00    -0.347 OA
BRANCH   8   9
ATOM      9  C   UNL     1      12.653  44.956  44.453  1.00  0.00     0.281 C 
ATOM     10  C   UNL     1      12.503  42.419  41.787  1.00  0.00     0.041 C 
ATOM     11  C   UNL     1      12.553  42.955  43.186  1.00  0.00     0.150 C 
ATOM     12  C   UNL     1      13.531  42.175  44.120  1.00  0.00     0.174 C 
ATOM     13  O   UNL     1      12.804  44.349  43.165  1.00  0.00    -0.344 OA
ATOM     14  C   UNL     1      13.380  42.840  45.508  1.00  0.00     0.179 C 
ATOM     15  C   UNL     1      13.654  44.385  45.474  1.00  0.00     0.202 C 
BRANCH  12  16
ATOM     16  O   UNL     1      14.879  42.028  43.654  1.00  0.00    -0.388 OA
ATOM     17  H   UNL     1      15.160  41.083  43.781  1.00  0.00     0.211 HD
ENDBRANCH  12  16
BRANCH  14  18
ATOM     18  O   UNL     1      14.160  42.239  46.522  1.00  0.00    -0.387 OA
ATOM     19  H   UNL     1      13.537  42.140  47.311  1.00  0.00     0.211 HD
ENDBRANCH  14  18
BRANCH  15  20
ATOM     20  O   UNL     1      14.987  44.669  45.098  1.00  0.00    -0.385 OA
ATOM     21  H   UNL     1      15.310  43.942  44.458  1.00  0.00     0.211 HD
ENDBRANCH  15  20
ENDBRANCH   8   9
ENDBRANCH   7   8
ENDBRANCH   1   7
BRANCH   2  22
ATOM     22  O   UNL     1       9.092  46.212  48.109  1.00  0.00    -0.387 OA
ATOM     23  H   UNL     1       8.111  46.162  48.279  1.00  0.00     0.211 HD
ENDBRANCH   2  22
BRANCH   3  24
ATOM     24  O   UNL     1      11.431  48.006  48.127  1.00  0.00    -0.387 OA
ATOM     25  H   UNL     1      11.870  47.447  47.450  1.00  0.00     0.211 HD
ENDBRANCH   3  24
BRANCH   5  26
ATOM     26  O   UNL     1      12.375  48.349  45.693  1.00  0.00    -0.462 OA
BRANCH  26  27
ATOM     27  C   UNL     1      13.517  48.529  44.899  1.00  0.00     0.130 A 
ATOM     28  C   UNL     1      13.407  49.085  43.603  1.00  0.00     0.093 A 
ATOM     29  C   UNL     1      14.736  48.028  45.358  1.00  0.00     0.094 A 
ATOM     30  C   UNL     1      14.540  49.058  42.768  1.00  0.00     0.133 A 
ATOM     31  C   UNL     1      15.839  47.954  44.512  1.00  0.00     0.138 A 
ATOM     32  C   UNL     1      15.727  48.434  43.177  1.00  0.00     0.102 A 
ATOM     33  O   UNL     1      16.930  47.168  44.872  1.00  0.00    -0.484 OA
ATOM     34  C   UNL     1      16.902  48.259  42.318  1.00  0.00     0.174 C 
ATOM     35  C   UNL     1      18.230  47.317  44.288  1.00  0.00     0.211 C 
ATOM     36  O   UNL     1      16.795  48.258  41.051  1.00  0.00    -0.294 OA
ATOM     37  C   UNL     1      18.254  48.127  42.925  1.00  0.00     0.131 C 
BRANCH  30  38
ATOM     38  O   UNL     1      14.448  49.658  41.494  1.00  0.00    -0.507 OA
ATOM     39  H   UNL     1      14.893  49.215  40.699  1.00  0.00     0.293 HD
ENDBRANCH  30  38
BRANCH  35  40
ATOM     40  C   UNL     1      19.094  47.984  45.311  1.00  0.00    -0.003 A 
ATOM     41  C   UNL     1      19.084  47.574  46.660  1.00  0.00     0.057 A 
ATOM     42  C   UNL     1      19.686  49.215  44.973  1.00  0.00     0.011 A 
ATOM     43  C   UNL     1      19.475  48.457  47.669  1.00  0.00     0.158 A 
ATOM     44  C   UNL     1      20.082  50.095  45.951  1.00  0.00     0.051 A 
ATOM     45  C   UNL     1      19.878  49.774  47.321  1.00  0.00     0.160 A 
BRANCH  43  46
ATOM     46  O   UNL     1      19.431  48.047  49.000  1.00  0.00    -0.504 OA
ATOM     47  H   UNL     1      20.062  47.350  49.379  1.00  0.00     0.293 HD
ENDBRANCH  43  46
BRANCH  45  48
ATOM     48  O   UNL     1      19.987  50.773  48.294  1.00  0.00    -0.493 OA
ATOM     49  C   UNL     1      21.132  51.648  48.416  1.00  0.00     0.278 C 
ENDBRANCH  45  48
ENDBRANCH  35  40
ENDBRANCH  26  27
ENDBRANCH   5  26
BRANCH   4  50
ATOM     50  O   UNL     1       9.035  49.833  46.058  1.00  0.00    -0.384 OA
ATOM     51  H   UNL     1       8.462  49.778  46.866  1.00  0.00     0.211 HD
ENDBRANCH   4  50
TORSDOF 15
ENDMDL
