MODEL 1
REMARK VINA RESULT:    -3.734      0.000      0.000
REMARK INTER + INTRA:          -5.292
REMARK INTER:                  -5.044
REMARK INTRA:                  -0.248
REMARK UNBOUND:                -0.248
REMARK SMILES CCCCCCCC(=O)[O-]
REMARK SMILES IDX 5 1 6 2 7 3 8 4 9 5 10 6 4 7 3 8 2 9 1 10
REMARK H PARENT
REMARK Flexibility Score: inf
ROOT
ATOM      1  C   UNL     1      29.191  10.077  21.842  1.00  0.00     0.000 C 
ENDROOT
BRANCH   1   2
ATOM      2  C   UNL     1      27.750   9.889  22.338  1.00  0.00     0.006 C 
BRANCH   2   3
ATOM      3  C   UNL     1      27.032  11.237  22.457  1.00  0.00     0.053 C 
BRANCH   3   4
ATOM      4  C   UNL     1      25.766  11.229  21.661  1.00  0.00     0.041 C 
ATOM      5  O   UNL     1      24.666  10.984  22.223  1.00  0.00    -0.550 OA
ATOM      6  O   UNL     1      25.794  11.539  20.307  1.00  0.00    -0.550 OA
ENDBRANCH   3   4
ENDBRANCH   2   3
ENDBRANCH   1   2
BRANCH   1   7
ATOM      7  C   UNL     1      29.630   8.986  20.847  1.00  0.00     0.000 C 
BRANCH   7   8
ATOM      8  C   UNL     1      29.004   9.094  19.445  1.00  0.00    -0.000 C 
BRANCH   8   9
ATOM      9  C   UNL     1      30.023   8.876  18.317  1.00  0.00    -0.003 C 
ATOM     10  C   UNL     1      31.429   9.266  18.762  1.00  0.00     0.004 C 
ENDBRANCH   8   9
ENDBRANCH   7   8
ENDBRANCH   1   7
TORSDOF 6
ENDMDL
MODEL 2
REMARK VINA RESULT:    -3.649      1.410      1.661
REMARK INTER + INTRA:          -5.176
REMARK INTER:                  -4.909
REMARK INTRA:                  -0.267
REMARK UNBOUND:                -0.248
REMARK SMILES CCCCCCCC(=O)[O-]
REMARK SMILES IDX 5 1 6 2 7 3 8 4 9 5 10 6 4 7 3 8 2 9 1 10
REMARK H PARENT
REMARK Flexibility Score: inf
ROOT
ATOM      1  C   UNL     1      29.176   9.986  21.901  1.00  0.00     0.000 C 
ENDROOT
BRANCH   1   2
ATOM      2  C   UNL     1      27.863   9.913  22.694  1.00  0.00     0.006 C 
BRANCH   2   3
ATOM      3  C   UNL     1      26.770  10.750  22.023  1.00  0.00     0.053 C 
BRANCH   3   4
ATOM      4  C   UNL     1      26.177  11.717  22.998  1.00  0.00     0.041 C 
ATOM      5  O   UNL     1      25.218  11.366  23.735  1.00  0.00    -0.550 OA
ATOM      6  O   UNL     1      26.716  12.991  23.128  1.00  0.00    -0.550 OA
ENDBRANCH   3   4
ENDBRANCH   2   3
ENDBRANCH   1   2
BRANCH   1   7
ATOM      7  C   UNL     1      29.265   8.926  20.788  1.00  0.00     0.000 C 
BRANCH   7   8
ATOM      8  C   UNL     1      30.456   9.091  19.826  1.00  0.00    -0.000 C 
BRANCH   8   9
ATOM      9  C   UNL     1      30.030   9.140  18.351  1.00  0.00    -0.003 C 
ATOM     10  C   UNL     1      28.557   9.512  18.216  1.00  0.00     0.004 C 
ENDBRANCH   8   9
ENDBRANCH   7   8
ENDBRANCH   1   7
TORSDOF 6
ENDMDL
MODEL 3
REMARK VINA RESULT:    -3.433      2.511      5.101
REMARK INTER + INTRA:          -4.885
REMARK INTER:                  -4.717
REMARK INTRA:                  -0.168
REMARK UNBOUND:                -0.248
REMARK SMILES CCCCCCCC(=O)[O-]
REMARK SMILES IDX 5 1 6 2 7 3 8 4 9 5 10 6 4 7 3 8 2 9 1 10
REMARK H PARENT
REMARK Flexibility Score: inf
ROOT
ATOM      1  C   UNL     1      28.190  10.430  22.253  1.00  0.00     0.000 C 
ENDROOT
BRANCH   1   2
ATOM      2  C   UNL     1      28.477   9.030  21.689  1.00  0.00     0.006 C 
BRANCH   2   3
ATOM      3  C   UNL     1      29.920   8.928  21.185  1.00  0.00     0.053 C 
BRANCH   3   4
ATOM      4  C   UNL     1      29.994   9.285  19.734  1.00  0.00     0.041 C 
ATOM      5  O   UNL     1      28.989   9.133  18.991  1.00  0.00    -0.550 OA
ATOM      6  O   UNL     1      31.160   9.832  19.212  1.00  0.00    -0.550 OA
ENDBRANCH   3   4
ENDBRANCH   2   3
ENDBRANCH   1   2
BRANCH   1   7
ATOM      7  C   UNL     1      26.712  10.633  22.631  1.00  0.00     0.000 C 
BRANCH   7   8
ATOM      8  C   UNL     1      25.837  11.255  21.526  1.00  0.00    -0.000 C 
BRANCH   8   9
ATOM      9  C   UNL     1      24.335  11.027  21.753  1.00  0.00    -0.003 C 
ATOM     10  C   UNL     1      23.547  11.225  20.462  1.00  0.00     0.004 C 
ENDBRANCH   8   9
ENDBRANCH   7   8
ENDBRANCH   1   7
TORSDOF 6
ENDMDL
MODEL 4
REMARK VINA RESULT:    -3.419      2.450      4.917
REMARK INTER + INTRA:          -4.866
REMARK INTER:                  -4.620
REMARK INTRA:                  -0.245
REMARK UNBOUND:                -0.248
REMARK SMILES CCCCCCCC(=O)[O-]
REMARK SMILES IDX 5 1 6 2 7 3 8 4 9 5 10 6 4 7 3 8 2 9 1 10
REMARK H PARENT
REMARK Flexibility Score: inf
ROOT
ATOM      1  C   UNL     1      28.726   9.927  22.142  1.00  0.00     0.000 C 
ENDROOT
BRANCH   1   2
ATOM      2  C   UNL     1      28.984   8.898  21.032  1.00  0.00     0.006 C 
BRANCH   2   3
ATOM      3  C   UNL     1      30.138   9.344  20.129  1.00  0.00     0.053 C 
BRANCH   3   4
ATOM      4  C   UNL     1      29.763   9.197  18.689  1.00  0.00     0.041 C 
ATOM      5  O   UNL     1      28.578   9.407  18.318  1.00  0.00    -0.550 OA
ATOM      6  O   UNL     1      30.733   8.876  17.747  1.00  0.00    -0.550 OA
ENDBRANCH   3   4
ENDBRANCH   2   3
ENDBRANCH   1   2
BRANCH   1   7
ATOM      7  C   UNL     1      27.231  10.240  22.336  1.00  0.00     0.000 C 
BRANCH   7   8
ATOM      8  C   UNL     1      26.929  11.625  22.939  1.00  0.00    -0.000 C 
BRANCH   8   9
ATOM      9  C   UNL     1      26.120  12.525  21.994  1.00  0.00    -0.003 C 
ATOM     10  C   UNL     1      25.611  11.741  20.788  1.00  0.00     0.004 C 
ENDBRANCH   8   9
ENDBRANCH   7   8
ENDBRANCH   1   7
TORSDOF 6
ENDMDL
MODEL 5
REMARK VINA RESULT:    -3.377      0.867      1.619
REMARK INTER + INTRA:          -4.810
REMARK INTER:                  -4.601
REMARK INTRA:                  -0.209
REMARK UNBOUND:                -0.248
REMARK SMILES CCCCCCCC(=O)[O-]
REMARK SMILES IDX 5 1 6 2 7 3 8 4 9 5 10 6 4 7 3 8 2 9 1 10
REMARK H PARENT
REMARK Flexibility Score: inf
ROOT
ATOM      1  C   UNL     1      28.105  10.399  22.645  1.00  0.00     0.000 C 
ENDROOT
BRANCH   1   2
ATOM      2  C   UNL     1      27.080  11.518  22.409  1.00  0.00     0.006 C 
BRANCH   2   3
ATOM      3  C   UNL     1      25.655  10.956  22.371  1.00  0.00     0.053 C 
BRANCH   3   4
ATOM      4  C   UNL     1      24.925  11.460  21.166  1.00  0.00     0.041 C 
ATOM      5  O   UNL     1      25.566  11.863  20.160  1.00  0.00    -0.550 OA
ATOM      6  O   UNL     1      23.536  11.440  21.137  1.00  0.00    -0.550 OA
ENDBRANCH   3   4
ENDBRANCH   2   3
ENDBRANCH   1   2
BRANCH   1   7
ATOM      7  C   UNL     1      28.271   9.471  21.428  1.00  0.00     0.000 C 
BRANCH   7   8
ATOM      8  C   UNL     1      29.718   9.308  20.926  1.00  0.00    -0.000 C 
BRANCH   8   9
ATOM      9  C   UNL     1      29.805   9.107  19.406  1.00  0.00    -0.003 C 
ATOM     10  C   UNL     1      31.212   9.397  18.893  1.00  0.00     0.004 C 
ENDBRANCH   8   9
ENDBRANCH   7   8
ENDBRANCH   1   7
TORSDOF 6
ENDMDL
MODEL 6
REMARK VINA RESULT:    -3.335      3.614      5.469
REMARK INTER + INTRA:          -4.753
REMARK INTER:                  -4.287
REMARK INTRA:                  -0.466
REMARK UNBOUND:                -0.248
REMARK SMILES CCCCCCCC(=O)[O-]
REMARK SMILES IDX 5 1 6 2 7 3 8 4 9 5 10 6 4 7 3 8 2 9 1 10
REMARK H PARENT
REMARK Flexibility Score: inf
ROOT
ATOM      1  C   UNL     1      25.528  11.545  20.627  1.00  0.00     0.000 C 
ENDROOT
BRANCH   1   2
ATOM      2  C   UNL     1      26.269  11.959  21.906  1.00  0.00     0.006 C 
BRANCH   2   3
ATOM      3  C   UNL     1      26.208  10.848  22.959  1.00  0.00     0.053 C 
BRANCH   3   4
ATOM      4  C   UNL     1      27.565  10.258  23.177  1.00  0.00     0.041 C 
ATOM      5  O   UNL     1      27.831   9.660  24.253  1.00  0.00    -0.550 OA
ATOM      6  O   UNL     1      28.522  10.325  22.171  1.00  0.00    -0.550 OA
ENDBRANCH   3   4
ENDBRANCH   2   3
ENDBRANCH   1   2
BRANCH   1   7
ATOM      7  C   UNL     1      24.311  12.436  20.323  1.00  0.00     0.000 C 
BRANCH   7   8
ATOM      8  C   UNL     1      22.953  11.710  20.335  1.00  0.00    -0.000 C 
BRANCH   8   9
ATOM      9  C   UNL     1      23.022  10.325  20.994  1.00  0.00    -0.003 C 
ATOM     10  C   UNL     1      22.354  10.334  22.366  1.00  0.00     0.004 C 
ENDBRANCH   8   9
ENDBRANCH   7   8
ENDBRANCH   1   7
TORSDOF 6
ENDMDL
MODEL 7
REMARK VINA RESULT:    -3.312      3.246      5.380
REMARK INTER + INTRA:          -4.721
REMARK INTER:                  -4.291
REMARK INTRA:                  -0.430
REMARK UNBOUND:                -0.248
REMARK SMILES CCCCCCCC(=O)[O-]
REMARK SMILES IDX 5 1 6 2 7 3 8 4 9 5 10 6 4 7 3 8 2 9 1 10
REMARK H PARENT
REMARK Flexibility Score: inf
ROOT
ATOM      1  C   UNL     1      25.629  12.847  21.835  1.00  0.00     0.000 C 
ENDROOT
BRANCH   1   2
ATOM      2  C   UNL     1      26.682  12.053  22.622  1.00  0.00     0.006 C 
BRANCH   2   3
ATOM      3  C   UNL     1      26.947  10.695  21.966  1.00  0.00     0.053 C 
BRANCH   3   4
ATOM      4  C   UNL     1      28.118  10.022  22.609  1.00  0.00     0.041 C 
ATOM      5  O   UNL     1      29.238  10.012  22.034  1.00  0.00    -0.550 OA
ATOM      6  O   UNL     1      27.984   9.447  23.867  1.00  0.00    -0.550 OA
ENDBRANCH   3   4
ENDBRANCH   2   3
ENDBRANCH   1   2
BRANCH   1   7
ATOM      7  C   UNL     1      25.216  12.158  20.522  1.00  0.00     0.000 C 
BRANCH   7   8
ATOM      8  C   UNL     1      23.701  11.946  20.346  1.00  0.00    -0.000 C 
BRANCH   8   9
ATOM      9  C   UNL     1      23.247  10.528  20.724  1.00  0.00    -0.003 C 
ATOM     10  C   UNL     1      22.651  10.496  22.128  1.00  0.00     0.004 C 
ENDBRANCH   8   9
ENDBRANCH   7   8
ENDBRANCH   1   7
TORSDOF 6
ENDMDL
MODEL 8
REMARK VINA RESULT:    -3.289     16.507     17.998
REMARK INTER + INTRA:          -4.690
REMARK INTER:                  -4.452
REMARK INTRA:                  -0.238
REMARK UNBOUND:                -0.248
REMARK SMILES CCCCCCCC(=O)[O-]
REMARK SMILES IDX 5 1 6 2 7 3 8 4 9 5 10 6 4 7 3 8 2 9 1 10
REMARK H PARENT
REMARK Flexibility Score: inf
ROOT
ATOM      1  C   UNL     1      26.299  25.549  22.991  1.00  0.00     0.000 C 
ENDROOT
BRANCH   1   2
ATOM      2  C   UNL     1      27.546  26.227  22.404  1.00  0.00     0.006 C 
BRANCH   2   3
ATOM      3  C   UNL     1      27.697  27.654  22.940  1.00  0.00     0.053 C 
BRANCH   3   4
ATOM      4  C   UNL     1      29.137  28.058  22.955  1.00  0.00     0.041 C 
ATOM      5  O   UNL     1      29.797  28.090  21.883  1.00  0.00    -0.550 OA
ATOM      6  O   UNL     1      29.737  28.447  24.146  1.00  0.00    -0.550 OA
ENDBRANCH   3   4
ENDBRANCH   2   3
ENDBRANCH   1   2
BRANCH   1   7
ATOM      7  C   UNL     1      25.315  26.549  23.626  1.00  0.00     0.000 C 
BRANCH   7   8
ATOM      8  C   UNL     1      24.797  26.155  25.022  1.00  0.00    -0.000 C 
BRANCH   8   9
ATOM      9  C   UNL     1      23.327  26.540  25.245  1.00  0.00    -0.003 C 
ATOM     10  C   UNL     1      22.905  27.667  24.307  1.00  0.00     0.004 C 
ENDBRANCH   8   9
ENDBRANCH   7   8
ENDBRANCH   1   7
TORSDOF 6
ENDMDL
MODEL 9
REMARK VINA RESULT:    -2.440      2.557      3.168
REMARK INTER + INTRA:          -3.544
REMARK INTER:                  -3.303
REMARK INTRA:                  -0.241
REMARK UNBOUND:                -0.248
REMARK SMILES CCCCCCCC(=O)[O-]
REMARK SMILES IDX 5 1 6 2 7 3 8 4 9 5 10 6 4 7 3 8 2 9 1 10
REMARK H PARENT
REMARK Flexibility Score: inf
ROOT
ATOM      1  C   UNL     1      29.298   9.924  21.925  1.00  0.00     0.000 C 
ENDROOT
BRANCH   1   2
ATOM      2  C   UNL     1      27.909   9.747  22.554  1.00  0.00     0.006 C 
BRANCH   2   3
ATOM      3  C   UNL     1      27.988   8.895  23.825  1.00  0.00     0.053 C 
BRANCH   3   4
ATOM      4  C   UNL     1      28.042   9.768  25.038  1.00  0.00     0.041 C 
ATOM      5  O   UNL     1      27.148  10.632  25.239  1.00  0.00    -0.550 OA
ATOM      6  O   UNL     1      29.055   9.595  25.974  1.00  0.00    -0.550 OA
ENDBRANCH   3   4
ENDBRANCH   2   3
ENDBRANCH   1   2
BRANCH   1   7
ATOM      7  C   UNL     1      29.604   8.875  20.840  1.00  0.00     0.000 C 
BRANCH   7   8
ATOM      8  C   UNL     1      30.507   9.368  19.694  1.00  0.00    -0.000 C 
BRANCH   8   9
ATOM      9  C   UNL     1      29.946   9.035  18.304  1.00  0.00    -0.003 C 
ATOM     10  C   UNL     1      28.530   9.578  18.138  1.00  0.00     0.004 C 
ENDBRANCH   8   9
ENDBRANCH   7   8
ENDBRANCH   1   7
TORSDOF 6
ENDMDL
