MODEL 1
REMARK VINA RESULT:     2.730      0.000      0.000
REMARK INTER + INTRA:           3.635
REMARK INTER:                   3.289
REMARK INTRA:                   0.346
REMARK UNBOUND:                 0.346
REMARK SMILES O=c1c(O)c(-c2ccc(O)c(O)c2)oc2cc(O)cc(O)c12
REMARK SMILES IDX 5 1 3 2 2 3 1 4 22 5 20 6 19 7 17 8 16 9 15 10 14 11 6 12
REMARK SMILES IDX 7 13 8 14 9 15 13 16 11 17 10 18 12 20 4 22 21 24 18 26
REMARK H PARENT 10 19 12 21 4 23 21 25 18 27
REMARK Flexibility Score: inf
ROOT
ATOM      1  C   UNL     1      19.900  -3.532  35.320  1.00  0.00     0.180 A 
ATOM      2  C   UNL     1      20.969  -3.552  34.409  1.00  0.00     0.208 A 
ATOM      3  C   UNL     1      20.980  -4.524  33.394  1.00  0.00     0.238 A 
ATOM      4  O   UNL     1      21.901  -4.489  32.537  1.00  0.00    -0.285 OA
ATOM      5  C   UNL     1      19.954  -5.498  33.339  1.00  0.00     0.111 A 
ATOM      6  C   UNL     1      19.889  -6.556  32.381  1.00  0.00     0.134 A 
ATOM      7  C   UNL     1      18.769  -7.396  32.357  1.00  0.00     0.093 A 
ATOM      8  C   UNL     1      17.744  -7.259  33.292  1.00  0.00     0.123 A 
ATOM      9  C   UNL     1      17.824  -6.264  34.266  1.00  0.00     0.094 A 
ATOM     10  C   UNL     1      18.909  -5.385  34.293  1.00  0.00     0.146 A 
ATOM     11  O   UNL     1      18.935  -4.438  35.223  1.00  0.00    -0.452 OA
ENDROOT
BRANCH   1  12
ATOM     12  C   UNL     1      19.810  -2.531  36.407  1.00  0.00     0.025 A 
ATOM     13  C   UNL     1      18.571  -2.150  36.952  1.00  0.00     0.016 A 
ATOM     14  C   UNL     1      18.513  -1.222  37.995  1.00  0.00     0.051 A 
ATOM     15  C   UNL     1      19.691  -0.671  38.517  1.00  0.00     0.157 A 
ATOM     16  C   UNL     1      20.988  -1.992  36.950  1.00  0.00     0.062 A 
ATOM     17  C   UNL     1      20.934  -1.062  37.994  1.00  0.00     0.158 A 
BRANCH  15  18
ATOM     18  O   UNL     1      19.629   0.256  39.556  1.00  0.00    -0.504 OA
ATOM     19  H   UNL     1      20.216   0.171  40.378  1.00  0.00     0.293 HD
ENDBRANCH  15  18
BRANCH  17  20
ATOM     20  O   UNL     1      22.125  -0.538  38.497  1.00  0.00    -0.504 OA
ATOM     21  H   UNL     1      22.682   0.129  37.976  1.00  0.00     0.293 HD
ENDBRANCH  17  20
ENDBRANCH   1  12
BRANCH   2  22
ATOM     22  O   UNL     1      22.013  -2.630  34.527  1.00  0.00    -0.502 OA
ATOM     23  H   UNL     1      21.878  -1.636  34.388  1.00  0.00     0.293 HD
ENDBRANCH   2  22
BRANCH   6  24
ATOM     24  O   UNL     1      20.898  -6.839  31.457  1.00  0.00    -0.507 OA
ATOM     25  H   UNL     1      21.844  -6.489  31.508  1.00  0.00     0.293 HD
ENDBRANCH   6  24
BRANCH   8  26
ATOM     26  O   UNL     1      16.653  -8.125  33.248  1.00  0.00    -0.508 OA
ATOM     27  H   UNL     1      16.152  -8.389  34.088  1.00  0.00     0.293 HD
ENDBRANCH   8  26
TORSDOF 6
ENDMDL
MODEL 2
REMARK VINA RESULT:     2.760      1.360      3.126
REMARK INTER + INTRA:           3.671
REMARK INTER:                   3.402
REMARK INTRA:                   0.268
REMARK UNBOUND:                 0.346
REMARK SMILES O=c1c(O)c(-c2ccc(O)c(O)c2)oc2cc(O)cc(O)c12
REMARK SMILES IDX 5 1 3 2 2 3 1 4 22 5 20 6 19 7 17 8 16 9 15 10 14 11 6 12
REMARK SMILES IDX 7 13 8 14 9 15 13 16 11 17 10 18 12 20 4 22 21 24 18 26
REMARK H PARENT 10 19 12 21 4 23 21 25 18 27
REMARK Flexibility Score: inf
ROOT
ATOM      1  C   UNL     1      20.107  -4.057  35.865  1.00  0.00     0.180 A 
ATOM      2  C   UNL     1      19.023  -4.896  36.170  1.00  0.00     0.208 A 
ATOM      3  C   UNL     1      18.744  -5.984  35.326  1.00  0.00     0.238 A 
ATOM      4  O   UNL     1      17.819  -6.774  35.646  1.00  0.00    -0.285 OA
ATOM      5  C   UNL     1      19.517  -6.184  34.156  1.00  0.00     0.111 A 
ATOM      6  C   UNL     1      19.295  -7.227  33.205  1.00  0.00     0.134 A 
ATOM      7  C   UNL     1      20.190  -7.391  32.140  1.00  0.00     0.093 A 
ATOM      8  C   UNL     1      21.259  -6.516  31.955  1.00  0.00     0.123 A 
ATOM      9  C   UNL     1      21.452  -5.461  32.847  1.00  0.00     0.094 A 
ATOM     10  C   UNL     1      20.600  -5.293  33.941  1.00  0.00     0.146 A 
ATOM     11  O   UNL     1      20.834  -4.289  34.778  1.00  0.00    -0.452 OA
ENDROOT
BRANCH   1  12
ATOM     12  C   UNL     1      20.471  -2.900  36.713  1.00  0.00     0.025 A 
ATOM     13  C   UNL     1      21.807  -2.481  36.846  1.00  0.00     0.016 A 
ATOM     14  C   UNL     1      22.125  -1.371  37.633  1.00  0.00     0.051 A 
ATOM     15  C   UNL     1      21.113  -0.655  38.286  1.00  0.00     0.157 A 
ATOM     16  C   UNL     1      19.459  -2.166  37.353  1.00  0.00     0.062 A 
ATOM     17  C   UNL     1      19.774  -1.054  38.142  1.00  0.00     0.158 A 
BRANCH  15  18
ATOM     18  O   UNL     1      21.433   0.451  39.073  1.00  0.00    -0.504 OA
ATOM     19  H   UNL     1      22.261   1.007  38.893  1.00  0.00     0.293 HD
ENDBRANCH  15  18
BRANCH  17  20
ATOM     20  O   UNL     1      18.742  -0.357  38.773  1.00  0.00    -0.504 OA
ATOM     21  H   UNL     1      18.878   0.120  39.657  1.00  0.00     0.293 HD
ENDBRANCH  17  20
ENDBRANCH   1  12
BRANCH   2  22
ATOM     22  O   UNL     1      18.224  -4.637  37.288  1.00  0.00    -0.502 OA
ATOM     23  H   UNL     1      18.589  -4.208  38.129  1.00  0.00     0.293 HD
ENDBRANCH   2  22
BRANCH   6  24
ATOM     24  O   UNL     1      18.207  -8.104  33.243  1.00  0.00    -0.507 OA
ATOM     25  H   UNL     1      18.268  -9.091  33.446  1.00  0.00     0.293 HD
ENDBRANCH   6  24
BRANCH   8  26
ATOM     26  O   UNL     1      22.119  -6.700  30.875  1.00  0.00    -0.508 OA
ATOM     27  H   UNL     1      23.064  -7.042  31.003  1.00  0.00     0.293 HD
ENDBRANCH   8  26
TORSDOF 6
ENDMDL
MODEL 3
REMARK VINA RESULT:     3.902      1.508      2.022
REMARK INTER + INTRA:           5.046
REMARK INTER:                   4.723
REMARK INTRA:                   0.323
REMARK UNBOUND:                 0.346
REMARK SMILES O=c1c(O)c(-c2ccc(O)c(O)c2)oc2cc(O)cc(O)c12
REMARK SMILES IDX 5 1 3 2 2 3 1 4 22 5 20 6 19 7 17 8 16 9 15 10 14 11 6 12
REMARK SMILES IDX 7 13 8 14 9 15 13 16 11 17 10 18 12 20 4 22 21 24 18 26
REMARK H PARENT 10 19 12 21 4 23 21 25 18 27
REMARK Flexibility Score: inf
ROOT
ATOM      1  C   UNL     1      19.832  -4.153  35.271  1.00  0.00     0.180 A 
ATOM      2  C   UNL     1      21.000  -4.923  35.135  1.00  0.00     0.208 A 
ATOM      3  C   UNL     1      21.050  -5.913  34.140  1.00  0.00     0.238 A 
ATOM      4  O   UNL     1      22.125  -6.547  33.975  1.00  0.00    -0.285 OA
ATOM      5  C   UNL     1      19.913  -6.161  33.332  1.00  0.00     0.111 A 
ATOM      6  C   UNL     1      19.837  -7.170  32.325  1.00  0.00     0.134 A 
ATOM      7  C   UNL     1      18.697  -7.252  31.515  1.00  0.00     0.093 A 
ATOM      8  C   UNL     1      17.608  -6.407  31.717  1.00  0.00     0.123 A 
ATOM      9  C   UNL     1      17.649  -5.454  32.735  1.00  0.00     0.094 A 
ATOM     10  C   UNL     1      18.787  -5.321  33.534  1.00  0.00     0.146 A 
ATOM     11  O   UNL     1      18.794  -4.386  34.477  1.00  0.00    -0.452 OA
ENDROOT
BRANCH   1  12
ATOM     12  C   UNL     1      19.708  -3.082  36.285  1.00  0.00     0.025 A 
ATOM     13  C   UNL     1      20.840  -2.438  36.813  1.00  0.00     0.016 A 
ATOM     14  C   UNL     1      20.697  -1.412  37.751  1.00  0.00     0.051 A 
ATOM     15  C   UNL     1      19.422  -1.006  38.165  1.00  0.00     0.157 A 
ATOM     16  C   UNL     1      18.431  -2.656  36.687  1.00  0.00     0.062 A 
ATOM     17  C   UNL     1      18.284  -1.630  37.627  1.00  0.00     0.158 A 
BRANCH  15  18
ATOM     18  O   UNL     1      19.282   0.016  39.103  1.00  0.00    -0.504 OA
ATOM     19  H   UNL     1      20.049   0.640  39.325  1.00  0.00     0.293 HD
ENDBRANCH  15  18
BRANCH  17  20
ATOM     20  O   UNL     1      17.000  -1.243  38.012  1.00  0.00    -0.504 OA
ATOM     21  H   UNL     1      16.713  -1.223  38.984  1.00  0.00     0.293 HD
ENDBRANCH  17  20
ENDBRANCH   1  12
BRANCH   2  22
ATOM     22  O   UNL     1      22.084  -4.715  35.992  1.00  0.00    -0.502 OA
ATOM     23  H   UNL     1      22.036  -4.907  36.985  1.00  0.00     0.293 HD
ENDBRANCH   2  22
BRANCH   6  24
ATOM     24  O   UNL     1      20.832  -8.125  32.095  1.00  0.00    -0.507 OA
ATOM     25  H   UNL     1      21.678  -8.221  32.637  1.00  0.00     0.293 HD
ENDBRANCH   6  24
BRANCH   8  26
ATOM     26  O   UNL     1      16.483  -6.529  30.903  1.00  0.00    -0.508 OA
ATOM     27  H   UNL     1      15.902  -5.730  30.680  1.00  0.00     0.293 HD
ENDBRANCH   8  26
TORSDOF 6
ENDMDL
