MODEL 1
REMARK VINA RESULT:    -4.475      0.000      0.000
REMARK INTER + INTRA:         -10.381
REMARK INTER:                  -8.661
REMARK INTRA:                  -1.719
REMARK UNBOUND:                -1.719
REMARK SMILES CCCCCCCCCCCCCCCCCC(=O)[O-]
REMARK SMILES IDX 10 1 11 2 12 3 13 4 14 5 15 6 16 7 17 8 18 9 19 10 20 11
REMARK SMILES IDX 9 12 8 13 7 14 6 15 5 16 4 17 3 18 2 19 1 20
REMARK H PARENT
REMARK Flexibility Score: inf
ROOT
ATOM      1  C   UNL     1       1.407  -3.741  -7.953  1.00  0.00     0.000 C 
ENDROOT
BRANCH   1   2
ATOM      2  C   UNL     1       1.482  -4.257  -9.399  1.00  0.00     0.000 C 
BRANCH   2   3
ATOM      3  C   UNL     1       1.582  -5.788  -9.477  1.00  0.00     0.000 C 
BRANCH   3   4
ATOM      4  C   UNL     1       2.994  -6.264  -9.104  1.00  0.00     0.000 C 
BRANCH   4   5
ATOM      5  C   UNL     1       3.008  -7.206  -7.886  1.00  0.00     0.000 C 
BRANCH   5   6
ATOM      6  C   UNL     1       3.250  -6.517  -6.529  1.00  0.00     0.000 C 
BRANCH   6   7
ATOM      7  C   UNL     1       4.695  -6.046  -6.276  1.00  0.00     0.006 C 
BRANCH   7   8
ATOM      8  C   UNL     1       5.209  -6.339  -4.854  1.00  0.00     0.053 C 
BRANCH   8   9
ATOM      9  C   UNL     1       5.328  -7.807  -4.575  1.00  0.00     0.041 C 
ATOM     10  O   UNL     1       4.415  -8.410  -3.953  1.00  0.00    -0.550 OA
ATOM     11  O   UNL     1       6.465  -8.501  -4.969  1.00  0.00    -0.550 OA
ENDBRANCH   8   9
ENDBRANCH   7   8
ENDBRANCH   6   7
ENDBRANCH   5   6
ENDBRANCH   4   5
ENDBRANCH   3   4
ENDBRANCH   2   3
ENDBRANCH   1   2
BRANCH   1  12
ATOM     12  C   UNL     1       2.710  -3.067  -7.496  1.00  0.00     0.000 C 
BRANCH  12  13
ATOM     13  C   UNL     1       3.451  -2.444  -8.689  1.00  0.00    -0.000 C 
BRANCH  13  14
ATOM     14  C   UNL     1       4.822  -3.089  -8.941  1.00  0.00    -0.000 C 
BRANCH  14  15
ATOM     15  C   UNL     1       5.660  -2.318  -9.976  1.00  0.00    -0.000 C 
BRANCH  15  16
ATOM     16  C   UNL     1       6.979  -1.782  -9.379  1.00  0.00    -0.000 C 
BRANCH  16  17
ATOM     17  C   UNL     1       6.908  -0.305  -8.948  1.00  0.00    -0.000 C 
BRANCH  17  18
ATOM     18  C   UNL     1       6.089  -0.040  -7.671  1.00  0.00    -0.000 C 
BRANCH  18  19
ATOM     19  C   UNL     1       6.882   0.601  -6.518  1.00  0.00    -0.003 C 
ATOM     20  C   UNL     1       8.333   0.126  -6.455  1.00  0.00     0.004 C 
ENDBRANCH  18  19
ENDBRANCH  17  18
ENDBRANCH  16  17
ENDBRANCH  15  16
ENDBRANCH  14  15
ENDBRANCH  13  14
ENDBRANCH  12  13
ENDBRANCH   1  12
TORSDOF 16
ENDMDL
MODEL 2
REMARK VINA RESULT:    -4.438      1.356      2.038
REMARK INTER + INTRA:         -10.309
REMARK INTER:                  -8.143
REMARK INTRA:                  -2.166
REMARK UNBOUND:                -1.719
REMARK SMILES CCCCCCCCCCCCCCCCCC(=O)[O-]
REMARK SMILES IDX 10 1 11 2 12 3 13 4 14 5 15 6 16 7 17 8 18 9 19 10 20 11
REMARK SMILES IDX 9 12 8 13 7 14 6 15 5 16 4 17 3 18 2 19 1 20
REMARK H PARENT
REMARK Flexibility Score: inf
ROOT
ATOM      1  C   UNL     1       3.059  -4.819  -7.151  1.00  0.00     0.000 C 
ENDROOT
BRANCH   1   2
ATOM      2  C   UNL     1       2.676  -6.195  -7.718  1.00  0.00     0.000 C 
BRANCH   2   3
ATOM      3  C   UNL     1       3.900  -7.039  -8.103  1.00  0.00     0.000 C 
BRANCH   3   4
ATOM      4  C   UNL     1       4.988  -6.165  -8.745  1.00  0.00     0.000 C 
BRANCH   4   5
ATOM      5  C   UNL     1       6.342  -6.262  -8.021  1.00  0.00     0.000 C 
BRANCH   5   6
ATOM      6  C   UNL     1       6.531  -7.520  -7.152  1.00  0.00     0.000 C 
BRANCH   6   7
ATOM      7  C   UNL     1       6.794  -7.258  -5.657  1.00  0.00     0.006 C 
BRANCH   7   8
ATOM      8  C   UNL     1       5.723  -6.383  -4.977  1.00  0.00     0.053 C 
BRANCH   8   9
ATOM      9  C   UNL     1       4.586  -7.187  -4.426  1.00  0.00     0.041 C 
ATOM     10  O   UNL     1       3.464  -6.650  -4.231  1.00  0.00    -0.550 OA
ATOM     11  O   UNL     1       4.775  -8.522  -4.090  1.00  0.00    -0.550 OA
ENDBRANCH   8   9
ENDBRANCH   7   8
ENDBRANCH   6   7
ENDBRANCH   5   6
ENDBRANCH   4   5
ENDBRANCH   3   4
ENDBRANCH   2   3
ENDBRANCH   1   2
BRANCH   1  12
ATOM     12  C   UNL     1       2.001  -3.743  -7.441  1.00  0.00     0.000 C 
BRANCH  12  13
ATOM     13  C   UNL     1       2.598  -2.600  -8.276  1.00  0.00    -0.000 C 
BRANCH  13  14
ATOM     14  C   UNL     1       4.133  -2.555  -8.211  1.00  0.00    -0.000 C 
BRANCH  14  15
ATOM     15  C   UNL     1       4.777  -2.305  -9.587  1.00  0.00    -0.000 C 
BRANCH  15  16
ATOM     16  C   UNL     1       6.203  -2.890  -9.681  1.00  0.00    -0.000 C 
BRANCH  16  17
ATOM     17  C   UNL     1       7.315  -1.830  -9.577  1.00  0.00    -0.000 C 
BRANCH  17  18
ATOM     18  C   UNL     1       6.844  -0.437  -9.117  1.00  0.00    -0.000 C 
BRANCH  18  19
ATOM     19  C   UNL     1       7.460   0.048  -7.792  1.00  0.00    -0.003 C 
ATOM     20  C   UNL     1       6.462   0.794  -6.907  1.00  0.00     0.004 C 
ENDBRANCH  18  19
ENDBRANCH  17  18
ENDBRANCH  16  17
ENDBRANCH  15  16
ENDBRANCH  14  15
ENDBRANCH  13  14
ENDBRANCH  12  13
ENDBRANCH   1  12
TORSDOF 16
ENDMDL
MODEL 3
REMARK VINA RESULT:    -4.420      5.827      9.513
REMARK INTER + INTRA:         -10.275
REMARK INTER:                  -9.319
REMARK INTRA:                  -0.956
REMARK UNBOUND:                -1.719
REMARK SMILES CCCCCCCCCCCCCCCCCC(=O)[O-]
REMARK SMILES IDX 10 1 11 2 12 3 13 4 14 5 15 6 16 7 17 8 18 9 19 10 20 11
REMARK SMILES IDX 9 12 8 13 7 14 6 15 5 16 4 17 3 18 2 19 1 20
REMARK H PARENT
REMARK Flexibility Score: inf
ROOT
ATOM      1  C   UNL     1       5.321  -1.159  -8.265  1.00  0.00     0.000 C 
ENDROOT
BRANCH   1   2
ATOM      2  C   UNL     1       6.547  -0.235  -8.338  1.00  0.00     0.000 C 
BRANCH   2   3
ATOM      3  C   UNL     1       6.543   0.842  -7.243  1.00  0.00     0.000 C 
BRANCH   3   4
ATOM      4  C   UNL     1       6.926   2.213  -7.820  1.00  0.00     0.000 C 
BRANCH   4   5
ATOM      5  C   UNL     1       6.644   2.329  -9.329  1.00  0.00     0.000 C 
BRANCH   5   6
ATOM      6  C   UNL     1       6.316   3.749  -9.827  1.00  0.00     0.000 C 
BRANCH   6   7
ATOM      7  C   UNL     1       5.391   4.573  -8.911  1.00  0.00     0.006 C 
BRANCH   7   8
ATOM      8  C   UNL     1       5.248   6.049  -9.330  1.00  0.00     0.053 C 
BRANCH   8   9
ATOM      9  C   UNL     1       5.742   6.997  -8.279  1.00  0.00     0.041 C 
ATOM     10  O   UNL     1       5.930   6.596  -7.101  1.00  0.00    -0.550 OA
ATOM     11  O   UNL     1       5.959   8.333  -8.593  1.00  0.00    -0.550 OA
ENDBRANCH   8   9
ENDBRANCH   7   8
ENDBRANCH   6   7
ENDBRANCH   5   6
ENDBRANCH   4   5
ENDBRANCH   3   4
ENDBRANCH   2   3
ENDBRANCH   1   2
BRANCH   1  12
ATOM     12  C   UNL     1       5.288  -2.189  -9.404  1.00  0.00     0.000 C 
BRANCH  12  13
ATOM     13  C   UNL     1       4.230  -3.270  -9.133  1.00  0.00    -0.000 C 
BRANCH  13  14
ATOM     14  C   UNL     1       3.105  -2.783  -8.207  1.00  0.00    -0.000 C 
BRANCH  14  15
ATOM     15  C   UNL     1       2.726  -3.821  -7.137  1.00  0.00    -0.000 C 
BRANCH  15  16
ATOM     16  C   UNL     1       2.782  -5.267  -7.677  1.00  0.00    -0.000 C 
BRANCH  16  17
ATOM     17  C   UNL     1       3.713  -6.193  -6.871  1.00  0.00    -0.000 C 
BRANCH  17  18
ATOM     18  C   UNL     1       3.253  -6.479  -5.429  1.00  0.00    -0.000 C 
BRANCH  18  19
ATOM     19  C   UNL     1       4.379  -6.886  -4.462  1.00  0.00    -0.003 C 
ATOM     20  C   UNL     1       5.754  -6.380  -4.900  1.00  0.00     0.004 C 
ENDBRANCH  18  19
ENDBRANCH  17  18
ENDBRANCH  16  17
ENDBRANCH  15  16
ENDBRANCH  14  15
ENDBRANCH  13  14
ENDBRANCH  12  13
ENDBRANCH   1  12
TORSDOF 16
ENDMDL
MODEL 4
REMARK VINA RESULT:    -4.410      1.446      2.299
REMARK INTER + INTRA:         -10.255
REMARK INTER:                  -8.822
REMARK INTRA:                  -1.433
REMARK UNBOUND:                -1.719
REMARK SMILES CCCCCCCCCCCCCCCCCC(=O)[O-]
REMARK SMILES IDX 10 1 11 2 12 3 13 4 14 5 15 6 16 7 17 8 18 9 19 10 20 11
REMARK SMILES IDX 9 12 8 13 7 14 6 15 5 16 4 17 3 18 2 19 1 20
REMARK H PARENT
REMARK Flexibility Score: inf
ROOT
ATOM      1  C   UNL     1       2.519  -3.871  -7.156  1.00  0.00     0.000 C 
ENDROOT
BRANCH   1   2
ATOM      2  C   UNL     1       2.589  -5.181  -7.957  1.00  0.00     0.000 C 
BRANCH   2   3
ATOM      3  C   UNL     1       3.557  -6.201  -7.339  1.00  0.00     0.000 C 
BRANCH   3   4
ATOM      4  C   UNL     1       4.099  -5.698  -5.993  1.00  0.00     0.000 C 
BRANCH   4   5
ATOM      5  C   UNL     1       3.793  -6.655  -4.827  1.00  0.00     0.000 C 
BRANCH   5   6
ATOM      6  C   UNL     1       5.030  -7.243  -4.121  1.00  0.00     0.000 C 
BRANCH   6   7
ATOM      7  C   UNL     1       6.363  -6.533  -4.423  1.00  0.00     0.006 C 
BRANCH   7   8
ATOM      8  C   UNL     1       7.475  -7.475  -4.923  1.00  0.00     0.053 C 
BRANCH   8   9
ATOM      9  C   UNL     1       7.170  -8.065  -6.267  1.00  0.00     0.041 C 
ATOM     10  O   UNL     1       7.125  -9.313  -6.415  1.00  0.00    -0.550 OA
ATOM     11  O   UNL     1       6.975  -7.235  -7.364  1.00  0.00    -0.550 OA
ENDBRANCH   8   9
ENDBRANCH   7   8
ENDBRANCH   6   7
ENDBRANCH   5   6
ENDBRANCH   4   5
ENDBRANCH   3   4
ENDBRANCH   2   3
ENDBRANCH   1   2
BRANCH   1  12
ATOM     12  C   UNL     1       2.662  -2.625  -8.043  1.00  0.00     0.000 C 
BRANCH  12  13
ATOM     13  C   UNL     1       3.300  -2.985  -9.393  1.00  0.00    -0.000 C 
BRANCH  13  14
ATOM     14  C   UNL     1       4.707  -2.391  -9.563  1.00  0.00    -0.000 C 
BRANCH  14  15
ATOM     15  C   UNL     1       5.139  -1.533  -8.361  1.00  0.00    -0.000 C 
BRANCH  15  16
ATOM     16  C   UNL     1       6.275  -0.551  -8.719  1.00  0.00    -0.000 C 
BRANCH  16  17
ATOM     17  C   UNL     1       6.348   0.676  -7.791  1.00  0.00    -0.000 C 
BRANCH  17  18
ATOM     18  C   UNL     1       7.085   0.440  -6.458  1.00  0.00    -0.000 C 
BRANCH  18  19
ATOM     19  C   UNL     1       8.558   0.019  -6.603  1.00  0.00    -0.003 C 
ATOM     20  C   UNL     1       9.312   0.018  -5.273  1.00  0.00     0.004 C 
ENDBRANCH  18  19
ENDBRANCH  17  18
ENDBRANCH  16  17
ENDBRANCH  15  16
ENDBRANCH  14  15
ENDBRANCH  13  14
ENDBRANCH  12  13
ENDBRANCH   1  12
TORSDOF 16
ENDMDL
MODEL 5
REMARK VINA RESULT:    -4.351      3.877      6.907
REMARK INTER + INTRA:         -10.141
REMARK INTER:                  -8.300
REMARK INTRA:                  -1.841
REMARK UNBOUND:                -1.719
REMARK SMILES CCCCCCCCCCCCCCCCCC(=O)[O-]
REMARK SMILES IDX 10 1 11 2 12 3 13 4 14 5 15 6 16 7 17 8 18 9 19 10 20 11
REMARK SMILES IDX 9 12 8 13 7 14 6 15 5 16 4 17 3 18 2 19 1 20
REMARK H PARENT
REMARK Flexibility Score: inf
ROOT
ATOM      1  C   UNL     1       1.395  -3.746  -8.097  1.00  0.00     0.000 C 
ENDROOT
BRANCH   1   2
ATOM      2  C   UNL     1       2.180  -2.427  -8.013  1.00  0.00     0.000 C 
BRANCH   2   3
ATOM      3  C   UNL     1       3.699  -2.644  -7.953  1.00  0.00     0.000 C 
BRANCH   3   4
ATOM      4  C   UNL     1       4.317  -2.589  -9.358  1.00  0.00     0.000 C 
BRANCH   4   5
ATOM      5  C   UNL     1       5.813  -2.227  -9.342  1.00  0.00     0.000 C 
BRANCH   5   6
ATOM      6  C   UNL     1       6.122  -0.728  -9.163  1.00  0.00     0.000 C 
BRANCH   6   7
ATOM      7  C   UNL     1       6.832  -0.352  -7.849  1.00  0.00     0.006 C 
BRANCH   7   8
ATOM      8  C   UNL     1       6.393   1.005  -7.267  1.00  0.00     0.053 C 
BRANCH   8   9
ATOM      9  C   UNL     1       6.975   2.168  -8.013  1.00  0.00     0.041 C 
ATOM     10  O   UNL     1       6.311   2.737  -8.917  1.00  0.00    -0.550 OA
ATOM     11  O   UNL     1       8.267   2.598  -7.735  1.00  0.00    -0.550 OA
ENDBRANCH   8   9
ENDBRANCH   7   8
ENDBRANCH   6   7
ENDBRANCH   5   6
ENDBRANCH   4   5
ENDBRANCH   3   4
ENDBRANCH   2   3
ENDBRANCH   1   2
BRANCH   1  12
ATOM     12  C   UNL     1       0.781  -3.983  -9.486  1.00  0.00     0.000 C 
BRANCH  12  13
ATOM     13  C   UNL     1       1.083  -5.405  -9.983  1.00  0.00    -0.000 C 
BRANCH  13  14
ATOM     14  C   UNL     1       2.557  -5.800  -9.796  1.00  0.00    -0.000 C 
BRANCH  14  15
ATOM     15  C   UNL     1       2.722  -7.203  -9.186  1.00  0.00    -0.000 C 
BRANCH  15  16
ATOM     16  C   UNL     1       3.051  -7.151  -7.679  1.00  0.00    -0.000 C 
BRANCH  16  17
ATOM     17  C   UNL     1       4.297  -6.308  -7.346  1.00  0.00    -0.000 C 
BRANCH  17  18
ATOM     18  C   UNL     1       4.288  -5.660  -5.948  1.00  0.00    -0.000 C 
BRANCH  18  19
ATOM     19  C   UNL     1       5.240  -6.313  -4.930  1.00  0.00    -0.003 C 
ATOM     20  C   UNL     1       4.651  -7.564  -4.279  1.00  0.00     0.004 C 
ENDBRANCH  18  19
ENDBRANCH  17  18
ENDBRANCH  16  17
ENDBRANCH  15  16
ENDBRANCH  14  15
ENDBRANCH  13  14
ENDBRANCH  12  13
ENDBRANCH   1  12
TORSDOF 16
ENDMDL
MODEL 6
REMARK VINA RESULT:    -4.318      3.461      6.726
REMARK INTER + INTRA:         -10.076
REMARK INTER:                  -8.264
REMARK INTRA:                  -1.812
REMARK UNBOUND:                -1.719
REMARK SMILES CCCCCCCCCCCCCCCCCC(=O)[O-]
REMARK SMILES IDX 10 1 11 2 12 3 13 4 14 5 15 6 16 7 17 8 18 9 19 10 20 11
REMARK SMILES IDX 9 12 8 13 7 14 6 15 5 16 4 17 3 18 2 19 1 20
REMARK H PARENT
REMARK Flexibility Score: inf
ROOT
ATOM      1  C   UNL     1       3.721  -4.517  -6.978  1.00  0.00     0.000 C 
ENDROOT
BRANCH   1   2
ATOM      2  C   UNL     1       2.972  -3.223  -7.336  1.00  0.00     0.000 C 
BRANCH   2   3
ATOM      3  C   UNL     1       3.390  -2.655  -8.699  1.00  0.00     0.000 C 
BRANCH   3   4
ATOM      4  C   UNL     1       4.308  -3.635  -9.444  1.00  0.00     0.000 C 
BRANCH   4   5
ATOM      5  C   UNL     1       5.720  -3.070  -9.686  1.00  0.00     0.000 C 
BRANCH   5   6
ATOM      6  C   UNL     1       5.804  -1.535  -9.773  1.00  0.00     0.000 C 
BRANCH   6   7
ATOM      7  C   UNL     1       6.887  -0.881  -8.894  1.00  0.00     0.006 C 
BRANCH   7   8
ATOM      8  C   UNL     1       6.327   0.020  -7.777  1.00  0.00     0.053 C 
BRANCH   8   9
ATOM      9  C   UNL     1       7.400   0.777  -7.054  1.00  0.00     0.041 C 
ATOM     10  O   UNL     1       7.654   1.970  -7.365  1.00  0.00    -0.550 OA
ATOM     11  O   UNL     1       8.145   0.153  -6.062  1.00  0.00    -0.550 OA
ENDBRANCH   8   9
ENDBRANCH   7   8
ENDBRANCH   6   7
ENDBRANCH   5   6
ENDBRANCH   4   5
ENDBRANCH   3   4
ENDBRANCH   2   3
ENDBRANCH   1   2
BRANCH   1  12
ATOM     12  C   UNL     1       2.773  -5.663  -6.590  1.00  0.00     0.000 C 
BRANCH  12  13
ATOM     13  C   UNL     1       3.561  -6.865  -6.048  1.00  0.00    -0.000 C 
BRANCH  13  14
ATOM     14  C   UNL     1       3.680  -6.856  -4.516  1.00  0.00    -0.000 C 
BRANCH  14  15
ATOM     15  C   UNL     1       5.059  -7.332  -4.026  1.00  0.00    -0.000 C 
BRANCH  15  16
ATOM     16  C   UNL     1       6.212  -6.485  -4.607  1.00  0.00    -0.000 C 
BRANCH  16  17
ATOM     17  C   UNL     1       7.521  -7.274  -4.804  1.00  0.00    -0.000 C 
BRANCH  17  18
ATOM     18  C   UNL     1       7.969  -7.432  -6.270  1.00  0.00    -0.000 C 
BRANCH  18  19
ATOM     19  C   UNL     1       6.818  -7.544  -7.286  1.00  0.00    -0.003 C 
ATOM     20  C   UNL     1       6.786  -6.383  -8.281  1.00  0.00     0.004 C 
ENDBRANCH  18  19
ENDBRANCH  17  18
ENDBRANCH  16  17
ENDBRANCH  15  16
ENDBRANCH  14  15
ENDBRANCH  13  14
ENDBRANCH  12  13
ENDBRANCH   1  12
TORSDOF 16
ENDMDL
MODEL 7
REMARK VINA RESULT:    -4.249      3.904      6.999
REMARK INTER + INTRA:          -9.943
REMARK INTER:                  -7.974
REMARK INTRA:                  -1.968
REMARK UNBOUND:                -1.719
REMARK SMILES CCCCCCCCCCCCCCCCCC(=O)[O-]
REMARK SMILES IDX 10 1 11 2 12 3 13 4 14 5 15 6 16 7 17 8 18 9 19 10 20 11
REMARK SMILES IDX 9 12 8 13 7 14 6 15 5 16 4 17 3 18 2 19 1 20
REMARK H PARENT
REMARK Flexibility Score: inf
ROOT
ATOM      1  C   UNL     1       3.335  -4.583  -6.860  1.00  0.00     0.000 C 
ENDROOT
BRANCH   1   2
ATOM      2  C   UNL     1       2.201  -3.700  -7.405  1.00  0.00     0.000 C 
BRANCH   2   3
ATOM      3  C   UNL     1       2.700  -2.645  -8.404  1.00  0.00     0.000 C 
BRANCH   3   4
ATOM      4  C   UNL     1       4.143  -2.229  -8.086  1.00  0.00     0.000 C 
BRANCH   4   5
ATOM      5  C   UNL     1       5.077  -2.318  -9.306  1.00  0.00     0.000 C 
BRANCH   5   6
ATOM      6  C   UNL     1       5.997  -1.101  -9.517  1.00  0.00     0.000 C 
BRANCH   6   7
ATOM      7  C   UNL     1       6.819  -0.672  -8.286  1.00  0.00     0.006 C 
BRANCH   7   8
ATOM      8  C   UNL     1       6.293   0.601  -7.595  1.00  0.00     0.053 C 
BRANCH   8   9
ATOM      9  C   UNL     1       6.892   1.854  -8.161  1.00  0.00     0.041 C 
ATOM     10  O   UNL     1       7.902   2.373  -7.620  1.00  0.00    -0.550 OA
ATOM     11  O   UNL     1       6.310   2.468  -9.263  1.00  0.00    -0.550 OA
ENDBRANCH   8   9
ENDBRANCH   7   8
ENDBRANCH   6   7
ENDBRANCH   5   6
ENDBRANCH   4   5
ENDBRANCH   3   4
ENDBRANCH   2   3
ENDBRANCH   1   2
BRANCH   1  12
ATOM     12  C   UNL     1       3.018  -6.083  -6.959  1.00  0.00     0.000 C 
BRANCH  12  13
ATOM     13  C   UNL     1       3.886  -6.756  -8.033  1.00  0.00    -0.000 C 
BRANCH  13  14
ATOM     14  C   UNL     1       5.100  -5.904  -8.437  1.00  0.00    -0.000 C 
BRANCH  14  15
ATOM     15  C   UNL     1       6.427  -6.474  -7.906  1.00  0.00    -0.000 C 
BRANCH  15  16
ATOM     16  C   UNL     1       6.241  -7.838  -7.208  1.00  0.00    -0.000 C 
BRANCH  16  17
ATOM     17  C   UNL     1       6.760  -7.866  -5.757  1.00  0.00    -0.000 C 
BRANCH  17  18
ATOM     18  C   UNL     1       6.298  -6.686  -4.880  1.00  0.00    -0.000 C 
BRANCH  18  19
ATOM     19  C   UNL     1       4.966  -6.915  -4.143  1.00  0.00    -0.003 C 
ATOM     20  C   UNL     1       4.588  -8.392  -4.037  1.00  0.00     0.004 C 
ENDBRANCH  18  19
ENDBRANCH  17  18
ENDBRANCH  16  17
ENDBRANCH  15  16
ENDBRANCH  14  15
ENDBRANCH  13  14
ENDBRANCH  12  13
ENDBRANCH   1  12
TORSDOF 16
ENDMDL
MODEL 8
REMARK VINA RESULT:    -4.188      1.157      2.028
REMARK INTER + INTRA:          -9.826
REMARK INTER:                  -8.057
REMARK INTRA:                  -1.768
REMARK UNBOUND:                -1.719
REMARK SMILES CCCCCCCCCCCCCCCCCC(=O)[O-]
REMARK SMILES IDX 10 1 11 2 12 3 13 4 14 5 15 6 16 7 17 8 18 9 19 10 20 11
REMARK SMILES IDX 9 12 8 13 7 14 6 15 5 16 4 17 3 18 2 19 1 20
REMARK H PARENT
REMARK Flexibility Score: inf
ROOT
ATOM      1  C   UNL     1       1.293  -4.771  -9.708  1.00  0.00     0.000 C 
ENDROOT
BRANCH   1   2
ATOM      2  C   UNL     1       1.814  -6.215  -9.627  1.00  0.00     0.000 C 
BRANCH   2   3
ATOM      3  C   UNL     1       3.156  -6.320  -8.888  1.00  0.00     0.000 C 
BRANCH   3   4
ATOM      4  C   UNL     1       3.015  -7.166  -7.613  1.00  0.00     0.000 C 
BRANCH   4   5
ATOM      5  C   UNL     1       3.051  -6.323  -6.326  1.00  0.00     0.000 C 
BRANCH   5   6
ATOM      6  C   UNL     1       4.459  -5.945  -5.830  1.00  0.00     0.000 C 
BRANCH   6   7
ATOM      7  C   UNL     1       5.222  -7.061  -5.091  1.00  0.00     0.006 C 
BRANCH   7   8
ATOM      8  C   UNL     1       6.572  -6.611  -4.500  1.00  0.00     0.053 C 
BRANCH   8   9
ATOM      9  C   UNL     1       7.689  -7.553  -4.831  1.00  0.00     0.041 C 
ATOM     10  O   UNL     1       7.848  -8.608  -4.163  1.00  0.00    -0.550 OA
ATOM     11  O   UNL     1       8.579  -7.246  -5.853  1.00  0.00    -0.550 OA
ENDBRANCH   8   9
ENDBRANCH   7   8
ENDBRANCH   6   7
ENDBRANCH   5   6
ENDBRANCH   4   5
ENDBRANCH   3   4
ENDBRANCH   2   3
ENDBRANCH   1   2
BRANCH   1  12
ATOM     12  C   UNL     1       1.535  -3.980  -8.413  1.00  0.00     0.000 C 
BRANCH  12  13
ATOM     13  C   UNL     1       2.190  -2.624  -8.714  1.00  0.00    -0.000 C 
BRANCH  13  14
ATOM     14  C   UNL     1       3.524  -2.430  -7.976  1.00  0.00    -0.000 C 
BRANCH  14  15
ATOM     15  C   UNL     1       4.691  -3.167  -8.655  1.00  0.00    -0.000 C 
BRANCH  15  16
ATOM     16  C   UNL     1       4.958  -2.649 -10.085  1.00  0.00    -0.000 C 
BRANCH  16  17
ATOM     17  C   UNL     1       5.714  -1.307 -10.125  1.00  0.00    -0.000 C 
BRANCH  17  18
ATOM     18  C   UNL     1       6.879  -1.188  -9.124  1.00  0.00    -0.000 C 
BRANCH  18  19
ATOM     19  C   UNL     1       7.081   0.219  -8.534  1.00  0.00    -0.003 C 
ATOM     20  C   UNL     1       6.329   0.430  -7.221  1.00  0.00     0.004 C 
ENDBRANCH  18  19
ENDBRANCH  17  18
ENDBRANCH  16  17
ENDBRANCH  15  16
ENDBRANCH  14  15
ENDBRANCH  13  14
ENDBRANCH  12  13
ENDBRANCH   1  12
TORSDOF 16
ENDMDL
MODEL 9
REMARK VINA RESULT:    -4.174      2.891      4.908
REMARK INTER + INTRA:          -9.797
REMARK INTER:                  -7.160
REMARK INTRA:                  -2.637
REMARK UNBOUND:                -1.719
REMARK SMILES CCCCCCCCCCCCCCCCCC(=O)[O-]
REMARK SMILES IDX 10 1 11 2 12 3 13 4 14 5 15 6 16 7 17 8 18 9 19 10 20 11
REMARK SMILES IDX 9 12 8 13 7 14 6 15 5 16 4 17 3 18 2 19 1 20
REMARK H PARENT
REMARK Flexibility Score: inf
ROOT
ATOM      1  C   UNL     1       3.363  -6.740  -6.402  1.00  0.00     0.000 C 
ENDROOT
BRANCH   1   2
ATOM      2  C   UNL     1       4.229  -6.040  -5.343  1.00  0.00     0.000 C 
BRANCH   2   3
ATOM      3  C   UNL     1       4.502  -6.927  -4.119  1.00  0.00     0.000 C 
BRANCH   3   4
ATOM      4  C   UNL     1       4.657  -8.398  -4.533  1.00  0.00     0.000 C 
BRANCH   4   5
ATOM      5  C   UNL     1       6.090  -8.750  -4.972  1.00  0.00     0.000 C 
BRANCH   5   6
ATOM      6  C   UNL     1       7.187  -7.804  -4.447  1.00  0.00     0.000 C 
BRANCH   6   7
ATOM      7  C   UNL     1       8.412  -7.637  -5.366  1.00  0.00     0.006 C 
BRANCH   7   8
ATOM      8  C   UNL     1       8.321  -8.435  -6.681  1.00  0.00     0.053 C 
BRANCH   8   9
ATOM      9  C   UNL     1       8.950  -7.716  -7.836  1.00  0.00     0.041 C 
ATOM     10  O   UNL     1       8.986  -8.254  -8.973  1.00  0.00    -0.550 OA
ATOM     11  O   UNL     1       9.530  -6.468  -7.648  1.00  0.00    -0.550 OA
ENDBRANCH   8   9
ENDBRANCH   7   8
ENDBRANCH   6   7
ENDBRANCH   5   6
ENDBRANCH   4   5
ENDBRANCH   3   4
ENDBRANCH   2   3
ENDBRANCH   1   2
BRANCH   1  12
ATOM     12  C   UNL     1       3.991  -6.697  -7.803  1.00  0.00     0.000 C 
BRANCH  12  13
ATOM     13  C   UNL     1       5.462  -6.263  -7.731  1.00  0.00    -0.000 C 
BRANCH  13  14
ATOM     14  C   UNL     1       5.970  -5.658  -9.049  1.00  0.00    -0.000 C 
BRANCH  14  15
ATOM     15  C   UNL     1       4.943  -4.717  -9.704  1.00  0.00    -0.000 C 
BRANCH  15  16
ATOM     16  C   UNL     1       5.067  -3.266  -9.190  1.00  0.00    -0.000 C 
BRANCH  16  17
ATOM     17  C   UNL     1       3.722  -2.639  -8.778  1.00  0.00    -0.000 C 
BRANCH  17  18
ATOM     18  C   UNL     1       3.184  -3.096  -7.408  1.00  0.00    -0.000 C 
BRANCH  18  19
ATOM     19  C   UNL     1       1.793  -3.752  -7.448  1.00  0.00    -0.003 C 
ATOM     20  C   UNL     1       1.127  -3.656  -8.821  1.00  0.00     0.004 C 
ENDBRANCH  18  19
ENDBRANCH  17  18
ENDBRANCH  16  17
ENDBRANCH  15  16
ENDBRANCH  14  15
ENDBRANCH  13  14
ENDBRANCH  12  13
ENDBRANCH   1  12
TORSDOF 16
ENDMDL
