MODEL 1
REMARK VINA RESULT:    -3.428      0.000      0.000
REMARK INTER + INTRA:          -4.926
REMARK INTER:                  -4.631
REMARK INTRA:                  -0.295
REMARK UNBOUND:                -0.295
REMARK SMILES CCCCCCCC(=O)[O-]
REMARK SMILES IDX 5 1 6 2 7 3 8 4 9 5 10 6 4 7 3 8 2 9 1 10
REMARK H PARENT
REMARK Flexibility Score: inf
ROOT
ATOM      1  C   UNL     1      18.035 -11.688 186.814  1.00  0.00     0.000 C 
ENDROOT
BRANCH   1   2
ATOM      2  C   UNL     1      19.385 -11.665 187.547  1.00  0.00     0.006 C 
BRANCH   2   3
ATOM      3  C   UNL     1      20.093 -10.307 187.436  1.00  0.00     0.053 C 
BRANCH   3   4
ATOM      4  C   UNL     1      19.395  -9.285 188.275  1.00  0.00     0.041 C 
ATOM      5  O   UNL     1      19.371  -9.403 189.529  1.00  0.00    -0.550 OA
ATOM      6  O   UNL     1      18.813  -8.174 187.677  1.00  0.00    -0.550 OA
ENDBRANCH   3   4
ENDBRANCH   2   3
ENDBRANCH   1   2
BRANCH   1   7
ATOM      7  C   UNL     1      17.574 -13.115 186.469  1.00  0.00     0.000 C 
BRANCH   7   8
ATOM      8  C   UNL     1      18.597 -14.183 186.890  1.00  0.00    -0.000 C 
BRANCH   8   9
ATOM      9  C   UNL     1      18.006 -15.599 186.887  1.00  0.00    -0.003 C 
ATOM     10  C   UNL     1      17.043 -15.795 188.055  1.00  0.00     0.004 C 
ENDBRANCH   8   9
ENDBRANCH   7   8
ENDBRANCH   1   7
TORSDOF 6
ENDMDL
MODEL 2
REMARK VINA RESULT:    -3.349      1.343      1.803
REMARK INTER + INTRA:          -4.819
REMARK INTER:                  -4.531
REMARK INTRA:                  -0.288
REMARK UNBOUND:                -0.295
REMARK SMILES CCCCCCCC(=O)[O-]
REMARK SMILES IDX 5 1 6 2 7 3 8 4 9 5 10 6 4 7 3 8 2 9 1 10
REMARK H PARENT
REMARK Flexibility Score: inf
ROOT
ATOM      1  C   UNL     1      19.369 -12.048 187.482  1.00  0.00     0.000 C 
ENDROOT
BRANCH   1   2
ATOM      2  C   UNL     1      19.997 -10.645 187.456  1.00  0.00     0.006 C 
BRANCH   2   3
ATOM      3  C   UNL     1      18.956  -9.530 187.627  1.00  0.00     0.053 C 
BRANCH   3   4
ATOM      4  C   UNL     1      19.089  -8.520 186.533  1.00  0.00     0.041 C 
ATOM      5  O   UNL     1      19.939  -7.596 186.622  1.00  0.00    -0.550 OA
ATOM      6  O   UNL     1      18.306  -8.628 185.389  1.00  0.00    -0.550 OA
ENDBRANCH   3   4
ENDBRANCH   2   3
ENDBRANCH   1   2
BRANCH   1   7
ATOM      7  C   UNL     1      18.114 -12.150 186.600  1.00  0.00     0.000 C 
BRANCH   7   8
ATOM      8  C   UNL     1      17.596 -13.592 186.473  1.00  0.00    -0.000 C 
BRANCH   8   9
ATOM      9  C   UNL     1      18.642 -14.632 186.898  1.00  0.00    -0.003 C 
ATOM     10  C   UNL     1      17.973 -15.892 187.443  1.00  0.00     0.004 C 
ENDBRANCH   8   9
ENDBRANCH   7   8
ENDBRANCH   1   7
TORSDOF 6
ENDMDL
MODEL 3
REMARK VINA RESULT:    -3.294      3.199      5.363
REMARK INTER + INTRA:          -4.744
REMARK INTER:                  -4.360
REMARK INTRA:                  -0.384
REMARK UNBOUND:                -0.295
REMARK SMILES CCCCCCCC(=O)[O-]
REMARK SMILES IDX 5 1 6 2 7 3 8 4 9 5 10 6 4 7 3 8 2 9 1 10
REMARK H PARENT
REMARK Flexibility Score: inf
ROOT
ATOM      1  C   UNL     1      19.047 -10.760 188.034  1.00  0.00     0.000 C 
ENDROOT
BRANCH   1   2
ATOM      2  C   UNL     1      19.334 -12.088 187.316  1.00  0.00     0.006 C 
BRANCH   2   3
ATOM      3  C   UNL     1      18.090 -12.668 186.629  1.00  0.00     0.053 C 
BRANCH   3   4
ATOM      4  C   UNL     1      18.014 -14.145 186.847  1.00  0.00     0.041 C 
ATOM      5  O   UNL     1      19.067 -14.835 186.890  1.00  0.00    -0.550 OA
ATOM      6  O   UNL     1      16.783 -14.754 187.055  1.00  0.00    -0.550 OA
ENDBRANCH   3   4
ENDBRANCH   2   3
ENDBRANCH   1   2
BRANCH   1   7
ATOM      7  C   UNL     1      20.041  -9.652 187.646  1.00  0.00     0.000 C 
BRANCH   7   8
ATOM      8  C   UNL     1      19.838  -9.155 186.205  1.00  0.00    -0.000 C 
BRANCH   8   9
ATOM      9  C   UNL     1      18.633  -8.212 186.071  1.00  0.00    -0.003 C 
ATOM     10  C   UNL     1      17.646  -8.726 185.026  1.00  0.00     0.004 C 
ENDBRANCH   8   9
ENDBRANCH   7   8
ENDBRANCH   1   7
TORSDOF 6
ENDMDL
MODEL 4
REMARK VINA RESULT:    -3.271      3.358      5.429
REMARK INTER + INTRA:          -4.714
REMARK INTER:                  -4.424
REMARK INTRA:                  -0.290
REMARK UNBOUND:                -0.295
REMARK SMILES CCCCCCCC(=O)[O-]
REMARK SMILES IDX 5 1 6 2 7 3 8 4 9 5 10 6 4 7 3 8 2 9 1 10
REMARK H PARENT
REMARK Flexibility Score: inf
ROOT
ATOM      1  C   UNL     1      17.551 -12.935 186.351  1.00  0.00     0.000 C 
ENDROOT
BRANCH   1   2
ATOM      2  C   UNL     1      18.453 -14.024 186.955  1.00  0.00     0.006 C 
BRANCH   2   3
ATOM      3  C   UNL     1      17.904 -15.438 186.724  1.00  0.00     0.053 C 
BRANCH   3   4
ATOM      4  C   UNL     1      16.588 -15.606 187.413  1.00  0.00     0.041 C 
ATOM      5  O   UNL     1      16.513 -15.518 188.667  1.00  0.00    -0.550 OA
ATOM      6  O   UNL     1      15.434 -15.809 186.667  1.00  0.00    -0.550 OA
ENDBRANCH   3   4
ENDBRANCH   2   3
ENDBRANCH   1   2
BRANCH   1   7
ATOM      7  C   UNL     1      18.054 -11.514 186.657  1.00  0.00     0.000 C 
BRANCH   7   8
ATOM      8  C   UNL     1      19.452 -11.508 187.296  1.00  0.00    -0.000 C 
BRANCH   8   9
ATOM      9  C   UNL     1      19.901 -10.102 187.717  1.00  0.00    -0.003 C 
ATOM     10  C   UNL     1      19.097  -9.604 188.916  1.00  0.00     0.004 C 
ENDBRANCH   8   9
ENDBRANCH   7   8
ENDBRANCH   1   7
TORSDOF 6
ENDMDL
MODEL 5
REMARK VINA RESULT:    -3.219      3.317      5.605
REMARK INTER + INTRA:          -4.644
REMARK INTER:                  -4.426
REMARK INTRA:                  -0.217
REMARK UNBOUND:                -0.295
REMARK SMILES CCCCCCCC(=O)[O-]
REMARK SMILES IDX 5 1 6 2 7 3 8 4 9 5 10 6 4 7 3 8 2 9 1 10
REMARK H PARENT
REMARK Flexibility Score: inf
ROOT
ATOM      1  C   UNL     1      17.985 -11.566 186.984  1.00  0.00     0.000 C 
ENDROOT
BRANCH   1   2
ATOM      2  C   UNL     1      17.624 -12.874 186.262  1.00  0.00     0.006 C 
BRANCH   2   3
ATOM      3  C   UNL     1      18.349 -14.092 186.851  1.00  0.00     0.053 C 
BRANCH   3   4
ATOM      4  C   UNL     1      17.399 -15.234 187.017  1.00  0.00     0.041 C 
ATOM      5  O   UNL     1      16.867 -15.769 186.009  1.00  0.00    -0.550 OA
ATOM      6  O   UNL     1      17.137 -15.741 188.284  1.00  0.00    -0.550 OA
ENDBRANCH   3   4
ENDBRANCH   2   3
ENDBRANCH   1   2
BRANCH   1   7
ATOM      7  C   UNL     1      19.448 -11.538 187.459  1.00  0.00     0.000 C 
BRANCH   7   8
ATOM      8  C   UNL     1      19.972 -10.109 187.674  1.00  0.00    -0.000 C 
BRANCH   8   9
ATOM      9  C   UNL     1      19.414  -9.462 188.950  1.00  0.00    -0.003 C 
ATOM     10  C   UNL     1      18.557  -8.243 188.618  1.00  0.00     0.004 C 
ENDBRANCH   8   9
ENDBRANCH   7   8
ENDBRANCH   1   7
TORSDOF 6
ENDMDL
MODEL 6
REMARK VINA RESULT:    -3.217      1.194      1.508
REMARK INTER + INTRA:          -4.642
REMARK INTER:                  -4.452
REMARK INTRA:                  -0.190
REMARK UNBOUND:                -0.295
REMARK SMILES CCCCCCCC(=O)[O-]
REMARK SMILES IDX 5 1 6 2 7 3 8 4 9 5 10 6 4 7 3 8 2 9 1 10
REMARK H PARENT
REMARK Flexibility Score: inf
ROOT
ATOM      1  C   UNL     1      18.565 -11.771 186.902  1.00  0.00     0.000 C 
ENDROOT
BRANCH   1   2
ATOM      2  C   UNL     1      19.784 -11.153 187.605  1.00  0.00     0.006 C 
BRANCH   2   3
ATOM      3  C   UNL     1      19.455  -9.819 188.290  1.00  0.00     0.053 C 
BRANCH   3   4
ATOM      4  C   UNL     1      19.360  -8.723 187.277  1.00  0.00     0.041 C 
ATOM      5  O   UNL     1      20.123  -8.716 186.275  1.00  0.00    -0.550 OA
ATOM      6  O   UNL     1      18.393  -7.733 187.412  1.00  0.00    -0.550 OA
ENDBRANCH   3   4
ENDBRANCH   2   3
ENDBRANCH   1   2
BRANCH   1   7
ATOM      7  C   UNL     1      18.632 -13.307 186.845  1.00  0.00     0.000 C 
BRANCH   7   8
ATOM      8  C   UNL     1      17.256 -13.966 187.042  1.00  0.00    -0.000 C 
BRANCH   8   9
ATOM      9  C   UNL     1      17.322 -15.498 186.974  1.00  0.00    -0.003 C 
ATOM     10  C   UNL     1      18.744 -15.998 187.217  1.00  0.00     0.004 C 
ENDBRANCH   8   9
ENDBRANCH   7   8
ENDBRANCH   1   7
TORSDOF 6
ENDMDL
MODEL 7
REMARK VINA RESULT:    -3.044      1.762      2.600
REMARK INTER + INTRA:          -4.407
REMARK INTER:                  -4.111
REMARK INTRA:                  -0.296
REMARK UNBOUND:                -0.295
REMARK SMILES CCCCCCCC(=O)[O-]
REMARK SMILES IDX 5 1 6 2 7 3 8 4 9 5 10 6 4 7 3 8 2 9 1 10
REMARK H PARENT
REMARK Flexibility Score: inf
ROOT
ATOM      1  C   UNL     1      18.603 -14.010 186.897  1.00  0.00     0.000 C 
ENDROOT
BRANCH   1   2
ATOM      2  C   UNL     1      18.267 -12.510 186.904  1.00  0.00     0.006 C 
BRANCH   2   3
ATOM      3  C   UNL     1      19.412 -11.652 187.459  1.00  0.00     0.053 C 
BRANCH   3   4
ATOM      4  C   UNL     1      18.871 -10.420 188.111  1.00  0.00     0.041 C 
ATOM      5  O   UNL     1      17.628 -10.248 188.210  1.00  0.00    -0.550 OA
ATOM      6  O   UNL     1      19.741  -9.482 188.655  1.00  0.00    -0.550 OA
ENDBRANCH   3   4
ENDBRANCH   2   3
ENDBRANCH   1   2
BRANCH   1   7
ATOM      7  C   UNL     1      17.378 -14.888 186.587  1.00  0.00     0.000 C 
BRANCH   7   8
ATOM      8  C   UNL     1      16.080 -14.071 186.475  1.00  0.00    -0.000 C 
BRANCH   8   9
ATOM      9  C   UNL     1      15.397 -14.235 185.110  1.00  0.00    -0.003 C 
ATOM     10  C   UNL     1      15.050 -12.877 184.504  1.00  0.00     0.004 C 
ENDBRANCH   8   9
ENDBRANCH   7   8
ENDBRANCH   1   7
TORSDOF 6
ENDMDL
MODEL 8
REMARK VINA RESULT:    -3.033      1.792      2.849
REMARK INTER + INTRA:          -4.392
REMARK INTER:                  -4.243
REMARK INTRA:                  -0.149
REMARK UNBOUND:                -0.295
REMARK SMILES CCCCCCCC(=O)[O-]
REMARK SMILES IDX 5 1 6 2 7 3 8 4 9 5 10 6 4 7 3 8 2 9 1 10
REMARK H PARENT
REMARK Flexibility Score: inf
ROOT
ATOM      1  C   UNL     1      19.859  -9.974 187.952  1.00  0.00     0.000 C 
ENDROOT
BRANCH   1   2
ATOM      2  C   UNL     1      18.839  -9.282 188.871  1.00  0.00     0.006 C 
BRANCH   2   3
ATOM      3  C   UNL     1      19.496  -8.632 190.097  1.00  0.00     0.053 C 
BRANCH   3   4
ATOM      4  C   UNL     1      19.054  -7.211 190.233  1.00  0.00     0.041 C 
ATOM      5  O   UNL     1      18.859  -6.506 189.208  1.00  0.00    -0.550 OA
ATOM      6  O   UNL     1      18.808  -6.677 191.493  1.00  0.00    -0.550 OA
ENDBRANCH   3   4
ENDBRANCH   2   3
ENDBRANCH   1   2
BRANCH   1   7
ATOM      7  C   UNL     1      19.190 -10.876 186.901  1.00  0.00     0.000 C 
BRANCH   7   8
ATOM      8  C   UNL     1      19.193 -12.359 187.308  1.00  0.00    -0.000 C 
BRANCH   8   9
ATOM      9  C   UNL     1      18.041 -13.148 186.668  1.00  0.00    -0.003 C 
ATOM     10  C   UNL     1      18.221 -14.649 186.878  1.00  0.00     0.004 C 
ENDBRANCH   8   9
ENDBRANCH   7   8
ENDBRANCH   1   7
TORSDOF 6
ENDMDL
MODEL 9
REMARK VINA RESULT:    -3.012     14.255     15.238
REMARK INTER + INTRA:          -4.365
REMARK INTER:                  -3.969
REMARK INTRA:                  -0.395
REMARK UNBOUND:                -0.295
REMARK SMILES CCCCCCCC(=O)[O-]
REMARK SMILES IDX 5 1 6 2 7 3 8 4 9 5 10 6 4 7 3 8 2 9 1 10
REMARK H PARENT
REMARK Flexibility Score: inf
ROOT
ATOM      1  C   UNL     1      15.370 -13.595 201.469  1.00  0.00     0.000 C 
ENDROOT
BRANCH   1   2
ATOM      2  C   UNL     1      16.318 -13.655 202.677  1.00  0.00     0.006 C 
BRANCH   2   3
ATOM      3  C   UNL     1      17.170 -12.386 202.821  1.00  0.00     0.053 C 
BRANCH   3   4
ATOM      4  C   UNL     1      18.519 -12.723 203.369  1.00  0.00     0.041 C 
ATOM      5  O   UNL     1      18.723 -13.843 203.907  1.00  0.00    -0.550 OA
ATOM      6  O   UNL     1      19.567 -11.819 203.242  1.00  0.00    -0.550 OA
ENDBRANCH   3   4
ENDBRANCH   2   3
ENDBRANCH   1   2
BRANCH   1   7
ATOM      7  C   UNL     1      15.449 -12.253 200.721  1.00  0.00     0.000 C 
BRANCH   7   8
ATOM      8  C   UNL     1      14.062 -11.698 200.356  1.00  0.00    -0.000 C 
BRANCH   8   9
ATOM      9  C   UNL     1      13.804 -10.313 200.964  1.00  0.00    -0.003 C 
ATOM     10  C   UNL     1      15.102  -9.680 201.461  1.00  0.00     0.004 C 
ENDBRANCH   8   9
ENDBRANCH   7   8
ENDBRANCH   1   7
TORSDOF 6
ENDMDL
