MODEL 1
REMARK VINA RESULT:    -5.437      0.000      0.000
REMARK INTER + INTRA:          -5.848
REMARK INTER:                  -5.755
REMARK INTRA:                  -0.094
REMARK UNBOUND:                -0.094
REMARK SMILES C=C(C)[C@H]1CC=C(C)C(=O)C1
REMARK SMILES IDX 8 1 7 2 6 3 5 4 4 5 11 6 9 7 10 8 2 9 1 10 3 11
REMARK H PARENT
REMARK Flexibility Score: inf
ROOT
ATOM      1  C   UNL     1     -30.093  19.359 -32.869  1.00  0.00     0.048 C 
ATOM      2  C   UNL     1     -28.627  19.523 -33.162  1.00  0.00    -0.012 C 
ATOM      3  C   UNL     1     -28.211  20.530 -33.948  1.00  0.00    -0.019 C 
ATOM      4  C   UNL     1     -26.757  20.729 -34.289  1.00  0.00     0.036 C 
ATOM      5  C   UNL     1     -25.849  20.279 -33.129  1.00  0.00     0.025 C 
ATOM      6  C   UNL     1     -26.164  18.823 -32.738  1.00  0.00     0.089 C 
ATOM      7  C   UNL     1     -27.636  18.649 -32.486  1.00  0.00     0.158 C 
ATOM      8  O   UNL     1     -28.023  17.727 -31.720  1.00  0.00    -0.295 OA
ENDROOT
BRANCH   5   9
ATOM      9  C   UNL     1     -24.377  20.468 -33.460  1.00  0.00    -0.077 C 
ATOM     10  C   UNL     1     -23.828  19.921 -34.558  1.00  0.00     0.008 C 
ATOM     11  C   UNL     1     -23.530  21.294 -32.526  1.00  0.00     0.039 C 
ENDBRANCH   5   9
TORSDOF 1
ENDMDL
MODEL 2
REMARK VINA RESULT:    -4.872     11.425     13.094
REMARK INTER + INTRA:          -5.250
REMARK INTER:                  -5.151
REMARK INTRA:                  -0.099
REMARK UNBOUND:                -0.094
REMARK SMILES C=C(C)[C@H]1CC=C(C)C(=O)C1
REMARK SMILES IDX 8 1 7 2 6 3 5 4 4 5 11 6 9 7 10 8 2 9 1 10 3 11
REMARK H PARENT
REMARK Flexibility Score: inf
ROOT
ATOM      1  C   UNL     1     -18.536  12.738 -30.859  1.00  0.00     0.048 C 
ATOM      2  C   UNL     1     -17.146  13.306 -30.792  1.00  0.00    -0.012 C 
ATOM      3  C   UNL     1     -16.283  12.857 -29.864  1.00  0.00    -0.019 C 
ATOM      4  C   UNL     1     -14.885  13.404 -29.742  1.00  0.00     0.036 C 
ATOM      5  C   UNL     1     -14.332  13.825 -31.116  1.00  0.00     0.025 C 
ATOM      6  C   UNL     1     -15.291  14.819 -31.797  1.00  0.00     0.089 C 
ATOM      7  C   UNL     1     -16.691  14.270 -31.825  1.00  0.00     0.158 C 
ATOM      8  O   UNL     1     -17.488  14.664 -32.718  1.00  0.00    -0.295 OA
ENDROOT
BRANCH   5   9
ATOM      9  C   UNL     1     -12.923  14.385 -31.009  1.00  0.00    -0.077 C 
ATOM     10  C   UNL     1     -12.197  14.675 -32.104  1.00  0.00     0.008 C 
ATOM     11  C   UNL     1     -12.343  14.619 -29.638  1.00  0.00     0.039 C 
ENDBRANCH   5   9
TORSDOF 1
ENDMDL
MODEL 3
REMARK VINA RESULT:    -4.766     11.035     12.839
REMARK INTER + INTRA:          -5.138
REMARK INTER:                  -5.040
REMARK INTRA:                  -0.098
REMARK UNBOUND:                -0.094
REMARK SMILES C=C(C)[C@H]1CC=C(C)C(=O)C1
REMARK SMILES IDX 8 1 7 2 6 3 5 4 4 5 11 6 9 7 10 8 2 9 1 10 3 11
REMARK H PARENT
REMARK Flexibility Score: inf
ROOT
ATOM      1  C   UNL     1     -14.439  14.446 -32.396  1.00  0.00     0.048 C 
ATOM      2  C   UNL     1     -15.505  13.648 -31.698  1.00  0.00    -0.012 C 
ATOM      3  C   UNL     1     -15.162  12.746 -30.762  1.00  0.00    -0.019 C 
ATOM      4  C   UNL     1     -16.187  11.907 -30.045  1.00  0.00     0.036 C 
ATOM      5  C   UNL     1     -17.510  12.677 -29.873  1.00  0.00     0.025 C 
ATOM      6  C   UNL     1     -18.017  13.181 -31.237  1.00  0.00     0.089 C 
ATOM      7  C   UNL     1     -16.937  13.943 -31.954  1.00  0.00     0.158 C 
ATOM      8  O   UNL     1     -17.261  14.814 -32.805  1.00  0.00    -0.295 OA
ENDROOT
BRANCH   5   9
ATOM      9  C   UNL     1     -18.559  11.842 -29.156  1.00  0.00    -0.077 C 
ATOM     10  C   UNL     1     -18.213  10.875 -28.287  1.00  0.00     0.008 C 
ATOM     11  C   UNL     1     -20.013  12.119 -29.435  1.00  0.00     0.039 C 
ENDBRANCH   5   9
TORSDOF 1
ENDMDL
MODEL 4
REMARK VINA RESULT:    -4.750      1.059      4.378
REMARK INTER + INTRA:          -5.121
REMARK INTER:                  -5.028
REMARK INTRA:                  -0.093
REMARK UNBOUND:                -0.094
REMARK SMILES C=C(C)[C@H]1CC=C(C)C(=O)C1
REMARK SMILES IDX 8 1 7 2 6 3 5 4 4 5 11 6 9 7 10 8 2 9 1 10 3 11
REMARK H PARENT
REMARK Flexibility Score: inf
ROOT
ATOM      1  C   UNL     1     -24.487  20.251 -33.847  1.00  0.00     0.048 C 
ATOM      2  C   UNL     1     -25.955  20.132 -33.542  1.00  0.00    -0.012 C 
ATOM      3  C   UNL     1     -26.842  20.879 -34.221  1.00  0.00    -0.019 C 
ATOM      4  C   UNL     1     -28.321  20.812 -33.943  1.00  0.00     0.036 C 
ATOM      5  C   UNL     1     -28.739  19.397 -33.502  1.00  0.00     0.025 C 
ATOM      6  C   UNL     1     -27.896  18.944 -32.295  1.00  0.00     0.089 C 
ATOM      7  C   UNL     1     -26.429  19.104 -32.583  1.00  0.00     0.158 C 
ATOM      8  O   UNL     1     -25.600  18.377 -31.972  1.00  0.00    -0.295 OA
ENDROOT
BRANCH   5   9
ATOM      9  C   UNL     1     -30.229  19.314 -33.212  1.00  0.00    -0.077 C 
ATOM     10  C   UNL     1     -31.125  19.104 -34.192  1.00  0.00     0.008 C 
ATOM     11  C   UNL     1     -30.694  19.469 -31.787  1.00  0.00     0.039 C 
ENDBRANCH   5   9
TORSDOF 1
ENDMDL
MODEL 5
REMARK VINA RESULT:    -4.608     11.142     12.122
REMARK INTER + INTRA:          -4.971
REMARK INTER:                  -4.877
REMARK INTRA:                  -0.094
REMARK UNBOUND:                -0.094
REMARK SMILES C=C(C)[C@H]1CC=C(C)C(=O)C1
REMARK SMILES IDX 8 1 7 2 6 3 5 4 4 5 11 6 9 7 10 8 2 9 1 10 3 11
REMARK H PARENT
REMARK Flexibility Score: inf
ROOT
ATOM      1  C   UNL     1     -19.570  12.388 -29.497  1.00  0.00     0.048 C 
ATOM      2  C   UNL     1     -18.255  12.930 -29.983  1.00  0.00    -0.012 C 
ATOM      3  C   UNL     1     -18.134  13.353 -31.253  1.00  0.00    -0.019 C 
ATOM      4  C   UNL     1     -16.835  13.889 -31.796  1.00  0.00     0.036 C 
ATOM      5  C   UNL     1     -16.033  14.616 -30.700  1.00  0.00     0.025 C 
ATOM      6  C   UNL     1     -15.822  13.689 -29.488  1.00  0.00     0.089 C 
ATOM      7  C   UNL     1     -17.133  13.112 -29.029  1.00  0.00     0.158 C 
ATOM      8  O   UNL     1     -17.257  12.749 -27.828  1.00  0.00    -0.295 OA
ENDROOT
BRANCH   5   9
ATOM      9  C   UNL     1     -14.716  15.158 -31.231  1.00  0.00    -0.077 C 
ATOM     10  C   UNL     1     -14.249  16.362 -30.856  1.00  0.00     0.008 C 
ATOM     11  C   UNL     1     -13.927  14.311 -32.196  1.00  0.00     0.039 C 
ENDBRANCH   5   9
TORSDOF 1
ENDMDL
MODEL 6
REMARK VINA RESULT:    -4.580      7.297      8.550
REMARK INTER + INTRA:          -4.942
REMARK INTER:                  -4.850
REMARK INTRA:                  -0.092
REMARK UNBOUND:                -0.094
REMARK SMILES C=C(C)[C@H]1CC=C(C)C(=O)C1
REMARK SMILES IDX 8 1 7 2 6 3 5 4 4 5 11 6 9 7 10 8 2 9 1 10 3 11
REMARK H PARENT
REMARK Flexibility Score: inf
ROOT
ATOM      1  C   UNL     1     -30.754  10.908 -31.250  1.00  0.00     0.048 C 
ATOM      2  C   UNL     1     -29.364  11.247 -30.788  1.00  0.00    -0.012 C 
ATOM      3  C   UNL     1     -28.323  11.083 -31.621  1.00  0.00    -0.019 C 
ATOM      4  C   UNL     1     -26.909  11.389 -31.203  1.00  0.00     0.036 C 
ATOM      5  C   UNL     1     -26.868  12.557 -30.199  1.00  0.00     0.025 C 
ATOM      6  C   UNL     1     -27.782  12.258 -28.996  1.00  0.00     0.089 C 
ATOM      7  C   UNL     1     -29.161  11.877 -29.459  1.00  0.00     0.158 C 
ATOM      8  O   UNL     1     -30.141  12.065 -28.691  1.00  0.00    -0.295 OA
ENDROOT
BRANCH   5   9
ATOM      9  C   UNL     1     -25.448  12.876 -29.762  1.00  0.00    -0.077 C 
ATOM     10  C   UNL     1     -24.864  14.048 -30.070  1.00  0.00     0.008 C 
ATOM     11  C   UNL     1     -24.692  11.846 -28.963  1.00  0.00     0.039 C 
ENDBRANCH   5   9
TORSDOF 1
ENDMDL
MODEL 7
REMARK VINA RESULT:    -4.398     11.837     13.901
REMARK INTER + INTRA:          -4.749
REMARK INTER:                  -4.655
REMARK INTRA:                  -0.094
REMARK UNBOUND:                -0.094
REMARK SMILES C=C(C)[C@H]1CC=C(C)C(=O)C1
REMARK SMILES IDX 8 1 7 2 6 3 5 4 4 5 11 6 9 7 10 8 2 9 1 10 3 11
REMARK H PARENT
REMARK Flexibility Score: inf
ROOT
ATOM      1  C   UNL     1     -12.197  14.633 -32.054  1.00  0.00     0.048 C 
ATOM      2  C   UNL     1     -13.492  14.307 -31.363  1.00  0.00    -0.012 C 
ATOM      3  C   UNL     1     -14.444  15.248 -31.248  1.00  0.00    -0.019 C 
ATOM      4  C   UNL     1     -15.752  14.981 -30.550  1.00  0.00     0.036 C 
ATOM      5  C   UNL     1     -16.187  13.514 -30.730  1.00  0.00     0.025 C 
ATOM      6  C   UNL     1     -15.069  12.564 -30.263  1.00  0.00     0.089 C 
ATOM      7  C   UNL     1     -13.764  12.917 -30.921  1.00  0.00     0.158 C 
ATOM      8  O   UNL     1     -12.886  12.024 -31.061  1.00  0.00    -0.295 OA
ENDROOT
BRANCH   5   9
ATOM      9  C   UNL     1     -17.503  13.226 -30.026  1.00  0.00    -0.077 C 
ATOM     10  C   UNL     1     -17.676  13.499 -28.721  1.00  0.00     0.008 C 
ATOM     11  C   UNL     1     -18.629  12.623 -30.825  1.00  0.00     0.039 C 
ENDBRANCH   5   9
TORSDOF 1
ENDMDL
MODEL 8
REMARK VINA RESULT:    -4.389      6.361      8.644
REMARK INTER + INTRA:          -4.740
REMARK INTER:                  -4.647
REMARK INTRA:                  -0.093
REMARK UNBOUND:                -0.094
REMARK SMILES C=C(C)[C@H]1CC=C(C)C(=O)C1
REMARK SMILES IDX 8 1 7 2 6 3 5 4 4 5 11 6 9 7 10 8 2 9 1 10 3 11
REMARK H PARENT
REMARK Flexibility Score: inf
ROOT
ATOM      1  C   UNL     1     -22.924  14.236 -30.125  1.00  0.00     0.048 C 
ATOM      2  C   UNL     1     -24.343  13.744 -30.057  1.00  0.00    -0.012 C 
ATOM      3  C   UNL     1     -24.603  12.514 -29.580  1.00  0.00    -0.019 C 
ATOM      4  C   UNL     1     -26.003  11.964 -29.507  1.00  0.00     0.036 C 
ATOM      5  C   UNL     1     -27.025  13.085 -29.242  1.00  0.00     0.025 C 
ATOM      6  C   UNL     1     -26.888  14.196 -30.300  1.00  0.00     0.089 C 
ATOM      7  C   UNL     1     -25.460  14.659 -30.400  1.00  0.00     0.158 C 
ATOM      8  O   UNL     1     -25.220  15.825 -30.812  1.00  0.00    -0.295 OA
ENDROOT
BRANCH   5   9
ATOM      9  C   UNL     1     -28.446  12.548 -29.171  1.00  0.00    -0.077 C 
ATOM     10  C   UNL     1     -29.249  12.821 -28.128  1.00  0.00     0.008 C 
ATOM     11  C   UNL     1     -28.949  11.694 -30.306  1.00  0.00     0.039 C 
ENDBRANCH   5   9
TORSDOF 1
ENDMDL
MODEL 9
REMARK VINA RESULT:    -4.178     11.728     13.024
REMARK INTER + INTRA:          -4.516
REMARK INTER:                  -4.415
REMARK INTRA:                  -0.101
REMARK UNBOUND:                -0.094
REMARK SMILES C=C(C)[C@H]1CC=C(C)C(=O)C1
REMARK SMILES IDX 8 1 7 2 6 3 5 4 4 5 11 6 9 7 10 8 2 9 1 10 3 11
REMARK H PARENT
REMARK Flexibility Score: inf
ROOT
ATOM      1  C   UNL     1     -18.155  11.070 -29.537  1.00  0.00     0.048 C 
ATOM      2  C   UNL     1     -17.141  12.175 -29.640  1.00  0.00    -0.012 C 
ATOM      3  C   UNL     1     -15.976  12.079 -28.976  1.00  0.00    -0.019 C 
ATOM      4  C   UNL     1     -14.933  13.164 -29.030  1.00  0.00     0.036 C 
ATOM      5  C   UNL     1     -14.943  13.875 -30.396  1.00  0.00     0.025 C 
ATOM      6  C   UNL     1     -16.354  14.404 -30.713  1.00  0.00     0.089 C 
ATOM      7  C   UNL     1     -17.375  13.310 -30.568  1.00  0.00     0.158 C 
ATOM      8  O   UNL     1     -18.451  13.383 -31.220  1.00  0.00    -0.295 OA
ENDROOT
BRANCH   5   9
ATOM      9  C   UNL     1     -13.899  14.979 -30.465  1.00  0.00    -0.077 C 
ATOM     10  C   UNL     1     -14.128  16.122 -31.136  1.00  0.00     0.008 C 
ATOM     11  C   UNL     1     -12.586  14.772 -29.756  1.00  0.00     0.039 C 
ENDBRANCH   5   9
TORSDOF 1
ENDMDL
