MODEL 1
REMARK VINA RESULT:    -4.208      0.000      0.000
REMARK INTER + INTRA:          -5.575
REMARK INTER:                  -5.438
REMARK INTRA:                  -0.137
REMARK UNBOUND:                -0.137
REMARK SMILES CCCCCCC(=O)[O-]
REMARK SMILES IDX 5 1 6 2 7 3 8 4 9 5 4 6 3 7 2 8 1 9
REMARK H PARENT
REMARK Flexibility Score: inf
ROOT
ATOM      1  C   UNL     1      20.637   9.821  41.918  1.00  0.00     0.006 C 
ENDROOT
BRANCH   1   2
ATOM      2  C   UNL     1      21.506  10.999  42.382  1.00  0.00     0.053 C 
BRANCH   2   3
ATOM      3  C   UNL     1      20.703  12.028  43.118  1.00  0.00     0.041 C 
ATOM      4  O   UNL     1      20.423  11.860  44.334  1.00  0.00    -0.550 OA
ATOM      5  O   UNL     1      20.289  13.185  42.469  1.00  0.00    -0.550 OA
ENDBRANCH   2   3
ENDBRANCH   1   2
BRANCH   1   6
ATOM      6  C   UNL     1      20.661   9.648  40.390  1.00  0.00     0.000 C 
BRANCH   6   7
ATOM      7  C   UNL     1      19.262   9.759  39.761  1.00  0.00    -0.000 C 
BRANCH   7   8
ATOM      8  C   UNL     1      18.683   8.394  39.361  1.00  0.00    -0.003 C 
ATOM      9  C   UNL     1      17.253   8.235  39.868  1.00  0.00     0.004 C 
ENDBRANCH   7   8
ENDBRANCH   6   7
ENDBRANCH   1   6
TORSDOF 5
ENDMDL
MODEL 2
REMARK VINA RESULT:    -4.181     10.175     11.547
REMARK INTER + INTRA:          -5.540
REMARK INTER:                  -5.415
REMARK INTRA:                  -0.125
REMARK UNBOUND:                -0.137
REMARK SMILES CCCCCCC(=O)[O-]
REMARK SMILES IDX 5 1 6 2 7 3 8 4 9 5 4 6 3 7 2 8 1 9
REMARK H PARENT
REMARK Flexibility Score: inf
ROOT
ATOM      1  C   UNL     1       8.594  10.340  43.273  1.00  0.00     0.006 C 
ENDROOT
BRANCH   1   2
ATOM      2  C   UNL     1       8.251  10.172  41.786  1.00  0.00     0.053 C 
BRANCH   2   3
ATOM      3  C   UNL     1       8.691  11.352  40.974  1.00  0.00     0.041 C 
ATOM      4  O   UNL     1       8.524  12.520  41.415  1.00  0.00    -0.550 OA
ATOM      5  O   UNL     1       9.311  11.161  39.746  1.00  0.00    -0.550 OA
ENDBRANCH   2   3
ENDBRANCH   1   2
BRANCH   1   6
ATOM      6  C   UNL     1       8.789   8.989  43.981  1.00  0.00     0.000 C 
BRANCH   6   7
ATOM      7  C   UNL     1       9.380   9.141  45.392  1.00  0.00    -0.000 C 
BRANCH   7   8
ATOM      8  C   UNL     1      10.876   9.488  45.372  1.00  0.00    -0.003 C 
ATOM      9  C   UNL     1      11.732   8.229  45.476  1.00  0.00     0.004 C 
ENDBRANCH   7   8
ENDBRANCH   6   7
ENDBRANCH   1   6
TORSDOF 5
ENDMDL
MODEL 3
REMARK VINA RESULT:    -4.163      0.921      1.428
REMARK INTER + INTRA:          -5.517
REMARK INTER:                  -5.340
REMARK INTRA:                  -0.177
REMARK UNBOUND:                -0.137
REMARK SMILES CCCCCCC(=O)[O-]
REMARK SMILES IDX 5 1 6 2 7 3 8 4 9 5 4 6 3 7 2 8 1 9
REMARK H PARENT
REMARK Flexibility Score: inf
ROOT
ATOM      1  C   UNL     1      20.638  10.167  41.356  1.00  0.00     0.006 C 
ENDROOT
BRANCH   1   2
ATOM      2  C   UNL     1      20.996  10.052  42.845  1.00  0.00     0.053 C 
BRANCH   2   3
ATOM      3  C   UNL     1      20.663  11.305  43.596  1.00  0.00     0.041 C 
ATOM      4  O   UNL     1      20.668  12.417  43.006  1.00  0.00    -0.550 OA
ATOM      5  O   UNL     1      20.320  11.241  44.941  1.00  0.00    -0.550 OA
ENDBRANCH   2   3
ENDBRANCH   1   2
BRANCH   1   6
ATOM      6  C   UNL     1      21.014   8.899  40.570  1.00  0.00     0.000 C 
BRANCH   6   7
ATOM      7  C   UNL     1      20.073   8.640  39.382  1.00  0.00    -0.000 C 
BRANCH   7   8
ATOM      8  C   UNL     1      18.670   9.225  39.601  1.00  0.00    -0.003 C 
ATOM      9  C   UNL     1      17.604   8.134  39.530  1.00  0.00     0.004 C 
ENDBRANCH   7   8
ENDBRANCH   6   7
ENDBRANCH   1   6
TORSDOF 5
ENDMDL
MODEL 4
REMARK VINA RESULT:    -4.153     10.172     11.627
REMARK INTER + INTRA:          -5.503
REMARK INTER:                  -5.378
REMARK INTRA:                  -0.126
REMARK UNBOUND:                -0.137
REMARK SMILES CCCCCCC(=O)[O-]
REMARK SMILES IDX 5 1 6 2 7 3 8 4 9 5 4 6 3 7 2 8 1 9
REMARK H PARENT
REMARK Flexibility Score: inf
ROOT
ATOM      1  C   UNL     1       8.627  10.264  43.162  1.00  0.00     0.006 C 
ENDROOT
BRANCH   1   2
ATOM      2  C   UNL     1       8.258   9.989  41.697  1.00  0.00     0.053 C 
BRANCH   2   3
ATOM      3  C   UNL     1       8.588  11.152  40.812  1.00  0.00     0.041 C 
ATOM      4  O   UNL     1       9.361  11.000  39.829  1.00  0.00    -0.550 OA
ATOM      5  O   UNL     1       8.020  12.396  41.054  1.00  0.00    -0.550 OA
ENDBRANCH   2   3
ENDBRANCH   1   2
BRANCH   1   6
ATOM      6  C   UNL     1       8.807   8.966  43.968  1.00  0.00     0.000 C 
BRANCH   6   7
ATOM      7  C   UNL     1       9.363   9.219  45.379  1.00  0.00    -0.000 C 
BRANCH   7   8
ATOM      8  C   UNL     1      10.864   9.541  45.373  1.00  0.00    -0.003 C 
ATOM      9  C   UNL     1      11.699   8.266  45.459  1.00  0.00     0.004 C 
ENDBRANCH   7   8
ENDBRANCH   6   7
ENDBRANCH   1   6
TORSDOF 5
ENDMDL
MODEL 5
REMARK VINA RESULT:    -4.106      4.310      5.475
REMARK INTER + INTRA:          -5.443
REMARK INTER:                  -5.303
REMARK INTRA:                  -0.140
REMARK UNBOUND:                -0.137
REMARK SMILES CCCCCCC(=O)[O-]
REMARK SMILES IDX 5 1 6 2 7 3 8 4 9 5 4 6 3 7 2 8 1 9
REMARK H PARENT
REMARK Flexibility Score: inf
ROOT
ATOM      1  C   UNL     1      20.359  13.449  44.138  1.00  0.00     0.006 C 
ENDROOT
BRANCH   1   2
ATOM      2  C   UNL     1      20.504  11.923  44.221  1.00  0.00     0.053 C 
BRANCH   2   3
ATOM      3  C   UNL     1      19.848  11.365  45.447  1.00  0.00     0.041 C 
ATOM      4  O   UNL     1      19.787  10.120  45.621  1.00  0.00    -0.550 OA
ATOM      5  O   UNL     1      19.330  12.221  46.411  1.00  0.00    -0.550 OA
ENDBRANCH   2   3
ENDBRANCH   1   2
BRANCH   1   6
ATOM      6  C   UNL     1      20.127  13.933  42.697  1.00  0.00     0.000 C 
BRANCH   6   7
ATOM      7  C   UNL     1      19.183  15.144  42.625  1.00  0.00    -0.000 C 
BRANCH   7   8
ATOM      8  C   UNL     1      19.925  16.455  42.327  1.00  0.00    -0.003 C 
ATOM      9  C   UNL     1      21.095  16.219  41.377  1.00  0.00     0.004 C 
ENDBRANCH   7   8
ENDBRANCH   6   7
ENDBRANCH   1   6
TORSDOF 5
ENDMDL
MODEL 6
REMARK VINA RESULT:    -4.087     10.710     11.550
REMARK INTER + INTRA:          -5.418
REMARK INTER:                  -5.197
REMARK INTRA:                  -0.221
REMARK UNBOUND:                -0.137
REMARK SMILES CCCCCCC(=O)[O-]
REMARK SMILES IDX 5 1 6 2 7 3 8 4 9 5 4 6 3 7 2 8 1 9
REMARK H PARENT
REMARK Flexibility Score: inf
ROOT
ATOM      1  C   UNL     1       8.843  12.978  42.018  1.00  0.00     0.006 C 
ENDROOT
BRANCH   1   2
ATOM      2  C   UNL     1       7.933  14.197  42.221  1.00  0.00     0.053 C 
BRANCH   2   3
ATOM      3  C   UNL     1       8.717  15.431  42.550  1.00  0.00     0.041 C 
ATOM      4  O   UNL     1       9.832  15.636  42.003  1.00  0.00    -0.550 OA
ATOM      5  O   UNL     1       8.202  16.368  43.437  1.00  0.00    -0.550 OA
ENDBRANCH   2   3
ENDBRANCH   1   2
BRANCH   1   6
ATOM      6  C   UNL     1       8.674  12.352  40.623  1.00  0.00     0.000 C 
BRANCH   6   7
ATOM      7  C   UNL     1       9.572  13.014  39.565  1.00  0.00    -0.000 C 
BRANCH   7   8
ATOM      8  C   UNL     1      10.021  12.033  38.473  1.00  0.00    -0.003 C 
ATOM      9  C   UNL     1       9.464  10.636  38.728  1.00  0.00     0.004 C 
ENDBRANCH   7   8
ENDBRANCH   6   7
ENDBRANCH   1   6
TORSDOF 5
ENDMDL
MODEL 7
REMARK VINA RESULT:    -4.052      4.804      5.513
REMARK INTER + INTRA:          -5.373
REMARK INTER:                  -5.247
REMARK INTRA:                  -0.126
REMARK UNBOUND:                -0.137
REMARK SMILES CCCCCCC(=O)[O-]
REMARK SMILES IDX 5 1 6 2 7 3 8 4 9 5 4 6 3 7 2 8 1 9
REMARK H PARENT
REMARK Flexibility Score: inf
ROOT
ATOM      1  C   UNL     1      19.981  14.410  43.739  1.00  0.00     0.006 C 
ENDROOT
BRANCH   1   2
ATOM      2  C   UNL     1      20.620  14.552  42.350  1.00  0.00     0.053 C 
BRANCH   2   3
ATOM      3  C   UNL     1      20.501  15.949  41.822  1.00  0.00     0.041 C 
ATOM      4  O   UNL     1      21.185  16.311  40.829  1.00  0.00    -0.550 OA
ATOM      5  O   UNL     1      19.612  16.842  42.408  1.00  0.00    -0.550 OA
ENDBRANCH   2   3
ENDBRANCH   1   2
BRANCH   1   6
ATOM      6  C   UNL     1      20.268  13.037  44.372  1.00  0.00     0.000 C 
BRANCH   6   7
ATOM      7  C   UNL     1      19.510  12.825  45.692  1.00  0.00    -0.000 C 
BRANCH   7   8
ATOM      8  C   UNL     1      19.541  11.365  46.165  1.00  0.00    -0.003 C 
ATOM      9  C   UNL     1      20.390  10.505  45.232  1.00  0.00     0.004 C 
ENDBRANCH   7   8
ENDBRANCH   6   7
ENDBRANCH   1   6
TORSDOF 5
ENDMDL
MODEL 8
REMARK VINA RESULT:    -3.858     12.009     13.128
REMARK INTER + INTRA:          -5.122
REMARK INTER:                  -4.806
REMARK INTRA:                  -0.316
REMARK UNBOUND:                -0.137
REMARK SMILES CCCCCCC(=O)[O-]
REMARK SMILES IDX 5 1 6 2 7 3 8 4 9 5 4 6 3 7 2 8 1 9
REMARK H PARENT
REMARK Flexibility Score: inf
ROOT
ATOM      1  C   UNL     1      10.157  15.478  41.830  1.00  0.00     0.006 C 
ENDROOT
BRANCH   1   2
ATOM      2  C   UNL     1       9.601  14.052  41.949  1.00  0.00     0.053 C 
BRANCH   2   3
ATOM      3  C   UNL     1       8.848  13.643  40.720  1.00  0.00     0.041 C 
ATOM      4  O   UNL     1       9.454  13.498  39.626  1.00  0.00    -0.550 OA
ATOM      5  O   UNL     1       7.483  13.393  40.790  1.00  0.00    -0.550 OA
ENDBRANCH   2   3
ENDBRANCH   1   2
BRANCH   1   6
ATOM      6  C   UNL     1       9.053  16.543  41.944  1.00  0.00     0.000 C 
BRANCH   6   7
ATOM      7  C   UNL     1       8.238  16.412  43.242  1.00  0.00    -0.000 C 
BRANCH   7   8
ATOM      8  C   UNL     1       6.731  16.271  42.982  1.00  0.00    -0.003 C 
ATOM      9  C   UNL     1       6.155  17.554  42.390  1.00  0.00     0.004 C 
ENDBRANCH   7   8
ENDBRANCH   6   7
ENDBRANCH   1   6
TORSDOF 5
ENDMDL
MODEL 9
REMARK VINA RESULT:    -3.759     12.076     12.981
REMARK INTER + INTRA:          -4.994
REMARK INTER:                  -4.734
REMARK INTRA:                  -0.259
REMARK UNBOUND:                -0.137
REMARK SMILES CCCCCCC(=O)[O-]
REMARK SMILES IDX 5 1 6 2 7 3 8 4 9 5 4 6 3 7 2 8 1 9
REMARK H PARENT
REMARK Flexibility Score: inf
ROOT
ATOM      1  C   UNL     1       9.281  16.473  41.920  1.00  0.00     0.006 C 
ENDROOT
BRANCH   1   2
ATOM      2  C   UNL     1       8.266  16.527  43.071  1.00  0.00     0.053 C 
BRANCH   2   3
ATOM      3  C   UNL     1       6.864  16.696  42.571  1.00  0.00     0.041 C 
ATOM      4  O   UNL     1       6.174  15.687  42.269  1.00  0.00    -0.550 OA
ATOM      5  O   UNL     1       6.309  17.965  42.467  1.00  0.00    -0.550 OA
ENDBRANCH   2   3
ENDBRANCH   1   2
BRANCH   1   6
ATOM      6  C   UNL     1      10.032  15.132  41.871  1.00  0.00     0.000 C 
BRANCH   6   7
ATOM      7  C   UNL     1       9.285  14.065  41.054  1.00  0.00    -0.000 C 
BRANCH   7   8
ATOM      8  C   UNL     1       8.638  12.990  41.938  1.00  0.00    -0.003 C 
ATOM      9  C   UNL     1       8.534  11.660  41.196  1.00  0.00     0.004 C 
ENDBRANCH   7   8
ENDBRANCH   6   7
ENDBRANCH   1   6
TORSDOF 5
ENDMDL
