MODEL 1
REMARK VINA RESULT:    -5.257      0.000      0.000
REMARK INTER + INTRA:          -5.410
REMARK INTER:                  -5.410
REMARK INTRA:                   0.000
REMARK UNBOUND:                 0.000
REMARK SMILES O=c1ccc2ccc(O)cc2o1
REMARK SMILES IDX 6 1 7 2 8 3 10 4 11 5 5 6 4 7 3 8 2 9 1 10 12 11 9 12
REMARK H PARENT 9 13
REMARK Flexibility Score: inf
ROOT
ATOM      1  C   UNL     1      48.836  13.286  18.021  1.00  0.00     0.016 A 
ATOM      2  C   UNL     1      48.640  14.014  19.198  1.00  0.00     0.047 A 
ATOM      3  C   UNL     1      48.983  15.371  19.255  1.00  0.00     0.119 A 
ATOM      4  C   UNL     1      49.525  16.004  18.128  1.00  0.00     0.094 A 
ATOM      5  C   UNL     1      49.726  15.282  16.945  1.00  0.00     0.142 A 
ATOM      6  C   UNL     1      49.379  13.915  16.891  1.00  0.00     0.018 A 
ATOM      7  C   UNL     1      49.590  13.220  15.696  1.00  0.00     0.019 A 
ATOM      8  C   UNL     1      50.133  13.891  14.601  1.00  0.00     0.094 A 
ATOM      9  C   UNL     1      50.452  15.249  14.727  1.00  0.00     0.336 A 
ATOM     10  O   UNL     1      50.943  15.872  13.751  1.00  0.00    -0.246 OA
ATOM     11  O   UNL     1      50.241  15.886  15.876  1.00  0.00    -0.423 OA
ENDROOT
BRANCH   3  12
ATOM     12  O   UNL     1      48.779  16.080  20.437  1.00  0.00    -0.508 OA
ATOM     13  H   UNL     1      48.350  15.648  21.247  1.00  0.00     0.293 HD
ENDBRANCH   3  12
TORSDOF 1
ENDMDL
MODEL 2
REMARK VINA RESULT:    -5.015     17.740     18.529
REMARK INTER + INTRA:          -5.162
REMARK INTER:                  -5.162
REMARK INTRA:                   0.000
REMARK UNBOUND:                 0.000
REMARK SMILES O=c1ccc2ccc(O)cc2o1
REMARK SMILES IDX 6 1 7 2 8 3 10 4 11 5 5 6 4 7 3 8 2 9 1 10 12 11 9 12
REMARK H PARENT 9 13
REMARK Flexibility Score: inf
ROOT
ATOM      1  C   UNL     1      58.329  -3.465  17.329  1.00  0.00     0.016 A 
ATOM      2  C   UNL     1      57.688  -3.443  18.572  1.00  0.00     0.047 A 
ATOM      3  C   UNL     1      57.310  -2.225  19.151  1.00  0.00     0.119 A 
ATOM      4  C   UNL     1      57.575  -1.021  18.483  1.00  0.00     0.094 A 
ATOM      5  C   UNL     1      58.217  -1.034  17.239  1.00  0.00     0.142 A 
ATOM      6  C   UNL     1      58.596  -2.264  16.658  1.00  0.00     0.018 A 
ATOM      7  C   UNL     1      59.234  -2.245  15.415  1.00  0.00     0.019 A 
ATOM      8  C   UNL     1      59.478  -1.023  14.788  1.00  0.00     0.094 A 
ATOM      9  C   UNL     1      59.073   0.157  15.424  1.00  0.00     0.336 A 
ATOM     10  O   UNL     1      59.283   1.270  14.874  1.00  0.00    -0.246 OA
ATOM     11  O   UNL     1      58.466   0.111  16.607  1.00  0.00    -0.423 OA
ENDROOT
BRANCH   3  12
ATOM     12  O   UNL     1      56.672  -2.223  20.389  1.00  0.00    -0.508 OA
ATOM     13  H   UNL     1      55.683  -2.431  20.476  1.00  0.00     0.293 HD
ENDBRANCH   3  12
TORSDOF 1
ENDMDL
MODEL 3
REMARK VINA RESULT:    -4.940      2.912      4.112
REMARK INTER + INTRA:          -5.085
REMARK INTER:                  -5.085
REMARK INTRA:                   0.000
REMARK UNBOUND:                 0.000
REMARK SMILES O=c1ccc2ccc(O)cc2o1
REMARK SMILES IDX 6 1 7 2 8 3 10 4 11 5 5 6 4 7 3 8 2 9 1 10 12 11 9 12
REMARK H PARENT 9 13
REMARK Flexibility Score: inf
ROOT
ATOM      1  C   UNL     1      50.195  16.103  14.742  1.00  0.00     0.016 A 
ATOM      2  C   UNL     1      49.053  15.542  15.322  1.00  0.00     0.047 A 
ATOM      3  C   UNL     1      48.893  14.151  15.367  1.00  0.00     0.119 A 
ATOM      4  C   UNL     1      49.881  13.316  14.828  1.00  0.00     0.094 A 
ATOM      5  C   UNL     1      51.027  13.868  14.244  1.00  0.00     0.142 A 
ATOM      6  C   UNL     1      51.185  15.271  14.201  1.00  0.00     0.018 A 
ATOM      7  C   UNL     1      52.340  15.793  13.613  1.00  0.00     0.019 A 
ATOM      8  C   UNL     1      53.296  14.923  13.089  1.00  0.00     0.094 A 
ATOM      9  C   UNL     1      53.073  13.543  13.168  1.00  0.00     0.336 A 
ATOM     10  O   UNL     1      53.923  12.741  12.702  1.00  0.00    -0.246 OA
ATOM     11  O   UNL     1      51.965  13.072  13.734  1.00  0.00    -0.423 OA
ENDROOT
BRANCH   3  12
ATOM     12  O   UNL     1      47.749  13.611  15.950  1.00  0.00    -0.508 OA
ATOM     13  H   UNL     1      47.708  12.640  16.237  1.00  0.00     0.293 HD
ENDBRANCH   3  12
TORSDOF 1
ENDMDL
MODEL 4
REMARK VINA RESULT:    -4.839     12.646     13.643
REMARK INTER + INTRA:          -4.980
REMARK INTER:                  -4.980
REMARK INTRA:                   0.000
REMARK UNBOUND:                 0.000
REMARK SMILES O=c1ccc2ccc(O)cc2o1
REMARK SMILES IDX 6 1 7 2 8 3 10 4 11 5 5 6 4 7 3 8 2 9 1 10 12 11 9 12
REMARK H PARENT 9 13
REMARK Flexibility Score: inf
ROOT
ATOM      1  C   UNL     1      49.260   2.538  20.592  1.00  0.00     0.016 A 
ATOM      2  C   UNL     1      48.740   1.784  21.649  1.00  0.00     0.047 A 
ATOM      3  C   UNL     1      49.599   1.093  22.513  1.00  0.00     0.119 A 
ATOM      4  C   UNL     1      50.986   1.157  22.319  1.00  0.00     0.094 A 
ATOM      5  C   UNL     1      51.515   1.908  21.263  1.00  0.00     0.142 A 
ATOM      6  C   UNL     1      50.646   2.604  20.394  1.00  0.00     0.018 A 
ATOM      7  C   UNL     1      51.203   3.346  19.349  1.00  0.00     0.019 A 
ATOM      8  C   UNL     1      52.589   3.379  19.195  1.00  0.00     0.094 A 
ATOM      9  C   UNL     1      53.388   2.666  20.096  1.00  0.00     0.336 A 
ATOM     10  O   UNL     1      54.641   2.683  19.974  1.00  0.00    -0.246 OA
ATOM     11  O   UNL     1      52.832   1.967  21.082  1.00  0.00    -0.423 OA
ENDROOT
BRANCH   3  12
ATOM     12  O   UNL     1      49.063   0.348  23.561  1.00  0.00    -0.508 OA
ATOM     13  H   UNL     1      48.062   0.260  23.691  1.00  0.00     0.293 HD
ENDBRANCH   3  12
TORSDOF 1
ENDMDL
MODEL 5
REMARK VINA RESULT:    -4.806      6.557      7.325
REMARK INTER + INTRA:          -4.946
REMARK INTER:                  -4.946
REMARK INTRA:                   0.000
REMARK UNBOUND:                 0.000
REMARK SMILES O=c1ccc2ccc(O)cc2o1
REMARK SMILES IDX 6 1 7 2 8 3 10 4 11 5 5 6 4 7 3 8 2 9 1 10 12 11 9 12
REMARK H PARENT 9 13
REMARK Flexibility Score: inf
ROOT
ATOM      1  C   UNL     1      49.550   7.815  21.981  1.00  0.00     0.016 A 
ATOM      2  C   UNL     1      48.425   8.190  22.722  1.00  0.00     0.047 A 
ATOM      3  C   UNL     1      47.334   8.800  22.091  1.00  0.00     0.119 A 
ATOM      4  C   UNL     1      47.368   9.037  20.709  1.00  0.00     0.094 A 
ATOM      5  C   UNL     1      48.490   8.666  19.960  1.00  0.00     0.142 A 
ATOM      6  C   UNL     1      49.588   8.051  20.599  1.00  0.00     0.018 A 
ATOM      7  C   UNL     1      50.695   7.692  19.824  1.00  0.00     0.019 A 
ATOM      8  C   UNL     1      50.684   7.948  18.454  1.00  0.00     0.094 A 
ATOM      9  C   UNL     1      49.559   8.560  17.888  1.00  0.00     0.336 A 
ATOM     10  O   UNL     1      49.529   8.800  16.653  1.00  0.00    -0.246 OA
ATOM     11  O   UNL     1      48.519   8.892  18.648  1.00  0.00    -0.423 OA
ENDROOT
BRANCH   3  12
ATOM     12  O   UNL     1      46.222   9.165  22.846  1.00  0.00    -0.508 OA
ATOM     13  H   UNL     1      45.701   8.483  23.386  1.00  0.00     0.293 HD
ENDBRANCH   3  12
TORSDOF 1
ENDMDL
MODEL 6
REMARK VINA RESULT:    -4.797      6.395      8.468
REMARK INTER + INTRA:          -4.937
REMARK INTER:                  -4.937
REMARK INTRA:                   0.000
REMARK UNBOUND:                 0.000
REMARK SMILES O=c1ccc2ccc(O)cc2o1
REMARK SMILES IDX 6 1 7 2 8 3 10 4 11 5 5 6 4 7 3 8 2 9 1 10 12 11 9 12
REMARK H PARENT 9 13
REMARK Flexibility Score: inf
ROOT
ATOM      1  C   UNL     1      50.752   7.583  19.872  1.00  0.00     0.016 A 
ATOM      2  C   UNL     1      50.734   7.886  18.507  1.00  0.00     0.047 A 
ATOM      3  C   UNL     1      49.653   8.582  17.951  1.00  0.00     0.119 A 
ATOM      4  C   UNL     1      48.584   8.979  18.766  1.00  0.00     0.094 A 
ATOM      5  C   UNL     1      48.593   8.680  20.134  1.00  0.00     0.142 A 
ATOM      6  C   UNL     1      49.684   7.978  20.690  1.00  0.00     0.018 A 
ATOM      7  C   UNL     1      49.666   7.694  22.059  1.00  0.00     0.019 A 
ATOM      8  C   UNL     1      48.580   8.108  22.830  1.00  0.00     0.094 A 
ATOM      9  C   UNL     1      47.533   8.801  22.210  1.00  0.00     0.336 A 
ATOM     10  O   UNL     1      46.544   9.183  22.888  1.00  0.00    -0.246 OA
ATOM     11  O   UNL     1      47.576   9.059  20.905  1.00  0.00    -0.423 OA
ENDROOT
BRANCH   3  12
ATOM     12  O   UNL     1      49.654   8.875  16.590  1.00  0.00    -0.508 OA
ATOM     13  H   UNL     1      48.866   8.640  15.996  1.00  0.00     0.293 HD
ENDBRANCH   3  12
TORSDOF 1
ENDMDL
MODEL 7
REMARK VINA RESULT:    -4.793     12.623     14.094
REMARK INTER + INTRA:          -4.933
REMARK INTER:                  -4.933
REMARK INTRA:                   0.000
REMARK UNBOUND:                 0.000
REMARK SMILES O=c1ccc2ccc(O)cc2o1
REMARK SMILES IDX 6 1 7 2 8 3 10 4 11 5 5 6 4 7 3 8 2 9 1 10 12 11 9 12
REMARK H PARENT 9 13
REMARK Flexibility Score: inf
ROOT
ATOM      1  C   UNL     1      51.027   3.368  19.359  1.00  0.00     0.016 A 
ATOM      2  C   UNL     1      52.414   3.385  19.179  1.00  0.00     0.047 A 
ATOM      3  C   UNL     1      53.245   2.637  20.023  1.00  0.00     0.119 A 
ATOM      4  C   UNL     1      52.686   1.867  21.053  1.00  0.00     0.094 A 
ATOM      5  C   UNL     1      51.299   1.845  21.240  1.00  0.00     0.142 A 
ATOM      6  C   UNL     1      50.464   2.600  20.388  1.00  0.00     0.018 A 
ATOM      7  C   UNL     1      49.083   2.557  20.599  1.00  0.00     0.019 A 
ATOM      8  C   UNL     1      48.572   1.778  21.637  1.00  0.00     0.094 A 
ATOM      9  C   UNL     1      49.461   1.055  22.442  1.00  0.00     0.336 A 
ATOM     10  O   UNL     1      49.020   0.345  23.383  1.00  0.00    -0.246 OA
ATOM     11  O   UNL     1      50.771   1.112  22.219  1.00  0.00    -0.423 OA
ENDROOT
BRANCH   3  12
ATOM     12  O   UNL     1      54.624   2.666  19.828  1.00  0.00    -0.508 OA
ATOM     13  H   UNL     1      55.263   2.860  20.591  1.00  0.00     0.293 HD
ENDBRANCH   3  12
TORSDOF 1
ENDMDL
MODEL 8
REMARK VINA RESULT:    -4.717     17.801     18.659
REMARK INTER + INTRA:          -4.855
REMARK INTER:                  -4.855
REMARK INTRA:                   0.000
REMARK UNBOUND:                 0.000
REMARK SMILES O=c1ccc2ccc(O)cc2o1
REMARK SMILES IDX 6 1 7 2 8 3 10 4 11 5 5 6 4 7 3 8 2 9 1 10 12 11 9 12
REMARK H PARENT 9 13
REMARK Flexibility Score: inf
ROOT
ATOM      1  C   UNL     1      57.492  -0.503  18.446  1.00  0.00     0.016 A 
ATOM      2  C   UNL     1      57.057  -1.712  18.999  1.00  0.00     0.047 A 
ATOM      3  C   UNL     1      57.435  -2.930  18.421  1.00  0.00     0.119 A 
ATOM      4  C   UNL     1      58.253  -2.940  17.282  1.00  0.00     0.094 A 
ATOM      5  C   UNL     1      58.692  -1.735  16.721  1.00  0.00     0.142 A 
ATOM      6  C   UNL     1      58.310  -0.508  17.308  1.00  0.00     0.018 A 
ATOM      7  C   UNL     1      58.764   0.678  16.726  1.00  0.00     0.019 A 
ATOM      8  C   UNL     1      59.575   0.620  15.593  1.00  0.00     0.094 A 
ATOM      9  C   UNL     1      59.915  -0.632  15.067  1.00  0.00     0.336 A 
ATOM     10  O   UNL     1      60.646  -0.707  14.045  1.00  0.00    -0.246 OA
ATOM     11  O   UNL     1      59.469  -1.747  15.640  1.00  0.00    -0.423 OA
ENDROOT
BRANCH   3  12
ATOM     12  O   UNL     1      56.993  -4.124  18.986  1.00  0.00    -0.508 OA
ATOM     13  H   UNL     1      56.608  -4.156  19.923  1.00  0.00     0.293 HD
ENDBRANCH   3  12
TORSDOF 1
ENDMDL
MODEL 9
REMARK VINA RESULT:    -4.669     12.529     13.502
REMARK INTER + INTRA:          -4.805
REMARK INTER:                  -4.805
REMARK INTRA:                   0.000
REMARK UNBOUND:                 0.000
REMARK SMILES O=c1ccc2ccc(O)cc2o1
REMARK SMILES IDX 6 1 7 2 8 3 10 4 11 5 5 6 4 7 3 8 2 9 1 10 12 11 9 12
REMARK H PARENT 9 13
REMARK Flexibility Score: inf
ROOT
ATOM      1  C   UNL     1      51.515   0.610  22.045  1.00  0.00     0.016 A 
ATOM      2  C   UNL     1      50.269   0.377  22.634  1.00  0.00     0.047 A 
ATOM      3  C   UNL     1      49.155   1.137  22.254  1.00  0.00     0.119 A 
ATOM      4  C   UNL     1      49.289   2.136  21.280  1.00  0.00     0.094 A 
ATOM      5  C   UNL     1      50.533   2.377  20.686  1.00  0.00     0.142 A 
ATOM      6  C   UNL     1      51.654   1.608  21.070  1.00  0.00     0.018 A 
ATOM      7  C   UNL     1      52.883   1.871  20.459  1.00  0.00     0.019 A 
ATOM      8  C   UNL     1      52.968   2.876  19.495  1.00  0.00     0.094 A 
ATOM      9  C   UNL     1      51.814   3.596  19.164  1.00  0.00     0.336 A 
ATOM     10  O   UNL     1      51.870   4.506  18.296  1.00  0.00    -0.246 OA
ATOM     11  O   UNL     1      50.657   3.325  19.760  1.00  0.00    -0.423 OA
ENDROOT
BRANCH   3  12
ATOM     12  O   UNL     1      47.921   0.890  22.852  1.00  0.00    -0.508 OA
ATOM     13  H   UNL     1      47.695  -0.016  23.247  1.00  0.00     0.293 HD
ENDBRANCH   3  12
TORSDOF 1
ENDMDL
