MODEL 1
REMARK VINA RESULT:    -3.279      0.000      0.000
REMARK INTER + INTRA:          -5.292
REMARK INTER:                  -4.813
REMARK INTRA:                  -0.479
REMARK UNBOUND:                -0.479
REMARK SMILES O=C([O-])CCCCCCCC(=O)[O-]
REMARK SMILES IDX 7 1 6 2 5 3 4 4 2 5 1 6 3 7 8 8 9 9 10 10 11 11 12 12 13 13
REMARK H PARENT
REMARK Flexibility Score: inf
ROOT
ATOM      1  C   UNL     1       4.926  25.016   8.484  1.00  0.00     0.000 C 
ENDROOT
BRANCH   1   2
ATOM      2  C   UNL     1       3.947  24.146   9.285  1.00  0.00     0.000 C 
BRANCH   2   3
ATOM      3  C   UNL     1       4.061  24.367  10.802  1.00  0.00     0.006 C 
BRANCH   3   4
ATOM      4  C   UNL     1       3.048  25.391  11.328  1.00  0.00     0.053 C 
BRANCH   4   5
ATOM      5  C   UNL     1       3.289  25.667  12.779  1.00  0.00     0.041 C 
ATOM      6  O   UNL     1       2.380  26.177  13.486  1.00  0.00    -0.550 OA
ATOM      7  O   UNL     1       4.534  25.407  13.339  1.00  0.00    -0.550 OA
ENDBRANCH   4   5
ENDBRANCH   3   4
ENDBRANCH   2   3
ENDBRANCH   1   2
BRANCH   1   8
ATOM      8  C   UNL     1       4.554  25.030   6.993  1.00  0.00     0.000 C 
BRANCH   8   9
ATOM      9  C   UNL     1       3.126  24.524   6.735  1.00  0.00     0.006 C 
BRANCH   9  10
ATOM     10  C   UNL     1       2.244  25.571   6.042  1.00  0.00     0.053 C 
BRANCH  10  11
ATOM     11  C   UNL     1       1.099  25.956   6.924  1.00  0.00     0.041 C 
ATOM     12  O   UNL     1       1.247  25.997   8.174  1.00  0.00    -0.550 OA
ATOM     13  O   UNL     1      -0.147  26.221   6.370  1.00  0.00    -0.550 OA
ENDBRANCH  10  11
ENDBRANCH   9  10
ENDBRANCH   8   9
ENDBRANCH   1   8
TORSDOF 8
ENDMDL
MODEL 2
REMARK VINA RESULT:    -3.222      0.202      5.389
REMARK INTER + INTRA:          -5.208
REMARK INTER:                  -4.715
REMARK INTRA:                  -0.493
REMARK UNBOUND:                -0.479
REMARK SMILES O=C([O-])CCCCCCCC(=O)[O-]
REMARK SMILES IDX 7 1 6 2 5 3 4 4 2 5 1 6 3 7 8 8 9 9 10 10 11 11 12 12 13 13
REMARK H PARENT
REMARK Flexibility Score: inf
ROOT
ATOM      1  C   UNL     1       4.901  24.995   8.357  1.00  0.00     0.000 C 
ENDROOT
BRANCH   1   2
ATOM      2  C   UNL     1       4.410  25.012   6.901  1.00  0.00     0.000 C 
BRANCH   2   3
ATOM      3  C   UNL     1       2.929  24.622   6.769  1.00  0.00     0.006 C 
BRANCH   3   4
ATOM      4  C   UNL     1       2.073  25.745   6.172  1.00  0.00     0.053 C 
BRANCH   4   5
ATOM      5  C   UNL     1       0.976  26.125   7.116  1.00  0.00     0.041 C 
ATOM      6  O   UNL     1       1.176  26.110   8.359  1.00  0.00    -0.550 OA
ATOM      7  O   UNL     1      -0.283  26.447   6.625  1.00  0.00    -0.550 OA
ENDBRANCH   4   5
ENDBRANCH   3   4
ENDBRANCH   2   3
ENDBRANCH   1   2
BRANCH   1   8
ATOM      8  C   UNL     1       3.985  24.127   9.233  1.00  0.00     0.000 C 
BRANCH   8   9
ATOM      9  C   UNL     1       4.161  24.408  10.734  1.00  0.00     0.006 C 
BRANCH   9  10
ATOM     10  C   UNL     1       3.024  25.260  11.313  1.00  0.00     0.053 C 
BRANCH  10  11
ATOM     11  C   UNL     1       3.274  25.549  12.760  1.00  0.00     0.041 C 
ATOM     12  O   UNL     1       2.393  26.123  13.453  1.00  0.00    -0.550 OA
ATOM     13  O   UNL     1       4.499  25.230  13.331  1.00  0.00    -0.550 OA
ENDBRANCH  10  11
ENDBRANCH   9  10
ENDBRANCH   8   9
ENDBRANCH   1   8
TORSDOF 8
ENDMDL
MODEL 3
REMARK VINA RESULT:    -3.167      1.037      5.067
REMARK INTER + INTRA:          -5.127
REMARK INTER:                  -4.403
REMARK INTRA:                  -0.724
REMARK UNBOUND:                -0.479
REMARK SMILES O=C([O-])CCCCCCCC(=O)[O-]
REMARK SMILES IDX 7 1 6 2 5 3 4 4 2 5 1 6 3 7 8 8 9 9 10 10 11 11 12 12 13 13
REMARK H PARENT
REMARK Flexibility Score: inf
ROOT
ATOM      1  C   UNL     1       4.837  25.363   7.001  1.00  0.00     0.000 C 
ENDROOT
BRANCH   1   2
ATOM      2  C   UNL     1       4.286  24.124   6.280  1.00  0.00     0.000 C 
BRANCH   2   3
ATOM      3  C   UNL     1       2.871  24.343   5.720  1.00  0.00     0.006 C 
BRANCH   3   4
ATOM      4  C   UNL     1       2.284  25.703   6.113  1.00  0.00     0.053 C 
BRANCH   4   5
ATOM      5  C   UNL     1       0.999  25.523   6.859  1.00  0.00     0.041 C 
ATOM      6  O   UNL     1       0.148  26.450   6.889  1.00  0.00    -0.550 OA
ATOM      7  O   UNL     1       0.764  24.348   7.563  1.00  0.00    -0.550 OA
ENDBRANCH   4   5
ENDBRANCH   3   4
ENDBRANCH   2   3
ENDBRANCH   1   2
BRANCH   1   8
ATOM      8  C   UNL     1       5.211  25.031   8.453  1.00  0.00     0.000 C 
BRANCH   8   9
ATOM      9  C   UNL     1       4.102  24.262   9.189  1.00  0.00     0.006 C 
BRANCH   9  10
ATOM     10  C   UNL     1       3.186  25.182  10.006  1.00  0.00     0.053 C 
BRANCH  10  11
ATOM     11  C   UNL     1       3.484  25.053  11.466  1.00  0.00     0.041 C 
ATOM     12  O   UNL     1       2.745  25.615  12.317  1.00  0.00    -0.550 OA
ATOM     13  O   UNL     1       4.607  24.352  11.887  1.00  0.00    -0.550 OA
ENDBRANCH  10  11
ENDBRANCH   9  10
ENDBRANCH   8   9
ENDBRANCH   1   8
TORSDOF 8
ENDMDL
MODEL 4
REMARK VINA RESULT:    -3.129      1.417      2.064
REMARK INTER + INTRA:          -5.072
REMARK INTER:                  -4.619
REMARK INTRA:                  -0.453
REMARK UNBOUND:                -0.479
REMARK SMILES O=C([O-])CCCCCCCC(=O)[O-]
REMARK SMILES IDX 7 1 6 2 5 3 4 4 2 5 1 6 3 7 8 8 9 9 10 10 11 11 12 12 13 13
REMARK H PARENT
REMARK Flexibility Score: inf
ROOT
ATOM      1  C   UNL     1       3.923  24.381  10.016  1.00  0.00     0.000 C 
ENDROOT
BRANCH   1   2
ATOM      2  C   UNL     1       2.692  25.287  10.165  1.00  0.00     0.000 C 
BRANCH   2   3
ATOM      3  C   UNL     1       1.868  24.969  11.423  1.00  0.00     0.006 C 
BRANCH   3   4
ATOM      4  C   UNL     1       2.746  24.624  12.632  1.00  0.00     0.053 C 
BRANCH   4   5
ATOM      5  C   UNL     1       2.816  25.785  13.575  1.00  0.00     0.041 C 
ATOM      6  O   UNL     1       3.523  26.788  13.294  1.00  0.00    -0.550 OA
ATOM      7  O   UNL     1       2.140  25.736  14.788  1.00  0.00    -0.550 OA
ENDBRANCH   4   5
ENDBRANCH   3   4
ENDBRANCH   2   3
ENDBRANCH   1   2
BRANCH   1   8
ATOM      8  C   UNL     1       4.838  24.881   8.888  1.00  0.00     0.000 C 
BRANCH   8   9
ATOM      9  C   UNL     1       4.583  24.159   7.555  1.00  0.00     0.006 C 
BRANCH   9  10
ATOM     10  C   UNL     1       4.250  25.128   6.413  1.00  0.00     0.053 C 
BRANCH  10  11
ATOM     11  C   UNL     1       2.787  25.091   6.107  1.00  0.00     0.041 C 
ATOM     12  O   UNL     1       1.995  25.869   6.702  1.00  0.00    -0.550 OA
ATOM     13  O   UNL     1       2.289  24.163   5.201  1.00  0.00    -0.550 OA
ENDBRANCH  10  11
ENDBRANCH   9  10
ENDBRANCH   8   9
ENDBRANCH   1   8
TORSDOF 8
ENDMDL
MODEL 5
REMARK VINA RESULT:    -3.057      1.125      1.849
REMARK INTER + INTRA:          -4.966
REMARK INTER:                  -4.371
REMARK INTRA:                  -0.594
REMARK UNBOUND:                -0.479
REMARK SMILES O=C([O-])CCCCCCCC(=O)[O-]
REMARK SMILES IDX 7 1 6 2 5 3 4 4 2 5 1 6 3 7 8 8 9 9 10 10 11 11 12 12 13 13
REMARK H PARENT
REMARK Flexibility Score: inf
ROOT
ATOM      1  C   UNL     1       4.676  25.355   6.949  1.00  0.00     0.000 C 
ENDROOT
BRANCH   1   2
ATOM      2  C   UNL     1       5.223  25.039   8.349  1.00  0.00     0.000 C 
BRANCH   2   3
ATOM      3  C   UNL     1       4.241  24.218   9.198  1.00  0.00     0.006 C 
BRANCH   3   4
ATOM      4  C   UNL     1       3.153  25.083   9.846  1.00  0.00     0.053 C 
BRANCH   4   5
ATOM      5  C   UNL     1       3.198  24.951  11.336  1.00  0.00     0.041 C 
ATOM      6  O   UNL     1       4.252  24.563  11.906  1.00  0.00    -0.550 OA
ATOM      7  O   UNL     1       2.061  25.207  12.092  1.00  0.00    -0.550 OA
ENDBRANCH   4   5
ENDBRANCH   3   4
ENDBRANCH   2   3
ENDBRANCH   1   2
BRANCH   1   8
ATOM      8  C   UNL     1       4.152  24.083   6.265  1.00  0.00     0.000 C 
BRANCH   8   9
ATOM      9  C   UNL     1       2.711  24.235   5.756  1.00  0.00     0.006 C 
BRANCH   9  10
ATOM     10  C   UNL     1       2.135  25.633   6.019  1.00  0.00     0.053 C 
BRANCH  10  11
ATOM     11  C   UNL     1       0.644  25.572   6.122  1.00  0.00     0.041 C 
ATOM     12  O   UNL     1      -0.003  24.714   5.465  1.00  0.00    -0.550 OA
ATOM     13  O   UNL     1      -0.037  26.496   6.905  1.00  0.00    -0.550 OA
ENDBRANCH  10  11
ENDBRANCH   9  10
ENDBRANCH   8   9
ENDBRANCH   1   8
TORSDOF 8
ENDMDL
MODEL 6
REMARK VINA RESULT:    -3.038      1.550      5.926
REMARK INTER + INTRA:          -4.938
REMARK INTER:                  -4.584
REMARK INTRA:                  -0.354
REMARK UNBOUND:                -0.479
REMARK SMILES O=C([O-])CCCCCCCC(=O)[O-]
REMARK SMILES IDX 7 1 6 2 5 3 4 4 2 5 1 6 3 7 8 8 9 9 10 10 11 11 12 12 13 13
REMARK H PARENT
REMARK Flexibility Score: inf
ROOT
ATOM      1  C   UNL     1       3.715  24.642  10.460  1.00  0.00     0.000 C 
ENDROOT
BRANCH   1   2
ATOM      2  C   UNL     1       4.527  24.045   9.300  1.00  0.00     0.000 C 
BRANCH   2   3
ATOM      3  C   UNL     1       4.787  25.059   8.175  1.00  0.00     0.006 C 
BRANCH   3   4
ATOM      4  C   UNL     1       4.526  24.476   6.781  1.00  0.00     0.053 C 
BRANCH   4   5
ATOM      5  C   UNL     1       3.130  24.784   6.339  1.00  0.00     0.041 C 
ATOM      6  O   UNL     1       2.693  24.323   5.252  1.00  0.00    -0.550 OA
ATOM      7  O   UNL     1       2.328  25.624   7.103  1.00  0.00    -0.550 OA
ENDBRANCH   4   5
ENDBRANCH   3   4
ENDBRANCH   2   3
ENDBRANCH   1   2
BRANCH   1   8
ATOM      8  C   UNL     1       4.106  23.989  11.795  1.00  0.00     0.000 C 
BRANCH   8   9
ATOM      9  C   UNL     1       4.252  25.011  12.933  1.00  0.00     0.006 C 
BRANCH   9  10
ATOM     10  C   UNL     1       3.153  26.082  12.911  1.00  0.00     0.053 C 
BRANCH  10  11
ATOM     11  C   UNL     1       2.058  25.725  13.865  1.00  0.00     0.041 C 
ATOM     12  O   UNL     1       2.285  25.682  15.103  1.00  0.00    -0.550 OA
ATOM     13  O   UNL     1       0.798  25.392  13.384  1.00  0.00    -0.550 OA
ENDBRANCH  10  11
ENDBRANCH   9  10
ENDBRANCH   8   9
ENDBRANCH   1   8
TORSDOF 8
ENDMDL
MODEL 7
REMARK VINA RESULT:    -2.945      2.085      2.452
REMARK INTER + INTRA:          -4.801
REMARK INTER:                  -4.174
REMARK INTRA:                  -0.626
REMARK UNBOUND:                -0.479
REMARK SMILES O=C([O-])CCCCCCCC(=O)[O-]
REMARK SMILES IDX 7 1 6 2 5 3 4 4 2 5 1 6 3 7 8 8 9 9 10 10 11 11 12 12 13 13
REMARK H PARENT
REMARK Flexibility Score: inf
ROOT
ATOM      1  C   UNL     1       4.912  25.088   8.106  1.00  0.00     0.000 C 
ENDROOT
BRANCH   1   2
ATOM      2  C   UNL     1       4.079  24.058   8.884  1.00  0.00     0.000 C 
BRANCH   2   3
ATOM      3  C   UNL     1       3.877  24.448  10.357  1.00  0.00     0.006 C 
BRANCH   3   4
ATOM      4  C   UNL     1       2.818  25.542  10.538  1.00  0.00     0.053 C 
BRANCH   4   5
ATOM      5  C   UNL     1       1.525  25.129   9.908  1.00  0.00     0.041 C 
ATOM      6  O   UNL     1       0.947  25.890   9.089  1.00  0.00    -0.550 OA
ATOM      7  O   UNL     1       0.933  23.923  10.264  1.00  0.00    -0.550 OA
ENDBRANCH   4   5
ENDBRANCH   3   4
ENDBRANCH   2   3
ENDBRANCH   1   2
BRANCH   1   8
ATOM      8  C   UNL     1       4.550  25.070   6.613  1.00  0.00     0.000 C 
BRANCH   8   9
ATOM      9  C   UNL     1       3.128  24.547   6.354  1.00  0.00     0.006 C 
BRANCH   9  10
ATOM     10  C   UNL     1       2.165  25.652   5.903  1.00  0.00     0.053 C 
BRANCH  10  11
ATOM     11  C   UNL     1       0.919  25.056   5.329  1.00  0.00     0.041 C 
ATOM     12  O   UNL     1       0.250  24.222   5.995  1.00  0.00    -0.550 OA
ATOM     13  O   UNL     1       0.522  25.385   4.039  1.00  0.00    -0.550 OA
ENDBRANCH  10  11
ENDBRANCH   9  10
ENDBRANCH   8   9
ENDBRANCH   1   8
TORSDOF 8
ENDMDL
MODEL 8
REMARK VINA RESULT:    -2.910      2.352      3.105
REMARK INTER + INTRA:          -4.750
REMARK INTER:                  -4.162
REMARK INTRA:                  -0.589
REMARK UNBOUND:                -0.479
REMARK SMILES O=C([O-])CCCCCCCC(=O)[O-]
REMARK SMILES IDX 7 1 6 2 5 3 4 4 2 5 1 6 3 7 8 8 9 9 10 10 11 11 12 12 13 13
REMARK H PARENT
REMARK Flexibility Score: inf
ROOT
ATOM      1  C   UNL     1       1.148  26.006   8.648  1.00  0.00     0.000 C 
ENDROOT
BRANCH   1   2
ATOM      2  C   UNL     1       1.573  25.062   9.783  1.00  0.00     0.000 C 
BRANCH   2   3
ATOM      3  C   UNL     1       2.515  25.735  10.793  1.00  0.00     0.006 C 
BRANCH   3   4
ATOM      4  C   UNL     1       2.830  24.837  11.996  1.00  0.00     0.053 C 
BRANCH   4   5
ATOM      5  C   UNL     1       2.211  25.394  13.240  1.00  0.00     0.041 C 
ATOM      6  O   UNL     1       0.982  25.233  13.463  1.00  0.00    -0.550 OA
ATOM      7  O   UNL     1       2.981  26.135  14.128  1.00  0.00    -0.550 OA
ENDBRANCH   4   5
ENDBRANCH   3   4
ENDBRANCH   2   3
ENDBRANCH   1   2
BRANCH   1   8
ATOM      8  C   UNL     1       1.490  25.403   7.277  1.00  0.00     0.000 C 
BRANCH   8   9
ATOM      9  C   UNL     1       2.669  24.419   7.339  1.00  0.00     0.006 C 
BRANCH   9  10
ATOM     10  C   UNL     1       4.000  25.065   6.932  1.00  0.00     0.053 C 
BRANCH  10  11
ATOM     11  C   UNL     1       4.972  25.016   8.068  1.00  0.00     0.041 C 
ATOM     12  O   UNL     1       5.896  25.869   8.148  1.00  0.00    -0.550 OA
ATOM     13  O   UNL     1       4.889  24.000   9.011  1.00  0.00    -0.550 OA
ENDBRANCH  10  11
ENDBRANCH   9  10
ENDBRANCH   8   9
ENDBRANCH   1   8
TORSDOF 8
ENDMDL
MODEL 9
REMARK VINA RESULT:    -2.840      2.797      4.247
REMARK INTER + INTRA:          -4.647
REMARK INTER:                  -4.270
REMARK INTRA:                  -0.377
REMARK UNBOUND:                -0.479
REMARK SMILES O=C([O-])CCCCCCCC(=O)[O-]
REMARK SMILES IDX 7 1 6 2 5 3 4 4 2 5 1 6 3 7 8 8 9 9 10 10 11 11 12 12 13 13
REMARK H PARENT
REMARK Flexibility Score: inf
ROOT
ATOM      1  C   UNL     1       3.293  25.024  12.380  1.00  0.00     0.000 C 
ENDROOT
BRANCH   1   2
ATOM      2  C   UNL     1       3.155  26.207  13.351  1.00  0.00     0.000 C 
BRANCH   2   3
ATOM      3  C   UNL     1       2.660  25.779  14.741  1.00  0.00     0.006 C 
BRANCH   3   4
ATOM      4  C   UNL     1       1.942  24.425  14.722  1.00  0.00     0.053 C 
BRANCH   4   5
ATOM      5  C   UNL     1       0.478  24.606  14.979  1.00  0.00     0.041 C 
ATOM      6  O   UNL     1      -0.311  24.818  14.021  1.00  0.00    -0.550 OA
ATOM      7  O   UNL     1      -0.006  24.592  16.281  1.00  0.00    -0.550 OA
ENDBRANCH   4   5
ENDBRANCH   3   4
ENDBRANCH   2   3
ENDBRANCH   1   2
BRANCH   1   8
ATOM      8  C   UNL     1       2.574  25.316  11.055  1.00  0.00     0.000 C 
BRANCH   8   9
ATOM      9  C   UNL     1       3.024  24.385   9.919  1.00  0.00     0.006 C 
BRANCH   9  10
ATOM     10  C   UNL     1       4.540  24.426   9.686  1.00  0.00     0.053 C 
BRANCH  10  11
ATOM     11  C   UNL     1       4.845  24.982   8.331  1.00  0.00     0.041 C 
ATOM     12  O   UNL     1       5.858  25.710   8.158  1.00  0.00    -0.550 OA
ATOM     13  O   UNL     1       3.983  24.738   7.269  1.00  0.00    -0.550 OA
ENDBRANCH  10  11
ENDBRANCH   9  10
ENDBRANCH   8   9
ENDBRANCH   1   8
TORSDOF 8
ENDMDL
