MODEL 1
REMARK VINA RESULT:    -5.477      0.000      0.000
REMARK INTER + INTRA:          -6.617
REMARK INTER:                  -6.277
REMARK INTRA:                  -0.340
REMARK UNBOUND:                -0.340
REMARK SMILES COc1ccc(C(C)=O)c(O)c1
REMARK SMILES IDX 6 1 10 2 12 3 3 4 4 5 5 6 7 7 8 8 9 9 11 10 2 12 1 13
REMARK H PARENT 11 11
REMARK Flexibility Score: inf
ROOT
ATOM      1  C   UNL     1     -22.901   6.269   2.460  1.00  0.00     0.059 A 
ATOM      2  C   UNL     1     -23.383   6.819   1.249  1.00  0.00     0.130 A 
ATOM      3  C   UNL     1     -22.766   6.490   0.032  1.00  0.00     0.093 A 
ATOM      4  C   UNL     1     -21.671   5.624  -0.007  1.00  0.00     0.122 A 
ATOM      5  C   UNL     1     -21.188   5.078   1.194  1.00  0.00     0.047 A 
ATOM      6  C   UNL     1     -21.795   5.398   2.410  1.00  0.00     0.019 A 
ENDROOT
BRANCH   1   7
ATOM      7  C   UNL     1     -23.544   6.593   3.766  1.00  0.00     0.163 C 
ATOM      8  C   UNL     1     -24.096   5.523   4.660  1.00  0.00     0.093 C 
ATOM      9  O   UNL     1     -23.661   7.793   4.134  1.00  0.00    -0.294 OA
ENDBRANCH   1   7
BRANCH   2  10
ATOM     10  O   UNL     1     -24.465   7.701   1.248  1.00  0.00    -0.507 OA
ATOM     11  H   UNL     1     -24.425   8.594   0.773  1.00  0.00     0.293 HD
ENDBRANCH   2  10
BRANCH   4  12
ATOM     12  O   UNL     1     -21.096   5.333  -1.252  1.00  0.00    -0.497 OA
ATOM     13  C   UNL     1     -21.835   4.958  -2.411  1.00  0.00     0.278 C 
ENDBRANCH   4  12
TORSDOF 3
ENDMDL
MODEL 2
REMARK VINA RESULT:    -5.468      3.897      5.825
REMARK INTER + INTRA:          -6.607
REMARK INTER:                  -6.280
REMARK INTRA:                  -0.327
REMARK UNBOUND:                -0.340
REMARK SMILES COc1ccc(C(C)=O)c(O)c1
REMARK SMILES IDX 6 1 10 2 12 3 3 4 4 5 5 6 7 7 8 8 9 9 11 10 2 12 1 13
REMARK H PARENT 11 11
REMARK Flexibility Score: inf
ROOT
ATOM      1  C   UNL     1     -21.798  10.688   2.253  1.00  0.00     0.059 A 
ATOM      2  C   UNL     1     -22.402   9.515   1.743  1.00  0.00     0.130 A 
ATOM      3  C   UNL     1     -23.188   8.708   2.580  1.00  0.00     0.093 A 
ATOM      4  C   UNL     1     -23.385   9.042   3.922  1.00  0.00     0.122 A 
ATOM      5  C   UNL     1     -22.784  10.205   4.432  1.00  0.00     0.047 A 
ATOM      6  C   UNL     1     -22.001  11.016   3.607  1.00  0.00     0.019 A 
ENDROOT
BRANCH   1   7
ATOM      7  C   UNL     1     -20.966  11.569   1.383  1.00  0.00     0.163 C 
ATOM      8  C   UNL     1     -19.521  11.837   1.685  1.00  0.00     0.093 C 
ATOM      9  O   UNL     1     -21.478  12.136   0.381  1.00  0.00    -0.294 OA
ENDBRANCH   1   7
BRANCH   2  10
ATOM     10  O   UNL     1     -22.217   9.138   0.412  1.00  0.00    -0.507 OA
ATOM     11  H   UNL     1     -21.366   9.359  -0.091  1.00  0.00     0.293 HD
ENDBRANCH   2  10
BRANCH   4  12
ATOM     12  O   UNL     1     -24.180   8.197   4.710  1.00  0.00    -0.497 OA
ATOM     13  C   UNL     1     -24.162   6.775   4.633  1.00  0.00     0.278 C 
ENDBRANCH   4  12
TORSDOF 3
ENDMDL
MODEL 3
REMARK VINA RESULT:    -5.427      3.393      4.547
REMARK INTER + INTRA:          -6.560
REMARK INTER:                  -6.257
REMARK INTRA:                  -0.303
REMARK UNBOUND:                -0.340
REMARK SMILES COc1ccc(C(C)=O)c(O)c1
REMARK SMILES IDX 6 1 10 2 12 3 3 4 4 5 5 6 7 7 8 8 9 9 11 10 2 12 1 13
REMARK H PARENT 11 11
REMARK Flexibility Score: inf
ROOT
ATOM      1  C   UNL     1     -22.769   7.897   2.660  1.00  0.00     0.059 A 
ATOM      2  C   UNL     1     -21.866   8.268   1.637  1.00  0.00     0.130 A 
ATOM      3  C   UNL     1     -21.496   9.612   1.479  1.00  0.00     0.093 A 
ATOM      4  C   UNL     1     -22.012  10.602   2.319  1.00  0.00     0.122 A 
ATOM      5  C   UNL     1     -22.911  10.238   3.334  1.00  0.00     0.047 A 
ATOM      6  C   UNL     1     -23.285   8.902   3.501  1.00  0.00     0.019 A 
ENDROOT
BRANCH   1   7
ATOM      7  C   UNL     1     -23.172   6.474   2.857  1.00  0.00     0.163 C 
ATOM      8  C   UNL     1     -24.490   6.105   3.471  1.00  0.00     0.093 C 
ATOM      9  O   UNL     1     -22.388   5.542   2.532  1.00  0.00    -0.294 OA
ENDBRANCH   1   7
BRANCH   2  10
ATOM     10  O   UNL     1     -21.341   7.311   0.768  1.00  0.00    -0.507 OA
ATOM     11  H   UNL     1     -20.430   7.422   0.338  1.00  0.00     0.293 HD
ENDBRANCH   2  10
BRANCH   4  12
ATOM     12  O   UNL     1     -21.606  11.929   2.113  1.00  0.00    -0.497 OA
ATOM     13  C   UNL     1     -20.483  12.312   1.325  1.00  0.00     0.278 C 
ENDBRANCH   4  12
TORSDOF 3
ENDMDL
MODEL 4
REMARK VINA RESULT:    -5.372      3.064      4.694
REMARK INTER + INTRA:          -6.497
REMARK INTER:                  -6.183
REMARK INTRA:                  -0.314
REMARK UNBOUND:                -0.340
REMARK SMILES COc1ccc(C(C)=O)c(O)c1
REMARK SMILES IDX 6 1 10 2 12 3 3 4 4 5 5 6 7 7 8 8 9 9 11 10 2 12 1 13
REMARK H PARENT 11 11
REMARK Flexibility Score: inf
ROOT
ATOM      1  C   UNL     1     -21.796   9.280   1.930  1.00  0.00     0.059 A 
ATOM      2  C   UNL     1     -22.921   9.378   2.781  1.00  0.00     0.130 A 
ATOM      3  C   UNL     1     -23.580   8.217   3.213  1.00  0.00     0.093 A 
ATOM      4  C   UNL     1     -23.144   6.952   2.810  1.00  0.00     0.122 A 
ATOM      5  C   UNL     1     -22.029   6.851   1.962  1.00  0.00     0.047 A 
ATOM      6  C   UNL     1     -21.364   8.001   1.528  1.00  0.00     0.019 A 
ENDROOT
BRANCH   1   7
ATOM      7  C   UNL     1     -21.070  10.497   1.464  1.00  0.00     0.163 C 
ATOM      8  C   UNL     1     -19.674  10.805   1.919  1.00  0.00     0.093 C 
ATOM      9  O   UNL     1     -21.636  11.315   0.690  1.00  0.00    -0.294 OA
ENDBRANCH   1   7
BRANCH   2  10
ATOM     10  O   UNL     1     -23.397  10.624   3.193  1.00  0.00    -0.507 OA
ATOM     11  H   UNL     1     -22.839  11.246   3.765  1.00  0.00     0.293 HD
ENDBRANCH   2  10
BRANCH   4  12
ATOM     12  O   UNL     1     -23.843   5.828   3.273  1.00  0.00    -0.497 OA
ATOM     13  C   UNL     1     -24.089   5.544   4.647  1.00  0.00     0.278 C 
ENDBRANCH   4  12
TORSDOF 3
ENDMDL
MODEL 5
REMARK VINA RESULT:    -5.368      2.377      4.619
REMARK INTER + INTRA:          -6.493
REMARK INTER:                  -6.152
REMARK INTRA:                  -0.340
REMARK UNBOUND:                -0.340
REMARK SMILES COc1ccc(C(C)=O)c(O)c1
REMARK SMILES IDX 6 1 10 2 12 3 3 4 4 5 5 6 7 7 8 8 9 9 11 10 2 12 1 13
REMARK H PARENT 11 11
REMARK Flexibility Score: inf
ROOT
ATOM      1  C   UNL     1     -23.543   7.233  -1.026  1.00  0.00     0.059 A 
ATOM      2  C   UNL     1     -22.358   6.470  -1.137  1.00  0.00     0.130 A 
ATOM      3  C   UNL     1     -21.738   5.963   0.015  1.00  0.00     0.093 A 
ATOM      4  C   UNL     1     -22.273   6.202   1.283  1.00  0.00     0.122 A 
ATOM      5  C   UNL     1     -23.449   6.961   1.397  1.00  0.00     0.047 A 
ATOM      6  C   UNL     1     -24.075   7.470   0.257  1.00  0.00     0.019 A 
ENDROOT
BRANCH   1   7
ATOM      7  C   UNL     1     -24.229   7.776  -2.235  1.00  0.00     0.163 C 
ATOM      8  C   UNL     1     -25.656   7.440  -2.550  1.00  0.00     0.093 C 
ATOM      9  O   UNL     1     -23.602   8.516  -3.040  1.00  0.00    -0.294 OA
ENDBRANCH   1   7
BRANCH   2  10
ATOM     10  O   UNL     1     -21.783   6.223  -2.384  1.00  0.00    -0.507 OA
ATOM     11  H   UNL     1     -20.790   6.340  -2.547  1.00  0.00     0.293 HD
ENDBRANCH   2  10
BRANCH   4  12
ATOM     12  O   UNL     1     -21.609   5.669   2.398  1.00  0.00    -0.497 OA
ATOM     13  C   UNL     1     -21.133   4.329   2.486  1.00  0.00     0.278 C 
ENDBRANCH   4  12
TORSDOF 3
ENDMDL
MODEL 6
REMARK VINA RESULT:    -5.262      2.414      4.022
REMARK INTER + INTRA:          -6.371
REMARK INTER:                  -6.053
REMARK INTRA:                  -0.319
REMARK UNBOUND:                -0.340
REMARK SMILES COc1ccc(C(C)=O)c(O)c1
REMARK SMILES IDX 6 1 10 2 12 3 3 4 4 5 5 6 7 7 8 8 9 9 11 10 2 12 1 13
REMARK H PARENT 11 11
REMARK Flexibility Score: inf
ROOT
ATOM      1  C   UNL     1     -22.270   6.279  -0.104  1.00  0.00     0.059 A 
ATOM      2  C   UNL     1     -22.004   5.891  -1.438  1.00  0.00     0.130 A 
ATOM      3  C   UNL     1     -22.804   6.375  -2.484  1.00  0.00     0.093 A 
ATOM      4  C   UNL     1     -23.872   7.240  -2.230  1.00  0.00     0.122 A 
ATOM      5  C   UNL     1     -24.140   7.625  -0.906  1.00  0.00     0.047 A 
ATOM      6  C   UNL     1     -23.349   7.150   0.142  1.00  0.00     0.019 A 
ENDROOT
BRANCH   1   7
ATOM      7  C   UNL     1     -21.429   5.787   1.026  1.00  0.00     0.163 C 
ATOM      8  C   UNL     1     -22.010   5.523   2.384  1.00  0.00     0.093 C 
ATOM      9  O   UNL     1     -20.192   5.608   0.865  1.00  0.00    -0.294 OA
ENDBRANCH   1   7
BRANCH   2  10
ATOM     10  O   UNL     1     -20.957   5.016  -1.731  1.00  0.00    -0.507 OA
ATOM     11  H   UNL     1     -19.996   5.333  -1.783  1.00  0.00     0.293 HD
ENDBRANCH   2  10
BRANCH   4  12
ATOM     12  O   UNL     1     -24.637   7.691  -3.316  1.00  0.00    -0.497 OA
ATOM     13  C   UNL     1     -26.006   8.072  -3.231  1.00  0.00     0.278 C 
ENDBRANCH   4  12
TORSDOF 3
ENDMDL
MODEL 7
REMARK VINA RESULT:    -5.227      3.735      4.757
REMARK INTER + INTRA:          -6.331
REMARK INTER:                  -6.013
REMARK INTRA:                  -0.318
REMARK UNBOUND:                -0.340
REMARK SMILES COc1ccc(C(C)=O)c(O)c1
REMARK SMILES IDX 6 1 10 2 12 3 3 4 4 5 5 6 7 7 8 8 9 9 11 10 2 12 1 13
REMARK H PARENT 11 11
REMARK Flexibility Score: inf
ROOT
ATOM      1  C   UNL     1     -23.014   8.967   3.355  1.00  0.00     0.059 A 
ATOM      2  C   UNL     1     -22.684  10.247   3.856  1.00  0.00     0.130 A 
ATOM      3  C   UNL     1     -21.916  11.129   3.082  1.00  0.00     0.093 A 
ATOM      4  C   UNL     1     -21.461  10.762   1.813  1.00  0.00     0.122 A 
ATOM      5  C   UNL     1     -21.784   9.490   1.313  1.00  0.00     0.047 A 
ATOM      6  C   UNL     1     -22.550   8.605   2.075  1.00  0.00     0.019 A 
ENDROOT
BRANCH   1   7
ATOM      7  C   UNL     1     -23.838   8.013   4.152  1.00  0.00     0.163 C 
ATOM      8  C   UNL     1     -24.873   7.137   3.509  1.00  0.00     0.093 C 
ATOM      9  O   UNL     1     -23.697   7.945   5.402  1.00  0.00    -0.294 OA
ENDBRANCH   1   7
BRANCH   2  10
ATOM     10  O   UNL     1     -23.106  10.646   5.125  1.00  0.00    -0.507 OA
ATOM     11  H   UNL     1     -22.564  10.442   5.956  1.00  0.00     0.293 HD
ENDBRANCH   2  10
BRANCH   4  12
ATOM     12  O   UNL     1     -20.696  11.686   1.086  1.00  0.00    -0.497 OA
ATOM     13  C   UNL     1     -19.396  12.128   1.465  1.00  0.00     0.278 C 
ENDBRANCH   4  12
TORSDOF 3
ENDMDL
MODEL 8
REMARK VINA RESULT:    -5.164      1.890      2.633
REMARK INTER + INTRA:          -6.259
REMARK INTER:                  -5.976
REMARK INTRA:                  -0.283
REMARK UNBOUND:                -0.340
REMARK SMILES COc1ccc(C(C)=O)c(O)c1
REMARK SMILES IDX 6 1 10 2 12 3 3 4 4 5 5 6 7 7 8 8 9 9 11 10 2 12 1 13
REMARK H PARENT 11 11
REMARK Flexibility Score: inf
ROOT
ATOM      1  C   UNL     1     -22.634   7.315   0.859  1.00  0.00     0.059 A 
ATOM      2  C   UNL     1     -21.574   6.380   0.803  1.00  0.00     0.130 A 
ATOM      3  C   UNL     1     -21.344   5.648  -0.372  1.00  0.00     0.093 A 
ATOM      4  C   UNL     1     -22.153   5.824  -1.498  1.00  0.00     0.122 A 
ATOM      5  C   UNL     1     -23.208   6.750  -1.444  1.00  0.00     0.047 A 
ATOM      6  C   UNL     1     -23.444   7.485  -0.280  1.00  0.00     0.019 A 
ENDROOT
BRANCH   1   7
ATOM      7  C   UNL     1     -22.894   8.115   2.092  1.00  0.00     0.163 C 
ATOM      8  C   UNL     1     -24.112   7.885   2.937  1.00  0.00     0.093 C 
ATOM      9  O   UNL     1     -22.098   9.029   2.434  1.00  0.00    -0.294 OA
ENDBRANCH   1   7
BRANCH   2  10
ATOM     10  O   UNL     1     -20.754   6.165   1.911  1.00  0.00    -0.507 OA
ATOM     11  H   UNL     1     -19.769   5.951   1.813  1.00  0.00     0.293 HD
ENDBRANCH   2  10
BRANCH   4  12
ATOM     12  O   UNL     1     -21.875   5.064  -2.643  1.00  0.00    -0.497 OA
ATOM     13  C   UNL     1     -22.665   3.966  -3.091  1.00  0.00     0.278 C 
ENDBRANCH   4  12
TORSDOF 3
ENDMDL
MODEL 9
REMARK VINA RESULT:    -5.150      2.844      3.264
REMARK INTER + INTRA:          -6.243
REMARK INTER:                  -5.906
REMARK INTRA:                  -0.337
REMARK UNBOUND:                -0.340
REMARK SMILES COc1ccc(C(C)=O)c(O)c1
REMARK SMILES IDX 6 1 10 2 12 3 3 4 4 5 5 6 7 7 8 8 9 9 11 10 2 12 1 13
REMARK H PARENT 11 11
REMARK Flexibility Score: inf
ROOT
ATOM      1  C   UNL     1     -22.404   8.985   2.496  1.00  0.00     0.059 A 
ATOM      2  C   UNL     1     -21.183   8.615   1.885  1.00  0.00     0.130 A 
ATOM      3  C   UNL     1     -21.082   7.396   1.197  1.00  0.00     0.093 A 
ATOM      4  C   UNL     1     -22.175   6.530   1.106  1.00  0.00     0.122 A 
ATOM      5  C   UNL     1     -23.388   6.893   1.713  1.00  0.00     0.047 A 
ATOM      6  C   UNL     1     -23.499   8.105   2.400  1.00  0.00     0.019 A 
ENDROOT
BRANCH   1   7
ATOM      7  C   UNL     1     -22.542  10.279   3.226  1.00  0.00     0.163 C 
ATOM      8  C   UNL     1     -22.979  10.332   4.660  1.00  0.00     0.093 C 
ATOM      9  O   UNL     1     -22.318  11.368   2.633  1.00  0.00    -0.294 OA
ENDBRANCH   1   7
BRANCH   2  10
ATOM     10  O   UNL     1     -20.064   9.445   1.968  1.00  0.00    -0.507 OA
ATOM     11  H   UNL     1     -19.811  10.076   1.217  1.00  0.00     0.293 HD
ENDBRANCH   2  10
BRANCH   4  12
ATOM     12  O   UNL     1     -22.013   5.326   0.405  1.00  0.00    -0.497 OA
ATOM     13  C   UNL     1     -21.196   5.173  -0.752  1.00  0.00     0.278 C 
ENDBRANCH   4  12
TORSDOF 3
ENDMDL
