MODEL 1
REMARK VINA RESULT:    -5.676      0.000      0.000
REMARK INTER + INTRA:          -9.069
REMARK INTER:                  -7.833
REMARK INTRA:                  -1.237
REMARK UNBOUND:                -1.237
REMARK SMILES O=C([O-])[C@@H]1O[C@@H](Oc2cc3oc(-c4ccccc4)cc(=O)c3c(O)c2O)[C@@H](O)[C@@H](O)[C@@H]1O
REMARK SMILES IDX 7 1 6 2 4 3 31 4 5 5 29 6 27 7 2 8 1 9 3 10 32 11 30 13
REMARK SMILES IDX 28 15 8 17 25 18 9 19 23 20 10 21 22 22 11 23 20 24 12 25
REMARK SMILES IDX 19 26 21 27 26 28 24 30 13 32 14 33 18 34 15 35 17 36 16 37
REMARK H PARENT 32 12 30 14 28 16 26 29 24 31
REMARK Flexibility Score: inf
ROOT
ATOM      1  O   UNL     1      23.191   2.819  27.642  1.00  0.00    -0.458 OA
ENDROOT
BRANCH   1   2
ATOM      2  C   UNL     1      24.214   2.676  26.645  1.00  0.00     0.339 C 
ATOM      3  C   UNL     1      25.031   4.842  27.036  1.00  0.00     0.199 C 
ATOM      4  C   UNL     1      24.656   5.366  25.632  1.00  0.00     0.180 C 
ATOM      5  O   UNL     1      25.345   3.459  26.995  1.00  0.00    -0.328 OA
ATOM      6  C   UNL     1      23.489   4.545  25.039  1.00  0.00     0.181 C 
ATOM      7  C   UNL     1      23.727   3.029  25.217  1.00  0.00     0.214 C 
BRANCH   3   8
ATOM      8  C   UNL     1      26.217   5.594  27.568  1.00  0.00     0.073 C 
ATOM      9  O   UNL     1      26.880   5.129  28.532  1.00  0.00    -0.547 OA
ATOM     10  O   UNL     1      26.558   6.833  27.038  1.00  0.00    -0.547 OA
ENDBRANCH   3   8
BRANCH   4  11
ATOM     11  O   UNL     1      25.773   5.273  24.783  1.00  0.00    -0.387 OA
ATOM     12  H   UNL     1      25.675   4.432  24.266  1.00  0.00     0.211 HD
ENDBRANCH   4  11
BRANCH   6  13
ATOM     13  O   UNL     1      22.243   4.947  25.562  1.00  0.00    -0.387 OA
ATOM     14  H   UNL     1      22.382   5.738  26.138  1.00  0.00     0.211 HD
ENDBRANCH   6  13
BRANCH   7  15
ATOM     15  O   UNL     1      22.570   2.305  24.890  1.00  0.00    -0.384 OA
ATOM     16  H   UNL     1      22.158   2.759  24.108  1.00  0.00     0.211 HD
ENDBRANCH   7  15
ENDBRANCH   1   2
BRANCH   1  17
ATOM     17  C   UNL     1      22.895   1.956  28.714  1.00  0.00     0.172 A 
ATOM     18  C   UNL     1      23.263   2.200  30.056  1.00  0.00     0.201 A 
ATOM     19  C   UNL     1      22.163   0.810  28.407  1.00  0.00     0.098 A 
ATOM     20  C   UNL     1      22.937   1.267  31.065  1.00  0.00     0.176 A 
ATOM     21  C   UNL     1      21.865  -0.140  29.382  1.00  0.00     0.146 A 
ATOM     22  C   UNL     1      22.279   0.051  30.721  1.00  0.00     0.111 A 
ATOM     23  O   UNL     1      21.199  -1.233  29.021  1.00  0.00    -0.456 OA
ATOM     24  C   UNL     1      22.031  -1.011  31.623  1.00  0.00     0.197 A 
ATOM     25  C   UNL     1      20.895  -2.215  29.863  1.00  0.00     0.138 A 
ATOM     26  C   UNL     1      21.321  -2.133  31.196  1.00  0.00     0.100 A 
ATOM     27  O   UNL     1      22.466  -0.998  32.804  1.00  0.00    -0.289 OA
BRANCH  18  28
ATOM     28  O   UNL     1      23.916   3.383  30.400  1.00  0.00    -0.502 OA
ATOM     29  H   UNL     1      24.163   3.621  31.353  1.00  0.00     0.293 HD
ENDBRANCH  18  28
BRANCH  20  30
ATOM     30  O   UNL     1      23.253   1.610  32.383  1.00  0.00    -0.504 OA
ATOM     31  H   UNL     1      23.202   0.978  33.168  1.00  0.00     0.293 HD
ENDBRANCH  20  30
BRANCH  25  32
ATOM     32  C   UNL     1      20.134  -3.384  29.351  1.00  0.00     0.017 A 
ATOM     33  C   UNL     1      19.769  -3.433  27.993  1.00  0.00     0.012 A 
ATOM     34  C   UNL     1      19.739  -4.440  30.198  1.00  0.00     0.012 A 
ATOM     35  C   UNL     1      19.047  -4.519  27.491  1.00  0.00     0.001 A 
ATOM     36  C   UNL     1      19.015  -5.522  29.690  1.00  0.00     0.001 A 
ATOM     37  C   UNL     1      18.672  -5.564  28.338  1.00  0.00     0.000 A 
ENDBRANCH  25  32
ENDBRANCH   1  17
TORSDOF 9
ENDMDL
MODEL 2
REMARK VINA RESULT:    -5.581      9.429     14.740
REMARK INTER + INTRA:          -8.938
REMARK INTER:                  -8.345
REMARK INTRA:                  -0.593
REMARK UNBOUND:                -1.237
REMARK SMILES O=C([O-])[C@@H]1O[C@@H](Oc2cc3oc(-c4ccccc4)cc(=O)c3c(O)c2O)[C@@H](O)[C@@H](O)[C@@H]1O
REMARK SMILES IDX 7 1 6 2 4 3 31 4 5 5 29 6 27 7 2 8 1 9 3 10 32 11 30 13
REMARK SMILES IDX 28 15 8 17 25 18 9 19 23 20 10 21 22 22 11 23 20 24 12 25
REMARK SMILES IDX 19 26 21 27 26 28 24 30 13 32 14 33 18 34 15 35 17 36 16 37
REMARK H PARENT 32 12 30 14 28 16 26 29 24 31
REMARK Flexibility Score: inf
ROOT
ATOM      1  O   UNL     1      15.060  -9.767  22.907  1.00  0.00    -0.458 OA
ENDROOT
BRANCH   1   2
ATOM      2  C   UNL     1      14.724 -10.950  22.168  1.00  0.00     0.339 C 
ATOM      3  C   UNL     1      13.676  -9.709  20.473  1.00  0.00     0.199 C 
ATOM      4  C   UNL     1      12.270 -10.282  20.758  1.00  0.00     0.180 C 
ATOM      5  O   UNL     1      14.684 -10.660  20.780  1.00  0.00    -0.328 OA
ATOM      6  C   UNL     1      12.163 -10.758  22.224  1.00  0.00     0.181 C 
ATOM      7  C   UNL     1      13.394 -11.599  22.629  1.00  0.00     0.214 C 
BRANCH   3   8
ATOM      8  C   UNL     1      13.793  -9.325  19.027  1.00  0.00     0.073 C 
ATOM      9  O   UNL     1      13.425  -8.183  18.644  1.00  0.00    -0.547 OA
ATOM     10  O   UNL     1      14.255 -10.244  18.091  1.00  0.00    -0.547 OA
ENDBRANCH   3   8
BRANCH   4  11
ATOM     11  O   UNL     1      12.021 -11.364  19.895  1.00  0.00    -0.387 OA
ATOM     12  H   UNL     1      12.640 -12.094  20.159  1.00  0.00     0.211 HD
ENDBRANCH   4  11
BRANCH   6  13
ATOM     13  O   UNL     1      11.945  -9.685  23.112  1.00  0.00    -0.387 OA
ATOM     14  H   UNL     1      12.747  -9.576  23.680  1.00  0.00     0.211 HD
ENDBRANCH   6  13
BRANCH   7  15
ATOM     15  O   UNL     1      13.403 -11.830  24.013  1.00  0.00    -0.384 OA
ATOM     16  H   UNL     1      13.635 -12.787  24.143  1.00  0.00     0.211 HD
ENDBRANCH   7  15
ENDBRANCH   1   2
BRANCH   1  17
ATOM     17  C   UNL     1      15.805  -9.668  24.098  1.00  0.00     0.172 A 
ATOM     18  C   UNL     1      16.467 -10.754  24.713  1.00  0.00     0.201 A 
ATOM     19  C   UNL     1      15.905  -8.400  24.667  1.00  0.00     0.098 A 
ATOM     20  C   UNL     1      17.179 -10.564  25.918  1.00  0.00     0.176 A 
ATOM     21  C   UNL     1      16.569  -8.200  25.875  1.00  0.00     0.146 A 
ATOM     22  C   UNL     1      17.186  -9.283  26.543  1.00  0.00     0.111 A 
ATOM     23  O   UNL     1      16.597  -6.974  26.390  1.00  0.00    -0.456 OA
ATOM     24  C   UNL     1      17.745  -9.014  27.816  1.00  0.00     0.197 A 
ATOM     25  C   UNL     1      17.173  -6.681  27.551  1.00  0.00     0.138 A 
ATOM     26  C   UNL     1      17.754  -7.709  28.307  1.00  0.00     0.100 A 
ATOM     27  O   UNL     1      18.207  -9.928  28.548  1.00  0.00    -0.289 OA
BRANCH  18  28
ATOM     28  O   UNL     1      16.457 -12.013  24.113  1.00  0.00    -0.502 OA
ATOM     29  H   UNL     1      16.677 -12.865  24.613  1.00  0.00     0.293 HD
ENDBRANCH  18  28
BRANCH  20  30
ATOM     30  O   UNL     1      17.883 -11.659  26.427  1.00  0.00    -0.504 OA
ATOM     31  H   UNL     1      18.871 -11.660  26.632  1.00  0.00     0.293 HD
ENDBRANCH  20  30
BRANCH  25  32
ATOM     32  C   UNL     1      17.154  -5.273  28.023  1.00  0.00     0.017 A 
ATOM     33  C   UNL     1      18.366  -4.572  28.161  1.00  0.00     0.012 A 
ATOM     34  C   UNL     1      15.952  -4.622  28.367  1.00  0.00     0.012 A 
ATOM     35  C   UNL     1      18.375  -3.248  28.610  1.00  0.00     0.001 A 
ATOM     36  C   UNL     1      15.967  -3.299  28.817  1.00  0.00     0.001 A 
ATOM     37  C   UNL     1      17.176  -2.611  28.936  1.00  0.00     0.000 A 
ENDBRANCH  25  32
ENDBRANCH   1  17
TORSDOF 9
ENDMDL
MODEL 3
REMARK VINA RESULT:    -5.519      1.405      2.807
REMARK INTER + INTRA:          -8.853
REMARK INTER:                  -7.845
REMARK INTRA:                  -1.008
REMARK UNBOUND:                -1.237
REMARK SMILES O=C([O-])[C@@H]1O[C@@H](Oc2cc3oc(-c4ccccc4)cc(=O)c3c(O)c2O)[C@@H](O)[C@@H](O)[C@@H]1O
REMARK SMILES IDX 7 1 6 2 4 3 31 4 5 5 29 6 27 7 2 8 1 9 3 10 32 11 30 13
REMARK SMILES IDX 28 15 8 17 25 18 9 19 23 20 10 21 22 22 11 23 20 24 12 25
REMARK SMILES IDX 19 26 21 27 26 28 24 30 13 32 14 33 18 34 15 35 17 36 16 37
REMARK H PARENT 32 12 30 14 28 16 26 29 24 31
REMARK Flexibility Score: inf
ROOT
ATOM      1  O   UNL     1      24.214   3.204  27.900  1.00  0.00    -0.458 OA
ENDROOT
BRANCH   1   2
ATOM      2  C   UNL     1      24.109   4.581  27.508  1.00  0.00     0.339 C 
ATOM      3  C   UNL     1      22.485   4.093  25.884  1.00  0.00     0.199 C 
ATOM      4  C   UNL     1      23.379   4.505  24.694  1.00  0.00     0.180 C 
ATOM      5  O   UNL     1      22.797   4.854  27.041  1.00  0.00    -0.328 OA
ATOM      6  C   UNL     1      24.873   4.372  25.064  1.00  0.00     0.181 C 
ATOM      7  C   UNL     1      25.162   4.994  26.448  1.00  0.00     0.214 C 
BRANCH   3   8
ATOM      8  C   UNL     1      21.039   4.303  25.539  1.00  0.00     0.073 C 
ATOM      9  O   UNL     1      20.592   3.921  24.425  1.00  0.00    -0.547 OA
ATOM     10  O   UNL     1      20.196   4.969  26.422  1.00  0.00    -0.547 OA
ENDBRANCH   3   8
BRANCH   4  11
ATOM     11  O   UNL     1      23.102   5.837  24.337  1.00  0.00    -0.387 OA
ATOM     12  H   UNL     1      22.115   5.942  24.354  1.00  0.00     0.211 HD
ENDBRANCH   4  11
BRANCH   6  13
ATOM     13  O   UNL     1      25.319   3.037  24.984  1.00  0.00    -0.387 OA
ATOM     14  H   UNL     1      24.722   2.470  25.531  1.00  0.00     0.211 HD
ENDBRANCH   6  13
BRANCH   7  15
ATOM     15  O   UNL     1      26.458   4.668  26.877  1.00  0.00    -0.384 OA
ATOM     16  H   UNL     1      26.577   5.081  27.773  1.00  0.00     0.211 HD
ENDBRANCH   7  15
ENDBRANCH   1   2
BRANCH   1  17
ATOM     17  C   UNL     1      23.517   2.537  28.926  1.00  0.00     0.172 A 
ATOM     18  C   UNL     1      23.565   2.906  30.289  1.00  0.00     0.201 A 
ATOM     19  C   UNL     1      22.711   1.468  28.539  1.00  0.00     0.098 A 
ATOM     20  C   UNL     1      22.845   2.167  31.253  1.00  0.00     0.176 A 
ATOM     21  C   UNL     1      22.024   0.704  29.479  1.00  0.00     0.146 A 
ATOM     22  C   UNL     1      22.107   1.014  30.857  1.00  0.00     0.111 A 
ATOM     23  O   UNL     1      21.302  -0.329  29.054  1.00  0.00    -0.456 OA
ATOM     24  C   UNL     1      21.467   0.124  31.752  1.00  0.00     0.197 A 
ATOM     25  C   UNL     1      20.637  -1.142  29.868  1.00  0.00     0.138 A 
ATOM     26  C   UNL     1      20.717  -0.941  31.253  1.00  0.00     0.100 A 
ATOM     27  O   UNL     1      21.582   0.236  33.000  1.00  0.00    -0.289 OA
BRANCH  18  28
ATOM     28  O   UNL     1      24.293   4.027  30.687  1.00  0.00    -0.502 OA
ATOM     29  H   UNL     1      25.285   3.999  30.887  1.00  0.00     0.293 HD
ENDBRANCH  18  28
BRANCH  20  30
ATOM     30  O   UNL     1      22.866   2.637  32.570  1.00  0.00    -0.504 OA
ATOM     31  H   UNL     1      23.673   3.044  33.019  1.00  0.00     0.293 HD
ENDBRANCH  20  30
BRANCH  25  32
ATOM     32  C   UNL     1      19.852  -2.257  29.280  1.00  0.00     0.017 A 
ATOM     33  C   UNL     1      18.453  -2.273  29.426  1.00  0.00     0.012 A 
ATOM     34  C   UNL     1      20.475  -3.324  28.599  1.00  0.00     0.012 A 
ATOM     35  C   UNL     1      17.694  -3.316  28.887  1.00  0.00     0.001 A 
ATOM     36  C   UNL     1      19.710  -4.365  28.065  1.00  0.00     0.001 A 
ATOM     37  C   UNL     1      18.322  -4.360  28.206  1.00  0.00     0.000 A 
ENDBRANCH  25  32
ENDBRANCH   1  17
TORSDOF 9
ENDMDL
MODEL 4
REMARK VINA RESULT:    -5.478      1.878      8.700
REMARK INTER + INTRA:          -8.797
REMARK INTER:                  -7.347
REMARK INTRA:                  -1.450
REMARK UNBOUND:                -1.237
REMARK SMILES O=C([O-])[C@@H]1O[C@@H](Oc2cc3oc(-c4ccccc4)cc(=O)c3c(O)c2O)[C@@H](O)[C@@H](O)[C@@H]1O
REMARK SMILES IDX 7 1 6 2 4 3 31 4 5 5 29 6 27 7 2 8 1 9 3 10 32 11 30 13
REMARK SMILES IDX 28 15 8 17 25 18 9 19 23 20 10 21 22 22 11 23 20 24 12 25
REMARK SMILES IDX 19 26 21 27 26 28 24 30 13 32 14 33 18 34 15 35 17 36 16 37
REMARK H PARENT 32 12 30 14 28 16 26 29 24 31
REMARK Flexibility Score: inf
ROOT
ATOM      1  O   UNL     1      21.476  -0.167  29.422  1.00  0.00    -0.458 OA
ENDROOT
BRANCH   1   2
ATOM      2  C   UNL     1      21.897  -1.525  29.220  1.00  0.00     0.339 C 
ATOM      3  C   UNL     1      19.703  -2.335  29.426  1.00  0.00     0.199 C 
ATOM      4  C   UNL     1      19.990  -3.130  30.719  1.00  0.00     0.180 C 
ATOM      5  O   UNL     1      20.857  -2.269  28.604  1.00  0.00    -0.328 OA
ATOM      6  C   UNL     1      21.186  -2.516  31.482  1.00  0.00     0.181 C 
ATOM      7  C   UNL     1      22.363  -2.218  30.526  1.00  0.00     0.214 C 
BRANCH   3   8
ATOM      8  C   UNL     1      18.593  -2.988  28.655  1.00  0.00     0.073 C 
ATOM      9  O   UNL     1      17.411  -2.567  28.767  1.00  0.00    -0.547 OA
ATOM     10  O   UNL     1      18.850  -4.097  27.856  1.00  0.00    -0.547 OA
ENDBRANCH   3   8
BRANCH   4  11
ATOM     11  O   UNL     1      20.280  -4.467  30.393  1.00  0.00    -0.387 OA
ATOM     12  H   UNL     1      19.560  -4.779  29.785  1.00  0.00     0.211 HD
ENDBRANCH   4  11
BRANCH   6  13
ATOM     13  O   UNL     1      20.809  -1.377  32.222  1.00  0.00    -0.387 OA
ATOM     14  H   UNL     1      21.371  -0.614  31.938  1.00  0.00     0.211 HD
ENDBRANCH   6  13
BRANCH   7  15
ATOM     15  O   UNL     1      23.346  -1.455  31.174  1.00  0.00    -0.384 OA
ATOM     16  H   UNL     1      22.891  -0.650  31.538  1.00  0.00     0.211 HD
ENDBRANCH   7  15
ENDBRANCH   1   2
BRANCH   1  17
ATOM     17  C   UNL     1      22.266   0.998  29.405  1.00  0.00     0.172 A 
ATOM     18  C   UNL     1      22.663   1.705  30.562  1.00  0.00     0.201 A 
ATOM     19  C   UNL     1      22.695   1.442  28.156  1.00  0.00     0.098 A 
ATOM     20  C   UNL     1      23.443   2.877  30.447  1.00  0.00     0.176 A 
ATOM     21  C   UNL     1      23.432   2.616  28.020  1.00  0.00     0.146 A 
ATOM     22  C   UNL     1      23.788   3.376  29.159  1.00  0.00     0.111 A 
ATOM     23  O   UNL     1      23.780   3.012  26.798  1.00  0.00    -0.456 OA
ATOM     24  C   UNL     1      24.443   4.610  28.924  1.00  0.00     0.197 A 
ATOM     25  C   UNL     1      24.452   4.131  26.555  1.00  0.00     0.138 A 
ATOM     26  C   UNL     1      24.790   4.974  27.623  1.00  0.00     0.100 A 
ATOM     27  O   UNL     1      24.692   5.419  29.855  1.00  0.00    -0.289 OA
BRANCH  18  28
ATOM     28  O   UNL     1      22.322   1.228  31.827  1.00  0.00    -0.502 OA
ATOM     29  H   UNL     1      21.371   1.011  32.097  1.00  0.00     0.293 HD
ENDBRANCH  18  28
BRANCH  20  30
ATOM     30  O   UNL     1      23.875   3.479  31.634  1.00  0.00    -0.504 OA
ATOM     31  H   UNL     1      23.279   3.990  32.267  1.00  0.00     0.293 HD
ENDBRANCH  20  30
BRANCH  25  32
ATOM     32  C   UNL     1      24.797   4.466  25.150  1.00  0.00     0.017 A 
ATOM     33  C   UNL     1      25.127   5.792  24.814  1.00  0.00     0.012 A 
ATOM     34  C   UNL     1      24.776   3.494  24.129  1.00  0.00     0.012 A 
ATOM     35  C   UNL     1      25.448   6.133  23.497  1.00  0.00     0.001 A 
ATOM     36  C   UNL     1      25.096   3.841  22.814  1.00  0.00     0.001 A 
ATOM     37  C   UNL     1      25.435   5.158  22.498  1.00  0.00     0.000 A 
ENDBRANCH  25  32
ENDBRANCH   1  17
TORSDOF 9
ENDMDL
MODEL 5
REMARK VINA RESULT:    -5.458      2.782      8.787
REMARK INTER + INTRA:          -8.768
REMARK INTER:                  -7.558
REMARK INTRA:                  -1.210
REMARK UNBOUND:                -1.237
REMARK SMILES O=C([O-])[C@@H]1O[C@@H](Oc2cc3oc(-c4ccccc4)cc(=O)c3c(O)c2O)[C@@H](O)[C@@H](O)[C@@H]1O
REMARK SMILES IDX 7 1 6 2 4 3 31 4 5 5 29 6 27 7 2 8 1 9 3 10 32 11 30 13
REMARK SMILES IDX 28 15 8 17 25 18 9 19 23 20 10 21 22 22 11 23 20 24 12 25
REMARK SMILES IDX 19 26 21 27 26 28 24 30 13 32 14 33 18 34 15 35 17 36 16 37
REMARK H PARENT 32 12 30 14 28 16 26 29 24 31
REMARK Flexibility Score: inf
ROOT
ATOM      1  O   UNL     1      22.314   0.812  29.452  1.00  0.00    -0.458 OA
ENDROOT
BRANCH   1   2
ATOM      2  C   UNL     1      21.996  -0.511  28.995  1.00  0.00     0.339 C 
ATOM      3  C   UNL     1      20.839  -1.020  30.973  1.00  0.00     0.199 C 
ATOM      4  C   UNL     1      21.831  -2.120  31.411  1.00  0.00     0.180 C 
ATOM      5  O   UNL     1      20.766  -0.936  29.558  1.00  0.00    -0.328 OA
ATOM      6  C   UNL     1      23.225  -1.874  30.792  1.00  0.00     0.181 C 
ATOM      7  C   UNL     1      23.116  -1.542  29.287  1.00  0.00     0.214 C 
BRANCH   3   8
ATOM      8  C   UNL     1      19.471  -1.313  31.516  1.00  0.00     0.073 C 
ATOM      9  O   UNL     1      19.113  -0.832  32.623  1.00  0.00    -0.547 OA
ATOM     10  O   UNL     1      18.610  -2.161  30.829  1.00  0.00    -0.547 OA
ENDBRANCH   3   8
BRANCH   4  11
ATOM     11  O   UNL     1      21.350  -3.376  30.999  1.00  0.00    -0.387 OA
ATOM     12  H   UNL     1      21.979  -3.715  30.310  1.00  0.00     0.211 HD
ENDBRANCH   4  11
BRANCH   6  13
ATOM     13  O   UNL     1      23.949  -0.892  31.496  1.00  0.00    -0.387 OA
ATOM     14  H   UNL     1      24.720  -1.324  31.940  1.00  0.00     0.211 HD
ENDBRANCH   6  13
BRANCH   7  15
ATOM     15  O   UNL     1      24.349  -1.096  28.787  1.00  0.00    -0.384 OA
ATOM     16  H   UNL     1      24.862  -1.906  28.525  1.00  0.00     0.211 HD
ENDBRANCH   7  15
ENDBRANCH   1   2
BRANCH   1  17
ATOM     17  C   UNL     1      22.050   2.039  28.814  1.00  0.00     0.172 A 
ATOM     18  C   UNL     1      21.039   2.942  29.213  1.00  0.00     0.201 A 
ATOM     19  C   UNL     1      22.876   2.374  27.742  1.00  0.00     0.098 A 
ATOM     20  C   UNL     1      20.836   4.144  28.502  1.00  0.00     0.176 A 
ATOM     21  C   UNL     1      22.667   3.537  27.004  1.00  0.00     0.146 A 
ATOM     22  C   UNL     1      21.620   4.425  27.345  1.00  0.00     0.111 A 
ATOM     23  O   UNL     1      23.461   3.784  25.967  1.00  0.00    -0.456 OA
ATOM     24  C   UNL     1      21.408   5.526  26.480  1.00  0.00     0.197 A 
ATOM     25  C   UNL     1      23.326   4.844  25.178  1.00  0.00     0.138 A 
ATOM     26  C   UNL     1      22.276   5.743  25.409  1.00  0.00     0.100 A 
ATOM     27  O   UNL     1      20.430   6.305  26.620  1.00  0.00    -0.289 OA
BRANCH  18  28
ATOM     28  O   UNL     1      20.261   2.669  30.339  1.00  0.00    -0.502 OA
ATOM     29  H   UNL     1      20.648   2.320  31.206  1.00  0.00     0.293 HD
ENDBRANCH  18  28
BRANCH  20  30
ATOM     30  O   UNL     1      19.878   5.032  29.002  1.00  0.00    -0.504 OA
ATOM     31  H   UNL     1      20.091   5.895  29.479  1.00  0.00     0.293 HD
ENDBRANCH  20  30
BRANCH  25  32
ATOM     32  C   UNL     1      24.282   5.025  24.055  1.00  0.00     0.017 A 
ATOM     33  C   UNL     1      24.845   6.293  23.821  1.00  0.00     0.012 A 
ATOM     34  C   UNL     1      24.622   3.963  23.192  1.00  0.00     0.012 A 
ATOM     35  C   UNL     1      25.740   6.489  22.766  1.00  0.00     0.001 A 
ATOM     36  C   UNL     1      25.516   4.166  22.137  1.00  0.00     0.001 A 
ATOM     37  C   UNL     1      26.077   5.426  21.926  1.00  0.00     0.000 A 
ENDBRANCH  25  32
ENDBRANCH   1  17
TORSDOF 9
ENDMDL
MODEL 6
REMARK VINA RESULT:    -5.251      2.790      8.936
REMARK INTER + INTRA:          -8.483
REMARK INTER:                  -7.344
REMARK INTRA:                  -1.140
REMARK UNBOUND:                -1.237
REMARK SMILES O=C([O-])[C@@H]1O[C@@H](Oc2cc3oc(-c4ccccc4)cc(=O)c3c(O)c2O)[C@@H](O)[C@@H](O)[C@@H]1O
REMARK SMILES IDX 7 1 6 2 4 3 31 4 5 5 29 6 27 7 2 8 1 9 3 10 32 11 30 13
REMARK SMILES IDX 28 15 8 17 25 18 9 19 23 20 10 21 22 22 11 23 20 24 12 25
REMARK SMILES IDX 19 26 21 27 26 28 24 30 13 32 14 33 18 34 15 35 17 36 16 37
REMARK H PARENT 32 12 30 14 28 16 26 29 24 31
REMARK Flexibility Score: inf
ROOT
ATOM      1  O   UNL     1      20.232  -3.508  29.591  1.00  0.00    -0.458 OA
ENDROOT
BRANCH   1   2
ATOM      2  C   UNL     1      19.511  -3.709  28.366  1.00  0.00     0.339 C 
ATOM      3  C   UNL     1      17.454  -3.853  29.490  1.00  0.00     0.199 C 
ATOM      4  C   UNL     1      17.213  -5.330  29.106  1.00  0.00     0.180 C 
ATOM      5  O   UNL     1      18.198  -3.183  28.484  1.00  0.00    -0.328 OA
ATOM      6  C   UNL     1      18.554  -6.047  28.830  1.00  0.00     0.181 C 
ATOM      7  C   UNL     1      19.466  -5.193  27.922  1.00  0.00     0.214 C 
BRANCH   3   8
ATOM      8  C   UNL     1      16.143  -3.148  29.677  1.00  0.00     0.073 C 
ATOM      9  O   UNL     1      15.651  -3.022  30.830  1.00  0.00    -0.547 OA
ATOM     10  O   UNL     1      15.434  -2.678  28.576  1.00  0.00    -0.547 OA
ENDBRANCH   3   8
BRANCH   4  11
ATOM     11  O   UNL     1      16.404  -5.391  27.957  1.00  0.00    -0.387 OA
ATOM     12  H   UNL     1      16.140  -4.459  27.740  1.00  0.00     0.211 HD
ENDBRANCH   4  11
BRANCH   6  13
ATOM     13  O   UNL     1      19.204  -6.425  30.022  1.00  0.00    -0.387 OA
ATOM     14  H   UNL     1      19.442  -7.383  29.962  1.00  0.00     0.211 HD
ENDBRANCH   6  13
BRANCH   7  15
ATOM     15  O   UNL     1      20.758  -5.737  27.865  1.00  0.00    -0.384 OA
ATOM     16  H   UNL     1      20.994  -5.818  26.903  1.00  0.00     0.211 HD
ENDBRANCH   7  15
ENDBRANCH   1   2
BRANCH   1  17
ATOM     17  C   UNL     1      20.934  -2.361  30.008  1.00  0.00     0.172 A 
ATOM     18  C   UNL     1      21.173  -2.023  31.359  1.00  0.00     0.201 A 
ATOM     19  C   UNL     1      21.443  -1.542  29.002  1.00  0.00     0.098 A 
ATOM     20  C   UNL     1      21.874  -0.841  31.684  1.00  0.00     0.176 A 
ATOM     21  C   UNL     1      22.104  -0.353  29.303  1.00  0.00     0.146 A 
ATOM     22  C   UNL     1      22.299   0.040  30.648  1.00  0.00     0.111 A 
ATOM     23  O   UNL     1      22.532   0.408  28.300  1.00  0.00    -0.456 OA
ATOM     24  C   UNL     1      22.882   1.311  30.863  1.00  0.00     0.197 A 
ATOM     25  C   UNL     1      23.142   1.575  28.475  1.00  0.00     0.138 A 
ATOM     26  C   UNL     1      23.320   2.067  29.776  1.00  0.00     0.100 A 
ATOM     27  O   UNL     1      22.987   1.810  32.014  1.00  0.00    -0.289 OA
BRANCH  18  28
ATOM     28  O   UNL     1      20.752  -2.875  32.380  1.00  0.00    -0.502 OA
ATOM     29  H   UNL     1      20.784  -3.884  32.306  1.00  0.00     0.293 HD
ENDBRANCH  18  28
BRANCH  20  30
ATOM     30  O   UNL     1      22.152  -0.611  33.035  1.00  0.00    -0.504 OA
ATOM     31  H   UNL     1      22.326   0.299  33.437  1.00  0.00     0.293 HD
ENDBRANCH  20  30
BRANCH  25  32
ATOM     32  C   UNL     1      23.589   2.334  27.280  1.00  0.00     0.017 A 
ATOM     33  C   UNL     1      24.851   2.958  27.287  1.00  0.00     0.012 A 
ATOM     34  C   UNL     1      22.770   2.474  26.141  1.00  0.00     0.012 A 
ATOM     35  C   UNL     1      25.290   3.684  26.177  1.00  0.00     0.001 A 
ATOM     36  C   UNL     1      23.215   3.204  25.034  1.00  0.00     0.001 A 
ATOM     37  C   UNL     1      24.474   3.805  25.050  1.00  0.00     0.000 A 
ENDBRANCH  25  32
ENDBRANCH   1  17
TORSDOF 9
ENDMDL
MODEL 7
REMARK VINA RESULT:    -5.241      2.668      9.053
REMARK INTER + INTRA:          -8.469
REMARK INTER:                  -7.335
REMARK INTRA:                  -1.133
REMARK UNBOUND:                -1.237
REMARK SMILES O=C([O-])[C@@H]1O[C@@H](Oc2cc3oc(-c4ccccc4)cc(=O)c3c(O)c2O)[C@@H](O)[C@@H](O)[C@@H]1O
REMARK SMILES IDX 7 1 6 2 4 3 31 4 5 5 29 6 27 7 2 8 1 9 3 10 32 11 30 13
REMARK SMILES IDX 28 15 8 17 25 18 9 19 23 20 10 21 22 22 11 23 20 24 12 25
REMARK SMILES IDX 19 26 21 27 26 28 24 30 13 32 14 33 18 34 15 35 17 36 16 37
REMARK H PARENT 32 12 30 14 28 16 26 29 24 31
REMARK Flexibility Score: inf
ROOT
ATOM      1  O   UNL     1      20.712  -3.252  29.863  1.00  0.00    -0.458 OA
ENDROOT
BRANCH   1   2
ATOM      2  C   UNL     1      19.304  -3.490  29.713  1.00  0.00     0.339 C 
ATOM      3  C   UNL     1      19.448  -5.580  30.773  1.00  0.00     0.199 C 
ATOM      4  C   UNL     1      19.049  -6.380  29.513  1.00  0.00     0.180 C 
ATOM      5  O   UNL     1      18.833  -4.301  30.777  1.00  0.00    -0.328 OA
ATOM      6  C   UNL     1      19.397  -5.587  28.233  1.00  0.00     0.181 C 
ATOM      7  C   UNL     1      18.935  -4.117  28.345  1.00  0.00     0.214 C 
BRANCH   3   8
ATOM      8  C   UNL     1      19.032  -6.324  32.009  1.00  0.00     0.073 C 
ATOM      9  O   UNL     1      19.860  -7.056  32.614  1.00  0.00    -0.547 OA
ATOM     10  O   UNL     1      17.720  -6.256  32.462  1.00  0.00    -0.547 OA
ENDBRANCH   3   8
BRANCH   4  11
ATOM     11  O   UNL     1      17.668  -6.643  29.541  1.00  0.00    -0.387 OA
ATOM     12  H   UNL     1      17.451  -6.952  30.459  1.00  0.00     0.211 HD
ENDBRANCH   4  11
BRANCH   6  13
ATOM     13  O   UNL     1      20.764  -5.686  27.907  1.00  0.00    -0.387 OA
ATOM     14  H   UNL     1      20.859  -5.647  26.923  1.00  0.00     0.211 HD
ENDBRANCH   6  13
BRANCH   7  15
ATOM     15  O   UNL     1      19.454  -3.354  27.288  1.00  0.00    -0.384 OA
ATOM     16  H   UNL     1      18.759  -3.336  26.578  1.00  0.00     0.211 HD
ENDBRANCH   7  15
ENDBRANCH   1   2
BRANCH   1  17
ATOM     17  C   UNL     1      21.364  -2.032  30.121  1.00  0.00     0.172 A 
ATOM     18  C   UNL     1      21.797  -1.617  31.401  1.00  0.00     0.201 A 
ATOM     19  C   UNL     1      21.614  -1.213  29.021  1.00  0.00     0.098 A 
ATOM     20  C   UNL     1      22.430  -0.365  31.568  1.00  0.00     0.176 A 
ATOM     21  C   UNL     1      22.201   0.041  29.171  1.00  0.00     0.146 A 
ATOM     22  C   UNL     1      22.586   0.505  30.451  1.00  0.00     0.111 A 
ATOM     23  O   UNL     1      22.378   0.794  28.089  1.00  0.00    -0.456 OA
ATOM     24  C   UNL     1      23.075   1.831  30.528  1.00  0.00     0.197 A 
ATOM     25  C   UNL     1      22.896   2.016  28.125  1.00  0.00     0.138 A 
ATOM     26  C   UNL     1      23.247   2.577  29.361  1.00  0.00     0.100 A 
ATOM     27  O   UNL     1      23.328   2.385  31.629  1.00  0.00    -0.289 OA
BRANCH  18  28
ATOM     28  O   UNL     1      21.640  -2.459  32.501  1.00  0.00    -0.502 OA
ATOM     29  H   UNL     1      21.065  -3.292  32.481  1.00  0.00     0.293 HD
ENDBRANCH  18  28
BRANCH  20  30
ATOM     30  O   UNL     1      22.912  -0.055  32.843  1.00  0.00    -0.504 OA
ATOM     31  H   UNL     1      23.554  -0.629  33.369  1.00  0.00     0.293 HD
ENDBRANCH  20  30
BRANCH  25  32
ATOM     32  C   UNL     1      23.059   2.761  26.851  1.00  0.00     0.017 A 
ATOM     33  C   UNL     1      21.973   3.489  26.328  1.00  0.00     0.012 A 
ATOM     34  C   UNL     1      24.269   2.737  26.127  1.00  0.00     0.012 A 
ATOM     35  C   UNL     1      22.100   4.191  25.127  1.00  0.00     0.001 A 
ATOM     36  C   UNL     1      24.389   3.440  24.925  1.00  0.00     0.001 A 
ATOM     37  C   UNL     1      23.308   4.168  24.426  1.00  0.00     0.000 A 
ENDBRANCH  25  32
ENDBRANCH   1  17
TORSDOF 9
ENDMDL
MODEL 8
REMARK VINA RESULT:    -5.222      9.115     14.643
REMARK INTER + INTRA:          -8.443
REMARK INTER:                  -7.047
REMARK INTRA:                  -1.396
REMARK UNBOUND:                -1.237
REMARK SMILES O=C([O-])[C@@H]1O[C@@H](Oc2cc3oc(-c4ccccc4)cc(=O)c3c(O)c2O)[C@@H](O)[C@@H](O)[C@@H]1O
REMARK SMILES IDX 7 1 6 2 4 3 31 4 5 5 29 6 27 7 2 8 1 9 3 10 32 11 30 13
REMARK SMILES IDX 28 15 8 17 25 18 9 19 23 20 10 21 22 22 11 23 20 24 12 25
REMARK SMILES IDX 19 26 21 27 26 28 24 30 13 32 14 33 18 34 15 35 17 36 16 37
REMARK H PARENT 32 12 30 14 28 16 26 29 24 31
REMARK Flexibility Score: inf
ROOT
ATOM      1  O   UNL     1      15.012 -10.173  23.854  1.00  0.00    -0.458 OA
ENDROOT
BRANCH   1   2
ATOM      2  C   UNL     1      15.769 -10.393  22.654  1.00  0.00     0.339 C 
ATOM      3  C   UNL     1      13.835 -10.412  21.324  1.00  0.00     0.199 C 
ATOM      4  C   UNL     1      13.990 -11.892  20.910  1.00  0.00     0.180 C 
ATOM      5  O   UNL     1      15.102  -9.812  21.546  1.00  0.00    -0.328 OA
ATOM      6  C   UNL     1      14.800 -12.672  21.969  1.00  0.00     0.181 C 
ATOM      7  C   UNL     1      16.066 -11.891  22.388  1.00  0.00     0.214 C 
BRANCH   3   8
ATOM      8  C   UNL     1      13.116  -9.648  20.250  1.00  0.00     0.073 C 
ATOM      9  O   UNL     1      11.875  -9.450  20.338  1.00  0.00    -0.547 OA
ATOM     10  O   UNL     1      13.802  -9.202  19.126  1.00  0.00    -0.547 OA
ENDBRANCH   3   8
BRANCH   4  11
ATOM     11  O   UNL     1      14.647 -11.966  19.669  1.00  0.00    -0.387 OA
ATOM     12  H   UNL     1      15.570 -11.628  19.810  1.00  0.00     0.211 HD
ENDBRANCH   4  11
BRANCH   6  13
ATOM     13  O   UNL     1      14.010 -13.028  23.080  1.00  0.00    -0.387 OA
ATOM     14  H   UNL     1      13.755 -13.980  22.995  1.00  0.00     0.211 HD
ENDBRANCH   6  13
BRANCH   7  15
ATOM     15  O   UNL     1      16.668 -12.488  23.506  1.00  0.00    -0.384 OA
ATOM     16  H   UNL     1      17.548 -12.043  23.631  1.00  0.00     0.211 HD
ENDBRANCH   7  15
ENDBRANCH   1   2
BRANCH   1  17
ATOM     17  C   UNL     1      15.495  -9.942  25.156  1.00  0.00     0.172 A 
ATOM     18  C   UNL     1      15.522 -10.917  26.179  1.00  0.00     0.201 A 
ATOM     19  C   UNL     1      16.002  -8.670  25.416  1.00  0.00     0.098 A 
ATOM     20  C   UNL     1      16.010 -10.589  27.462  1.00  0.00     0.176 A 
ATOM     21  C   UNL     1      16.452  -8.317  26.686  1.00  0.00     0.146 A 
ATOM     22  C   UNL     1      16.430  -9.257  27.743  1.00  0.00     0.111 A 
ATOM     23  O   UNL     1      16.888  -7.076  26.884  1.00  0.00    -0.456 OA
ATOM     24  C   UNL     1      16.802  -8.785  29.025  1.00  0.00     0.197 A 
ATOM     25  C   UNL     1      17.305  -6.626  28.062  1.00  0.00     0.138 A 
ATOM     26  C   UNL     1      17.258  -7.476  29.177  1.00  0.00     0.100 A 
ATOM     27  O   UNL     1      16.700  -9.502  30.055  1.00  0.00    -0.289 OA
BRANCH  18  28
ATOM     28  O   UNL     1      15.104 -12.221  25.915  1.00  0.00    -0.502 OA
ATOM     29  H   UNL     1      14.268 -12.437  25.386  1.00  0.00     0.293 HD
ENDBRANCH  18  28
BRANCH  20  30
ATOM     30  O   UNL     1      16.090 -11.622  28.402  1.00  0.00    -0.504 OA
ATOM     31  H   UNL     1      16.924 -12.157  28.594  1.00  0.00     0.293 HD
ENDBRANCH  20  30
BRANCH  25  32
ATOM     32  C   UNL     1      17.783  -5.224  28.163  1.00  0.00     0.017 A 
ATOM     33  C   UNL     1      19.046  -4.882  27.644  1.00  0.00     0.012 A 
ATOM     34  C   UNL     1      17.017  -4.223  28.795  1.00  0.00     0.012 A 
ATOM     35  C   UNL     1      19.520  -3.571  27.734  1.00  0.00     0.001 A 
ATOM     36  C   UNL     1      17.498  -2.913  28.884  1.00  0.00     0.001 A 
ATOM     37  C   UNL     1      18.745  -2.586  28.352  1.00  0.00     0.000 A 
ENDBRANCH  25  32
ENDBRANCH   1  17
TORSDOF 9
ENDMDL
MODEL 9
REMARK VINA RESULT:    -5.132      1.442      2.127
REMARK INTER + INTRA:          -8.319
REMARK INTER:                  -7.056
REMARK INTRA:                  -1.262
REMARK UNBOUND:                -1.237
REMARK SMILES O=C([O-])[C@@H]1O[C@@H](Oc2cc3oc(-c4ccccc4)cc(=O)c3c(O)c2O)[C@@H](O)[C@@H](O)[C@@H]1O
REMARK SMILES IDX 7 1 6 2 4 3 31 4 5 5 29 6 27 7 2 8 1 9 3 10 32 11 30 13
REMARK SMILES IDX 28 15 8 17 25 18 9 19 23 20 10 21 22 22 11 23 20 24 12 25
REMARK SMILES IDX 19 26 21 27 26 28 24 30 13 32 14 33 18 34 15 35 17 36 16 37
REMARK H PARENT 32 12 30 14 28 16 26 29 24 31
REMARK Flexibility Score: inf
ROOT
ATOM      1  O   UNL     1      23.291   2.801  27.220  1.00  0.00    -0.458 OA
ENDROOT
BRANCH   1   2
ATOM      2  C   UNL     1      22.371   3.231  26.205  1.00  0.00     0.339 C 
ATOM      3  C   UNL     1      23.984   4.602  25.190  1.00  0.00     0.199 C 
ATOM      4  C   UNL     1      23.235   5.917  25.501  1.00  0.00     0.180 C 
ATOM      5  O   UNL     1      23.073   3.529  25.009  1.00  0.00    -0.328 OA
ATOM      6  C   UNL     1      22.321   5.744  26.735  1.00  0.00     0.181 C 
ATOM      7  C   UNL     1      21.502   4.437  26.644  1.00  0.00     0.214 C 
BRANCH   3   8
ATOM      8  C   UNL     1      24.806   4.758  23.943  1.00  0.00     0.073 C 
ATOM      9  O   UNL     1      25.289   5.882  23.642  1.00  0.00    -0.547 OA
ATOM     10  O   UNL     1      24.993   3.681  23.085  1.00  0.00    -0.547 OA
ENDBRANCH   3   8
BRANCH   4  11
ATOM     11  O   UNL     1      22.456   6.287  24.389  1.00  0.00    -0.387 OA
ATOM     12  H   UNL     1      22.977   6.964  23.883  1.00  0.00     0.211 HD
ENDBRANCH   4  11
BRANCH   6  13
ATOM     13  O   UNL     1      23.044   5.829  27.941  1.00  0.00    -0.387 OA
ATOM     14  H   UNL     1      23.544   4.986  28.071  1.00  0.00     0.211 HD
ENDBRANCH   6  13
BRANCH   7  15
ATOM     15  O   UNL     1      20.856   4.173  27.860  1.00  0.00    -0.384 OA
ATOM     16  H   UNL     1      21.456   3.576  28.381  1.00  0.00     0.211 HD
ENDBRANCH   7  15
ENDBRANCH   1   2
BRANCH   1  17
ATOM     17  C   UNL     1      23.015   2.065  28.388  1.00  0.00     0.172 A 
ATOM     18  C   UNL     1      23.388   2.471  29.689  1.00  0.00     0.201 A 
ATOM     19  C   UNL     1      22.298   0.881  28.224  1.00  0.00     0.098 A 
ATOM     20  C   UNL     1      23.083   1.659  30.803  1.00  0.00     0.176 A 
ATOM     21  C   UNL     1      22.021   0.049  29.306  1.00  0.00     0.146 A 
ATOM     22  C   UNL     1      22.440   0.401  30.610  1.00  0.00     0.111 A 
ATOM     23  O   UNL     1      21.369  -1.089  29.082  1.00  0.00    -0.456 OA
ATOM     24  C   UNL     1      22.214  -0.550  31.633  1.00  0.00     0.197 A 
ATOM     25  C   UNL     1      21.085  -1.969  30.036  1.00  0.00     0.138 A 
ATOM     26  C   UNL     1      21.518  -1.725  31.346  1.00  0.00     0.100 A 
ATOM     27  O   UNL     1      22.656  -0.392  32.801  1.00  0.00    -0.289 OA
BRANCH  18  28
ATOM     28  O   UNL     1      24.026   3.695  29.886  1.00  0.00    -0.502 OA
ATOM     29  H   UNL     1      24.368   4.269  29.125  1.00  0.00     0.293 HD
ENDBRANCH  18  28
BRANCH  20  30
ATOM     30  O   UNL     1      23.402   2.159  32.069  1.00  0.00    -0.504 OA
ATOM     31  H   UNL     1      23.763   3.085  32.245  1.00  0.00     0.293 HD
ENDBRANCH  20  30
BRANCH  25  32
ATOM     32  C   UNL     1      20.339  -3.201  29.672  1.00  0.00     0.017 A 
ATOM     33  C   UNL     1      20.126  -3.507  28.314  1.00  0.00     0.012 A 
ATOM     34  C   UNL     1      19.808  -4.063  30.652  1.00  0.00     0.012 A 
ATOM     35  C   UNL     1      19.421  -4.656  27.948  1.00  0.00     0.001 A 
ATOM     36  C   UNL     1      19.101  -5.210  30.279  1.00  0.00     0.001 A 
ATOM     37  C   UNL     1      18.910  -5.509  28.929  1.00  0.00     0.000 A 
ENDBRANCH  25  32
ENDBRANCH   1  17
TORSDOF 9
ENDMDL
