MODEL 1
REMARK VINA RESULT:    -4.597      0.000      0.000
REMARK INTER + INTRA:          -8.020
REMARK INTER:                  -7.284
REMARK INTRA:                  -0.736
REMARK UNBOUND:                -0.736
REMARK SMILES CCCCCCCCCCCC(=O)[O-]
REMARK SMILES IDX 7 1 8 2 9 3 10 4 11 5 12 6 13 7 14 8 6 9 5 10 4 11 3 12 2 13
REMARK SMILES IDX 1 14
REMARK H PARENT
REMARK Flexibility Score: inf
ROOT
ATOM      1  C   UNL     1      22.881   5.795  13.674  1.00  0.00     0.000 C 
ENDROOT
BRANCH   1   2
ATOM      2  C   UNL     1      23.262   5.087  14.985  1.00  0.00     0.000 C 
BRANCH   2   3
ATOM      3  C   UNL     1      24.266   3.941  14.772  1.00  0.00     0.000 C 
BRANCH   3   4
ATOM      4  C   UNL     1      24.957   4.010  13.401  1.00  0.00     0.006 C 
BRANCH   4   5
ATOM      5  C   UNL     1      25.610   2.679  13.003  1.00  0.00     0.053 C 
BRANCH   5   6
ATOM      6  C   UNL     1      27.099   2.818  12.976  1.00  0.00     0.041 C 
ATOM      7  O   UNL     1      27.635   3.942  13.161  1.00  0.00    -0.550 OA
ATOM      8  O   UNL     1      27.899   1.697  12.794  1.00  0.00    -0.550 OA
ENDBRANCH   5   6
ENDBRANCH   4   5
ENDBRANCH   3   4
ENDBRANCH   2   3
ENDBRANCH   1   2
BRANCH   1   9
ATOM      9  C   UNL     1      23.025   7.324  13.766  1.00  0.00     0.000 C 
BRANCH   9  10
ATOM     10  C   UNL     1      23.889   7.775  14.958  1.00  0.00    -0.000 C 
BRANCH  10  11
ATOM     11  C   UNL     1      23.196   8.737  15.941  1.00  0.00    -0.000 C 
BRANCH  11  12
ATOM     12  C   UNL     1      22.778   8.056  17.254  1.00  0.00    -0.000 C 
BRANCH  12  13
ATOM     13  C   UNL     1      21.641   8.827  17.934  1.00  0.00    -0.003 C 
ATOM     14  C   UNL     1      21.283  10.086  17.149  1.00  0.00     0.004 C 
ENDBRANCH  12  13
ENDBRANCH  11  12
ENDBRANCH  10  11
ENDBRANCH   9  10
ENDBRANCH   1   9
TORSDOF 10
ENDMDL
MODEL 2
REMARK VINA RESULT:    -4.364     10.059     11.928
REMARK INTER + INTRA:          -7.651
REMARK INTER:                  -6.648
REMARK INTRA:                  -1.003
REMARK UNBOUND:                -0.736
REMARK SMILES CCCCCCCCCCCC(=O)[O-]
REMARK SMILES IDX 7 1 8 2 9 3 10 4 11 5 12 6 13 7 14 8 6 9 5 10 4 11 3 12 2 13
REMARK SMILES IDX 1 14
REMARK H PARENT
REMARK Flexibility Score: inf
ROOT
ATOM      1  C   UNL     1      19.945   4.600   5.415  1.00  0.00     0.000 C 
ENDROOT
BRANCH   1   2
ATOM      2  C   UNL     1      20.122   3.960   4.029  1.00  0.00     0.000 C 
BRANCH   2   3
ATOM      3  C   UNL     1      20.154   4.999   2.894  1.00  0.00     0.000 C 
BRANCH   3   4
ATOM      4  C   UNL     1      20.703   6.358   3.354  1.00  0.00     0.006 C 
BRANCH   4   5
ATOM      5  C   UNL     1      20.097   7.533   2.575  1.00  0.00     0.053 C 
BRANCH   5   6
ATOM      6  C   UNL     1      18.682   7.767   3.001  1.00  0.00     0.041 C 
ATOM      7  O   UNL     1      18.390   7.818   4.225  1.00  0.00    -0.550 OA
ATOM      8  O   UNL     1      17.694   7.977   2.049  1.00  0.00    -0.550 OA
ENDBRANCH   5   6
ENDBRANCH   4   5
ENDBRANCH   3   4
ENDBRANCH   2   3
ENDBRANCH   1   2
BRANCH   1   9
ATOM      9  C   UNL     1      21.135   4.322   6.350  1.00  0.00     0.000 C 
BRANCH   9  10
ATOM     10  C   UNL     1      21.590   5.569   7.130  1.00  0.00    -0.000 C 
BRANCH  10  11
ATOM     11  C   UNL     1      23.084   5.916   6.994  1.00  0.00    -0.000 C 
BRANCH  11  12
ATOM     12  C   UNL     1      23.658   5.569   5.611  1.00  0.00    -0.000 C 
BRANCH  12  13
ATOM     13  C   UNL     1      25.076   4.999   5.733  1.00  0.00    -0.003 C 
ATOM     14  C   UNL     1      25.179   4.023   6.901  1.00  0.00     0.004 C 
ENDBRANCH  12  13
ENDBRANCH  11  12
ENDBRANCH  10  11
ENDBRANCH   9  10
ENDBRANCH   1   9
TORSDOF 10
ENDMDL
MODEL 3
REMARK VINA RESULT:    -4.299      2.922      4.438
REMARK INTER + INTRA:          -7.549
REMARK INTER:                  -6.772
REMARK INTRA:                  -0.777
REMARK UNBOUND:                -0.736
REMARK SMILES CCCCCCCCCCCC(=O)[O-]
REMARK SMILES IDX 7 1 8 2 9 3 10 4 11 5 12 6 13 7 14 8 6 9 5 10 4 11 3 12 2 13
REMARK SMILES IDX 1 14
REMARK H PARENT
REMARK Flexibility Score: inf
ROOT
ATOM      1  C   UNL     1      23.701   7.153  15.193  1.00  0.00     0.000 C 
ENDROOT
BRANCH   1   2
ATOM      2  C   UNL     1      23.409   5.872  14.393  1.00  0.00     0.000 C 
BRANCH   2   3
ATOM      3  C   UNL     1      23.390   4.612  15.276  1.00  0.00     0.000 C 
BRANCH   3   4
ATOM      4  C   UNL     1      24.283   3.491  14.723  1.00  0.00     0.006 C 
BRANCH   4   5
ATOM      5  C   UNL     1      25.115   3.942  13.514  1.00  0.00     0.053 C 
BRANCH   5   6
ATOM      6  C   UNL     1      26.020   2.840  13.064  1.00  0.00     0.041 C 
ATOM      7  O   UNL     1      26.487   2.022  13.900  1.00  0.00    -0.550 OA
ATOM      8  O   UNL     1      26.311   2.685  11.715  1.00  0.00    -0.550 OA
ENDBRANCH   5   6
ENDBRANCH   4   5
ENDBRANCH   3   4
ENDBRANCH   2   3
ENDBRANCH   1   2
BRANCH   1   9
ATOM      9  C   UNL     1      24.818   8.001  14.561  1.00  0.00     0.000 C 
BRANCH   9  10
ATOM     10  C   UNL     1      26.226   7.439  14.834  1.00  0.00    -0.000 C 
BRANCH  10  11
ATOM     11  C   UNL     1      27.134   7.324  13.596  1.00  0.00    -0.000 C 
BRANCH  11  12
ATOM     12  C   UNL     1      27.262   8.644  12.820  1.00  0.00    -0.000 C 
BRANCH  12  13
ATOM     13  C   UNL     1      28.302   8.523  11.699  1.00  0.00    -0.003 C 
ATOM     14  C   UNL     1      29.648   9.096  12.132  1.00  0.00     0.004 C 
ENDBRANCH  12  13
ENDBRANCH  11  12
ENDBRANCH  10  11
ENDBRANCH   9  10
ENDBRANCH   1   9
TORSDOF 10
ENDMDL
MODEL 4
REMARK VINA RESULT:    -4.286      3.364      5.425
REMARK INTER + INTRA:          -7.528
REMARK INTER:                  -6.401
REMARK INTRA:                  -1.128
REMARK UNBOUND:                -0.736
REMARK SMILES CCCCCCCCCCCC(=O)[O-]
REMARK SMILES IDX 7 1 8 2 9 3 10 4 11 5 12 6 13 7 14 8 6 9 5 10 4 11 3 12 2 13
REMARK SMILES IDX 1 14
REMARK H PARENT
REMARK Flexibility Score: inf
ROOT
ATOM      1  C   UNL     1      24.654   7.456  14.950  1.00  0.00     0.000 C 
ENDROOT
BRANCH   1   2
ATOM      2  C   UNL     1      25.984   7.715  14.223  1.00  0.00     0.000 C 
BRANCH   2   3
ATOM      3  C   UNL     1      26.847   6.447  14.093  1.00  0.00     0.000 C 
BRANCH   3   4
ATOM      4  C   UNL     1      28.020   6.630  13.119  1.00  0.00     0.006 C 
BRANCH   4   5
ATOM      5  C   UNL     1      28.824   7.907  13.397  1.00  0.00     0.053 C 
BRANCH   5   6
ATOM      6  C   UNL     1      29.019   8.685  12.134  1.00  0.00     0.041 C 
ATOM      7  O   UNL     1      28.032   8.970  11.406  1.00  0.00    -0.550 OA
ATOM      8  O   UNL     1      30.285   9.140  11.786  1.00  0.00    -0.550 OA
ENDBRANCH   5   6
ENDBRANCH   4   5
ENDBRANCH   3   4
ENDBRANCH   2   3
ENDBRANCH   1   2
BRANCH   1   9
ATOM      9  C   UNL     1      23.482   7.240  13.977  1.00  0.00     0.000 C 
BRANCH   9  10
ATOM     10  C   UNL     1      23.110   5.756  13.806  1.00  0.00    -0.000 C 
BRANCH  10  11
ATOM     11  C   UNL     1      23.210   4.904  15.085  1.00  0.00    -0.000 C 
BRANCH  11  12
ATOM     12  C   UNL     1      24.210   3.744  14.958  1.00  0.00    -0.000 C 
BRANCH  12  13
ATOM     13  C   UNL     1      24.692   3.592  13.510  1.00  0.00    -0.003 C 
ATOM     14  C   UNL     1      26.013   2.831  13.447  1.00  0.00     0.004 C 
ENDBRANCH  12  13
ENDBRANCH  11  12
ENDBRANCH  10  11
ENDBRANCH   9  10
ENDBRANCH   1   9
TORSDOF 10
ENDMDL
MODEL 5
REMARK VINA RESULT:    -4.266      3.938      6.989
REMARK INTER + INTRA:          -7.496
REMARK INTER:                  -6.714
REMARK INTRA:                  -0.782
REMARK UNBOUND:                -0.736
REMARK SMILES CCCCCCCCCCCC(=O)[O-]
REMARK SMILES IDX 7 1 8 2 9 3 10 4 11 5 12 6 13 7 14 8 6 9 5 10 4 11 3 12 2 13
REMARK SMILES IDX 1 14
REMARK H PARENT
REMARK Flexibility Score: inf
ROOT
ATOM      1  C   UNL     1      23.027   5.749  13.988  1.00  0.00     0.000 C 
ENDROOT
BRANCH   1   2
ATOM      2  C   UNL     1      23.358   7.213  14.323  1.00  0.00     0.000 C 
BRANCH   2   3
ATOM      3  C   UNL     1      24.526   7.346  15.315  1.00  0.00     0.000 C 
BRANCH   3   4
ATOM      4  C   UNL     1      24.097   7.973  16.651  1.00  0.00     0.006 C 
BRANCH   4   5
ATOM      5  C   UNL     1      22.620   8.391  16.658  1.00  0.00     0.053 C 
BRANCH   5   6
ATOM      6  C   UNL     1      22.230   8.901  18.009  1.00  0.00     0.041 C 
ATOM      7  O   UNL     1      21.283   8.360  18.641  1.00  0.00    -0.550 OA
ATOM      8  O   UNL     1      22.942   9.940  18.594  1.00  0.00    -0.550 OA
ENDBRANCH   5   6
ENDBRANCH   4   5
ENDBRANCH   3   4
ENDBRANCH   2   3
ENDBRANCH   1   2
BRANCH   1   9
ATOM      9  C   UNL     1      23.233   4.809  15.187  1.00  0.00     0.000 C 
BRANCH   9  10
ATOM     10  C   UNL     1      24.196   3.647  14.880  1.00  0.00    -0.000 C 
BRANCH  10  11
ATOM     11  C   UNL     1      24.987   3.783  13.567  1.00  0.00    -0.000 C 
BRANCH  11  12
ATOM     12  C   UNL     1      26.088   2.722  13.415  1.00  0.00    -0.000 C 
BRANCH  12  13
ATOM     13  C   UNL     1      27.384   3.348  12.885  1.00  0.00    -0.003 C 
ATOM     14  C   UNL     1      27.483   4.820  13.273  1.00  0.00     0.004 C 
ENDBRANCH  12  13
ENDBRANCH  11  12
ENDBRANCH  10  11
ENDBRANCH   9  10
ENDBRANCH   1   9
TORSDOF 10
ENDMDL
MODEL 6
REMARK VINA RESULT:    -4.196      4.899      7.710
REMARK INTER + INTRA:          -7.385
REMARK INTER:                  -6.746
REMARK INTRA:                  -0.638
REMARK UNBOUND:                -0.736
REMARK SMILES CCCCCCCCCCCC(=O)[O-]
REMARK SMILES IDX 7 1 8 2 9 3 10 4 11 5 12 6 13 7 14 8 6 9 5 10 4 11 3 12 2 13
REMARK SMILES IDX 1 14
REMARK H PARENT
REMARK Flexibility Score: inf
ROOT
ATOM      1  C   UNL     1      21.308  10.009  17.313  1.00  0.00     0.000 C 
ENDROOT
BRANCH   1   2
ATOM      2  C   UNL     1      21.878  10.620  16.022  1.00  0.00     0.000 C 
BRANCH   2   3
ATOM      3  C   UNL     1      20.806  11.332  15.177  1.00  0.00     0.000 C 
BRANCH   3   4
ATOM      4  C   UNL     1      20.818  10.881  13.709  1.00  0.00     0.006 C 
BRANCH   4   5
ATOM      5  C   UNL     1      20.262  11.950  12.759  1.00  0.00     0.053 C 
BRANCH   5   6
ATOM      6  C   UNL     1      19.453  11.314  11.673  1.00  0.00     0.041 C 
ATOM      7  O   UNL     1      19.269  11.918  10.584  1.00  0.00    -0.550 OA
ATOM      8  O   UNL     1      18.943  10.033  11.845  1.00  0.00    -0.550 OA
ENDBRANCH   5   6
ENDBRANCH   4   5
ENDBRANCH   3   4
ENDBRANCH   2   3
ENDBRANCH   1   2
BRANCH   1   9
ATOM      9  C   UNL     1      22.065   8.744  17.751  1.00  0.00     0.000 C 
BRANCH   9  10
ATOM     10  C   UNL     1      23.361   8.513  16.952  1.00  0.00    -0.000 C 
BRANCH  10  11
ATOM     11  C   UNL     1      23.453   7.153  16.236  1.00  0.00    -0.000 C 
BRANCH  11  12
ATOM     12  C   UNL     1      23.177   7.249  14.727  1.00  0.00    -0.000 C 
BRANCH  12  13
ATOM     13  C   UNL     1      23.115   5.855  14.091  1.00  0.00    -0.003 C 
ATOM     14  C   UNL     1      23.409   4.767  15.120  1.00  0.00     0.004 C 
ENDBRANCH  12  13
ENDBRANCH  11  12
ENDBRANCH  10  11
ENDBRANCH   9  10
ENDBRANCH   1   9
TORSDOF 10
ENDMDL
MODEL 7
REMARK VINA RESULT:    -4.157      1.837      3.724
REMARK INTER + INTRA:          -7.323
REMARK INTER:                  -6.427
REMARK INTRA:                  -0.896
REMARK UNBOUND:                -0.736
REMARK SMILES CCCCCCCCCCCC(=O)[O-]
REMARK SMILES IDX 7 1 8 2 9 3 10 4 11 5 12 6 13 7 14 8 6 9 5 10 4 11 3 12 2 13
REMARK SMILES IDX 1 14
REMARK H PARENT
REMARK Flexibility Score: inf
ROOT
ATOM      1  C   UNL     1      23.211   8.660  17.037  1.00  0.00     0.000 C 
ENDROOT
BRANCH   1   2
ATOM      2  C   UNL     1      23.316   7.360  16.222  1.00  0.00     0.000 C 
BRANCH   2   3
ATOM      3  C   UNL     1      23.332   7.610  14.703  1.00  0.00     0.000 C 
BRANCH   3   4
ATOM      4  C   UNL     1      23.101   6.327  13.892  1.00  0.00     0.006 C 
BRANCH   4   5
ATOM      5  C   UNL     1      23.324   5.056  14.723  1.00  0.00     0.053 C 
BRANCH   5   6
ATOM      6  C   UNL     1      24.631   4.422  14.366  1.00  0.00     0.041 C 
ATOM      7  O   UNL     1      25.641   5.139  14.136  1.00  0.00    -0.550 OA
ATOM      8  O   UNL     1      24.749   3.038  14.335  1.00  0.00    -0.550 OA
ENDBRANCH   5   6
ENDBRANCH   4   5
ENDBRANCH   3   4
ENDBRANCH   2   3
ENDBRANCH   1   2
BRANCH   1   9
ATOM      9  C   UNL     1      21.898   8.753  17.832  1.00  0.00     0.000 C 
BRANCH   9  10
ATOM     10  C   UNL     1      21.365  10.193  17.946  1.00  0.00    -0.000 C 
BRANCH  10  11
ATOM     11  C   UNL     1      20.529  10.678  16.746  1.00  0.00    -0.000 C 
BRANCH  11  12
ATOM     12  C   UNL     1      21.217  11.796  15.948  1.00  0.00    -0.000 C 
BRANCH  12  13
ATOM     13  C   UNL     1      21.960  11.226  14.734  1.00  0.00    -0.003 C 
ATOM     14  C   UNL     1      20.983  10.773  13.652  1.00  0.00     0.004 C 
ENDBRANCH  12  13
ENDBRANCH  11  12
ENDBRANCH  10  11
ENDBRANCH   9  10
ENDBRANCH   1   9
TORSDOF 10
ENDMDL
MODEL 8
REMARK VINA RESULT:    -4.143      9.898     11.942
REMARK INTER + INTRA:          -7.301
REMARK INTER:                  -6.410
REMARK INTRA:                  -0.891
REMARK UNBOUND:                -0.736
REMARK SMILES CCCCCCCCCCCC(=O)[O-]
REMARK SMILES IDX 7 1 8 2 9 3 10 4 11 5 12 6 13 7 14 8 6 9 5 10 4 11 3 12 2 13
REMARK SMILES IDX 1 14
REMARK H PARENT
REMARK Flexibility Score: inf
ROOT
ATOM      1  C   UNL     1      20.095   6.961   2.763  1.00  0.00     0.000 C 
ENDROOT
BRANCH   1   2
ATOM      2  C   UNL     1      18.631   7.373   2.993  1.00  0.00     0.000 C 
BRANCH   2   3
ATOM      3  C   UNL     1      18.431   8.150   4.306  1.00  0.00     0.000 C 
BRANCH   3   4
ATOM      4  C   UNL     1      17.685   7.328   5.369  1.00  0.00     0.006 C 
BRANCH   4   5
ATOM      5  C   UNL     1      18.145   7.655   6.796  1.00  0.00     0.053 C 
BRANCH   5   6
ATOM      6  C   UNL     1      16.979   8.060   7.640  1.00  0.00     0.041 C 
ATOM      7  O   UNL     1      16.979   9.173   8.230  1.00  0.00    -0.550 OA
ATOM      8  O   UNL     1      15.869   7.231   7.737  1.00  0.00    -0.550 OA
ENDBRANCH   5   6
ENDBRANCH   4   5
ENDBRANCH   3   4
ENDBRANCH   2   3
ENDBRANCH   1   2
BRANCH   1   9
ATOM      9  C   UNL     1      20.432   5.601   3.398  1.00  0.00     0.000 C 
BRANCH   9  10
ATOM     10  C   UNL     1      21.517   5.698   4.486  1.00  0.00    -0.000 C 
BRANCH  10  11
ATOM     11  C   UNL     1      21.023   5.461   5.925  1.00  0.00    -0.000 C 
BRANCH  11  12
ATOM     12  C   UNL     1      22.144   5.567   6.971  1.00  0.00    -0.000 C 
BRANCH  12  13
ATOM     13  C   UNL     1      23.505   5.776   6.296  1.00  0.00    -0.003 C 
ATOM     14  C   UNL     1      24.450   4.615   6.591  1.00  0.00     0.004 C 
ENDBRANCH  12  13
ENDBRANCH  11  12
ENDBRANCH  10  11
ENDBRANCH   9  10
ENDBRANCH   1   9
TORSDOF 10
ENDMDL
MODEL 9
REMARK VINA RESULT:    -4.120      1.804      3.557
REMARK INTER + INTRA:          -7.265
REMARK INTER:                  -6.753
REMARK INTRA:                  -0.512
REMARK UNBOUND:                -0.736
REMARK SMILES CCCCCCCCCCCC(=O)[O-]
REMARK SMILES IDX 7 1 8 2 9 3 10 4 11 5 12 6 13 7 14 8 6 9 5 10 4 11 3 12 2 13
REMARK SMILES IDX 1 14
REMARK H PARENT
REMARK Flexibility Score: inf
ROOT
ATOM      1  C   UNL     1      23.359   8.600  16.634  1.00  0.00     0.000 C 
ENDROOT
BRANCH   1   2
ATOM      2  C   UNL     1      23.312   7.171  16.066  1.00  0.00     0.000 C 
BRANCH   2   3
ATOM      3  C   UNL     1      23.335   7.142  14.527  1.00  0.00     0.000 C 
BRANCH   3   4
ATOM      4  C   UNL     1      23.006   5.753  13.959  1.00  0.00     0.006 C 
BRANCH   4   5
ATOM      5  C   UNL     1      23.751   4.627  14.687  1.00  0.00     0.053 C 
BRANCH   5   6
ATOM      6  C   UNL     1      24.982   4.241  13.930  1.00  0.00     0.041 C 
ATOM      7  O   UNL     1      24.998   3.184  13.244  1.00  0.00    -0.550 OA
ATOM      8  O   UNL     1      26.095   5.071  13.940  1.00  0.00    -0.550 OA
ENDBRANCH   5   6
ENDBRANCH   4   5
ENDBRANCH   3   4
ENDBRANCH   2   3
ENDBRANCH   1   2
BRANCH   1   9
ATOM      9  C   UNL     1      22.774   8.689  18.053  1.00  0.00     0.000 C 
BRANCH   9  10
ATOM     10  C   UNL     1      21.356   9.289  18.082  1.00  0.00    -0.000 C 
BRANCH  10  11
ATOM     11  C   UNL     1      21.113  10.440  17.088  1.00  0.00    -0.000 C 
BRANCH  11  12
ATOM     12  C   UNL     1      20.251  11.568  17.674  1.00  0.00    -0.000 C 
BRANCH  12  13
ATOM     13  C   UNL     1      20.780  12.008  19.044  1.00  0.00    -0.003 C 
ATOM     14  C   UNL     1      19.788  12.929  19.749  1.00  0.00     0.004 C 
ENDBRANCH  12  13
ENDBRANCH  11  12
ENDBRANCH  10  11
ENDBRANCH   9  10
ENDBRANCH   1   9
TORSDOF 10
ENDMDL
