MODEL 1
REMARK VINA RESULT:    -6.143      0.000      0.000
REMARK INTER + INTRA:         -10.029
REMARK INTER:                 -10.093
REMARK INTRA:                   0.064
REMARK UNBOUND:                 0.064
REMARK SMILES C[C@@H]1O[C@@H](OC[C@@H]2O[C@H](Oc3c(-c4ccc(O)c(O)c4)oc4cc(O)cc(O)c4c3=O)[C@@H](O)[C@H](O)[C@@H]2O)[C@H](O)[C@@H](O)[C@H]1O
REMARK SMILES IDX 7 1 36 2 34 3 32 4 9 5 8 6 6 7 5 8 4 9 1 10 2 11 42 12 3 13
REMARK SMILES IDX 40 14 38 15 43 16 41 18 39 20 37 22 35 24 10 26 11 27 12 28
REMARK SMILES IDX 30 29 21 30 29 31 31 32 22 33 27 34 23 35 26 36 24 37 13 38
REMARK SMILES IDX 20 39 14 40 18 41 15 42 16 43 19 44 17 46 28 48 25 50 33 52
REMARK H PARENT 43 17 41 19 39 21 37 23 35 25 19 45 17 47 28 49 25 51 33 53
REMARK Flexibility Score: inf
ROOT
ATOM      1  C   UNL     1      18.535  17.884  19.519  1.00  0.00     0.180 C 
ATOM      2  C   UNL     1      18.177  17.901  18.016  1.00  0.00     0.177 C 
ATOM      3  C   UNL     1      18.800  16.708  17.291  1.00  0.00     0.180 C 
ATOM      4  C   UNL     1      18.244  15.447  17.913  1.00  0.00     0.214 C 
ATOM      5  C   UNL     1      18.498  15.409  19.422  1.00  0.00     0.339 C 
ATOM      6  O   UNL     1      18.292  16.624  20.161  1.00  0.00    -0.332 OA
ENDROOT
BRANCH   1   7
ATOM      7  C   UNL     1      19.959  18.448  19.852  1.00  0.00     0.198 C 
BRANCH   7   8
ATOM      8  O   UNL     1      19.939  19.458  20.864  1.00  0.00    -0.347 OA
BRANCH   8   9
ATOM      9  C   UNL     1      19.528  20.736  20.352  1.00  0.00     0.281 C 
ATOM     10  C   UNL     1      18.779  23.045  18.618  1.00  0.00     0.041 C 
ATOM     11  C   UNL     1      20.072  22.214  18.548  1.00  0.00     0.150 C 
ATOM     12  C   UNL     1      21.313  22.835  19.218  1.00  0.00     0.174 C 
ATOM     13  O   UNL     1      19.892  20.865  18.974  1.00  0.00    -0.344 OA
ATOM     14  C   UNL     1      21.375  22.489  20.740  1.00  0.00     0.179 C 
ATOM     15  C   UNL     1      20.086  21.853  21.283  1.00  0.00     0.202 C 
BRANCH  12  16
ATOM     16  O   UNL     1      22.441  22.312  18.564  1.00  0.00    -0.388 OA
ATOM     17  H   UNL     1      22.983  21.819  19.249  1.00  0.00     0.211 HD
ENDBRANCH  12  16
BRANCH  14  18
ATOM     18  O   UNL     1      22.471  21.656  21.036  1.00  0.00    -0.387 OA
ATOM     19  H   UNL     1      22.555  21.004  20.284  1.00  0.00     0.211 HD
ENDBRANCH  14  18
BRANCH  15  20
ATOM     20  O   UNL     1      19.127  22.862  21.511  1.00  0.00    -0.385 OA
ATOM     21  H   UNL     1      18.923  23.279  20.634  1.00  0.00     0.211 HD
ENDBRANCH  15  20
ENDBRANCH   8   9
ENDBRANCH   7   8
ENDBRANCH   1   7
BRANCH   2  22
ATOM     22  O   UNL     1      18.582  19.090  17.395  1.00  0.00    -0.387 OA
ATOM     23  H   UNL     1      17.992  19.273  16.601  1.00  0.00     0.211 HD
ENDBRANCH   2  22
BRANCH   3  24
ATOM     24  O   UNL     1      20.217  16.696  17.347  1.00  0.00    -0.387 OA
ATOM     25  H   UNL     1      20.542  17.110  16.506  1.00  0.00     0.211 HD
ENDBRANCH   3  24
BRANCH   5  26
ATOM     26  O   UNL     1      19.803  14.876  19.690  1.00  0.00    -0.454 OA
BRANCH  26  27
ATOM     27  C   UNL     1      20.945  15.587  20.206  1.00  0.00     0.214 A 
ATOM     28  C   UNL     1      21.083  16.132  21.530  1.00  0.00     0.180 A 
ATOM     29  C   UNL     1      22.036  15.741  19.337  1.00  0.00     0.239 A 
ATOM     30  O   UNL     1      22.140  16.884  21.831  1.00  0.00    -0.452 OA
ATOM     31  C   UNL     1      23.155  16.495  19.730  1.00  0.00     0.111 A 
ATOM     32  O   UNL     1      21.995  15.210  18.175  1.00  0.00    -0.285 OA
ATOM     33  C   UNL     1      23.144  17.096  21.006  1.00  0.00     0.146 A 
ATOM     34  C   UNL     1      24.278  16.676  18.887  1.00  0.00     0.134 A 
ATOM     35  C   UNL     1      24.195  17.929  21.392  1.00  0.00     0.094 A 
ATOM     36  C   UNL     1      25.321  17.523  19.309  1.00  0.00     0.093 A 
ATOM     37  C   UNL     1      25.281  18.134  20.541  1.00  0.00     0.123 A 
BRANCH  28  38
ATOM     38  C   UNL     1      20.194  15.865  22.668  1.00  0.00     0.025 A 
ATOM     39  C   UNL     1      20.300  16.653  23.831  1.00  0.00     0.062 A 
ATOM     40  C   UNL     1      19.084  15.014  22.516  1.00  0.00     0.016 A 
ATOM     41  C   UNL     1      19.400  16.470  24.893  1.00  0.00     0.158 A 
ATOM     42  C   UNL     1      18.157  14.875  23.549  1.00  0.00     0.051 A 
ATOM     43  C   UNL     1      18.327  15.572  24.747  1.00  0.00     0.157 A 
BRANCH  41  44
ATOM     44  O   UNL     1      19.618  17.141  26.107  1.00  0.00    -0.504 OA
ATOM     45  H   UNL     1      19.364  16.711  27.000  1.00  0.00     0.293 HD
ENDBRANCH  41  44
BRANCH  43  46
ATOM     46  O   UNL     1      17.413  15.356  25.778  1.00  0.00    -0.504 OA
ATOM     47  H   UNL     1      16.409  15.487  25.625  1.00  0.00     0.293 HD
ENDBRANCH  43  46
ENDBRANCH  28  38
BRANCH  34  48
ATOM     48  O   UNL     1      24.351  16.047  17.647  1.00  0.00    -0.507 OA
ATOM     49  H   UNL     1      24.844  16.468  16.872  1.00  0.00     0.293 HD
ENDBRANCH  34  48
BRANCH  37  50
ATOM     50  O   UNL     1      26.327  18.969  20.932  1.00  0.00    -0.508 OA
ATOM     51  H   UNL     1      27.128  19.114  20.330  1.00  0.00     0.293 HD
ENDBRANCH  37  50
ENDBRANCH  26  27
ENDBRANCH   5  26
BRANCH   4  52
ATOM     52  O   UNL     1      16.876  15.286  17.597  1.00  0.00    -0.384 OA
ATOM     53  H   UNL     1      16.316  15.686  18.310  1.00  0.00     0.211 HD
ENDBRANCH   4  52
TORSDOF 16
ENDMDL
MODEL 2
REMARK VINA RESULT:    -5.834      1.340      1.774
REMARK INTER + INTRA:          -9.521
REMARK INTER:                  -8.957
REMARK INTRA:                  -0.564
REMARK UNBOUND:                 0.064
REMARK SMILES C[C@@H]1O[C@@H](OC[C@@H]2O[C@H](Oc3c(-c4ccc(O)c(O)c4)oc4cc(O)cc(O)c4c3=O)[C@@H](O)[C@H](O)[C@@H]2O)[C@H](O)[C@@H](O)[C@H]1O
REMARK SMILES IDX 7 1 36 2 34 3 32 4 9 5 8 6 6 7 5 8 4 9 1 10 2 11 42 12 3 13
REMARK SMILES IDX 40 14 38 15 43 16 41 18 39 20 37 22 35 24 10 26 11 27 12 28
REMARK SMILES IDX 30 29 21 30 29 31 31 32 22 33 27 34 23 35 26 36 24 37 13 38
REMARK SMILES IDX 20 39 14 40 18 41 15 42 16 43 19 44 17 46 28 48 25 50 33 52
REMARK H PARENT 43 17 41 19 39 21 37 23 35 25 19 45 17 47 28 49 25 51 33 53
REMARK Flexibility Score: inf
ROOT
ATOM      1  C   UNL     1      18.483  18.343  20.043  1.00  0.00     0.180 C 
ATOM      2  C   UNL     1      17.338  17.991  19.068  1.00  0.00     0.177 C 
ATOM      3  C   UNL     1      17.745  16.852  18.133  1.00  0.00     0.180 C 
ATOM      4  C   UNL     1      18.053  15.642  18.984  1.00  0.00     0.214 C 
ATOM      5  C   UNL     1      19.129  15.952  20.028  1.00  0.00     0.339 C 
ATOM      6  O   UNL     1      19.040  17.207  20.721  1.00  0.00    -0.332 OA
ENDROOT
BRANCH   1   7
ATOM      7  C   UNL     1      19.593  19.266  19.433  1.00  0.00     0.198 C 
BRANCH   7   8
ATOM      8  O   UNL     1      19.120  20.578  19.119  1.00  0.00    -0.347 OA
BRANCH   8   9
ATOM      9  C   UNL     1      19.485  21.543  20.118  1.00  0.00     0.281 C 
ATOM     10  C   UNL     1      19.498  23.706  22.173  1.00  0.00     0.041 C 
ATOM     11  C   UNL     1      18.925  23.785  20.747  1.00  0.00     0.150 C 
ATOM     12  C   UNL     1      19.817  24.475  19.697  1.00  0.00     0.174 C 
ATOM     13  O   UNL     1      18.457  22.528  20.264  1.00  0.00    -0.344 OA
ATOM     14  C   UNL     1      20.824  23.469  19.052  1.00  0.00     0.179 C 
ATOM     15  C   UNL     1      20.893  22.114  19.775  1.00  0.00     0.202 C 
BRANCH  12  16
ATOM     16  O   UNL     1      18.965  24.994  18.708  1.00  0.00    -0.388 OA
ATOM     17  H   UNL     1      18.051  24.611  18.868  1.00  0.00     0.211 HD
ENDBRANCH  12  16
BRANCH  14  18
ATOM     18  O   UNL     1      20.545  23.261  17.688  1.00  0.00    -0.387 OA
ATOM     19  H   UNL     1      20.813  22.324  17.473  1.00  0.00     0.211 HD
ENDBRANCH  14  18
BRANCH  15  20
ATOM     20  O   UNL     1      21.695  22.240  20.928  1.00  0.00    -0.385 OA
ATOM     21  H   UNL     1      21.104  22.537  21.667  1.00  0.00     0.211 HD
ENDBRANCH  15  20
ENDBRANCH   8   9
ENDBRANCH   7   8
ENDBRANCH   1   7
BRANCH   2  22
ATOM     22  O   UNL     1      16.937  19.099  18.310  1.00  0.00    -0.387 OA
ATOM     23  H   UNL     1      15.964  19.010  18.071  1.00  0.00     0.211 HD
ENDBRANCH   2  22
BRANCH   3  24
ATOM     24  O   UNL     1      18.861  17.170  17.316  1.00  0.00    -0.387 OA
ATOM     25  H   UNL     1      18.519  17.273  16.390  1.00  0.00     0.211 HD
ENDBRANCH   3  24
BRANCH   5  26
ATOM     26  O   UNL     1      20.435  15.786  19.457  1.00  0.00    -0.454 OA
BRANCH  26  27
ATOM     27  C   UNL     1      21.687  16.241  20.004  1.00  0.00     0.214 A 
ATOM     28  C   UNL     1      21.938  16.609  21.372  1.00  0.00     0.180 A 
ATOM     29  C   UNL     1      22.774  16.308  19.119  1.00  0.00     0.239 A 
ATOM     30  O   UNL     1      23.109  17.141  21.714  1.00  0.00    -0.452 OA
ATOM     31  C   UNL     1      24.009  16.822  19.549  1.00  0.00     0.111 A 
ATOM     32  O   UNL     1      22.626  15.920  17.910  1.00  0.00    -0.285 OA
ATOM     33  C   UNL     1      24.121  17.274  20.880  1.00  0.00     0.146 A 
ATOM     34  C   UNL     1      25.133  16.907  18.691  1.00  0.00     0.134 A 
ATOM     35  C   UNL     1      25.301  17.877  21.314  1.00  0.00     0.094 A 
ATOM     36  C   UNL     1      26.309  17.521  19.162  1.00  0.00     0.093 A 
ATOM     37  C   UNL     1      26.392  17.993  20.452  1.00  0.00     0.123 A 
BRANCH  28  38
ATOM     38  C   UNL     1      21.035  16.369  22.506  1.00  0.00     0.025 A 
ATOM     39  C   UNL     1      20.484  17.465  23.198  1.00  0.00     0.062 A 
ATOM     40  C   UNL     1      20.522  15.080  22.743  1.00  0.00     0.016 A 
ATOM     41  C   UNL     1      19.551  17.255  24.226  1.00  0.00     0.158 A 
ATOM     42  C   UNL     1      19.553  14.879  23.726  1.00  0.00     0.051 A 
ATOM     43  C   UNL     1      19.090  15.952  24.490  1.00  0.00     0.157 A 
BRANCH  41  44
ATOM     44  O   UNL     1      19.137  18.339  25.017  1.00  0.00    -0.504 OA
ATOM     45  H   UNL     1      18.854  19.225  24.590  1.00  0.00     0.293 HD
ENDBRANCH  41  44
BRANCH  43  46
ATOM     46  O   UNL     1      18.168  15.698  25.506  1.00  0.00    -0.504 OA
ATOM     47  H   UNL     1      18.417  15.849  26.488  1.00  0.00     0.293 HD
ENDBRANCH  43  46
ENDBRANCH  28  38
BRANCH  34  48
ATOM     48  O   UNL     1      25.078  16.413  17.390  1.00  0.00    -0.507 OA
ATOM     49  H   UNL     1      25.288  17.002  16.595  1.00  0.00     0.293 HD
ENDBRANCH  34  48
BRANCH  37  50
ATOM     50  O   UNL     1      27.569  18.598  20.891  1.00  0.00    -0.508 OA
ATOM     51  H   UNL     1      28.096  19.210  20.283  1.00  0.00     0.293 HD
ENDBRANCH  37  50
ENDBRANCH  26  27
ENDBRANCH   5  26
BRANCH   4  52
ATOM     52  O   UNL     1      16.876  15.120  19.569  1.00  0.00    -0.384 OA
ATOM     53  H   UNL     1      16.111  15.718  19.377  1.00  0.00     0.211 HD
ENDBRANCH   4  52
TORSDOF 16
ENDMDL
MODEL 3
REMARK VINA RESULT:    -4.193      1.142      4.691
REMARK INTER + INTRA:          -6.826
REMARK INTER:                  -6.086
REMARK INTRA:                  -0.740
REMARK UNBOUND:                 0.064
REMARK SMILES C[C@@H]1O[C@@H](OC[C@@H]2O[C@H](Oc3c(-c4ccc(O)c(O)c4)oc4cc(O)cc(O)c4c3=O)[C@@H](O)[C@H](O)[C@@H]2O)[C@H](O)[C@@H](O)[C@H]1O
REMARK SMILES IDX 7 1 36 2 34 3 32 4 9 5 8 6 6 7 5 8 4 9 1 10 2 11 42 12 3 13
REMARK SMILES IDX 40 14 38 15 43 16 41 18 39 20 37 22 35 24 10 26 11 27 12 28
REMARK SMILES IDX 30 29 21 30 29 31 31 32 22 33 27 34 23 35 26 36 24 37 13 38
REMARK SMILES IDX 20 39 14 40 18 41 15 42 16 43 19 44 17 46 28 48 25 50 33 52
REMARK H PARENT 43 17 41 19 39 21 37 23 35 25 19 45 17 47 28 49 25 51 33 53
REMARK Flexibility Score: inf
ROOT
ATOM      1  C   UNL     1      17.917  18.377  19.007  1.00  0.00     0.180 C 
ATOM      2  C   UNL     1      17.976  18.291  17.466  1.00  0.00     0.177 C 
ATOM      3  C   UNL     1      18.789  17.078  17.015  1.00  0.00     0.180 C 
ATOM      4  C   UNL     1      18.106  15.839  17.549  1.00  0.00     0.214 C 
ATOM      5  C   UNL     1      17.945  15.901  19.070  1.00  0.00     0.339 C 
ATOM      6  O   UNL     1      17.529  17.152  19.644  1.00  0.00    -0.332 OA
ENDROOT
BRANCH   1   7
ATOM      7  C   UNL     1      19.190  19.007  19.670  1.00  0.00     0.198 C 
BRANCH   7   8
ATOM      8  O   UNL     1      18.885  20.097  20.543  1.00  0.00    -0.347 OA
BRANCH   8   9
ATOM      9  C   UNL     1      18.945  21.366  19.872  1.00  0.00     0.281 C 
ATOM     10  C   UNL     1      19.249  23.568  17.882  1.00  0.00     0.041 C 
ATOM     11  C   UNL     1      20.272  22.466  18.210  1.00  0.00     0.150 C 
ATOM     12  C   UNL     1      21.418  22.868  19.159  1.00  0.00     0.174 C 
ATOM     13  O   UNL     1      19.664  21.251  18.641  1.00  0.00    -0.344 OA
ATOM     14  C   UNL     1      21.008  22.695  20.656  1.00  0.00     0.179 C 
ATOM     15  C   UNL     1      19.507  22.431  20.860  1.00  0.00     0.202 C 
BRANCH  12  16
ATOM     16  O   UNL     1      22.509  22.034  18.866  1.00  0.00    -0.388 OA
ATOM     17  H   UNL     1      23.115  22.539  18.247  1.00  0.00     0.211 HD
ENDBRANCH  12  16
BRANCH  14  18
ATOM     18  O   UNL     1      21.753  21.679  21.282  1.00  0.00    -0.387 OA
ATOM     19  H   UNL     1      22.706  21.978  21.292  1.00  0.00     0.211 HD
ENDBRANCH  14  18
BRANCH  15  20
ATOM     20  O   UNL     1      18.801  23.648  20.766  1.00  0.00    -0.385 OA
ATOM     21  H   UNL     1      18.780  23.903  19.807  1.00  0.00     0.211 HD
ENDBRANCH  15  20
ENDBRANCH   8   9
ENDBRANCH   7   8
ENDBRANCH   1   7
BRANCH   2  22
ATOM     22  O   UNL     1      18.515  19.453  16.897  1.00  0.00    -0.387 OA
ATOM     23  H   UNL     1      19.239  19.205  16.245  1.00  0.00     0.211 HD
ENDBRANCH   2  22
BRANCH   3  24
ATOM     24  O   UNL     1      20.139  17.115  17.449  1.00  0.00    -0.387 OA
ATOM     25  H   UNL     1      20.261  17.972  17.935  1.00  0.00     0.211 HD
ENDBRANCH   3  24
BRANCH   5  26
ATOM     26  O   UNL     1      19.138  15.428  19.714  1.00  0.00    -0.454 OA
BRANCH  26  27
ATOM     27  C   UNL     1      19.663  15.846  20.988  1.00  0.00     0.214 A 
ATOM     28  C   UNL     1      21.050  16.044  21.315  1.00  0.00     0.180 A 
ATOM     29  C   UNL     1      18.727  16.109  22.000  1.00  0.00     0.239 A 
ATOM     30  O   UNL     1      21.406  16.302  22.571  1.00  0.00    -0.452 OA
ATOM     31  C   UNL     1      19.158  16.439  23.296  1.00  0.00     0.111 A 
ATOM     32  O   UNL     1      17.478  16.022  21.741  1.00  0.00    -0.285 OA
ATOM     33  C   UNL     1      20.544  16.486  23.551  1.00  0.00     0.146 A 
ATOM     34  C   UNL     1      18.249  16.712  24.348  1.00  0.00     0.134 A 
ATOM     35  C   UNL     1      21.006  16.716  24.847  1.00  0.00     0.094 A 
ATOM     36  C   UNL     1      18.751  16.941  25.644  1.00  0.00     0.093 A 
ATOM     37  C   UNL     1      20.105  16.947  25.886  1.00  0.00     0.123 A 
BRANCH  28  38
ATOM     38  C   UNL     1      22.163  16.085  20.357  1.00  0.00     0.025 A 
ATOM     39  C   UNL     1      23.087  17.146  20.414  1.00  0.00     0.062 A 
ATOM     40  C   UNL     1      22.458  14.961  19.564  1.00  0.00     0.016 A 
ATOM     41  C   UNL     1      24.206  17.154  19.565  1.00  0.00     0.158 A 
ATOM     42  C   UNL     1      23.600  14.944  18.764  1.00  0.00     0.051 A 
ATOM     43  C   UNL     1      24.456  16.046  18.734  1.00  0.00     0.157 A 
BRANCH  41  44
ATOM     44  O   UNL     1      25.026  18.294  19.512  1.00  0.00    -0.504 OA
ATOM     45  H   UNL     1      25.877  18.357  20.077  1.00  0.00     0.293 HD
ENDBRANCH  41  44
BRANCH  43  46
ATOM     46  O   UNL     1      25.552  16.016  17.872  1.00  0.00    -0.504 OA
ATOM     47  H   UNL     1      25.695  15.227  17.235  1.00  0.00     0.293 HD
ENDBRANCH  43  46
ENDBRANCH  28  38
BRANCH  34  48
ATOM     48  O   UNL     1      16.876  16.735  24.119  1.00  0.00    -0.507 OA
ATOM     49  H   UNL     1      16.497  17.026  23.228  1.00  0.00     0.293 HD
ENDBRANCH  34  48
BRANCH  37  50
ATOM     50  O   UNL     1      20.574  17.175  27.180  1.00  0.00    -0.508 OA
ATOM     51  H   UNL     1      20.555  16.441  27.876  1.00  0.00     0.293 HD
ENDBRANCH  37  50
ENDBRANCH  26  27
ENDBRANCH   5  26
BRANCH   4  52
ATOM     52  O   UNL     1      16.875  15.614  16.891  1.00  0.00    -0.384 OA
ATOM     53  H   UNL     1      17.026  15.524  15.916  1.00  0.00     0.211 HD
ENDBRANCH   4  52
TORSDOF 16
ENDMDL
MODEL 4
REMARK VINA RESULT:    -3.409      1.765      5.474
REMARK INTER + INTRA:          -5.537
REMARK INTER:                  -5.638
REMARK INTRA:                   0.101
REMARK UNBOUND:                 0.064
REMARK SMILES C[C@@H]1O[C@@H](OC[C@@H]2O[C@H](Oc3c(-c4ccc(O)c(O)c4)oc4cc(O)cc(O)c4c3=O)[C@@H](O)[C@H](O)[C@@H]2O)[C@H](O)[C@@H](O)[C@H]1O
REMARK SMILES IDX 7 1 36 2 34 3 32 4 9 5 8 6 6 7 5 8 4 9 1 10 2 11 42 12 3 13
REMARK SMILES IDX 40 14 38 15 43 16 41 18 39 20 37 22 35 24 10 26 11 27 12 28
REMARK SMILES IDX 30 29 21 30 29 31 31 32 22 33 27 34 23 35 26 36 24 37 13 38
REMARK SMILES IDX 20 39 14 40 18 41 15 42 16 43 19 44 17 46 28 48 25 50 33 52
REMARK H PARENT 43 17 41 19 39 21 37 23 35 25 19 45 17 47 28 49 25 51 33 53
REMARK Flexibility Score: inf
ROOT
ATOM      1  C   UNL     1      19.859  17.133  18.673  1.00  0.00     0.180 C 
ATOM      2  C   UNL     1      19.283  15.700  18.733  1.00  0.00     0.177 C 
ATOM      3  C   UNL     1      17.819  15.717  19.170  1.00  0.00     0.180 C 
ATOM      4  C   UNL     1      17.040  16.516  18.150  1.00  0.00     0.214 C 
ATOM      5  C   UNL     1      17.615  17.925  17.987  1.00  0.00     0.339 C 
ATOM      6  O   UNL     1      19.045  18.057  17.938  1.00  0.00    -0.332 OA
ENDROOT
BRANCH   1   7
ATOM      7  C   UNL     1      20.300  17.712  20.062  1.00  0.00     0.198 C 
BRANCH   7   8
ATOM      8  O   UNL     1      21.364  18.661  19.960  1.00  0.00    -0.347 OA
BRANCH   8   9
ATOM      9  C   UNL     1      22.548  18.228  20.650  1.00  0.00     0.281 C 
ATOM     10  C   UNL     1      25.302  17.953  21.764  1.00  0.00     0.041 C 
ATOM     11  C   UNL     1      24.913  18.130  20.286  1.00  0.00     0.150 C 
ATOM     12  C   UNL     1      24.891  16.846  19.434  1.00  0.00     0.174 C 
ATOM     13  O   UNL     1      23.707  18.871  20.111  1.00  0.00    -0.344 OA
ATOM     14  C   UNL     1      23.513  16.117  19.532  1.00  0.00     0.179 C 
ATOM     15  C   UNL     1      22.597  16.671  20.636  1.00  0.00     0.202 C 
BRANCH  12  16
ATOM     16  O   UNL     1      25.132  17.228  18.104  1.00  0.00    -0.388 OA
ATOM     17  H   UNL     1      24.348  17.775  17.802  1.00  0.00     0.211 HD
ENDBRANCH  12  16
BRANCH  14  18
ATOM     18  O   UNL     1      22.830  16.135  18.302  1.00  0.00    -0.387 OA
ATOM     19  H   UNL     1      22.446  15.223  18.165  1.00  0.00     0.211 HD
ENDBRANCH  14  18
BRANCH  15  20
ATOM     20  O   UNL     1      23.004  16.156  21.883  1.00  0.00    -0.385 OA
ATOM     21  H   UNL     1      23.515  16.870  22.346  1.00  0.00     0.211 HD
ENDBRANCH  15  20
ENDBRANCH   8   9
ENDBRANCH   7   8
ENDBRANCH   1   7
BRANCH   2  22
ATOM     22  O   UNL     1      20.020  14.875  19.593  1.00  0.00    -0.387 OA
ATOM     23  H   UNL     1      19.594  13.965  19.634  1.00  0.00     0.211 HD
ENDBRANCH   2  22
BRANCH   3  24
ATOM     24  O   UNL     1      17.627  16.261  20.466  1.00  0.00    -0.387 OA
ATOM     25  H   UNL     1      16.750  16.726  20.455  1.00  0.00     0.211 HD
ENDBRANCH   3  24
BRANCH   5  26
ATOM     26  O   UNL     1      17.065  18.802  18.981  1.00  0.00    -0.454 OA
BRANCH  26  27
ATOM     27  C   UNL     1      17.737  19.884  19.654  1.00  0.00     0.214 A 
ATOM     28  C   UNL     1      18.103  19.929  21.044  1.00  0.00     0.180 A 
ATOM     29  C   UNL     1      18.088  20.993  18.868  1.00  0.00     0.239 A 
ATOM     30  O   UNL     1      18.601  21.048  21.565  1.00  0.00    -0.452 OA
ATOM     31  C   UNL     1      18.669  22.127  19.461  1.00  0.00     0.111 A 
ATOM     32  O   UNL     1      17.854  20.974  17.612  1.00  0.00    -0.285 OA
ATOM     33  C   UNL     1      18.875  22.124  20.856  1.00  0.00     0.146 A 
ATOM     34  C   UNL     1      19.040  23.268  18.708  1.00  0.00     0.134 A 
ATOM     35  C   UNL     1      19.361  23.267  21.491  1.00  0.00     0.094 A 
ATOM     36  C   UNL     1      19.528  24.404  19.381  1.00  0.00     0.093 A 
ATOM     37  C   UNL     1      19.688  24.401  20.748  1.00  0.00     0.123 A 
BRANCH  28  38
ATOM     38  C   UNL     1      18.074  18.794  21.978  1.00  0.00     0.025 A 
ATOM     39  C   UNL     1      19.286  18.232  22.423  1.00  0.00     0.062 A 
ATOM     40  C   UNL     1      16.875  18.436  22.621  1.00  0.00     0.016 A 
ATOM     41  C   UNL     1      19.279  17.207  23.383  1.00  0.00     0.158 A 
ATOM     42  C   UNL     1      16.875  17.459  23.616  1.00  0.00     0.051 A 
ATOM     43  C   UNL     1      18.063  16.819  23.976  1.00  0.00     0.157 A 
BRANCH  41  44
ATOM     44  O   UNL     1      20.476  16.542  23.694  1.00  0.00    -0.504 OA
ATOM     45  H   UNL     1      21.138  16.935  24.367  1.00  0.00     0.293 HD
ENDBRANCH  41  44
BRANCH  43  46
ATOM     46  O   UNL     1      18.010  15.803  24.929  1.00  0.00    -0.504 OA
ATOM     47  H   UNL     1      18.385  15.948  25.871  1.00  0.00     0.293 HD
ENDBRANCH  43  46
ENDBRANCH  28  38
BRANCH  34  48
ATOM     48  O   UNL     1      18.909  23.283  17.322  1.00  0.00    -0.507 OA
ATOM     49  H   UNL     1      18.005  23.187  16.879  1.00  0.00     0.293 HD
ENDBRANCH  34  48
BRANCH  37  50
ATOM     50  O   UNL     1      20.172  25.541  21.388  1.00  0.00    -0.508 OA
ATOM     51  H   UNL     1      19.911  25.750  22.344  1.00  0.00     0.293 HD
ENDBRANCH  37  50
ENDBRANCH  26  27
ENDBRANCH   5  26
BRANCH   4  52
ATOM     52  O   UNL     1      16.959  15.826  16.919  1.00  0.00    -0.384 OA
ATOM     53  H   UNL     1      16.965  16.474  16.169  1.00  0.00     0.211 HD
ENDBRANCH   4  52
TORSDOF 16
ENDMDL
MODEL 5
REMARK VINA RESULT:    -3.357      1.852      6.541
REMARK INTER + INTRA:          -5.451
REMARK INTER:                  -3.699
REMARK INTRA:                  -1.752
REMARK UNBOUND:                 0.064
REMARK SMILES C[C@@H]1O[C@@H](OC[C@@H]2O[C@H](Oc3c(-c4ccc(O)c(O)c4)oc4cc(O)cc(O)c4c3=O)[C@@H](O)[C@H](O)[C@@H]2O)[C@H](O)[C@@H](O)[C@H]1O
REMARK SMILES IDX 7 1 36 2 34 3 32 4 9 5 8 6 6 7 5 8 4 9 1 10 2 11 42 12 3 13
REMARK SMILES IDX 40 14 38 15 43 16 41 18 39 20 37 22 35 24 10 26 11 27 12 28
REMARK SMILES IDX 30 29 21 30 29 31 31 32 22 33 27 34 23 35 26 36 24 37 13 38
REMARK SMILES IDX 20 39 14 40 18 41 15 42 16 43 19 44 17 46 28 48 25 50 33 52
REMARK H PARENT 43 17 41 19 39 21 37 23 35 25 19 45 17 47 28 49 25 51 33 53
REMARK Flexibility Score: inf
ROOT
ATOM      1  C   UNL     1      19.078  15.952  18.861  1.00  0.00     0.180 C 
ATOM      2  C   UNL     1      17.587  15.984  18.459  1.00  0.00     0.177 C 
ATOM      3  C   UNL     1      16.916  17.269  18.944  1.00  0.00     0.180 C 
ATOM      4  C   UNL     1      17.624  18.435  18.292  1.00  0.00     0.214 C 
ATOM      5  C   UNL     1      19.126  18.414  18.589  1.00  0.00     0.339 C 
ATOM      6  O   UNL     1      19.798  17.146  18.520  1.00  0.00    -0.332 OA
ENDROOT
BRANCH   1   7
ATOM      7  C   UNL     1      19.341  15.509  20.341  1.00  0.00     0.198 C 
BRANCH   7   8
ATOM      8  O   UNL     1      18.160  15.060  21.010  1.00  0.00    -0.347 OA
BRANCH   8   9
ATOM      9  C   UNL     1      18.326  15.011  22.436  1.00  0.00     0.281 C 
ATOM     10  C   UNL     1      17.911  14.875  25.387  1.00  0.00     0.041 C 
ATOM     11  C   UNL     1      17.266  15.868  24.405  1.00  0.00     0.150 C 
ATOM     12  C   UNL     1      17.910  17.267  24.338  1.00  0.00     0.174 C 
ATOM     13  O   UNL     1      17.097  15.328  23.096  1.00  0.00    -0.344 OA
ATOM     14  C   UNL     1      19.099  17.301  23.326  1.00  0.00     0.179 C 
ATOM     15  C   UNL     1      19.533  15.911  22.833  1.00  0.00     0.202 C 
BRANCH  12  16
ATOM     16  O   UNL     1      16.910  18.163  23.926  1.00  0.00    -0.388 OA
ATOM     17  H   UNL     1      16.746  18.003  22.949  1.00  0.00     0.211 HD
ENDBRANCH  12  16
BRANCH  14  18
ATOM     18  O   UNL     1      18.813  18.124  22.219  1.00  0.00    -0.387 OA
ATOM     19  H   UNL     1      18.880  19.070  22.532  1.00  0.00     0.211 HD
ENDBRANCH  14  18
BRANCH  15  20
ATOM     20  O   UNL     1      20.335  15.297  23.816  1.00  0.00    -0.385 OA
ATOM     21  H   UNL     1      20.803  14.536  23.382  1.00  0.00     0.211 HD
ENDBRANCH  15  20
ENDBRANCH   8   9
ENDBRANCH   7   8
ENDBRANCH   1   7
BRANCH   2  22
ATOM     22  O   UNL     1      16.888  14.875  18.954  1.00  0.00    -0.387 OA
ATOM     23  H   UNL     1      15.905  15.085  18.991  1.00  0.00     0.211 HD
ENDBRANCH   2  22
BRANCH   3  24
ATOM     24  O   UNL     1      16.936  17.414  20.355  1.00  0.00    -0.387 OA
ATOM     25  H   UNL     1      16.030  17.173  20.682  1.00  0.00     0.211 HD
ENDBRANCH   3  24
BRANCH   5  26
ATOM     26  O   UNL     1      19.391  19.054  19.845  1.00  0.00    -0.454 OA
BRANCH  26  27
ATOM     27  C   UNL     1      19.933  20.372  20.053  1.00  0.00     0.214 A 
ATOM     28  C   UNL     1      21.192  20.690  20.670  1.00  0.00     0.180 A 
ATOM     29  C   UNL     1      19.165  21.450  19.584  1.00  0.00     0.239 A 
ATOM     30  O   UNL     1      21.510  21.958  20.919  1.00  0.00    -0.452 OA
ATOM     31  C   UNL     1      19.579  22.772  19.821  1.00  0.00     0.111 A 
ATOM     32  O   UNL     1      18.073  21.221  18.960  1.00  0.00    -0.285 OA
ATOM     33  C   UNL     1      20.770  22.983  20.547  1.00  0.00     0.146 A 
ATOM     34  C   UNL     1      18.836  23.889  19.367  1.00  0.00     0.134 A 
ATOM     35  C   UNL     1      21.160  24.279  20.883  1.00  0.00     0.094 A 
ATOM     36  C   UNL     1      19.260  25.184  19.723  1.00  0.00     0.093 A 
ATOM     37  C   UNL     1      20.404  25.374  20.465  1.00  0.00     0.123 A 
BRANCH  28  38
ATOM     38  C   UNL     1      22.260  19.732  20.989  1.00  0.00     0.025 A 
ATOM     39  C   UNL     1      21.926  18.393  21.277  1.00  0.00     0.062 A 
ATOM     40  C   UNL     1      23.607  20.068  20.761  1.00  0.00     0.016 A 
ATOM     41  C   UNL     1      22.939  17.445  21.496  1.00  0.00     0.158 A 
ATOM     42  C   UNL     1      24.608  19.112  20.923  1.00  0.00     0.051 A 
ATOM     43  C   UNL     1      24.285  17.813  21.321  1.00  0.00     0.157 A 
BRANCH  41  44
ATOM     44  O   UNL     1      22.596  16.159  21.945  1.00  0.00    -0.504 OA
ATOM     45  H   UNL     1      22.621  15.924  22.940  1.00  0.00     0.293 HD
ENDBRANCH  41  44
BRANCH  43  46
ATOM     46  O   UNL     1      25.322  16.904  21.534  1.00  0.00    -0.504 OA
ATOM     47  H   UNL     1      25.637  16.683  22.483  1.00  0.00     0.293 HD
ENDBRANCH  43  46
ENDBRANCH  28  38
BRANCH  34  48
ATOM     48  O   UNL     1      17.690  23.720  18.595  1.00  0.00    -0.507 OA
ATOM     49  H   UNL     1      17.215  22.829  18.549  1.00  0.00     0.293 HD
ENDBRANCH  34  48
BRANCH  37  50
ATOM     50  O   UNL     1      20.799  26.667  20.805  1.00  0.00    -0.508 OA
ATOM     51  H   UNL     1      20.136  27.431  20.798  1.00  0.00     0.293 HD
ENDBRANCH  37  50
ENDBRANCH  26  27
ENDBRANCH   5  26
BRANCH   4  52
ATOM     52  O   UNL     1      17.354  18.482  16.905  1.00  0.00    -0.384 OA
ATOM     53  H   UNL     1      17.869  17.777  16.438  1.00  0.00     0.211 HD
ENDBRANCH   4  52
TORSDOF 16
ENDMDL
