MODEL 1
REMARK VINA RESULT:    -0.869      0.000      0.000
REMARK INTER + INTRA:          -4.055
REMARK INTER:                  -1.605
REMARK INTRA:                  -2.450
REMARK UNBOUND:                -2.450
REMARK SMILES CCCCCCCCCCCCCCCCO
REMARK SMILES IDX 9 1 8 2 7 3 6 4 5 5 4 6 3 7 2 8 1 9 10 10 11 11 12 12 13 13
REMARK SMILES IDX 14 14 15 15 16 16 17 17
REMARK H PARENT 17 18
REMARK Flexibility Score: inf
ROOT
ATOM      1  C   UNL     1      37.039   3.078  38.274  1.00  0.00     0.000 C 
ENDROOT
BRANCH   1   2
ATOM      2  C   UNL     1      37.827   4.215  38.947  1.00  0.00    -0.000 C 
BRANCH   2   3
ATOM      3  C   UNL     1      37.209   5.600  38.693  1.00  0.00    -0.000 C 
BRANCH   3   4
ATOM      4  C   UNL     1      37.044   6.441  39.977  1.00  0.00    -0.000 C 
BRANCH   4   5
ATOM      5  C   UNL     1      37.052   5.569  41.245  1.00  0.00    -0.000 C 
BRANCH   5   6
ATOM      6  C   UNL     1      35.808   5.783  42.125  1.00  0.00    -0.000 C 
BRANCH   6   7
ATOM      7  C   UNL     1      34.711   4.710  41.973  1.00  0.00    -0.000 C 
BRANCH   7   8
ATOM      8  C   UNL     1      33.571   5.078  41.006  1.00  0.00    -0.003 C 
ATOM      9  C   UNL     1      33.416   6.585  40.816  1.00  0.00     0.004 C 
ENDBRANCH   7   8
ENDBRANCH   6   7
ENDBRANCH   5   6
ENDBRANCH   4   5
ENDBRANCH   3   4
ENDBRANCH   2   3
ENDBRANCH   1   2
BRANCH   1  10
ATOM     10  C   UNL     1      35.515   3.229  38.468  1.00  0.00     0.000 C 
BRANCH  10  11
ATOM     11  C   UNL     1      34.858   2.034  39.186  1.00  0.00     0.000 C 
BRANCH  11  12
ATOM     12  C   UNL     1      35.837   1.071  39.880  1.00  0.00     0.000 C 
BRANCH  12  13
ATOM     13  C   UNL     1      35.874   1.254  41.406  1.00  0.00     0.000 C 
BRANCH  13  14
ATOM     14  C   UNL     1      37.153   1.959  41.892  1.00  0.00     0.002 C 
BRANCH  14  15
ATOM     15  C   UNL     1      38.364   1.036  42.122  1.00  0.00     0.028 C 
BRANCH  15  16
ATOM     16  C   UNL     1      39.366   1.034  40.960  1.00  0.00     0.156 C 
BRANCH  16  17
ATOM     17  O   UNL     1      40.193   2.162  41.028  1.00  0.00    -0.396 OA
ATOM     18  H   UNL     1      40.059   2.654  40.177  1.00  0.00     0.210 HD
ENDBRANCH  16  17
ENDBRANCH  15  16
ENDBRANCH  14  15
ENDBRANCH  13  14
ENDBRANCH  12  13
ENDBRANCH  11  12
ENDBRANCH  10  11
ENDBRANCH   1  10
TORSDOF 15
ENDMDL
MODEL 2
REMARK VINA RESULT:    -0.740      2.436      5.578
REMARK INTER + INTRA:          -3.817
REMARK INTER:                  -1.270
REMARK INTRA:                  -2.546
REMARK UNBOUND:                -2.450
REMARK SMILES CCCCCCCCCCCCCCCCO
REMARK SMILES IDX 9 1 8 2 7 3 6 4 5 5 4 6 3 7 2 8 1 9 10 10 11 11 12 12 13 13
REMARK SMILES IDX 14 14 15 15 16 16 17 17
REMARK H PARENT 17 18
REMARK Flexibility Score: inf
ROOT
ATOM      1  C   UNL     1      37.744   4.873  42.125  1.00  0.00     0.000 C 
ENDROOT
BRANCH   1   2
ATOM      2  C   UNL     1      36.546   3.907  42.124  1.00  0.00    -0.000 C 
BRANCH   2   3
ATOM      3  C   UNL     1      36.935   2.474  41.729  1.00  0.00    -0.000 C 
BRANCH   3   4
ATOM      4  C   UNL     1      36.448   2.074  40.320  1.00  0.00    -0.000 C 
BRANCH   4   5
ATOM      5  C   UNL     1      37.618   1.754  39.373  1.00  0.00    -0.000 C 
BRANCH   5   6
ATOM      6  C   UNL     1      37.852   2.853  38.320  1.00  0.00    -0.000 C 
BRANCH   6   7
ATOM      7  C   UNL     1      38.901   3.914  38.709  1.00  0.00    -0.000 C 
BRANCH   7   8
ATOM      8  C   UNL     1      40.058   3.395  39.581  1.00  0.00    -0.003 C 
ATOM      9  C   UNL     1      40.981   2.434  38.834  1.00  0.00     0.004 C 
ENDBRANCH   7   8
ENDBRANCH   6   7
ENDBRANCH   5   6
ENDBRANCH   4   5
ENDBRANCH   3   4
ENDBRANCH   2   3
ENDBRANCH   1   2
BRANCH   1  10
ATOM     10  C   UNL     1      37.496   6.110  41.235  1.00  0.00     0.000 C 
BRANCH  10  11
ATOM     11  C   UNL     1      36.057   6.207  40.692  1.00  0.00     0.000 C 
BRANCH  11  12
ATOM     12  C   UNL     1      35.934   6.163  39.160  1.00  0.00     0.000 C 
BRANCH  12  13
ATOM     13  C   UNL     1      34.952   5.086  38.670  1.00  0.00     0.000 C 
BRANCH  13  14
ATOM     14  C   UNL     1      33.909   4.702  39.734  1.00  0.00     0.002 C 
BRANCH  14  15
ATOM     15  C   UNL     1      33.108   3.421  39.436  1.00  0.00     0.028 C 
BRANCH  15  16
ATOM     16  C   UNL     1      32.234   2.954  40.608  1.00  0.00     0.156 C 
BRANCH  16  17
ATOM     17  O   UNL     1      33.036   2.568  41.689  1.00  0.00    -0.396 OA
ATOM     18  H   UNL     1      33.773   3.231  41.737  1.00  0.00     0.210 HD
ENDBRANCH  16  17
ENDBRANCH  15  16
ENDBRANCH  14  15
ENDBRANCH  13  14
ENDBRANCH  12  13
ENDBRANCH  11  12
ENDBRANCH  10  11
ENDBRANCH   1  10
TORSDOF 15
ENDMDL
MODEL 3
REMARK VINA RESULT:    -0.733      2.392      5.742
REMARK INTER + INTRA:          -3.804
REMARK INTER:                  -1.516
REMARK INTRA:                  -2.289
REMARK UNBOUND:                -2.450
REMARK SMILES CCCCCCCCCCCCCCCCO
REMARK SMILES IDX 9 1 8 2 7 3 6 4 5 5 4 6 3 7 2 8 1 9 10 10 11 11 12 12 13 13
REMARK SMILES IDX 14 14 15 15 16 16 17 17
REMARK H PARENT 17 18
REMARK Flexibility Score: inf
ROOT
ATOM      1  C   UNL     1      36.844   3.983  38.757  1.00  0.00     0.000 C 
ENDROOT
BRANCH   1   2
ATOM      2  C   UNL     1      36.195   2.747  39.404  1.00  0.00    -0.000 C 
BRANCH   2   3
ATOM      3  C   UNL     1      35.567   3.050  40.773  1.00  0.00    -0.000 C 
BRANCH   3   4
ATOM      4  C   UNL     1      36.189   2.234  41.926  1.00  0.00    -0.000 C 
BRANCH   4   5
ATOM      5  C   UNL     1      37.080   1.090  41.410  1.00  0.00    -0.000 C 
BRANCH   5   6
ATOM      6  C   UNL     1      38.551   1.239  41.839  1.00  0.00    -0.000 C 
BRANCH   6   7
ATOM      7  C   UNL     1      39.585   0.891  40.749  1.00  0.00    -0.000 C 
BRANCH   7   8
ATOM      8  C   UNL     1      41.019   1.372  41.037  1.00  0.00    -0.003 C 
ATOM      9  C   UNL     1      41.671   2.052  39.835  1.00  0.00     0.004 C 
ENDBRANCH   7   8
ENDBRANCH   6   7
ENDBRANCH   5   6
ENDBRANCH   4   5
ENDBRANCH   3   4
ENDBRANCH   2   3
ENDBRANCH   1   2
BRANCH   1  10
ATOM     10  C   UNL     1      38.383   3.962  38.873  1.00  0.00     0.000 C 
BRANCH  10  11
ATOM     11  C   UNL     1      38.916   4.552  40.194  1.00  0.00     0.000 C 
BRANCH  11  12
ATOM     12  C   UNL     1      39.232   6.057  40.156  1.00  0.00     0.000 C 
BRANCH  12  13
ATOM     13  C   UNL     1      38.225   6.899  40.957  1.00  0.00     0.000 C 
BRANCH  13  14
ATOM     14  C   UNL     1      37.431   6.067  41.979  1.00  0.00     0.002 C 
BRANCH  14  15
ATOM     15  C   UNL     1      35.946   6.448  42.125  1.00  0.00     0.028 C 
BRANCH  15  16
ATOM     16  C   UNL     1      35.256   6.763  40.791  1.00  0.00     0.156 C 
BRANCH  16  17
ATOM     17  O   UNL     1      34.974   8.132  40.700  1.00  0.00    -0.396 OA
ATOM     18  H   UNL     1      35.796   8.603  40.997  1.00  0.00     0.210 HD
ENDBRANCH  16  17
ENDBRANCH  15  16
ENDBRANCH  14  15
ENDBRANCH  13  14
ENDBRANCH  12  13
ENDBRANCH  11  12
ENDBRANCH  10  11
ENDBRANCH   1  10
TORSDOF 15
ENDMDL
MODEL 4
REMARK VINA RESULT:    -0.690      3.214      5.406
REMARK INTER + INTRA:          -3.725
REMARK INTER:                  -1.121
REMARK INTRA:                  -2.605
REMARK UNBOUND:                -2.450
REMARK SMILES CCCCCCCCCCCCCCCCO
REMARK SMILES IDX 9 1 8 2 7 3 6 4 5 5 4 6 3 7 2 8 1 9 10 10 11 11 12 12 13 13
REMARK SMILES IDX 14 14 15 15 16 16 17 17
REMARK H PARENT 17 18
REMARK Flexibility Score: inf
ROOT
ATOM      1  C   UNL     1      38.849   5.553  39.468  1.00  0.00     0.000 C 
ENDROOT
BRANCH   1   2
ATOM      2  C   UNL     1      37.602   4.911  38.836  1.00  0.00    -0.000 C 
BRANCH   2   3
ATOM      3  C   UNL     1      36.368   4.977  39.750  1.00  0.00    -0.000 C 
BRANCH   3   4
ATOM      4  C   UNL     1      35.890   3.591  40.233  1.00  0.00    -0.000 C 
BRANCH   4   5
ATOM      5  C   UNL     1      36.058   3.418  41.753  1.00  0.00    -0.000 C 
BRANCH   5   6
ATOM      6  C   UNL     1      37.280   2.559  42.125  1.00  0.00    -0.000 C 
BRANCH   6   7
ATOM      7  C   UNL     1      37.900   1.769  40.955  1.00  0.00    -0.000 C 
BRANCH   7   8
ATOM      8  C   UNL     1      39.416   1.962  40.772  1.00  0.00    -0.003 C 
ATOM      9  C   UNL     1      39.848   1.934  39.307  1.00  0.00     0.004 C 
ENDBRANCH   7   8
ENDBRANCH   6   7
ENDBRANCH   5   6
ENDBRANCH   4   5
ENDBRANCH   3   4
ENDBRANCH   2   3
ENDBRANCH   1   2
BRANCH   1  10
ATOM     10  C   UNL     1      38.605   5.984  40.930  1.00  0.00     0.000 C 
BRANCH  10  11
ATOM     11  C   UNL     1      39.687   5.493  41.913  1.00  0.00     0.000 C 
BRANCH  11  12
ATOM     12  C   UNL     1      40.869   6.456  42.115  1.00  0.00     0.000 C 
BRANCH  12  13
ATOM     13  C   UNL     1      42.233   5.780  41.901  1.00  0.00     0.000 C 
BRANCH  13  14
ATOM     14  C   UNL     1      42.133   4.481  41.082  1.00  0.00     0.002 C 
BRANCH  14  15
ATOM     15  C   UNL     1      42.501   4.613  39.592  1.00  0.00     0.028 C 
BRANCH  15  16
ATOM     16  C   UNL     1      43.022   6.003  39.207  1.00  0.00     0.156 C 
BRANCH  16  17
ATOM     17  O   UNL     1      42.065   6.688  38.447  1.00  0.00    -0.396 OA
ATOM     18  H   UNL     1      42.539   7.017  37.640  1.00  0.00     0.210 HD
ENDBRANCH  16  17
ENDBRANCH  15  16
ENDBRANCH  14  15
ENDBRANCH  13  14
ENDBRANCH  12  13
ENDBRANCH  11  12
ENDBRANCH  10  11
ENDBRANCH   1  10
TORSDOF 15
ENDMDL
MODEL 5
REMARK VINA RESULT:    -0.688      3.000      5.174
REMARK INTER + INTRA:          -3.721
REMARK INTER:                  -1.136
REMARK INTRA:                  -2.585
REMARK UNBOUND:                -2.450
REMARK SMILES CCCCCCCCCCCCCCCCO
REMARK SMILES IDX 9 1 8 2 7 3 6 4 5 5 4 6 3 7 2 8 1 9 10 10 11 11 12 12 13 13
REMARK SMILES IDX 14 14 15 15 16 16 17 17
REMARK H PARENT 17 18
REMARK Flexibility Score: inf
ROOT
ATOM      1  C   UNL     1      39.196   4.697  37.838  1.00  0.00     0.000 C 
ENDROOT
BRANCH   1   2
ATOM      2  C   UNL     1      38.707   3.278  37.501  1.00  0.00    -0.000 C 
BRANCH   2   3
ATOM      3  C   UNL     1      39.857   2.267  37.364  1.00  0.00    -0.000 C 
BRANCH   3   4
ATOM      4  C   UNL     1      39.783   1.114  38.388  1.00  0.00    -0.000 C 
BRANCH   4   5
ATOM      5  C   UNL     1      38.568   1.248  39.323  1.00  0.00    -0.000 C 
BRANCH   5   6
ATOM      6  C   UNL     1      38.894   0.882  40.782  1.00  0.00    -0.000 C 
BRANCH   6   7
ATOM      7  C   UNL     1      38.484   1.941  41.825  1.00  0.00    -0.000 C 
BRANCH   7   8
ATOM      8  C   UNL     1      37.229   2.757  41.466  1.00  0.00    -0.003 C 
ATOM      9  C   UNL     1      37.488   4.262  41.432  1.00  0.00     0.004 C 
ENDBRANCH   7   8
ENDBRANCH   6   7
ENDBRANCH   5   6
ENDBRANCH   4   5
ENDBRANCH   3   4
ENDBRANCH   2   3
ENDBRANCH   1   2
BRANCH   1  10
ATOM     10  C   UNL     1      40.613   4.695  38.451  1.00  0.00     0.000 C 
BRANCH  10  11
ATOM     11  C   UNL     1      40.670   5.252  39.888  1.00  0.00     0.000 C 
BRANCH  11  12
ATOM     12  C   UNL     1      41.225   4.280  40.942  1.00  0.00     0.000 C 
BRANCH  12  13
ATOM     13  C   UNL     1      42.052   3.139  40.327  1.00  0.00     0.000 C 
BRANCH  13  14
ATOM     14  C   UNL     1      42.362   2.017  41.334  1.00  0.00     0.002 C 
BRANCH  14  15
ATOM     15  C   UNL     1      43.243   0.875  40.794  1.00  0.00     0.028 C 
BRANCH  15  16
ATOM     16  C   UNL     1      44.747   1.165  40.879  1.00  0.00     0.156 C 
BRANCH  16  17
ATOM     17  O   UNL     1      45.019   2.010  41.963  1.00  0.00    -0.396 OA
ATOM     18  H   UNL     1      45.312   2.873  41.572  1.00  0.00     0.210 HD
ENDBRANCH  16  17
ENDBRANCH  15  16
ENDBRANCH  14  15
ENDBRANCH  13  14
ENDBRANCH  12  13
ENDBRANCH  11  12
ENDBRANCH  10  11
ENDBRANCH   1  10
TORSDOF 15
ENDMDL
MODEL 6
REMARK VINA RESULT:    -0.684      1.957      4.038
REMARK INTER + INTRA:          -3.713
REMARK INTER:                  -1.423
REMARK INTRA:                  -2.290
REMARK UNBOUND:                -2.450
REMARK SMILES CCCCCCCCCCCCCCCCO
REMARK SMILES IDX 9 1 8 2 7 3 6 4 5 5 4 6 3 7 2 8 1 9 10 10 11 11 12 12 13 13
REMARK SMILES IDX 14 14 15 15 16 16 17 17
REMARK H PARENT 17 18
REMARK Flexibility Score: inf
ROOT
ATOM      1  C   UNL     1      38.676   4.323  41.395  1.00  0.00     0.000 C 
ENDROOT
BRANCH   1   2
ATOM      2  C   UNL     1      37.796   3.293  42.125  1.00  0.00    -0.000 C 
BRANCH   2   3
ATOM      3  C   UNL     1      37.895   1.885  41.516  1.00  0.00    -0.000 C 
BRANCH   3   4
ATOM      4  C   UNL     1      36.536   1.324  41.047  1.00  0.00    -0.000 C 
BRANCH   4   5
ATOM      5  C   UNL     1      35.351   2.093  41.660  1.00  0.00    -0.000 C 
BRANCH   5   6
ATOM      6  C   UNL     1      34.382   2.641  40.597  1.00  0.00    -0.000 C 
BRANCH   6   7
ATOM      7  C   UNL     1      33.979   4.118  40.783  1.00  0.00    -0.000 C 
BRANCH   7   8
ATOM      8  C   UNL     1      34.402   4.742  42.125  1.00  0.00    -0.003 C 
ATOM      9  C   UNL     1      34.664   6.244  42.026  1.00  0.00     0.004 C 
ENDBRANCH   7   8
ENDBRANCH   6   7
ENDBRANCH   5   6
ENDBRANCH   4   5
ENDBRANCH   3   4
ENDBRANCH   2   3
ENDBRANCH   1   2
BRANCH   1  10
ATOM     10  C   UNL     1      37.842   5.460  40.766  1.00  0.00     0.000 C 
BRANCH  10  11
ATOM     11  C   UNL     1      37.803   5.424  39.225  1.00  0.00     0.000 C 
BRANCH  11  12
ATOM     12  C   UNL     1      37.036   4.237  38.620  1.00  0.00     0.000 C 
BRANCH  12  13
ATOM     13  C   UNL     1      37.903   3.381  37.682  1.00  0.00     0.000 C 
BRANCH  13  14
ATOM     14  C   UNL     1      39.364   3.273  38.153  1.00  0.00     0.002 C 
BRANCH  14  15
ATOM     15  C   UNL     1      40.421   3.716  37.124  1.00  0.00     0.028 C 
BRANCH  15  16
ATOM     16  C   UNL     1      41.829   3.182  37.419  1.00  0.00     0.156 C 
BRANCH  16  17
ATOM     17  O   UNL     1      42.382   3.851  38.519  1.00  0.00    -0.396 OA
ATOM     18  H   UNL     1      41.624   4.292  38.983  1.00  0.00     0.210 HD
ENDBRANCH  16  17
ENDBRANCH  15  16
ENDBRANCH  14  15
ENDBRANCH  13  14
ENDBRANCH  12  13
ENDBRANCH  11  12
ENDBRANCH  10  11
ENDBRANCH   1  10
TORSDOF 15
ENDMDL
MODEL 7
REMARK VINA RESULT:    -0.669      2.363      4.992
REMARK INTER + INTRA:          -3.686
REMARK INTER:                  -1.364
REMARK INTRA:                  -2.322
REMARK UNBOUND:                -2.450
REMARK SMILES CCCCCCCCCCCCCCCCO
REMARK SMILES IDX 9 1 8 2 7 3 6 4 5 5 4 6 3 7 2 8 1 9 10 10 11 11 12 12 13 13
REMARK SMILES IDX 14 14 15 15 16 16 17 17
REMARK H PARENT 17 18
REMARK Flexibility Score: inf
ROOT
ATOM      1  C   UNL     1      37.298   5.308  39.569  1.00  0.00     0.000 C 
ENDROOT
BRANCH   1   2
ATOM      2  C   UNL     1      37.625   4.898  41.016  1.00  0.00    -0.000 C 
BRANCH   2   3
ATOM      3  C   UNL     1      36.402   4.966  41.946  1.00  0.00    -0.000 C 
BRANCH   3   4
ATOM      4  C   UNL     1      35.242   4.051  41.499  1.00  0.00    -0.000 C 
BRANCH   4   5
ATOM      5  C   UNL     1      35.339   2.648  42.125  1.00  0.00    -0.000 C 
BRANCH   5   6
ATOM      6  C   UNL     1      35.458   1.531  41.072  1.00  0.00    -0.000 C 
BRANCH   6   7
ATOM      7  C   UNL     1      36.900   1.084  40.758  1.00  0.00    -0.000 C 
BRANCH   7   8
ATOM      8  C   UNL     1      37.912   1.306  41.896  1.00  0.00    -0.003 C 
ATOM      9  C   UNL     1      39.334   1.542  41.390  1.00  0.00     0.004 C 
ENDBRANCH   7   8
ENDBRANCH   6   7
ENDBRANCH   5   6
ENDBRANCH   4   5
ENDBRANCH   3   4
ENDBRANCH   2   3
ENDBRANCH   1   2
BRANCH   1  10
ATOM     10  C   UNL     1      38.565   5.406  38.692  1.00  0.00     0.000 C 
BRANCH  10  11
ATOM     11  C   UNL     1      38.615   4.366  37.555  1.00  0.00     0.000 C 
BRANCH  11  12
ATOM     12  C   UNL     1      38.570   2.898  38.012  1.00  0.00     0.000 C 
BRANCH  12  13
ATOM     13  C   UNL     1      37.441   2.098  37.341  1.00  0.00     0.000 C 
BRANCH  13  14
ATOM     14  C   UNL     1      36.320   2.997  36.790  1.00  0.00     0.002 C 
BRANCH  14  15
ATOM     15  C   UNL     1      35.004   2.972  37.591  1.00  0.00     0.028 C 
BRANCH  15  16
ATOM     16  C   UNL     1      34.334   4.346  37.717  1.00  0.00     0.156 C 
BRANCH  16  17
ATOM     17  O   UNL     1      34.336   5.003  36.480  1.00  0.00    -0.396 OA
ATOM     18  H   UNL     1      33.556   4.650  35.979  1.00  0.00     0.210 HD
ENDBRANCH  16  17
ENDBRANCH  15  16
ENDBRANCH  14  15
ENDBRANCH  13  14
ENDBRANCH  12  13
ENDBRANCH  11  12
ENDBRANCH  10  11
ENDBRANCH   1  10
TORSDOF 15
ENDMDL
MODEL 8
REMARK VINA RESULT:    -0.666      2.184      4.365
REMARK INTER + INTRA:          -3.680
REMARK INTER:                  -1.284
REMARK INTRA:                  -2.396
REMARK UNBOUND:                -2.450
REMARK SMILES CCCCCCCCCCCCCCCCO
REMARK SMILES IDX 9 1 8 2 7 3 6 4 5 5 4 6 3 7 2 8 1 9 10 10 11 11 12 12 13 13
REMARK SMILES IDX 14 14 15 15 16 16 17 17
REMARK H PARENT 17 18
REMARK Flexibility Score: inf
ROOT
ATOM      1  C   UNL     1      36.950   4.760  38.490  1.00  0.00     0.000 C 
ENDROOT
BRANCH   1   2
ATOM      2  C   UNL     1      35.555   4.766  39.138  1.00  0.00    -0.000 C 
BRANCH   2   3
ATOM      3  C   UNL     1      35.576   5.254  40.596  1.00  0.00    -0.000 C 
BRANCH   3   4
ATOM      4  C   UNL     1      35.709   4.108  41.622  1.00  0.00    -0.000 C 
BRANCH   4   5
ATOM      5  C   UNL     1      37.155   3.948  42.125  1.00  0.00    -0.000 C 
BRANCH   5   6
ATOM      6  C   UNL     1      37.737   2.553  41.832  1.00  0.00    -0.000 C 
BRANCH   6   7
ATOM      7  C   UNL     1      36.714   1.512  41.334  1.00  0.00    -0.000 C 
BRANCH   7   8
ATOM      8  C   UNL     1      36.923   1.037  39.885  1.00  0.00    -0.003 C 
ATOM      9  C   UNL     1      38.281   1.444  39.316  1.00  0.00     0.004 C 
ENDBRANCH   7   8
ENDBRANCH   6   7
ENDBRANCH   5   6
ENDBRANCH   4   5
ENDBRANCH   3   4
ENDBRANCH   2   3
ENDBRANCH   1   2
BRANCH   1  10
ATOM     10  C   UNL     1      37.647   6.135  38.593  1.00  0.00     0.000 C 
BRANCH  10  11
ATOM     11  C   UNL     1      39.120   6.054  39.040  1.00  0.00     0.000 C 
BRANCH  11  12
ATOM     12  C   UNL     1      39.375   6.417  40.512  1.00  0.00     0.000 C 
BRANCH  12  13
ATOM     13  C   UNL     1      40.348   5.449  41.206  1.00  0.00     0.000 C 
BRANCH  13  14
ATOM     14  C   UNL     1      40.692   4.226  40.338  1.00  0.00     0.002 C 
BRANCH  14  15
ATOM     15  C   UNL     1      41.705   3.244  40.959  1.00  0.00     0.028 C 
BRANCH  15  16
ATOM     16  C   UNL     1      42.602   2.551  39.926  1.00  0.00     0.156 C 
BRANCH  16  17
ATOM     17  O   UNL     1      41.865   2.227  38.780  1.00  0.00    -0.396 OA
ATOM     18  H   UNL     1      42.524   1.907  38.110  1.00  0.00     0.210 HD
ENDBRANCH  16  17
ENDBRANCH  15  16
ENDBRANCH  14  15
ENDBRANCH  13  14
ENDBRANCH  12  13
ENDBRANCH  11  12
ENDBRANCH  10  11
ENDBRANCH   1  10
TORSDOF 15
ENDMDL
MODEL 9
REMARK VINA RESULT:    -0.661      1.928      2.741
REMARK INTER + INTRA:          -3.670
REMARK INTER:                  -1.079
REMARK INTRA:                  -2.591
REMARK UNBOUND:                -2.450
REMARK SMILES CCCCCCCCCCCCCCCCO
REMARK SMILES IDX 9 1 8 2 7 3 6 4 5 5 4 6 3 7 2 8 1 9 10 10 11 11 12 12 13 13
REMARK SMILES IDX 14 14 15 15 16 16 17 17
REMARK H PARENT 17 18
REMARK Flexibility Score: inf
ROOT
ATOM      1  C   UNL     1      38.150   5.451  38.291  1.00  0.00     0.000 C 
ENDROOT
BRANCH   1   2
ATOM      2  C   UNL     1      38.848   6.822  38.292  1.00  0.00    -0.000 C 
BRANCH   2   3
ATOM      3  C   UNL     1      39.745   7.034  39.523  1.00  0.00    -0.000 C 
BRANCH   3   4
ATOM      4  C   UNL     1      39.805   5.805  40.455  1.00  0.00    -0.000 C 
BRANCH   4   5
ATOM      5  C   UNL     1      39.334   6.138  41.882  1.00  0.00    -0.000 C 
BRANCH   5   6
ATOM      6  C   UNL     1      38.760   7.561  42.004  1.00  0.00    -0.000 C 
BRANCH   6   7
ATOM      7  C   UNL     1      37.224   7.636  42.122  1.00  0.00    -0.000 C 
BRANCH   7   8
ATOM      8  C   UNL     1      36.517   8.344  40.953  1.00  0.00    -0.003 C 
ATOM      9  C   UNL     1      35.030   8.007  40.864  1.00  0.00     0.004 C 
ENDBRANCH   7   8
ENDBRANCH   6   7
ENDBRANCH   5   6
ENDBRANCH   4   5
ENDBRANCH   3   4
ENDBRANCH   2   3
ENDBRANCH   1   2
BRANCH   1  10
ATOM     10  C   UNL     1      36.621   5.575  38.459  1.00  0.00     0.000 C 
BRANCH  10  11
ATOM     11  C   UNL     1      35.988   4.421  39.263  1.00  0.00     0.000 C 
BRANCH  11  12
ATOM     12  C   UNL     1      36.269   4.450  40.775  1.00  0.00     0.000 C 
BRANCH  12  13
ATOM     13  C   UNL     1      36.396   3.045  41.386  1.00  0.00     0.000 C 
BRANCH  13  14
ATOM     14  C   UNL     1      37.843   2.690  41.769  1.00  0.00     0.002 C 
BRANCH  14  15
ATOM     15  C   UNL     1      38.723   2.179  40.612  1.00  0.00     0.028 C 
BRANCH  15  16
ATOM     16  C   UNL     1      40.217   2.117  40.955  1.00  0.00     0.156 C 
BRANCH  16  17
ATOM     17  O   UNL     1      40.822   1.037  40.299  1.00  0.00    -0.396 OA
ATOM     18  H   UNL     1      40.356   0.948  39.428  1.00  0.00     0.210 HD
ENDBRANCH  16  17
ENDBRANCH  15  16
ENDBRANCH  14  15
ENDBRANCH  13  14
ENDBRANCH  12  13
ENDBRANCH  11  12
ENDBRANCH  10  11
ENDBRANCH   1  10
TORSDOF 15
ENDMDL
