MODEL 1
REMARK VINA RESULT:    -3.162      0.000      0.000
REMARK INTER + INTRA:          -4.270
REMARK INTER:                  -4.087
REMARK INTRA:                  -0.183
REMARK UNBOUND:                -0.183
REMARK SMILES CCCCCCC(=O)[O-]
REMARK SMILES IDX 5 1 6 2 7 3 8 4 9 5 4 6 3 7 2 8 1 9
REMARK H PARENT
REMARK Flexibility Score: inf
ROOT
ATOM      1  C   UNL     1     111.953  52.899 232.415  1.00  0.00     0.006 C 
ENDROOT
BRANCH   1   2
ATOM      2  C   UNL     1     110.512  53.410 232.503  1.00  0.00     0.053 C 
BRANCH   2   3
ATOM      3  C   UNL     1     109.605  52.338 233.020  1.00  0.00     0.041 C 
ATOM      4  O   UNL     1     109.699  51.162 232.579  1.00  0.00    -0.550 OA
ATOM      5  O   UNL     1     108.691  52.625 234.026  1.00  0.00    -0.550 OA
ENDBRANCH   2   3
ENDBRANCH   1   2
BRANCH   1   6
ATOM      6  C   UNL     1     112.564  53.215 231.042  1.00  0.00     0.000 C 
BRANCH   6   7
ATOM      7  C   UNL     1     113.079  54.660 230.942  1.00  0.00    -0.000 C 
BRANCH   7   8
ATOM      8  C   UNL     1     113.429  55.065 229.502  1.00  0.00    -0.003 C 
ATOM      9  C   UNL     1     112.933  54.024 228.503  1.00  0.00     0.004 C 
ENDBRANCH   7   8
ENDBRANCH   6   7
ENDBRANCH   1   6
TORSDOF 5
ENDMDL
MODEL 2
REMARK VINA RESULT:    -3.088      3.941      5.796
REMARK INTER + INTRA:          -4.174
REMARK INTER:                  -4.003
REMARK INTRA:                  -0.171
REMARK UNBOUND:                -0.183
REMARK SMILES CCCCCCC(=O)[O-]
REMARK SMILES IDX 5 1 6 2 7 3 8 4 9 5 4 6 3 7 2 8 1 9
REMARK H PARENT
REMARK Flexibility Score: inf
ROOT
ATOM      1  C   UNL     1     112.781  53.751 228.348  1.00  0.00     0.006 C 
ENDROOT
BRANCH   1   2
ATOM      2  C   UNL     1     113.506  53.483 227.026  1.00  0.00     0.053 C 
BRANCH   2   3
ATOM      3  C   UNL     1     112.524  53.367 225.902  1.00  0.00     0.041 C 
ATOM      4  O   UNL     1     111.325  53.066 226.138  1.00  0.00    -0.550 OA
ATOM      5  O   UNL     1     112.922  53.642 224.600  1.00  0.00    -0.550 OA
ENDBRANCH   2   3
ENDBRANCH   1   2
BRANCH   1   6
ATOM      6  C   UNL     1     113.469  54.878 229.132  1.00  0.00     0.000 C 
BRANCH   6   7
ATOM      7  C   UNL     1     113.443  54.644 230.651  1.00  0.00    -0.000 C 
BRANCH   7   8
ATOM      8  C   UNL     1     112.572  53.443 231.050  1.00  0.00    -0.003 C 
ATOM      9  C   UNL     1     113.014  52.866 232.390  1.00  0.00     0.004 C 
ENDBRANCH   7   8
ENDBRANCH   6   7
ENDBRANCH   1   6
TORSDOF 5
ENDMDL
MODEL 3
REMARK VINA RESULT:    -2.958      3.991      5.409
REMARK INTER + INTRA:          -4.006
REMARK INTER:                  -3.902
REMARK INTRA:                  -0.103
REMARK UNBOUND:                -0.183
REMARK SMILES CCCCCCC(=O)[O-]
REMARK SMILES IDX 5 1 6 2 7 3 8 4 9 5 4 6 3 7 2 8 1 9
REMARK H PARENT
REMARK Flexibility Score: inf
ROOT
ATOM      1  C   UNL     1     112.939  53.703 229.321  1.00  0.00     0.006 C 
ENDROOT
BRANCH   1   2
ATOM      2  C   UNL     1     112.994  54.381 227.950  1.00  0.00     0.053 C 
BRANCH   2   3
ATOM      3  C   UNL     1     112.951  53.361 226.856  1.00  0.00     0.041 C 
ATOM      4  O   UNL     1     113.998  52.750 226.519  1.00  0.00    -0.550 OA
ATOM      5  O   UNL     1     111.743  53.046 226.245  1.00  0.00    -0.550 OA
ENDBRANCH   2   3
ENDBRANCH   1   2
BRANCH   1   6
ATOM      6  C   UNL     1     113.195  54.717 230.446  1.00  0.00     0.000 C 
BRANCH   6   7
ATOM      7  C   UNL     1     112.638  54.252 231.801  1.00  0.00    -0.000 C 
BRANCH   7   8
ATOM      8  C   UNL     1     113.359  53.008 232.341  1.00  0.00    -0.003 C 
ATOM      9  C   UNL     1     113.497  53.070 233.859  1.00  0.00     0.004 C 
ENDBRANCH   7   8
ENDBRANCH   6   7
ENDBRANCH   1   6
TORSDOF 5
ENDMDL
MODEL 4
REMARK VINA RESULT:    -2.911     18.144     19.459
REMARK INTER + INTRA:          -3.945
REMARK INTER:                  -3.550
REMARK INTRA:                  -0.394
REMARK UNBOUND:                -0.183
REMARK SMILES CCCCCCC(=O)[O-]
REMARK SMILES IDX 5 1 6 2 7 3 8 4 9 5 4 6 3 7 2 8 1 9
REMARK H PARENT
REMARK Flexibility Score: inf
ROOT
ATOM      1  C   UNL     1     110.938  65.085 217.135  1.00  0.00     0.006 C 
ENDROOT
BRANCH   1   2
ATOM      2  C   UNL     1     111.638  65.125 215.774  1.00  0.00     0.053 C 
BRANCH   2   3
ATOM      3  C   UNL     1     112.813  66.050 215.813  1.00  0.00     0.041 C 
ATOM      4  O   UNL     1     113.971  65.613 215.587  1.00  0.00    -0.550 OA
ATOM      5  O   UNL     1     112.623  67.406 216.050  1.00  0.00    -0.550 OA
ENDBRANCH   2   3
ENDBRANCH   1   2
BRANCH   1   6
ATOM      6  C   UNL     1     111.829  64.413 218.190  1.00  0.00     0.000 C 
BRANCH   6   7
ATOM      7  C   UNL     1     111.866  65.190 219.516  1.00  0.00    -0.000 C 
BRANCH   7   8
ATOM      8  C   UNL     1     111.060  66.496 219.459  1.00  0.00    -0.003 C 
ATOM      9  C   UNL     1     111.974  67.711 219.579  1.00  0.00     0.004 C 
ENDBRANCH   7   8
ENDBRANCH   6   7
ENDBRANCH   1   6
TORSDOF 5
ENDMDL
MODEL 5
REMARK VINA RESULT:    -2.899     18.633     19.668
REMARK INTER + INTRA:          -3.930
REMARK INTER:                  -3.683
REMARK INTRA:                  -0.247
REMARK UNBOUND:                -0.183
REMARK SMILES CCCCCCC(=O)[O-]
REMARK SMILES IDX 5 1 6 2 7 3 8 4 9 5 4 6 3 7 2 8 1 9
REMARK H PARENT
REMARK Flexibility Score: inf
ROOT
ATOM      1  C   UNL     1     111.902  64.418 217.279  1.00  0.00     0.006 C 
ENDROOT
BRANCH   1   2
ATOM      2  C   UNL     1     111.408  65.585 216.419  1.00  0.00     0.053 C 
BRANCH   2   3
ATOM      3  C   UNL     1     112.563  66.382 215.901  1.00  0.00     0.041 C 
ATOM      4  O   UNL     1     112.657  67.608 216.168  1.00  0.00    -0.550 OA
ATOM      5  O   UNL     1     113.565  65.758 215.167  1.00  0.00    -0.550 OA
ENDBRANCH   2   3
ENDBRANCH   1   2
BRANCH   1   6
ATOM      6  C   UNL     1     111.389  63.078 216.732  1.00  0.00     0.000 C 
BRANCH   6   7
ATOM      7  C   UNL     1     110.811  63.200 215.312  1.00  0.00    -0.000 C 
BRANCH   7   8
ATOM      8  C   UNL     1     109.830  62.068 214.973  1.00  0.00    -0.003 C 
ATOM      9  C   UNL     1     109.936  60.929 215.982  1.00  0.00     0.004 C 
ENDBRANCH   7   8
ENDBRANCH   6   7
ENDBRANCH   1   6
TORSDOF 5
ENDMDL
MODEL 6
REMARK VINA RESULT:    -2.896      4.702      6.219
REMARK INTER + INTRA:          -3.926
REMARK INTER:                  -3.759
REMARK INTRA:                  -0.166
REMARK UNBOUND:                -0.183
REMARK SMILES CCCCCCC(=O)[O-]
REMARK SMILES IDX 5 1 6 2 7 3 8 4 9 5 4 6 3 7 2 8 1 9
REMARK H PARENT
REMARK Flexibility Score: inf
ROOT
ATOM      1  C   UNL     1     112.437  53.757 225.467  1.00  0.00     0.006 C 
ENDROOT
BRANCH   1   2
ATOM      2  C   UNL     1     111.024  53.646 226.047  1.00  0.00     0.053 C 
BRANCH   2   3
ATOM      3  C   UNL     1     110.130  52.894 225.112  1.00  0.00     0.041 C 
ATOM      4  O   UNL     1     109.592  51.817 225.480  1.00  0.00    -0.550 OA
ATOM      5  O   UNL     1     109.849  53.409 223.853  1.00  0.00    -0.550 OA
ENDBRANCH   2   3
ENDBRANCH   1   2
BRANCH   1   6
ATOM      6  C   UNL     1     113.473  53.163 226.432  1.00  0.00     0.000 C 
BRANCH   6   7
ATOM      7  C   UNL     1     113.153  53.465 227.905  1.00  0.00    -0.000 C 
BRANCH   7   8
ATOM      8  C   UNL     1     113.625  54.860 228.339  1.00  0.00    -0.003 C 
ATOM      9  C   UNL     1     113.583  55.006 229.857  1.00  0.00     0.004 C 
ENDBRANCH   7   8
ENDBRANCH   6   7
ENDBRANCH   1   6
TORSDOF 5
ENDMDL
MODEL 7
REMARK VINA RESULT:    -2.858     18.135     18.799
REMARK INTER + INTRA:          -3.876
REMARK INTER:                  -3.696
REMARK INTRA:                  -0.180
REMARK UNBOUND:                -0.183
REMARK SMILES CCCCCCC(=O)[O-]
REMARK SMILES IDX 5 1 6 2 7 3 8 4 9 5 4 6 3 7 2 8 1 9
REMARK H PARENT
REMARK Flexibility Score: inf
ROOT
ATOM      1  C   UNL     1      98.823  64.232 225.231  1.00  0.00     0.006 C 
ENDROOT
BRANCH   1   2
ATOM      2  C   UNL     1      99.939  63.207 225.005  1.00  0.00     0.053 C 
BRANCH   2   3
ATOM      3  C   UNL     1     100.958  63.742 224.049  1.00  0.00     0.041 C 
ATOM      4  O   UNL     1     100.617  64.551 223.147  1.00  0.00    -0.550 OA
ATOM      5  O   UNL     1     102.294  63.387 224.186  1.00  0.00    -0.550 OA
ENDBRANCH   2   3
ENDBRANCH   1   2
BRANCH   1   6
ATOM      6  C   UNL     1      97.442  63.596 225.013  1.00  0.00     0.000 C 
BRANCH   6   7
ATOM      7  C   UNL     1      96.593  64.364 223.986  1.00  0.00    -0.000 C 
BRANCH   7   8
ATOM      8  C   UNL     1      95.509  65.230 224.644  1.00  0.00    -0.003 C 
ATOM      9  C   UNL     1      95.011  64.596 225.939  1.00  0.00     0.004 C 
ENDBRANCH   7   8
ENDBRANCH   6   7
ENDBRANCH   1   6
TORSDOF 5
ENDMDL
MODEL 8
REMARK VINA RESULT:    -2.851      2.719      3.508
REMARK INTER + INTRA:          -3.868
REMARK INTER:                  -3.712
REMARK INTRA:                  -0.156
REMARK UNBOUND:                -0.183
REMARK SMILES CCCCCCC(=O)[O-]
REMARK SMILES IDX 5 1 6 2 7 3 8 4 9 5 4 6 3 7 2 8 1 9
REMARK H PARENT
REMARK Flexibility Score: inf
ROOT
ATOM      1  C   UNL     1     113.512  55.146 230.476  1.00  0.00     0.006 C 
ENDROOT
BRANCH   1   2
ATOM      2  C   UNL     1     112.675  54.032 231.112  1.00  0.00     0.053 C 
BRANCH   2   3
ATOM      3  C   UNL     1     113.302  53.568 232.389  1.00  0.00     0.041 C 
ATOM      4  O   UNL     1     113.439  52.338 232.618  1.00  0.00    -0.550 OA
ATOM      5  O   UNL     1     113.783  54.496 233.305  1.00  0.00    -0.550 OA
ENDBRANCH   2   3
ENDBRANCH   1   2
BRANCH   1   6
ATOM      6  C   UNL     1     113.554  54.996 228.949  1.00  0.00     0.000 C 
BRANCH   6   7
ATOM      7  C   UNL     1     112.954  53.665 228.468  1.00  0.00    -0.000 C 
BRANCH   7   8
ATOM      8  C   UNL     1     113.308  53.350 227.007  1.00  0.00    -0.003 C 
ATOM      9  C   UNL     1     112.079  53.458 226.109  1.00  0.00     0.004 C 
ENDBRANCH   7   8
ENDBRANCH   6   7
ENDBRANCH   1   6
TORSDOF 5
ENDMDL
MODEL 9
REMARK VINA RESULT:    -2.792      6.270      8.375
REMARK INTER + INTRA:          -3.792
REMARK INTER:                  -3.405
REMARK INTRA:                  -0.387
REMARK UNBOUND:                -0.183
REMARK SMILES CCCCCCC(=O)[O-]
REMARK SMILES IDX 5 1 6 2 7 3 8 4 9 5 4 6 3 7 2 8 1 9
REMARK H PARENT
REMARK Flexibility Score: inf
ROOT
ATOM      1  C   UNL     1     105.588  48.395 230.527  1.00  0.00     0.006 C 
ENDROOT
BRANCH   1   2
ATOM      2  C   UNL     1     106.787  49.314 230.779  1.00  0.00     0.053 C 
BRANCH   2   3
ATOM      3  C   UNL     1     107.524  48.890 232.010  1.00  0.00     0.041 C 
ATOM      4  O   UNL     1     108.582  49.482 232.350  1.00  0.00    -0.550 OA
ATOM      5  O   UNL     1     107.015  47.875 232.811  1.00  0.00    -0.550 OA
ENDBRANCH   2   3
ENDBRANCH   1   2
BRANCH   1   6
ATOM      6  C   UNL     1     104.332  49.213 230.192  1.00  0.00     0.000 C 
BRANCH   6   7
ATOM      7  C   UNL     1     103.558  49.650 231.446  1.00  0.00    -0.000 C 
BRANCH   7   8
ATOM      8  C   UNL     1     103.516  48.559 232.526  1.00  0.00    -0.003 C 
ATOM      9  C   UNL     1     103.890  49.124 233.892  1.00  0.00     0.004 C 
ENDBRANCH   7   8
ENDBRANCH   6   7
ENDBRANCH   1   6
TORSDOF 5
ENDMDL
