MODEL 1
REMARK VINA RESULT:    -4.135      0.000      0.000
REMARK INTER + INTRA:          -6.703
REMARK INTER:                  -6.310
REMARK INTRA:                  -0.392
REMARK UNBOUND:                -0.392
REMARK SMILES CC1=CCC[C@H](C)C(=O)C[C@H](C(C)C)C(=O)C1
REMARK SMILES IDX 8 1 9 2 6 3 7 4 5 5 4 6 3 7 2 8 1 9 10 11 11 12 15 13 16 14
REMARK SMILES IDX 17 15 12 17 13 18 14 19
REMARK H PARENT
REMARK Flexibility Score: 70.00
ROOT
ATOM      1  C   UNL     1      19.609 -10.745  68.242  1.00  0.00     0.136 C 
ATOM      2  O   UNL     1      19.653 -10.222  69.346  1.00  0.00    -0.299 OA
ENDROOT
BRANCH   1   3
ATOM      3  C   UNL     1      18.761 -11.993  68.071  1.00  0.00     0.053 C 
ATOM      4  C   UNL     1      19.032 -13.053  69.150  1.00  0.00     0.016 C 
BRANCH   3   5
ATOM      5  C   UNL     1      17.265 -11.660  67.865  1.00  0.00     0.015 C 
BRANCH   5   6
ATOM      6  C   UNL     1      16.975 -10.316  67.172  1.00  0.00     0.028 C 
BRANCH   6   7
ATOM      7  C   UNL     1      16.583 -10.532  65.735  1.00  0.00    -0.028 C 
ATOM      8  C   UNL     1      17.330 -10.154  64.672  1.00  0.00    -0.070 CG0
ATOM      9  C   UNL     1      16.839 -10.521  63.294  1.00  0.00     0.039 C 
ATOM     10  G   UNL     1      18.622  -9.364  64.809  1.00  0.00     0.000 G0
ENDBRANCH   6   7
ENDBRANCH   5   6
ENDBRANCH   3   5
ENDBRANCH   1   3
BRANCH   1  11
ATOM     11  C   UNL     1      20.395 -10.106  67.117  1.00  0.00     0.087 C 
BRANCH  11  12
ATOM     12  C   UNL     1      20.426 -10.994  65.845  1.00  0.00     0.066 C 
BRANCH  12  13
ATOM     13  C   UNL     1      19.847 -10.238  64.654  1.00  0.00     0.140 C 
ATOM     14  O   UNL     1      20.433 -10.290  63.582  1.00  0.00    -0.299 OA
BRANCH  13  15
ATOM     15  C   UNL     1      18.621  -9.361  64.787  1.00  0.00     0.106 CG0
ATOM     16  G   UNL     1      17.320 -10.142  64.678  1.00  0.00     0.000 G0
ENDBRANCH  13  15
ENDBRANCH  12  13
BRANCH  12  17
ATOM     17  C   UNL     1      21.846 -11.568  65.522  1.00  0.00    -0.006 C 
ATOM     18  C   UNL     1      21.942 -13.053  65.920  1.00  0.00     0.008 C 
ATOM     19  C   UNL     1      22.973 -10.795  66.232  1.00  0.00     0.008 C 
ENDBRANCH  12  17
ENDBRANCH  11  12
ENDBRANCH   1  11
TORSDOF 1
ENDMDL
MODEL 2
REMARK VINA RESULT:    -4.052     16.944     18.365
REMARK INTER + INTRA:          -6.576
REMARK INTER:                  -6.030
REMARK INTRA:                  -0.546
REMARK UNBOUND:                -0.392
REMARK SMILES CC1=CCC[C@H](C)C(=O)C[C@H](C(C)C)C(=O)C1
REMARK SMILES IDX 8 1 9 2 6 3 7 4 5 5 4 6 3 7 2 8 1 9 10 11 11 12 15 13 16 14
REMARK SMILES IDX 17 15 12 17 13 18 14 19
REMARK H PARENT
REMARK Flexibility Score: 70.00
ROOT
ATOM      1  C   UNL     1       8.559   3.073  63.536  1.00  0.00     0.136 C 
ATOM      2  O   UNL     1       9.726   3.383  63.725  1.00  0.00    -0.299 OA
ENDROOT
BRANCH   1   3
ATOM      3  C   UNL     1       7.804   3.763  62.413  1.00  0.00     0.053 C 
ATOM      4  C   UNL     1       7.583   5.260  62.674  1.00  0.00     0.016 C 
BRANCH   3   5
ATOM      5  C   UNL     1       8.398   3.438  61.023  1.00  0.00     0.015 C 
BRANCH   5   6
ATOM      6  C   UNL     1       8.437   1.943  60.652  1.00  0.00     0.028 C 
BRANCH   6   7
ATOM      7  C   UNL     1       7.058   1.443  60.313  1.00  0.00    -0.028 C 
ATOM      8  C   UNL     1       6.359   0.559  61.061  1.00  0.00    -0.070 CG0
ATOM      9  C   UNL     1       4.953   0.223  60.632  1.00  0.00     0.039 C 
ATOM     10  G   UNL     1       6.936  -0.120  62.294  1.00  0.00     0.000 G0
ENDBRANCH   6   7
ENDBRANCH   5   6
ENDBRANCH   3   5
ENDBRANCH   1   3
BRANCH   1  11
ATOM     11  C   UNL     1       7.948   2.012  64.428  1.00  0.00     0.087 C 
BRANCH  11  12
ATOM     12  C   UNL     1       6.451   1.765  64.104  1.00  0.00     0.066 C 
BRANCH  12  13
ATOM     13  C   UNL     1       6.246   0.343  63.593  1.00  0.00     0.140 C 
ATOM     14  O   UNL     1       5.593  -0.438  64.271  1.00  0.00    -0.299 OA
BRANCH  13  15
ATOM     15  C   UNL     1       6.897  -0.148  62.319  1.00  0.00     0.106 CG0
ATOM     16  G   UNL     1       6.381   0.564  61.078  1.00  0.00     0.000 G0
ENDBRANCH  13  15
ENDBRANCH  12  13
BRANCH  12  17
ATOM     17  C   UNL     1       5.494   2.086  65.300  1.00  0.00    -0.006 C 
ATOM     18  C   UNL     1       4.883   3.493  65.153  1.00  0.00     0.008 C 
ATOM     19  C   UNL     1       6.202   1.998  66.665  1.00  0.00     0.008 C 
ENDBRANCH  12  17
ENDBRANCH  11  12
ENDBRANCH   1  11
TORSDOF 1
ENDMDL
MODEL 3
REMARK VINA RESULT:    -3.938      3.042      5.619
REMARK INTER + INTRA:          -6.403
REMARK INTER:                  -6.425
REMARK INTRA:                   0.023
REMARK UNBOUND:                -0.392
REMARK SMILES CC1=CCC[C@H](C)C(=O)C[C@H](C(C)C)C(=O)C1
REMARK SMILES IDX 8 1 9 2 6 3 7 4 5 5 4 6 3 7 2 8 1 9 10 11 11 12 15 13 16 14
REMARK SMILES IDX 17 15 12 17 13 18 14 19
REMARK H PARENT
REMARK Flexibility Score: 70.00
ROOT
ATOM      1  C   UNL     1      17.552  -9.607  64.262  1.00  0.00     0.136 C 
ATOM      2  O   UNL     1      18.258  -9.589  63.264  1.00  0.00    -0.299 OA
ENDROOT
BRANCH   1   3
ATOM      3  C   UNL     1      18.078 -10.307  65.503  1.00  0.00     0.053 C 
ATOM      4  C   UNL     1      17.104 -10.235  66.688  1.00  0.00     0.016 C 
BRANCH   3   5
ATOM      5  C   UNL     1      18.604 -11.728  65.194  1.00  0.00     0.015 C 
BRANCH   5   6
ATOM      6  C   UNL     1      17.608 -12.874  65.454  1.00  0.00     0.028 C 
BRANCH   6   7
ATOM      7  C   UNL     1      16.889 -13.252  64.186  1.00  0.00    -0.028 C 
ATOM      8  C   UNL     1      15.703 -12.732  63.795  1.00  0.00    -0.070 CG0
ATOM      9  C   UNL     1      15.153 -13.149  62.454  1.00  0.00     0.039 C 
ATOM     10  G   UNL     1      14.898 -11.768  64.655  1.00  0.00     0.000 G0
ENDBRANCH   6   7
ENDBRANCH   5   6
ENDBRANCH   3   5
ENDBRANCH   1   3
BRANCH   1  11
ATOM     11  C   UNL     1      16.204  -8.920  64.196  1.00  0.00     0.087 C 
BRANCH  11  12
ATOM     12  C   UNL     1      15.252  -9.594  63.173  1.00  0.00     0.066 C 
BRANCH  12  13
ATOM     13  C   UNL     1      14.329 -10.584  63.878  1.00  0.00     0.140 C 
ATOM     14  O   UNL     1      13.125 -10.374  63.871  1.00  0.00    -0.299 OA
BRANCH  13  15
ATOM     15  C   UNL     1      14.871 -11.765  64.653  1.00  0.00     0.106 CG0
ATOM     16  G   UNL     1      15.718 -12.696  63.798  1.00  0.00     0.000 G0
ENDBRANCH  13  15
ENDBRANCH  12  13
BRANCH  12  17
ATOM     17  C   UNL     1      14.440  -8.571  62.311  1.00  0.00    -0.006 C 
ATOM     18  C   UNL     1      14.854  -8.650  60.829  1.00  0.00     0.008 C 
ATOM     19  C   UNL     1      14.615  -7.119  62.793  1.00  0.00     0.008 C 
ENDBRANCH  12  17
ENDBRANCH  11  12
ENDBRANCH   1  11
TORSDOF 1
ENDMDL
MODEL 4
REMARK VINA RESULT:    -3.869      4.613      7.130
REMARK INTER + INTRA:          -6.296
REMARK INTER:                  -5.782
REMARK INTRA:                  -0.515
REMARK UNBOUND:                -0.392
REMARK SMILES CC1=CCC[C@H](C)C(=O)C[C@H](C(C)C)C(=O)C1
REMARK SMILES IDX 8 1 9 2 6 3 7 4 5 5 4 6 3 7 2 8 1 9 10 11 11 12 15 13 16 14
REMARK SMILES IDX 17 15 12 17 13 18 14 19
REMARK H PARENT
REMARK Flexibility Score: 70.00
ROOT
ATOM      1  C   UNL     1      12.771 -11.033  62.512  1.00  0.00     0.136 C 
ATOM      2  O   UNL     1      11.752 -11.412  63.071  1.00  0.00    -0.299 OA
ENDROOT
BRANCH   1   3
ATOM      3  C   UNL     1      12.763 -10.924  60.998  1.00  0.00     0.053 C 
ATOM      4  C   UNL     1      12.417 -12.250  60.304  1.00  0.00     0.016 C 
BRANCH   3   5
ATOM      5  C   UNL     1      11.940  -9.711  60.504  1.00  0.00     0.015 C 
BRANCH   5   6
ATOM      6  C   UNL     1      12.300  -8.359  61.149  1.00  0.00     0.028 C 
BRANCH   6   7
ATOM      7  C   UNL     1      13.484  -7.738  60.458  1.00  0.00    -0.028 C 
ATOM      8  C   UNL     1      14.710  -7.601  61.014  1.00  0.00    -0.070 CG0
ATOM      9  C   UNL     1      15.817  -7.036  60.160  1.00  0.00     0.039 C 
ATOM     10  G   UNL     1      15.008  -7.970  62.459  1.00  0.00     0.000 G0
ENDBRANCH   6   7
ENDBRANCH   5   6
ENDBRANCH   3   5
ENDBRANCH   1   3
BRANCH   1  11
ATOM     11  C   UNL     1      13.970 -10.688  63.371  1.00  0.00     0.087 C 
BRANCH  11  12
ATOM     12  C   UNL     1      15.280 -10.606  62.543  1.00  0.00     0.066 C 
BRANCH  12  13
ATOM     13  C   UNL     1      15.873  -9.203  62.626  1.00  0.00     0.140 C 
ATOM     14  O   UNL     1      17.061  -9.081  62.889  1.00  0.00    -0.299 OA
BRANCH  13  15
ATOM     15  C   UNL     1      15.017  -7.965  62.475  1.00  0.00     0.106 CG0
ATOM     16  G   UNL     1      14.723  -7.621  61.022  1.00  0.00     0.000 G0
ENDBRANCH  13  15
ENDBRANCH  12  13
BRANCH  12  17
ATOM     17  C   UNL     1      16.332 -11.695  62.934  1.00  0.00    -0.006 C 
ATOM     18  C   UNL     1      16.123 -12.982  62.113  1.00  0.00     0.008 C 
ATOM     19  C   UNL     1      16.284 -12.056  64.431  1.00  0.00     0.008 C 
ENDBRANCH  12  17
ENDBRANCH  11  12
ENDBRANCH   1  11
TORSDOF 1
ENDMDL
MODEL 5
REMARK VINA RESULT:    -3.799      2.187      5.091
REMARK INTER + INTRA:          -6.190
REMARK INTER:                  -6.242
REMARK INTRA:                   0.051
REMARK UNBOUND:                -0.392
REMARK SMILES CC1=CCC[C@H](C)C(=O)C[C@H](C(C)C)C(=O)C1
REMARK SMILES IDX 8 1 9 2 6 3 7 4 5 5 4 6 3 7 2 8 1 9 10 11 11 12 15 13 16 14
REMARK SMILES IDX 17 15 12 17 13 18 14 19
REMARK H PARENT
REMARK Flexibility Score: 70.00
ROOT
ATOM      1  C   UNL     1      19.179 -10.089  64.462  1.00  0.00     0.136 C 
ATOM      2  O   UNL     1      19.542 -10.167  63.297  1.00  0.00    -0.299 OA
ENDROOT
BRANCH   1   3
ATOM      3  C   UNL     1      20.198  -9.667  65.506  1.00  0.00     0.053 C 
ATOM      4  C   UNL     1      19.557  -9.289  66.849  1.00  0.00     0.016 C 
BRANCH   3   5
ATOM      5  C   UNL     1      21.370 -10.669  65.617  1.00  0.00     0.015 C 
BRANCH   5   6
ATOM      6  C   UNL     1      20.970 -12.126  65.919  1.00  0.00     0.028 C 
BRANCH   6   7
ATOM      7  C   UNL     1      20.670 -12.302  67.384  1.00  0.00    -0.028 C 
ATOM      8  C   UNL     1      19.560 -12.902  67.872  1.00  0.00    -0.070 CG0
ATOM      9  C   UNL     1      19.447 -13.079  69.365  1.00  0.00     0.039 C 
ATOM     10  G   UNL     1      18.421 -13.380  66.984  1.00  0.00     0.000 G0
ENDBRANCH   6   7
ENDBRANCH   5   6
ENDBRANCH   3   5
ENDBRANCH   1   3
BRANCH   1  11
ATOM     11  C   UNL     1      17.734 -10.407  64.783  1.00  0.00     0.087 C 
BRANCH  11  12
ATOM     12  C   UNL     1      17.498 -11.929  64.977  1.00  0.00     0.066 C 
BRANCH  12  13
ATOM     13  C   UNL     1      17.528 -12.286  66.459  1.00  0.00     0.140 C 
ATOM     14  O   UNL     1      16.870 -11.614  67.240  1.00  0.00    -0.299 OA
BRANCH  13  15
ATOM     15  C   UNL     1      18.412 -13.392  66.995  1.00  0.00     0.106 CG0
ATOM     16  G   UNL     1      19.555 -12.872  67.853  1.00  0.00     0.000 G0
ENDBRANCH  13  15
ENDBRANCH  12  13
BRANCH  12  17
ATOM     17  C   UNL     1      16.191 -12.448  64.290  1.00  0.00    -0.006 C 
ATOM     18  C   UNL     1      16.486 -12.965  62.869  1.00  0.00     0.008 C 
ATOM     19  C   UNL     1      15.098 -11.367  64.202  1.00  0.00     0.008 C 
ENDBRANCH  12  17
ENDBRANCH  11  12
ENDBRANCH   1  11
TORSDOF 1
ENDMDL
MODEL 6
REMARK VINA RESULT:    -3.758      1.862      4.807
REMARK INTER + INTRA:          -6.127
REMARK INTER:                  -6.344
REMARK INTRA:                   0.216
REMARK UNBOUND:                -0.392
REMARK SMILES CC1=CCC[C@H](C)C(=O)C[C@H](C(C)C)C(=O)C1
REMARK SMILES IDX 8 1 9 2 6 3 7 4 5 5 4 6 3 7 2 8 1 9 10 11 11 12 15 13 16 14
REMARK SMILES IDX 17 15 12 17 13 18 14 19
REMARK H PARENT
REMARK Flexibility Score: 70.00
ROOT
ATOM      1  C   UNL     1      20.529 -10.134  64.256  1.00  0.00     0.136 C 
ATOM      2  O   UNL     1      20.480  -9.936  63.051  1.00  0.00    -0.299 OA
ENDROOT
BRANCH   1   3
ATOM      3  C   UNL     1      21.650 -11.005  64.796  1.00  0.00     0.053 C 
ATOM      4  C   UNL     1      22.894 -11.005  63.895  1.00  0.00     0.016 C 
BRANCH   3   5
ATOM      5  C   UNL     1      21.942 -10.724  66.288  1.00  0.00     0.015 C 
BRANCH   5   6
ATOM      6  C   UNL     1      21.709 -11.910  67.244  1.00  0.00     0.028 C 
BRANCH   6   7
ATOM      7  C   UNL     1      20.789 -12.924  66.619  1.00  0.00    -0.028 C 
ATOM      8  C   UNL     1      19.446 -12.944  66.783  1.00  0.00    -0.070 CG0
ATOM      9  C   UNL     1      18.654 -13.974  66.019  1.00  0.00     0.039 C 
ATOM     10  G   UNL     1      18.713 -11.991  67.715  1.00  0.00     0.000 G0
ENDBRANCH   6   7
ENDBRANCH   5   6
ENDBRANCH   3   5
ENDBRANCH   1   3
BRANCH   1  11
ATOM     11  C   UNL     1      19.474  -9.489  65.130  1.00  0.00     0.087 C 
BRANCH  11  12
ATOM     12  C   UNL     1      18.361 -10.489  65.541  1.00  0.00     0.066 C 
BRANCH  12  13
ATOM     13  C   UNL     1      18.343 -10.671  67.056  1.00  0.00     0.140 C 
ATOM     14  O   UNL     1      18.102  -9.702  67.762  1.00  0.00    -0.299 OA
BRANCH  13  15
ATOM     15  C   UNL     1      18.696 -11.991  67.704  1.00  0.00     0.106 CG0
ATOM     16  G   UNL     1      19.432 -12.935  66.764  1.00  0.00     0.000 G0
ENDBRANCH  13  15
ENDBRANCH  12  13
BRANCH  12  17
ATOM     17  C   UNL     1      16.946 -10.103  64.995  1.00  0.00    -0.006 C 
ATOM     18  C   UNL     1      15.880 -11.106  65.477  1.00  0.00     0.008 C 
ATOM     19  C   UNL     1      16.901 -10.040  63.458  1.00  0.00     0.008 C 
ENDBRANCH  12  17
ENDBRANCH  11  12
ENDBRANCH   1  11
TORSDOF 1
ENDMDL
MODEL 7
REMARK VINA RESULT:    -3.658     16.554     18.245
REMARK INTER + INTRA:          -5.975
REMARK INTER:                  -5.490
REMARK INTRA:                  -0.485
REMARK UNBOUND:                -0.392
REMARK SMILES CC1=CCC[C@H](C)C(=O)C[C@H](C(C)C)C(=O)C1
REMARK SMILES IDX 8 1 9 2 6 3 7 4 5 5 4 6 3 7 2 8 1 9 10 11 11 12 15 13 16 14
REMARK SMILES IDX 17 15 12 17 13 18 14 19
REMARK H PARENT
REMARK Flexibility Score: 70.00
ROOT
ATOM      1  C   UNL     1       8.855   1.254  63.176  1.00  0.00     0.136 C 
ATOM      2  O   UNL     1      10.026   0.912  63.248  1.00  0.00    -0.299 OA
ENDROOT
BRANCH   1   3
ATOM      3  C   UNL     1       8.423   2.501  63.928  1.00  0.00     0.053 C 
ATOM      4  C   UNL     1       8.686   2.409  65.438  1.00  0.00     0.016 C 
BRANCH   3   5
ATOM      5  C   UNL     1       8.950   3.795  63.266  1.00  0.00     0.015 C 
BRANCH   5   6
ATOM      6  C   UNL     1       7.974   4.487  62.294  1.00  0.00     0.028 C 
BRANCH   6   7
ATOM      7  C   UNL     1       8.247   4.063  60.876  1.00  0.00    -0.028 C 
ATOM      8  C   UNL     1       7.374   3.381  60.098  1.00  0.00    -0.070 CG0
ATOM      9  C   UNL     1       7.763   3.107  58.668  1.00  0.00     0.039 C 
ATOM     10  G   UNL     1       6.038   2.866  60.612  1.00  0.00     0.000 G0
ENDBRANCH   6   7
ENDBRANCH   5   6
ENDBRANCH   3   5
ENDBRANCH   1   3
BRANCH   1  11
ATOM     11  C   UNL     1       7.916   0.417  62.332  1.00  0.00     0.087 C 
BRANCH  11  12
ATOM     12  C   UNL     1       6.459   0.949  62.374  1.00  0.00     0.066 C 
BRANCH  12  13
ATOM     13  C   UNL     1       6.023   1.414  60.989  1.00  0.00     0.140 C 
ATOM     14  O   UNL     1       5.737   0.574  60.148  1.00  0.00    -0.299 OA
BRANCH  13  15
ATOM     15  C   UNL     1       6.018   2.878  60.604  1.00  0.00     0.106 CG0
ATOM     16  G   UNL     1       7.375   3.368  60.121  1.00  0.00     0.000 G0
ENDBRANCH  13  15
ENDBRANCH  12  13
BRANCH  12  17
ATOM     17  C   UNL     1       5.441  -0.074  62.979  1.00  0.00    -0.006 C 
ATOM     18  C   UNL     1       5.021   0.345  64.402  1.00  0.00     0.008 C 
ATOM     19  C   UNL     1       6.002  -1.506  63.035  1.00  0.00     0.008 C 
ENDBRANCH  12  17
ENDBRANCH  11  12
ENDBRANCH   1  11
TORSDOF 1
ENDMDL
MODEL 8
REMARK VINA RESULT:    -3.634      1.856      3.682
REMARK INTER + INTRA:          -5.938
REMARK INTER:                  -6.036
REMARK INTRA:                   0.098
REMARK UNBOUND:                -0.392
REMARK SMILES CC1=CCC[C@H](C)C(=O)C[C@H](C(C)C)C(=O)C1
REMARK SMILES IDX 8 1 9 2 6 3 7 4 5 5 4 6 3 7 2 8 1 9 10 11 11 12 15 13 16 14
REMARK SMILES IDX 17 15 12 17 13 18 14 19
REMARK H PARENT
REMARK Flexibility Score: 70.00
ROOT
ATOM      1  C   UNL     1      20.736 -10.572  65.658  1.00  0.00     0.136 C 
ATOM      2  O   UNL     1      21.377 -10.036  66.550  1.00  0.00    -0.299 OA
ENDROOT
BRANCH   1   3
ATOM      3  C   UNL     1      20.580  -9.832  64.341  1.00  0.00     0.053 C 
ATOM      4  C   UNL     1      21.807  -9.973  63.428  1.00  0.00     0.016 C 
BRANCH   3   5
ATOM      5  C   UNL     1      19.232 -10.143  63.651  1.00  0.00     0.015 C 
BRANCH   5   6
ATOM      6  C   UNL     1      17.999  -9.454  64.265  1.00  0.00     0.028 C 
BRANCH   6   7
ATOM      7  C   UNL     1      16.774 -10.315  64.105  1.00  0.00    -0.028 C 
ATOM      8  C   UNL     1      16.188 -11.008  65.109  1.00  0.00    -0.070 CG0
ATOM      9  C   UNL     1      14.915 -11.755  64.806  1.00  0.00     0.039 C 
ATOM     10  G   UNL     1      16.771 -11.080  66.513  1.00  0.00     0.000 G0
ENDBRANCH   6   7
ENDBRANCH   5   6
ENDBRANCH   3   5
ENDBRANCH   1   3
BRANCH   1  11
ATOM     11  C   UNL     1      20.149 -11.943  65.923  1.00  0.00     0.087 C 
BRANCH  11  12
ATOM     12  C   UNL     1      19.199 -11.946  67.151  1.00  0.00     0.066 C 
BRANCH  12  13
ATOM     13  C   UNL     1      17.762 -12.202  66.710  1.00  0.00     0.140 C 
ATOM     14  O   UNL     1      17.425 -13.344  66.432  1.00  0.00    -0.299 OA
BRANCH  13  15
ATOM     15  C   UNL     1      16.771 -11.072  66.527  1.00  0.00     0.106 CG0
ATOM     16  G   UNL     1      16.200 -11.008  65.118  1.00  0.00     0.000 G0
ENDBRANCH  13  15
ENDBRANCH  12  13
BRANCH  12  17
ATOM     17  C   UNL     1      19.638 -12.943  68.274  1.00  0.00    -0.006 C 
ATOM     18  C   UNL     1      18.626 -12.942  69.435  1.00  0.00     0.008 C 
ATOM     19  C   UNL     1      21.034 -12.623  68.839  1.00  0.00     0.008 C 
ENDBRANCH  12  17
ENDBRANCH  11  12
ENDBRANCH   1  11
TORSDOF 1
ENDMDL
MODEL 9
REMARK VINA RESULT:    -3.554     16.075     18.191
REMARK INTER + INTRA:          -5.815
REMARK INTER:                  -5.588
REMARK INTRA:                  -0.227
REMARK UNBOUND:                -0.392
REMARK SMILES CC1=CCC[C@H](C)C(=O)C[C@H](C(C)C)C(=O)C1
REMARK SMILES IDX 8 1 9 2 6 3 7 4 5 5 4 6 3 7 2 8 1 9 10 11 11 12 15 13 16 14
REMARK SMILES IDX 17 15 12 17 13 18 14 19
REMARK H PARENT
REMARK Flexibility Score: 70.00
ROOT
ATOM      1  C   UNL     1       7.562   4.077  62.282  1.00  0.00     0.136 C 
ATOM      2  O   UNL     1       6.986   4.688  63.171  1.00  0.00    -0.299 OA
ENDROOT
BRANCH   1   3
ATOM      3  C   UNL     1       9.072   3.942  62.366  1.00  0.00     0.053 C 
ATOM      4  C   UNL     1       9.806   5.265  62.100  1.00  0.00     0.016 C 
BRANCH   3   5
ATOM      5  C   UNL     1       9.524   3.208  63.650  1.00  0.00     0.015 C 
BRANCH   5   6
ATOM      6  C   UNL     1       8.521   2.185  64.215  1.00  0.00     0.028 C 
BRANCH   6   7
ATOM      7  C   UNL     1       8.851   0.796  63.737  1.00  0.00    -0.028 C 
ATOM      8  C   UNL     1       8.073   0.067  62.904  1.00  0.00    -0.070 CG0
ATOM      9  C   UNL     1       8.585  -1.275  62.448  1.00  0.00     0.039 C 
ATOM     10  G   UNL     1       6.705   0.535  62.431  1.00  0.00     0.000 G0
ENDBRANCH   6   7
ENDBRANCH   5   6
ENDBRANCH   3   5
ENDBRANCH   1   3
BRANCH   1  11
ATOM     11  C   UNL     1       6.729   3.488  61.164  1.00  0.00     0.087 C 
BRANCH  11  12
ATOM     12  C   UNL     1       7.400   2.242  60.527  1.00  0.00     0.066 C 
BRANCH  12  13
ATOM     13  C   UNL     1       6.692   0.968  60.977  1.00  0.00     0.140 C 
ATOM     14  O   UNL     1       6.047   0.331  60.157  1.00  0.00    -0.299 OA
BRANCH  13  15
ATOM     15  C   UNL     1       6.696   0.522  62.423  1.00  0.00     0.106 CG0
ATOM     16  G   UNL     1       8.069   0.072  62.900  1.00  0.00     0.000 G0
ENDBRANCH  13  15
ENDBRANCH  12  13
BRANCH  12  17
ATOM     17  C   UNL     1       7.500   2.319  58.968  1.00  0.00    -0.006 C 
ATOM     18  C   UNL     1       8.972   2.372  58.514  1.00  0.00     0.008 C 
ATOM     19  C   UNL     1       6.763   3.538  58.385  1.00  0.00     0.008 C 
ENDBRANCH  12  17
ENDBRANCH  11  12
ENDBRANCH   1  11
TORSDOF 1
ENDMDL
