MODEL 1
REMARK VINA RESULT:    -5.022      0.000      0.000
REMARK INTER + INTRA:          -8.260
REMARK INTER:                  -7.077
REMARK INTRA:                  -1.183
REMARK UNBOUND:                -1.183
REMARK SMILES C=CC(=C)CCC=C(C)CCC=C(C)C
REMARK SMILES IDX 8 1 7 2 9 3 10 4 11 5 12 6 14 7 13 8 15 9 6 10 5 11 3 12
REMARK SMILES IDX 4 13 2 14 1 15
REMARK H PARENT
REMARK Flexibility Score: inf
ROOT
ATOM      1  C   UNL     1      28.647  25.248  11.778  1.00  0.00    -0.077 C 
ATOM      2  C   UNL     1      27.973  26.408  11.944  1.00  0.00    -0.028 C 
ATOM      3  C   UNL     1      29.845  25.140  10.863  1.00  0.00     0.039 C 
ENDROOT
BRANCH   1   4
ATOM      4  C   UNL     1      28.148  24.003  12.476  1.00  0.00     0.034 C 
BRANCH   4   5
ATOM      5  C   UNL     1      29.085  23.623  13.628  1.00  0.00     0.032 C 
BRANCH   5   6
ATOM      6  C   UNL     1      29.641  22.234  13.434  1.00  0.00    -0.028 C 
ATOM      7  C   UNL     1      31.971  22.904  14.067  1.00  0.00     0.039 C 
ATOM      8  C   UNL     1      30.936  21.895  13.634  1.00  0.00    -0.080 C 
ATOM      9  C   UNL     1      31.369  20.464  13.454  1.00  0.00     0.039 C 
ENDBRANCH   5   6
ENDBRANCH   4   5
ENDBRANCH   1   4
BRANCH   2  10
ATOM     10  C   UNL     1      28.361  27.719  11.306  1.00  0.00     0.032 C 
BRANCH  10  11
ATOM     11  C   UNL     1      29.130  28.603  12.293  1.00  0.00     0.039 C 
BRANCH  11  12
ATOM     12  C   UNL     1      30.455  29.034  11.702  1.00  0.00    -0.055 C 
ATOM     13  C   UNL     1      30.525  30.202  11.052  1.00  0.00     0.012 C 
BRANCH  12  14
ATOM     14  C   UNL     1      31.699  28.239  11.875  1.00  0.00    -0.005 C 
ATOM     15  C   UNL     1      31.924  27.422  12.906  1.00  0.00     0.009 C 
ENDBRANCH  12  14
ENDBRANCH  11  12
ENDBRANCH  10  11
ENDBRANCH   2  10
TORSDOF 7
ENDMDL
MODEL 2
REMARK VINA RESULT:    -4.849      1.228      5.705
REMARK INTER + INTRA:          -8.017
REMARK INTER:                  -6.579
REMARK INTRA:                  -1.438
REMARK UNBOUND:                -1.183
REMARK SMILES C=CC(=C)CCC=C(C)CCC=C(C)C
REMARK SMILES IDX 8 1 7 2 9 3 10 4 11 5 12 6 14 7 13 8 15 9 6 10 5 11 3 12
REMARK SMILES IDX 4 13 2 14 1 15
REMARK H PARENT
REMARK Flexibility Score: inf
ROOT
ATOM      1  C   UNL     1      28.645  26.039  11.575  1.00  0.00    -0.077 C 
ATOM      2  C   UNL     1      29.724  25.616  10.878  1.00  0.00    -0.028 C 
ATOM      3  C   UNL     1      27.697  25.074  12.248  1.00  0.00     0.039 C 
ENDROOT
BRANCH   1   4
ATOM      4  C   UNL     1      28.339  27.518  11.629  1.00  0.00     0.034 C 
BRANCH   4   5
ATOM      5  C   UNL     1      29.405  28.257  12.447  1.00  0.00     0.032 C 
BRANCH   5   6
ATOM      6  C   UNL     1      29.935  29.448  11.689  1.00  0.00    -0.028 C 
ATOM      7  C   UNL     1      32.112  28.335  11.142  1.00  0.00     0.039 C 
ATOM      8  C   UNL     1      31.148  29.495  11.092  1.00  0.00    -0.080 C 
ATOM      9  C   UNL     1      31.554  30.724  10.321  1.00  0.00     0.039 C 
ENDBRANCH   5   6
ENDBRANCH   4   5
ENDBRANCH   1   4
BRANCH   2  10
ATOM     10  C   UNL     1      30.141  24.173  10.743  1.00  0.00     0.032 C 
BRANCH  10  11
ATOM     11  C   UNL     1      31.495  23.928  11.416  1.00  0.00     0.039 C 
BRANCH  11  12
ATOM     12  C   UNL     1      31.388  24.114  12.914  1.00  0.00    -0.055 C 
ATOM     13  C   UNL     1      32.058  25.119  13.491  1.00  0.00     0.012 C 
BRANCH  12  14
ATOM     14  C   UNL     1      30.512  23.262  13.759  1.00  0.00    -0.005 C 
ATOM     15  C   UNL     1      30.263  21.974  13.514  1.00  0.00     0.009 C 
ENDBRANCH  12  14
ENDBRANCH  11  12
ENDBRANCH  10  11
ENDBRANCH   2  10
TORSDOF 7
ENDMDL
MODEL 3
REMARK VINA RESULT:    -4.688      1.443      6.219
REMARK INTER + INTRA:          -7.790
REMARK INTER:                  -6.329
REMARK INTRA:                  -1.461
REMARK UNBOUND:                -1.183
REMARK SMILES C=CC(=C)CCC=C(C)CCC=C(C)C
REMARK SMILES IDX 8 1 7 2 9 3 10 4 11 5 12 6 14 7 13 8 15 9 6 10 5 11 3 12
REMARK SMILES IDX 4 13 2 14 1 15
REMARK H PARENT
REMARK Flexibility Score: inf
ROOT
ATOM      1  C   UNL     1      31.678  24.797  11.180  1.00  0.00    -0.077 C 
ATOM      2  C   UNL     1      32.018  24.938  12.481  1.00  0.00    -0.028 C 
ATOM      3  C   UNL     1      31.425  23.442  10.560  1.00  0.00     0.039 C 
ENDROOT
BRANCH   1   4
ATOM      4  C   UNL     1      31.614  26.024  10.300  1.00  0.00     0.034 C 
BRANCH   4   5
ATOM      5  C   UNL     1      30.264  26.731  10.466  1.00  0.00     0.032 C 
BRANCH   5   6
ATOM      6  C   UNL     1      30.417  28.224  10.312  1.00  0.00    -0.028 C 
ATOM      7  C   UNL     1      29.558  28.711  12.615  1.00  0.00     0.039 C 
ATOM      8  C   UNL     1      30.108  29.126  11.272  1.00  0.00    -0.080 C 
ATOM      9  C   UNL     1      30.346  30.593  11.023  1.00  0.00     0.039 C 
ENDBRANCH   5   6
ENDBRANCH   4   5
ENDBRANCH   1   4
BRANCH   2  10
ATOM     10  C   UNL     1      32.121  23.800  13.465  1.00  0.00     0.032 C 
BRANCH  10  11
ATOM     11  C   UNL     1      30.862  23.710  14.333  1.00  0.00     0.039 C 
BRANCH  11  12
ATOM     12  C   UNL     1      29.833  22.804  13.689  1.00  0.00    -0.055 C 
ATOM     13  C   UNL     1      30.078  21.490  13.623  1.00  0.00     0.012 C 
BRANCH  12  14
ATOM     14  C   UNL     1      28.530  23.313  13.187  1.00  0.00    -0.005 C 
ATOM     15  C   UNL     1      28.342  24.549  12.720  1.00  0.00     0.009 C 
ENDBRANCH  12  14
ENDBRANCH  11  12
ENDBRANCH  10  11
ENDBRANCH   2  10
TORSDOF 7
ENDMDL
MODEL 4
REMARK VINA RESULT:    -4.664      1.119      2.454
REMARK INTER + INTRA:          -7.755
REMARK INTER:                  -6.585
REMARK INTRA:                  -1.170
REMARK UNBOUND:                -1.183
REMARK SMILES C=CC(=C)CCC=C(C)CCC=C(C)C
REMARK SMILES IDX 8 1 7 2 9 3 10 4 11 5 12 6 14 7 13 8 15 9 6 10 5 11 3 12
REMARK SMILES IDX 4 13 2 14 1 15
REMARK H PARENT
REMARK Flexibility Score: inf
ROOT
ATOM      1  C   UNL     1      28.988  24.187  12.464  1.00  0.00    -0.077 C 
ATOM      2  C   UNL     1      30.091  24.563  11.778  1.00  0.00    -0.028 C 
ATOM      3  C   UNL     1      27.652  24.866  12.269  1.00  0.00     0.039 C 
ENDROOT
BRANCH   1   4
ATOM      4  C   UNL     1      29.107  23.100  13.508  1.00  0.00     0.034 C 
BRANCH   4   5
ATOM      5  C   UNL     1      30.578  22.729  13.730  1.00  0.00     0.032 C 
BRANCH   5   6
ATOM      6  C   UNL     1      30.752  21.232  13.794  1.00  0.00    -0.028 C 
ATOM      7  C   UNL     1      31.959  21.117  11.601  1.00  0.00     0.039 C 
ATOM      8  C   UNL     1      31.376  20.495  12.846  1.00  0.00    -0.080 C 
ATOM      9  C   UNL     1      31.532  19.009  13.039  1.00  0.00     0.039 C 
ENDBRANCH   5   6
ENDBRANCH   4   5
ENDBRANCH   1   4
BRANCH   2  10
ATOM     10  C   UNL     1      30.111  25.632  10.714  1.00  0.00     0.032 C 
BRANCH  10  11
ATOM     11  C   UNL     1      31.282  26.596  10.927  1.00  0.00     0.039 C 
BRANCH  11  12
ATOM     12  C   UNL     1      31.150  27.312  12.254  1.00  0.00    -0.055 C 
ATOM     13  C   UNL     1      32.072  27.100  13.200  1.00  0.00     0.012 C 
BRANCH  12  14
ATOM     14  C   UNL     1      30.067  28.296  12.520  1.00  0.00    -0.005 C 
ATOM     15  C   UNL     1      29.822  29.360  11.754  1.00  0.00     0.009 C 
ENDBRANCH  12  14
ENDBRANCH  11  12
ENDBRANCH  10  11
ENDBRANCH   2  10
TORSDOF 7
ENDMDL
MODEL 5
REMARK VINA RESULT:    -4.610      1.236      6.458
REMARK INTER + INTRA:          -7.680
REMARK INTER:                  -6.433
REMARK INTRA:                  -1.247
REMARK UNBOUND:                -1.183
REMARK SMILES C=CC(=C)CCC=C(C)CCC=C(C)C
REMARK SMILES IDX 8 1 7 2 9 3 10 4 11 5 12 6 14 7 13 8 15 9 6 10 5 11 3 12
REMARK SMILES IDX 4 13 2 14 1 15
REMARK H PARENT
REMARK Flexibility Score: inf
ROOT
ATOM      1  C   UNL     1      29.402  23.877  12.511  1.00  0.00    -0.077 C 
ATOM      2  C   UNL     1      30.680  23.601  12.857  1.00  0.00    -0.028 C 
ATOM      3  C   UNL     1      28.238  23.552  13.418  1.00  0.00     0.039 C 
ENDROOT
BRANCH   1   4
ATOM      4  C   UNL     1      29.121  24.469  11.148  1.00  0.00     0.034 C 
BRANCH   4   5
ATOM      5  C   UNL     1      30.138  25.568  10.822  1.00  0.00     0.032 C 
BRANCH   5   6
ATOM      6  C   UNL     1      29.628  26.919  11.259  1.00  0.00    -0.028 C 
ATOM      7  C   UNL     1      31.503  27.278  12.883  1.00  0.00     0.039 C 
ATOM      8  C   UNL     1      30.236  27.702  12.181  1.00  0.00    -0.080 C 
ATOM      9  C   UNL     1      29.661  29.055  12.506  1.00  0.00     0.039 C 
ENDBRANCH   5   6
ENDBRANCH   4   5
ENDBRANCH   1   4
BRANCH   2  10
ATOM     10  C   UNL     1      31.097  23.011  14.180  1.00  0.00     0.032 C 
BRANCH  10  11
ATOM     11  C   UNL     1      32.124  21.891  13.983  1.00  0.00     0.039 C 
BRANCH  11  12
ATOM     12  C   UNL     1      31.472  20.671  13.370  1.00  0.00    -0.055 C 
ATOM     13  C   UNL     1      31.849  20.280  12.147  1.00  0.00     0.012 C 
BRANCH  12  14
ATOM     14  C   UNL     1      30.474  19.850  14.105  1.00  0.00    -0.005 C 
ATOM     15  C   UNL     1      30.610  19.474  15.378  1.00  0.00     0.009 C 
ENDBRANCH  12  14
ENDBRANCH  11  12
ENDBRANCH  10  11
ENDBRANCH   2  10
TORSDOF 7
ENDMDL
MODEL 6
REMARK VINA RESULT:    -4.605      1.245      2.541
REMARK INTER + INTRA:          -7.672
REMARK INTER:                  -6.274
REMARK INTRA:                  -1.398
REMARK UNBOUND:                -1.183
REMARK SMILES C=CC(=C)CCC=C(C)CCC=C(C)C
REMARK SMILES IDX 8 1 7 2 9 3 10 4 11 5 12 6 14 7 13 8 15 9 6 10 5 11 3 12
REMARK SMILES IDX 4 13 2 14 1 15
REMARK H PARENT
REMARK Flexibility Score: inf
ROOT
ATOM      1  C   UNL     1      30.613  24.767  11.478  1.00  0.00    -0.077 C 
ATOM      2  C   UNL     1      31.554  25.691  11.778  1.00  0.00    -0.028 C 
ATOM      3  C   UNL     1      29.244  24.780  12.116  1.00  0.00     0.039 C 
ENDROOT
BRANCH   1   4
ATOM      4  C   UNL     1      30.962  23.647  10.524  1.00  0.00     0.034 C 
BRANCH   4   5
ATOM      5  C   UNL     1      32.010  22.719  11.149  1.00  0.00     0.032 C 
BRANCH   5   6
ATOM      6  C   UNL     1      31.350  21.607  11.924  1.00  0.00    -0.028 C 
ATOM      7  C   UNL     1      31.789  22.678  14.146  1.00  0.00     0.039 C 
ATOM      8  C   UNL     1      31.238  21.578  13.273  1.00  0.00    -0.080 C 
ATOM      9  C   UNL     1      30.515  20.436  13.937  1.00  0.00     0.039 C 
ENDBRANCH   5   6
ENDBRANCH   4   5
ENDBRANCH   1   4
BRANCH   2  10
ATOM     10  C   UNL     1      31.338  26.855  12.712  1.00  0.00     0.032 C 
BRANCH  10  11
ATOM     11  C   UNL     1      31.632  28.184  12.009  1.00  0.00     0.039 C 
BRANCH  11  12
ATOM     12  C   UNL     1      30.361  28.989  11.838  1.00  0.00    -0.055 C 
ATOM     13  C   UNL     1      30.399  30.112  11.110  1.00  0.00     0.012 C 
BRANCH  12  14
ATOM     14  C   UNL     1      29.057  28.542  12.393  1.00  0.00    -0.005 C 
ATOM     15  C   UNL     1      28.017  28.169  11.645  1.00  0.00     0.009 C 
ENDBRANCH  12  14
ENDBRANCH  11  12
ENDBRANCH  10  11
ENDBRANCH   2  10
TORSDOF 7
ENDMDL
MODEL 7
REMARK VINA RESULT:    -4.595      1.348      6.232
REMARK INTER + INTRA:          -7.658
REMARK INTER:                  -6.196
REMARK INTRA:                  -1.462
REMARK UNBOUND:                -1.183
REMARK SMILES C=CC(=C)CCC=C(C)CCC=C(C)C
REMARK SMILES IDX 8 1 7 2 9 3 10 4 11 5 12 6 14 7 13 8 15 9 6 10 5 11 3 12
REMARK SMILES IDX 4 13 2 14 1 15
REMARK H PARENT
REMARK Flexibility Score: inf
ROOT
ATOM      1  C   UNL     1      29.559  24.313  12.400  1.00  0.00    -0.077 C 
ATOM      2  C   UNL     1      30.802  24.195  12.921  1.00  0.00    -0.028 C 
ATOM      3  C   UNL     1      28.345  23.724  13.080  1.00  0.00     0.039 C 
ENDROOT
BRANCH   1   4
ATOM      4  C   UNL     1      29.386  24.997  11.063  1.00  0.00     0.034 C 
BRANCH   4   5
ATOM      5  C   UNL     1      30.667  25.741  10.671  1.00  0.00     0.032 C 
BRANCH   5   6
ATOM      6  C   UNL     1      30.411  27.221  10.538  1.00  0.00    -0.028 C 
ATOM      7  C   UNL     1      31.337  27.748  12.806  1.00  0.00     0.039 C 
ATOM      8  C   UNL     1      30.713  28.136  11.488  1.00  0.00    -0.080 C 
ATOM      9  C   UNL     1      30.454  29.597  11.226  1.00  0.00     0.039 C 
ENDBRANCH   5   6
ENDBRANCH   4   5
ENDBRANCH   1   4
BRANCH   2  10
ATOM     10  C   UNL     1      31.114  23.537  14.242  1.00  0.00     0.032 C 
BRANCH  10  11
ATOM     11  C   UNL     1      32.107  22.385  14.059  1.00  0.00     0.039 C 
BRANCH  11  12
ATOM     12  C   UNL     1      31.449  21.221  13.351  1.00  0.00    -0.055 C 
ATOM     13  C   UNL     1      30.342  20.683  13.878  1.00  0.00     0.012 C 
BRANCH  12  14
ATOM     14  C   UNL     1      31.949  20.694  12.054  1.00  0.00    -0.005 C 
ATOM     15  C   UNL     1      31.938  21.386  10.914  1.00  0.00     0.009 C 
ENDBRANCH  12  14
ENDBRANCH  11  12
ENDBRANCH  10  11
ENDBRANCH   2  10
TORSDOF 7
ENDMDL
MODEL 8
REMARK VINA RESULT:    -4.594      0.966      2.080
REMARK INTER + INTRA:          -7.656
REMARK INTER:                  -6.200
REMARK INTRA:                  -1.456
REMARK UNBOUND:                -1.183
REMARK SMILES C=CC(=C)CCC=C(C)CCC=C(C)C
REMARK SMILES IDX 8 1 7 2 9 3 10 4 11 5 12 6 14 7 13 8 15 9 6 10 5 11 3 12
REMARK SMILES IDX 4 13 2 14 1 15
REMARK H PARENT
REMARK Flexibility Score: inf
ROOT
ATOM      1  C   UNL     1      30.292  24.581  11.688  1.00  0.00    -0.077 C 
ATOM      2  C   UNL     1      30.732  25.540  12.533  1.00  0.00    -0.028 C 
ATOM      3  C   UNL     1      30.919  24.358  10.332  1.00  0.00     0.039 C 
ENDROOT
BRANCH   1   4
ATOM      4  C   UNL     1      29.093  23.748  12.083  1.00  0.00     0.034 C 
BRANCH   4   5
ATOM      5  C   UNL     1      29.244  23.240  13.521  1.00  0.00     0.032 C 
BRANCH   5   6
ATOM      6  C   UNL     1      29.740  21.816  13.539  1.00  0.00    -0.028 C 
ATOM      7  C   UNL     1      32.080  22.470  14.154  1.00  0.00     0.039 C 
ATOM      8  C   UNL     1      31.012  21.454  13.828  1.00  0.00    -0.080 C 
ATOM      9  C   UNL     1      31.384  19.995  13.861  1.00  0.00     0.039 C 
ENDBRANCH   5   6
ENDBRANCH   4   5
ENDBRANCH   1   4
BRANCH   2  10
ATOM     10  C   UNL     1      31.912  26.439  12.263  1.00  0.00     0.032 C 
BRANCH  10  11
ATOM     11  C   UNL     1      31.582  27.896  12.604  1.00  0.00     0.039 C 
BRANCH  11  12
ATOM     12  C   UNL     1      30.530  28.439  11.662  1.00  0.00    -0.055 C 
ATOM     13  C   UNL     1      30.839  28.604  10.370  1.00  0.00     0.012 C 
BRANCH  12  14
ATOM     14  C   UNL     1      29.142  28.734  12.106  1.00  0.00    -0.005 C 
ATOM     15  C   UNL     1      28.075  28.022  11.739  1.00  0.00     0.009 C 
ENDBRANCH  12  14
ENDBRANCH  11  12
ENDBRANCH  10  11
ENDBRANCH   2  10
TORSDOF 7
ENDMDL
MODEL 9
REMARK VINA RESULT:    -4.379      1.363      3.436
REMARK INTER + INTRA:          -7.354
REMARK INTER:                  -5.642
REMARK INTRA:                  -1.712
REMARK UNBOUND:                -1.183
REMARK SMILES C=CC(=C)CCC=C(C)CCC=C(C)C
REMARK SMILES IDX 8 1 7 2 9 3 10 4 11 5 12 6 14 7 13 8 15 9 6 10 5 11 3 12
REMARK SMILES IDX 4 13 2 14 1 15
REMARK H PARENT
REMARK Flexibility Score: inf
ROOT
ATOM      1  C   UNL     1      32.017  25.514  12.959  1.00  0.00    -0.077 C 
ATOM      2  C   UNL     1      32.112  25.509  11.611  1.00  0.00    -0.028 C 
ATOM      3  C   UNL     1      31.979  26.797  13.756  1.00  0.00     0.039 C 
ENDROOT
BRANCH   1   4
ATOM      4  C   UNL     1      32.016  24.196  13.700  1.00  0.00     0.034 C 
BRANCH   4   5
ATOM      5  C   UNL     1      31.076  23.198  13.015  1.00  0.00     0.032 C 
BRANCH   5   6
ATOM      6  C   UNL     1      29.638  23.477  13.375  1.00  0.00    -0.028 C 
ATOM      7  C   UNL     1      29.007  24.107  11.034  1.00  0.00     0.039 C 
ATOM      8  C   UNL     1      28.695  23.882  12.493  1.00  0.00    -0.080 C 
ATOM      9  C   UNL     1      27.277  24.086  12.958  1.00  0.00     0.039 C 
ENDBRANCH   5   6
ENDBRANCH   4   5
ENDBRANCH   1   4
BRANCH   2  10
ATOM     10  C   UNL     1      32.125  26.749  10.752  1.00  0.00     0.032 C 
BRANCH  10  11
ATOM     11  C   UNL     1      30.702  27.160  10.359  1.00  0.00     0.039 C 
BRANCH  11  12
ATOM     12  C   UNL     1      30.314  28.455  11.038  1.00  0.00    -0.055 C 
ATOM     13  C   UNL     1      31.116  29.519  10.910  1.00  0.00     0.012 C 
BRANCH  12  14
ATOM     14  C   UNL     1      29.039  28.609  11.786  1.00  0.00    -0.005 C 
ATOM     15  C   UNL     1      28.114  27.652  11.887  1.00  0.00     0.009 C 
ENDBRANCH  12  14
ENDBRANCH  11  12
ENDBRANCH  10  11
ENDBRANCH   2  10
TORSDOF 7
ENDMDL
