MODEL 1
REMARK VINA RESULT:    -4.841      0.000      0.000
REMARK INTER + INTRA:          -5.287
REMARK INTER:                  -5.124
REMARK INTRA:                  -0.163
REMARK UNBOUND:                -0.163
REMARK SMILES CC1=CCC(C(C)C)=CC1
REMARK SMILES IDX 1 1 2 2 3 3 4 4 5 5 9 6 10 7 6 8 7 9 8 10
REMARK H PARENT
REMARK Flexibility Score: inf
ROOT
ATOM      1  C   UNL     1     111.986 107.827 129.480  1.00  0.00     0.039 C 
ATOM      2  C   UNL     1     111.706 106.951 128.289  1.00  0.00    -0.073 C 
ATOM      3  C   UNL     1     111.792 107.438 127.036  1.00  0.00    -0.023 C 
ATOM      4  C   UNL     1     111.569 106.543 125.842  1.00  0.00     0.058 C 
ATOM      5  C   UNL     1     110.583 105.433 126.153  1.00  0.00    -0.068 C 
ATOM      6  C   UNL     1     110.515 104.945 127.413  1.00  0.00    -0.023 C 
ATOM      7  C   UNL     1     111.406 105.484 128.503  1.00  0.00     0.057 C 
ENDROOT
BRANCH   5   8
ATOM      8  C   UNL     1     109.720 104.865 125.038  1.00  0.00     0.009 C 
ATOM      9  C   UNL     1     108.228 104.984 125.368  1.00  0.00     0.012 C 
ATOM     10  C   UNL     1     110.044 105.529 123.694  1.00  0.00     0.012 C 
ENDBRANCH   5   8
TORSDOF 1
ENDMDL
MODEL 2
REMARK VINA RESULT:    -4.805      6.172      6.568
REMARK INTER + INTRA:          -5.248
REMARK INTER:                  -5.105
REMARK INTRA:                  -0.143
REMARK UNBOUND:                -0.163
REMARK SMILES CC1=CCC(C(C)C)=CC1
REMARK SMILES IDX 1 1 2 2 3 3 4 4 5 5 9 6 10 7 6 8 7 9 8 10
REMARK H PARENT
REMARK Flexibility Score: inf
ROOT
ATOM      1  C   UNL     1     104.907 111.779 129.291  1.00  0.00     0.039 C 
ATOM      2  C   UNL     1     105.676 111.425 128.047  1.00  0.00    -0.073 C 
ATOM      3  C   UNL     1     105.195 111.730 126.826  1.00  0.00    -0.023 C 
ATOM      4  C   UNL     1     105.996 111.427 125.583  1.00  0.00     0.058 C 
ATOM      5  C   UNL     1     106.866 110.198 125.765  1.00  0.00    -0.068 C 
ATOM      6  C   UNL     1     107.350 109.909 126.995  1.00  0.00    -0.023 C 
ATOM      7  C   UNL     1     107.044 110.793 128.177  1.00  0.00     0.057 C 
ENDROOT
BRANCH   5   8
ATOM      8  C   UNL     1     107.206 109.337 124.559  1.00  0.00     0.009 C 
ATOM      9  C   UNL     1     106.538 109.868 123.286  1.00  0.00     0.012 C 
ATOM     10  C   UNL     1     108.724 109.214 124.378  1.00  0.00     0.012 C 
ENDBRANCH   5   8
TORSDOF 1
ENDMDL
MODEL 3
REMARK VINA RESULT:    -4.802      0.999      4.294
REMARK INTER + INTRA:          -5.245
REMARK INTER:                  -5.110
REMARK INTRA:                  -0.135
REMARK UNBOUND:                -0.163
REMARK SMILES CC1=CCC(C(C)C)=CC1
REMARK SMILES IDX 1 1 2 2 3 3 4 4 5 5 9 6 10 7 6 8 7 9 8 10
REMARK H PARENT
REMARK Flexibility Score: inf
ROOT
ATOM      1  C   UNL     1     109.156 103.946 124.054  1.00  0.00     0.039 C 
ATOM      2  C   UNL     1     109.710 104.812 125.153  1.00  0.00    -0.073 C 
ATOM      3  C   UNL     1     110.825 105.545 124.962  1.00  0.00    -0.023 C 
ATOM      4  C   UNL     1     111.344 106.456 126.046  1.00  0.00     0.058 C 
ATOM      5  C   UNL     1     111.021 105.922 127.428  1.00  0.00    -0.068 C 
ATOM      6  C   UNL     1     109.893 105.198 127.608  1.00  0.00    -0.023 C 
ATOM      7  C   UNL     1     108.955 104.923 126.459  1.00  0.00     0.057 C 
ENDROOT
BRANCH   5   8
ATOM      8  C   UNL     1     111.948 106.242 128.590  1.00  0.00     0.009 C 
ATOM      9  C   UNL     1     111.600 107.591 129.229  1.00  0.00     0.012 C 
ATOM     10  C   UNL     1     111.940 105.117 129.631  1.00  0.00     0.012 C 
ENDBRANCH   5   8
TORSDOF 1
ENDMDL
MODEL 4
REMARK VINA RESULT:    -4.798      8.141      9.304
REMARK INTER + INTRA:          -5.241
REMARK INTER:                  -5.099
REMARK INTRA:                  -0.143
REMARK UNBOUND:                -0.163
REMARK SMILES CC1=CCC(C(C)C)=CC1
REMARK SMILES IDX 1 1 2 2 3 3 4 4 5 5 9 6 10 7 6 8 7 9 8 10
REMARK H PARENT
REMARK Flexibility Score: inf
ROOT
ATOM      1  C   UNL     1     100.688 104.869 129.297  1.00  0.00     0.039 C 
ATOM      2  C   UNL     1     101.060 105.653 128.067  1.00  0.00    -0.073 C 
ATOM      3  C   UNL     1     100.708 105.223 126.840  1.00  0.00    -0.023 C 
ATOM      4  C   UNL     1     101.032 106.041 125.614  1.00  0.00     0.058 C 
ATOM      5  C   UNL     1     102.309 106.838 125.795  1.00  0.00    -0.068 C 
ATOM      6  C   UNL     1     102.645 107.273 127.031  1.00  0.00    -0.023 C 
ATOM      7  C   UNL     1     101.767 106.981 128.222  1.00  0.00     0.057 C 
ENDROOT
BRANCH   5   8
ATOM      8  C   UNL     1     103.165 107.166 124.582  1.00  0.00     0.009 C 
ATOM      9  C   UNL     1     102.472 106.753 123.279  1.00  0.00     0.012 C 
ATOM     10  C   UNL     1     103.547 108.651 124.559  1.00  0.00     0.012 C 
ENDBRANCH   5   8
TORSDOF 1
ENDMDL
MODEL 5
REMARK VINA RESULT:    -4.786      7.372      8.613
REMARK INTER + INTRA:          -5.229
REMARK INTER:                  -5.086
REMARK INTRA:                  -0.143
REMARK UNBOUND:                -0.163
REMARK SMILES CC1=CCC(C(C)C)=CC1
REMARK SMILES IDX 1 1 2 2 3 3 4 4 5 5 9 6 10 7 6 8 7 9 8 10
REMARK H PARENT
REMARK Flexibility Score: inf
ROOT
ATOM      1  C   UNL     1     104.866 109.923 128.011  1.00  0.00     0.039 C 
ATOM      2  C   UNL     1     104.063 108.651 127.966  1.00  0.00    -0.073 C 
ATOM      3  C   UNL     1     103.659 108.129 126.793  1.00  0.00    -0.023 C 
ATOM      4  C   UNL     1     102.904 106.823 126.748  1.00  0.00     0.058 C 
ATOM      5  C   UNL     1     102.061 106.622 127.993  1.00  0.00    -0.068 C 
ATOM      6  C   UNL     1     102.484 107.143 129.167  1.00  0.00    -0.023 C 
ATOM      7  C   UNL     1     103.780 107.910 129.254  1.00  0.00     0.057 C 
ENDROOT
BRANCH   5   8
ATOM      8  C   UNL     1     100.779 105.809 127.905  1.00  0.00     0.009 C 
ATOM      9  C   UNL     1     100.727 104.983 126.615  1.00  0.00     0.012 C 
ATOM     10  C   UNL     1     100.602 104.919 129.141  1.00  0.00     0.012 C 
ENDBRANCH   5   8
TORSDOF 1
ENDMDL
MODEL 6
REMARK VINA RESULT:    -4.768      1.859      4.265
REMARK INTER + INTRA:          -5.210
REMARK INTER:                  -5.067
REMARK INTRA:                  -0.143
REMARK UNBOUND:                -0.163
REMARK SMILES CC1=CCC(C(C)C)=CC1
REMARK SMILES IDX 1 1 2 2 3 3 4 4 5 5 9 6 10 7 6 8 7 9 8 10
REMARK H PARENT
REMARK Flexibility Score: inf
ROOT
ATOM      1  C   UNL     1     107.574 102.526 127.970  1.00  0.00     0.039 C 
ATOM      2  C   UNL     1     108.381 103.795 127.929  1.00  0.00    -0.073 C 
ATOM      3  C   UNL     1     108.764 104.334 126.755  1.00  0.00    -0.023 C 
ATOM      4  C   UNL     1     109.522 105.638 126.715  1.00  0.00     0.058 C 
ATOM      5  C   UNL     1     110.391 105.817 127.946  1.00  0.00    -0.068 C 
ATOM      6  C   UNL     1     109.989 105.280 129.120  1.00  0.00    -0.023 C 
ATOM      7  C   UNL     1     108.693 104.517 129.222  1.00  0.00     0.057 C 
ENDROOT
BRANCH   5   8
ATOM      8  C   UNL     1     111.674 106.626 127.845  1.00  0.00     0.009 C 
ATOM      9  C   UNL     1     111.713 107.454 126.555  1.00  0.00     0.012 C 
ATOM     10  C   UNL     1     111.867 107.515 129.079  1.00  0.00     0.012 C 
ENDBRANCH   5   8
TORSDOF 1
ENDMDL
MODEL 7
REMARK VINA RESULT:    -4.766      6.284      7.255
REMARK INTER + INTRA:          -5.207
REMARK INTER:                  -5.064
REMARK INTRA:                  -0.143
REMARK UNBOUND:                -0.163
REMARK SMILES CC1=CCC(C(C)C)=CC1
REMARK SMILES IDX 1 1 2 2 3 3 4 4 5 5 9 6 10 7 6 8 7 9 8 10
REMARK H PARENT
REMARK Flexibility Score: inf
ROOT
ATOM      1  C   UNL     1     102.551 104.848 127.895  1.00  0.00     0.039 C 
ATOM      2  C   UNL     1     103.825 104.048 127.895  1.00  0.00    -0.073 C 
ATOM      3  C   UNL     1     104.422 103.697 126.740  1.00  0.00    -0.023 C 
ATOM      4  C   UNL     1     105.731 102.946 126.744  1.00  0.00     0.058 C 
ATOM      5  C   UNL     1     105.856 102.048 127.960  1.00  0.00    -0.068 C 
ATOM      6  C   UNL     1     105.261 102.419 129.117  1.00  0.00    -0.023 C 
ATOM      7  C   UNL     1     104.486 103.708 129.213  1.00  0.00     0.057 C 
ENDROOT
BRANCH   5   8
ATOM      8  C   UNL     1     106.677 100.772 127.866  1.00  0.00     0.009 C 
ATOM      9  C   UNL     1     107.484 100.720 126.564  1.00  0.00     0.012 C 
ATOM     10  C   UNL     1     107.587 100.608 129.089  1.00  0.00     0.012 C 
ENDBRANCH   5   8
TORSDOF 1
ENDMDL
MODEL 8
REMARK VINA RESULT:    -4.733      6.435      6.756
REMARK INTER + INTRA:          -5.172
REMARK INTER:                  -5.029
REMARK INTRA:                  -0.143
REMARK UNBOUND:                -0.163
REMARK SMILES CC1=CCC(C(C)C)=CC1
REMARK SMILES IDX 1 1 2 2 3 3 4 4 5 5 9 6 10 7 6 8 7 9 8 10
REMARK H PARENT
REMARK Flexibility Score: inf
ROOT
ATOM      1  C   UNL     1     107.496 100.606 129.247  1.00  0.00     0.039 C 
ATOM      2  C   UNL     1     106.735 101.029 128.019  1.00  0.00    -0.073 C 
ATOM      3  C   UNL     1     107.200 100.749 126.786  1.00  0.00    -0.023 C 
ATOM      4  C   UNL     1     106.406 101.123 125.559  1.00  0.00     0.058 C 
ATOM      5  C   UNL     1     105.580 102.374 125.787  1.00  0.00    -0.068 C 
ATOM      6  C   UNL     1     105.109 102.636 127.028  1.00  0.00    -0.023 C 
ATOM      7  C   UNL     1     105.389 101.702 128.177  1.00  0.00     0.057 C 
ENDROOT
BRANCH   5   8
ATOM      8  C   UNL     1     105.264 103.286 124.612  1.00  0.00     0.009 C 
ATOM      9  C   UNL     1     105.631 102.628 123.277  1.00  0.00     0.012 C 
ATOM     10  C   UNL     1     103.794 103.723 124.629  1.00  0.00     0.012 C 
ENDBRANCH   5   8
TORSDOF 1
ENDMDL
MODEL 9
REMARK VINA RESULT:    -4.708      7.579      9.670
REMARK INTER + INTRA:          -5.145
REMARK INTER:                  -4.992
REMARK INTRA:                  -0.154
REMARK UNBOUND:                -0.163
REMARK SMILES CC1=CCC(C(C)C)=CC1
REMARK SMILES IDX 1 1 2 2 3 3 4 4 5 5 9 6 10 7 6 8 7 9 8 10
REMARK H PARENT
REMARK Flexibility Score: inf
ROOT
ATOM      1  C   UNL     1     102.951 108.235 124.052  1.00  0.00     0.039 C 
ATOM      2  C   UNL     1     102.628 107.450 125.295  1.00  0.00    -0.073 C 
ATOM      3  C   UNL     1     101.465 106.779 125.406  1.00  0.00    -0.023 C 
ATOM      4  C   UNL     1     101.170 105.945 126.629  1.00  0.00     0.058 C 
ATOM      5  C   UNL     1     101.833 106.516 127.868  1.00  0.00    -0.068 C 
ATOM      6  C   UNL     1     103.006 107.178 127.742  1.00  0.00    -0.023 C 
ATOM      7  C   UNL     1     103.661 107.348 126.395  1.00  0.00     0.057 C 
ENDROOT
BRANCH   5   8
ATOM      8  C   UNL     1     101.188 106.300 129.228  1.00  0.00     0.009 C 
ATOM      9  C   UNL     1     100.230 107.443 129.581  1.00  0.00     0.012 C 
ATOM     10  C   UNL     1     100.479 104.942 129.295  1.00  0.00     0.012 C 
ENDBRANCH   5   8
TORSDOF 1
ENDMDL
