MODEL 1
REMARK VINA RESULT:    -5.356      0.000      0.000
REMARK INTER + INTRA:          -6.203
REMARK INTER:                  -6.139
REMARK INTRA:                  -0.065
REMARK UNBOUND:                -0.065
REMARK SMILES COc1cc(C(=O)[O-])ccc1O
REMARK SMILES IDX 5 1 9 2 4 3 10 4 3 5 11 6 6 7 7 8 8 9 2 10 1 11 12 12
REMARK H PARENT 12 13
REMARK Flexibility Score: inf
ROOT
ATOM      1  C   UNL     1     -31.690  36.652 -26.432  1.00  0.00     0.001 A 
ATOM      2  C   UNL     1     -32.588  35.869 -25.686  1.00  0.00     0.014 A 
ATOM      3  C   UNL     1     -31.763  36.624 -27.835  1.00  0.00     0.060 A 
ATOM      4  C   UNL     1     -33.538  35.077 -26.332  1.00  0.00     0.051 A 
ATOM      5  C   UNL     1     -32.720  35.825 -28.492  1.00  0.00     0.161 A 
ATOM      6  C   UNL     1     -33.610  35.049 -27.727  1.00  0.00     0.157 A 
ENDROOT
BRANCH   1   7
ATOM      7  C   UNL     1     -30.682  37.494 -25.751  1.00  0.00     0.072 C 
ATOM      8  O   UNL     1     -30.461  37.358 -24.517  1.00  0.00    -0.545 OA
ATOM      9  O   UNL     1     -29.962  38.447 -26.462  1.00  0.00    -0.545 OA
ENDBRANCH   1   7
BRANCH   5  10
ATOM     10  O   UNL     1     -32.816  35.778 -29.893  1.00  0.00    -0.493 OA
ATOM     11  C   UNL     1     -32.201  34.788 -30.712  1.00  0.00     0.278 C 
ENDBRANCH   5  10
BRANCH   6  12
ATOM     12  O   UNL     1     -34.572  34.245 -28.336  1.00  0.00    -0.504 OA
ATOM     13  H   UNL     1     -35.562  34.451 -28.284  1.00  0.00     0.293 HD
ENDBRANCH   6  12
TORSDOF 3
ENDMDL
MODEL 2
REMARK VINA RESULT:    -5.061     14.449     15.022
REMARK INTER + INTRA:          -5.865
REMARK INTER:                  -5.786
REMARK INTRA:                  -0.079
REMARK UNBOUND:                -0.065
REMARK SMILES COc1cc(C(=O)[O-])ccc1O
REMARK SMILES IDX 5 1 9 2 4 3 10 4 3 5 11 6 6 7 7 8 8 9 2 10 1 11 12 12
REMARK H PARENT 12 13
REMARK Flexibility Score: inf
ROOT
ATOM      1  C   UNL     1     -39.643  49.126 -28.899  1.00  0.00     0.001 A 
ATOM      2  C   UNL     1     -38.738  48.146 -29.340  1.00  0.00     0.014 A 
ATOM      3  C   UNL     1     -40.328  48.928 -27.688  1.00  0.00     0.060 A 
ATOM      4  C   UNL     1     -38.523  46.992 -28.584  1.00  0.00     0.051 A 
ATOM      5  C   UNL     1     -40.115  47.765 -26.921  1.00  0.00     0.161 A 
ATOM      6  C   UNL     1     -39.204  46.796 -27.380  1.00  0.00     0.157 A 
ENDROOT
BRANCH   1   7
ATOM      7  C   UNL     1     -39.872  50.351 -29.698  1.00  0.00     0.072 C 
ATOM      8  O   UNL     1     -40.935  51.014 -29.561  1.00  0.00    -0.545 OA
ATOM      9  O   UNL     1     -38.918  50.788 -30.609  1.00  0.00    -0.545 OA
ENDBRANCH   1   7
BRANCH   5  10
ATOM     10  O   UNL     1     -40.785  47.540 -25.707  1.00  0.00    -0.493 OA
ATOM     11  C   UNL     1     -41.809  48.379 -25.182  1.00  0.00     0.278 C 
ENDBRANCH   5  10
BRANCH   6  12
ATOM     12  O   UNL     1     -38.964  45.631 -26.653  1.00  0.00    -0.504 OA
ATOM     13  H   UNL     1     -38.479  44.835 -27.050  1.00  0.00     0.293 HD
ENDBRANCH   6  12
TORSDOF 3
ENDMDL
MODEL 3
REMARK VINA RESULT:    -5.052      6.424      9.613
REMARK INTER + INTRA:          -5.855
REMARK INTER:                  -5.761
REMARK INTRA:                  -0.094
REMARK UNBOUND:                -0.065
REMARK SMILES COc1cc(C(=O)[O-])ccc1O
REMARK SMILES IDX 5 1 9 2 4 3 10 4 3 5 11 6 6 7 7 8 8 9 2 10 1 11 12 12
REMARK H PARENT 12 13
REMARK Flexibility Score: inf
ROOT
ATOM      1  C   UNL     1     -26.361  40.599 -26.273  1.00  0.00     0.001 A 
ATOM      2  C   UNL     1     -25.652  40.743 -27.478  1.00  0.00     0.014 A 
ATOM      3  C   UNL     1     -25.660  40.669 -25.056  1.00  0.00     0.060 A 
ATOM      4  C   UNL     1     -24.273  40.955 -27.465  1.00  0.00     0.051 A 
ATOM      5  C   UNL     1     -24.267  40.882 -25.038  1.00  0.00     0.161 A 
ATOM      6  C   UNL     1     -23.577  41.025 -26.255  1.00  0.00     0.157 A 
ENDROOT
BRANCH   1   7
ATOM      7  C   UNL     1     -27.824  40.375 -26.282  1.00  0.00     0.072 C 
ATOM      8  O   UNL     1     -28.586  41.092 -25.581  1.00  0.00    -0.545 OA
ATOM      9  O   UNL     1     -28.378  39.370 -27.067  1.00  0.00    -0.545 OA
ENDBRANCH   1   7
BRANCH   5  10
ATOM     10  O   UNL     1     -23.541  40.958 -23.837  1.00  0.00    -0.493 OA
ATOM     11  C   UNL     1     -23.372  39.877 -22.925  1.00  0.00     0.278 C 
ENDBRANCH   5  10
BRANCH   6  12
ATOM     12  O   UNL     1     -22.199  41.237 -26.282  1.00  0.00    -0.504 OA
ATOM     13  H   UNL     1     -21.541  40.561 -25.915  1.00  0.00     0.293 HD
ENDBRANCH   6  12
TORSDOF 3
ENDMDL
MODEL 4
REMARK VINA RESULT:    -4.999      6.811      9.729
REMARK INTER + INTRA:          -5.794
REMARK INTER:                  -5.713
REMARK INTRA:                  -0.081
REMARK UNBOUND:                -0.065
REMARK SMILES COc1cc(C(=O)[O-])ccc1O
REMARK SMILES IDX 5 1 9 2 4 3 10 4 3 5 11 6 6 7 7 8 8 9 2 10 1 11 12 12
REMARK H PARENT 12 13
REMARK Flexibility Score: inf
ROOT
ATOM      1  C   UNL     1     -25.608  40.358 -26.958  1.00  0.00     0.001 A 
ATOM      2  C   UNL     1     -25.291  41.677 -26.592  1.00  0.00     0.014 A 
ATOM      3  C   UNL     1     -24.657  39.344 -26.750  1.00  0.00     0.060 A 
ATOM      4  C   UNL     1     -24.049  41.974 -26.028  1.00  0.00     0.051 A 
ATOM      5  C   UNL     1     -23.402  39.639 -26.181  1.00  0.00     0.161 A 
ATOM      6  C   UNL     1     -23.105  40.965 -25.821  1.00  0.00     0.157 A 
ENDROOT
BRANCH   1   7
ATOM      7  C   UNL     1     -26.924  40.040 -27.556  1.00  0.00     0.072 C 
ATOM      8  O   UNL     1     -27.071  40.020 -28.808  1.00  0.00    -0.545 OA
ATOM      9  O   UNL     1     -28.017  39.755 -26.745  1.00  0.00    -0.545 OA
ENDBRANCH   1   7
BRANCH   5  10
ATOM     10  O   UNL     1     -22.433  38.645 -25.961  1.00  0.00    -0.493 OA
ATOM     11  C   UNL     1     -22.686  37.395 -25.329  1.00  0.00     0.278 C 
ENDBRANCH   5  10
BRANCH   6  12
ATOM     12  O   UNL     1     -21.875  41.300 -25.256  1.00  0.00    -0.504 OA
ATOM     13  H   UNL     1     -21.054  41.485 -25.818  1.00  0.00     0.293 HD
ENDBRANCH   6  12
TORSDOF 3
ENDMDL
MODEL 5
REMARK VINA RESULT:    -4.982      6.285      8.673
REMARK INTER + INTRA:          -5.775
REMARK INTER:                  -5.785
REMARK INTRA:                   0.010
REMARK UNBOUND:                -0.065
REMARK SMILES COc1cc(C(=O)[O-])ccc1O
REMARK SMILES IDX 5 1 9 2 4 3 10 4 3 5 11 6 6 7 7 8 8 9 2 10 1 11 12 12
REMARK H PARENT 12 13
REMARK Flexibility Score: inf
ROOT
ATOM      1  C   UNL     1     -24.454  40.699 -25.073  1.00  0.00     0.001 A 
ATOM      2  C   UNL     1     -23.902  40.547 -26.356  1.00  0.00     0.014 A 
ATOM      3  C   UNL     1     -25.848  40.815 -24.938  1.00  0.00     0.060 A 
ATOM      4  C   UNL     1     -24.728  40.512 -27.480  1.00  0.00     0.051 A 
ATOM      5  C   UNL     1     -26.687  40.781 -26.071  1.00  0.00     0.161 A 
ATOM      6  C   UNL     1     -26.114  40.628 -27.346  1.00  0.00     0.157 A 
ENDROOT
BRANCH   1   7
ATOM      7  C   UNL     1     -23.581  40.736 -23.878  1.00  0.00     0.072 C 
ATOM      8  O   UNL     1     -23.715  39.883 -22.960  1.00  0.00    -0.545 OA
ATOM      9  O   UNL     1     -22.598  41.710 -23.753  1.00  0.00    -0.545 OA
ENDBRANCH   1   7
BRANCH   5  10
ATOM     10  O   UNL     1     -28.083  40.895 -25.966  1.00  0.00    -0.493 OA
ATOM     11  C   UNL     1     -28.996  39.812 -26.113  1.00  0.00     0.278 C 
ENDBRANCH   5  10
BRANCH   6  12
ATOM     12  O   UNL     1     -26.907  40.589 -28.492  1.00  0.00    -0.504 OA
ATOM     13  H   UNL     1     -27.890  40.833 -28.479  1.00  0.00     0.293 HD
ENDBRANCH   6  12
TORSDOF 3
ENDMDL
MODEL 6
REMARK VINA RESULT:    -4.969      1.261      4.472
REMARK INTER + INTRA:          -5.760
REMARK INTER:                  -5.838
REMARK INTRA:                   0.078
REMARK UNBOUND:                -0.065
REMARK SMILES COc1cc(C(=O)[O-])ccc1O
REMARK SMILES IDX 5 1 9 2 4 3 10 4 3 5 11 6 6 7 7 8 8 9 2 10 1 11 12 12
REMARK H PARENT 12 13
REMARK Flexibility Score: inf
ROOT
ATOM      1  C   UNL     1     -32.571  36.199 -28.223  1.00  0.00     0.001 A 
ATOM      2  C   UNL     1     -32.569  35.438 -27.041  1.00  0.00     0.014 A 
ATOM      3  C   UNL     1     -31.979  37.474 -28.214  1.00  0.00     0.060 A 
ATOM      4  C   UNL     1     -31.987  35.943 -25.877  1.00  0.00     0.051 A 
ATOM      5  C   UNL     1     -31.391  37.989 -27.042  1.00  0.00     0.161 A 
ATOM      6  C   UNL     1     -31.399  37.210 -25.870  1.00  0.00     0.157 A 
ENDROOT
BRANCH   1   7
ATOM      7  C   UNL     1     -33.186  35.667 -29.459  1.00  0.00     0.072 C 
ATOM      8  O   UNL     1     -34.393  35.303 -29.468  1.00  0.00    -0.545 OA
ATOM      9  O   UNL     1     -32.442  35.562 -30.629  1.00  0.00    -0.545 OA
ENDBRANCH   1   7
BRANCH   5  10
ATOM     10  O   UNL     1     -30.793  39.259 -27.004  1.00  0.00    -0.493 OA
ATOM     11  C   UNL     1     -29.396  39.491 -26.853  1.00  0.00     0.278 C 
ENDBRANCH   5  10
BRANCH   6  12
ATOM     12  O   UNL     1     -30.829  37.681 -24.688  1.00  0.00    -0.504 OA
ATOM     13  H   UNL     1     -31.259  38.410 -24.133  1.00  0.00     0.293 HD
ENDBRANCH   6  12
TORSDOF 3
ENDMDL
MODEL 7
REMARK VINA RESULT:    -4.959      1.546      2.102
REMARK INTER + INTRA:          -5.748
REMARK INTER:                  -5.663
REMARK INTRA:                  -0.085
REMARK UNBOUND:                -0.065
REMARK SMILES COc1cc(C(=O)[O-])ccc1O
REMARK SMILES IDX 5 1 9 2 4 3 10 4 3 5 11 6 6 7 7 8 8 9 2 10 1 11 12 12
REMARK H PARENT 12 13
REMARK Flexibility Score: inf
ROOT
ATOM      1  C   UNL     1     -31.684  37.560 -27.258  1.00  0.00     0.001 A 
ATOM      2  C   UNL     1     -31.758  37.106 -25.930  1.00  0.00     0.014 A 
ATOM      3  C   UNL     1     -32.228  36.765 -28.282  1.00  0.00     0.060 A 
ATOM      4  C   UNL     1     -32.363  35.884 -25.634  1.00  0.00     0.051 A 
ATOM      5  C   UNL     1     -32.839  35.530 -27.989  1.00  0.00     0.161 A 
ATOM      6  C   UNL     1     -32.903  35.095 -26.652  1.00  0.00     0.157 A 
ENDROOT
BRANCH   1   7
ATOM      7  C   UNL     1     -31.044  38.856 -27.575  1.00  0.00     0.072 C 
ATOM      8  O   UNL     1     -31.353  39.483 -28.624  1.00  0.00    -0.545 OA
ATOM      9  O   UNL     1     -30.095  39.402 -26.719  1.00  0.00    -0.545 OA
ENDBRANCH   1   7
BRANCH   5  10
ATOM     10  O   UNL     1     -33.391  34.716 -28.992  1.00  0.00    -0.493 OA
ATOM     11  C   UNL     1     -34.745  34.773 -29.426  1.00  0.00     0.278 C 
ENDBRANCH   5  10
BRANCH   6  12
ATOM     12  O   UNL     1     -33.498  33.879 -26.318  1.00  0.00    -0.504 OA
ATOM     13  H   UNL     1     -34.056  33.762 -25.481  1.00  0.00     0.293 HD
ENDBRANCH   6  12
TORSDOF 3
ENDMDL
MODEL 8
REMARK VINA RESULT:    -4.860      2.713      5.424
REMARK INTER + INTRA:          -5.634
REMARK INTER:                  -5.534
REMARK INTRA:                  -0.101
REMARK UNBOUND:                -0.065
REMARK SMILES COc1cc(C(=O)[O-])ccc1O
REMARK SMILES IDX 5 1 9 2 4 3 10 4 3 5 11 6 6 7 7 8 8 9 2 10 1 11 12 12
REMARK H PARENT 12 13
REMARK Flexibility Score: inf
ROOT
ATOM      1  C   UNL     1     -33.837  34.329 -30.104  1.00  0.00     0.001 A 
ATOM      2  C   UNL     1     -32.545  34.229 -30.647  1.00  0.00     0.014 A 
ATOM      3  C   UNL     1     -33.994  34.325 -28.707  1.00  0.00     0.060 A 
ATOM      4  C   UNL     1     -31.433  34.128 -29.808  1.00  0.00     0.051 A 
ATOM      5  C   UNL     1     -32.875  34.223 -27.857  1.00  0.00     0.161 A 
ATOM      6  C   UNL     1     -31.589  34.124 -28.420  1.00  0.00     0.157 A 
ENDROOT
BRANCH   1   7
ATOM      7  C   UNL     1     -35.018  34.436 -30.990  1.00  0.00     0.072 C 
ATOM      8  O   UNL     1     -36.182  34.306 -30.524  1.00  0.00    -0.545 OA
ATOM      9  O   UNL     1     -34.860  34.684 -32.349  1.00  0.00    -0.545 OA
ENDBRANCH   1   7
BRANCH   5  10
ATOM     10  O   UNL     1     -33.001  34.216 -26.458  1.00  0.00    -0.493 OA
ATOM     11  C   UNL     1     -33.371  35.346 -25.674  1.00  0.00     0.278 C 
ENDBRANCH   5  10
BRANCH   6  12
ATOM     12  O   UNL     1     -30.456  34.021 -27.615  1.00  0.00    -0.504 OA
ATOM     13  H   UNL     1     -30.165  33.145 -27.200  1.00  0.00     0.293 HD
ENDBRANCH   6  12
TORSDOF 3
ENDMDL
