MODEL 1
REMARK VINA RESULT:    -5.784      0.000      0.000
REMARK INTER + INTRA:          -7.263
REMARK INTER:                  -7.136
REMARK INTRA:                  -0.127
REMARK UNBOUND:                -0.127
REMARK SMILES Oc1cc(O)c2cc(O)c(-c3cc(O)c(O)c(O)c3)[o+]c2c1
REMARK SMILES IDX 10 1 20 2 21 3 22 4 2 5 3 6 4 7 6 8 7 9 8 10 11 11 12 12
REMARK SMILES IDX 13 13 19 14 15 15 17 16 14 17 16 19 18 21 9 23 1 25 5 27
REMARK H PARENT 14 18 16 20 18 22 9 24 1 26 5 28
REMARK Flexibility Score: inf
ROOT
ATOM      1  C   UNL     1      27.232 -13.235  32.109  1.00  0.00     0.402 A 
ATOM      2  O   UNL     1      27.182 -12.212  32.959  1.00  0.00    -0.202 OA
ATOM      3  C   UNL     1      26.363 -12.173  34.005  1.00  0.00     0.368 A 
ATOM      4  C   UNL     1      26.386 -11.056  34.844  1.00  0.00     0.162 A 
ATOM      5  C   UNL     1      25.538 -10.990  35.953  1.00  0.00     0.128 A 
ATOM      6  C   UNL     1      24.666 -12.047  36.226  1.00  0.00     0.093 A 
ATOM      7  C   UNL     1      24.625 -13.177  35.401  1.00  0.00     0.136 A 
ATOM      8  C   UNL     1      25.481 -13.248  34.272  1.00  0.00     0.125 A 
ATOM      9  C   UNL     1      25.500 -14.335  33.383  1.00  0.00     0.078 A 
ATOM     10  C   UNL     1      26.369 -14.332  32.289  1.00  0.00     0.223 A 
ENDROOT
BRANCH   1  11
ATOM     11  C   UNL     1      28.194 -13.165  30.985  1.00  0.00     0.091 A 
ATOM     12  C   UNL     1      27.721 -13.233  29.665  1.00  0.00     0.068 A 
ATOM     13  C   UNL     1      28.607 -13.148  28.583  1.00  0.00     0.162 A 
ATOM     14  C   UNL     1      29.568 -12.976  31.210  1.00  0.00     0.068 A 
ATOM     15  C   UNL     1      29.983 -12.981  28.817  1.00  0.00     0.200 A 
ATOM     16  C   UNL     1      30.460 -12.890  30.131  1.00  0.00     0.162 A 
BRANCH  13  17
ATOM     17  O   UNL     1      28.127 -13.230  27.277  1.00  0.00    -0.504 OA
ATOM     18  H   UNL     1      27.913 -12.398  26.737  1.00  0.00     0.293 HD
ENDBRANCH  13  17
BRANCH  15  19
ATOM     19  O   UNL     1      30.885 -12.897  27.757  1.00  0.00    -0.502 OA
ATOM     20  H   UNL     1      30.715 -12.311  26.949  1.00  0.00     0.293 HD
ENDBRANCH  15  19
BRANCH  16  21
ATOM     21  O   UNL     1      31.823 -12.710  30.358  1.00  0.00    -0.504 OA
ATOM     22  H   UNL     1      32.183 -12.487  31.279  1.00  0.00     0.293 HD
ENDBRANCH  16  21
ENDBRANCH   1  11
BRANCH  10  23
ATOM     23  O   UNL     1      26.352 -15.388  31.377  1.00  0.00    -0.500 OA
ATOM     24  H   UNL     1      26.904 -16.226  31.523  1.00  0.00     0.294 HD
ENDBRANCH  10  23
BRANCH   5  25
ATOM     25  O   UNL     1      25.554  -9.879  36.794  1.00  0.00    -0.507 OA
ATOM     26  H   UNL     1      25.474  -8.937  36.428  1.00  0.00     0.293 HD
ENDBRANCH   5  25
BRANCH   7  27
ATOM     27  O   UNL     1      23.727 -14.192  35.745  1.00  0.00    -0.507 OA
ATOM     28  H   UNL     1      23.567 -14.517  36.687  1.00  0.00     0.293 HD
ENDBRANCH   7  27
TORSDOF 7
ENDMDL
MODEL 2
REMARK VINA RESULT:    -5.741      0.268      1.805
REMARK INTER + INTRA:          -7.210
REMARK INTER:                  -7.084
REMARK INTRA:                  -0.126
REMARK UNBOUND:                -0.127
REMARK SMILES Oc1cc(O)c2cc(O)c(-c3cc(O)c(O)c(O)c3)[o+]c2c1
REMARK SMILES IDX 10 1 20 2 21 3 22 4 2 5 3 6 4 7 6 8 7 9 8 10 11 11 12 12
REMARK SMILES IDX 13 13 19 14 15 15 17 16 14 17 16 19 18 21 9 23 1 25 5 27
REMARK H PARENT 14 18 16 20 18 22 9 24 1 26 5 28
REMARK Flexibility Score: inf
ROOT
ATOM      1  C   UNL     1      27.357 -13.186  32.138  1.00  0.00     0.402 A 
ATOM      2  O   UNL     1      27.243 -12.166  32.986  1.00  0.00    -0.202 OA
ATOM      3  C   UNL     1      26.375 -12.147  33.992  1.00  0.00     0.368 A 
ATOM      4  C   UNL     1      26.332 -11.031  34.832  1.00  0.00     0.162 A 
ATOM      5  C   UNL     1      25.431 -10.986  35.900  1.00  0.00     0.128 A 
ATOM      6  C   UNL     1      24.572 -12.063  36.130  1.00  0.00     0.093 A 
ATOM      7  C   UNL     1      24.595 -13.193  35.303  1.00  0.00     0.136 A 
ATOM      8  C   UNL     1      25.506 -13.242  34.216  1.00  0.00     0.125 A 
ATOM      9  C   UNL     1      25.592 -14.327  33.329  1.00  0.00     0.078 A 
ATOM     10  C   UNL     1      26.511 -14.302  32.277  1.00  0.00     0.223 A 
ENDROOT
BRANCH   1  11
ATOM     11  C   UNL     1      28.369 -13.092  31.062  1.00  0.00     0.091 A 
ATOM     12  C   UNL     1      29.722 -12.925  31.399  1.00  0.00     0.068 A 
ATOM     13  C   UNL     1      30.703 -12.854  30.401  1.00  0.00     0.162 A 
ATOM     14  C   UNL     1      28.013 -13.221  29.709  1.00  0.00     0.068 A 
ATOM     15  C   UNL     1      30.335 -12.963  29.049  1.00  0.00     0.200 A 
ATOM     16  C   UNL     1      28.990 -13.152  28.706  1.00  0.00     0.162 A 
BRANCH  13  17
ATOM     17  O   UNL     1      32.042 -12.675  30.747  1.00  0.00    -0.504 OA
ATOM     18  H   UNL     1      32.339 -12.633  31.716  1.00  0.00     0.293 HD
ENDBRANCH  13  17
BRANCH  15  19
ATOM     19  O   UNL     1      31.293 -12.891  28.038  1.00  0.00    -0.502 OA
ATOM     20  H   UNL     1      31.042 -12.749  27.067  1.00  0.00     0.293 HD
ENDBRANCH  15  19
BRANCH  16  21
ATOM     21  O   UNL     1      28.632 -13.274  27.365  1.00  0.00    -0.504 OA
ATOM     22  H   UNL     1      28.107 -14.072  27.026  1.00  0.00     0.293 HD
ENDBRANCH  16  21
ENDBRANCH   1  11
BRANCH  10  23
ATOM     23  O   UNL     1      26.562 -15.357  31.365  1.00  0.00    -0.500 OA
ATOM     24  H   UNL     1      26.601 -15.196  30.365  1.00  0.00     0.294 HD
ENDBRANCH  10  23
BRANCH   5  25
ATOM     25  O   UNL     1      25.382  -9.876  36.741  1.00  0.00    -0.507 OA
ATOM     26  H   UNL     1      25.776  -8.984  36.464  1.00  0.00     0.293 HD
ENDBRANCH   5  25
BRANCH   7  27
ATOM     27  O   UNL     1      23.706 -14.228  35.604  1.00  0.00    -0.507 OA
ATOM     28  H   UNL     1      23.377 -14.445  36.533  1.00  0.00     0.293 HD
ENDBRANCH   7  27
TORSDOF 7
ENDMDL
MODEL 3
REMARK VINA RESULT:    -3.483      1.536      7.105
REMARK INTER + INTRA:          -4.424
REMARK INTER:                  -4.257
REMARK INTRA:                  -0.167
REMARK UNBOUND:                -0.127
REMARK SMILES Oc1cc(O)c2cc(O)c(-c3cc(O)c(O)c(O)c3)[o+]c2c1
REMARK SMILES IDX 10 1 20 2 21 3 22 4 2 5 3 6 4 7 6 8 7 9 8 10 11 11 12 12
REMARK SMILES IDX 13 13 19 14 15 15 17 16 14 17 16 19 18 21 9 23 1 25 5 27
REMARK H PARENT 14 18 16 20 18 22 9 24 1 26 5 28
REMARK Flexibility Score: inf
ROOT
ATOM      1  C   UNL     1      27.339 -12.710  32.282  1.00  0.00     0.402 A 
ATOM      2  O   UNL     1      27.343 -11.772  31.338  1.00  0.00    -0.202 OA
ATOM      3  C   UNL     1      28.046 -11.870  30.215  1.00  0.00     0.368 A 
ATOM      4  C   UNL     1      27.984 -10.833  29.280  1.00  0.00     0.162 A 
ATOM      5  C   UNL     1      28.711 -10.913  28.089  1.00  0.00     0.128 A 
ATOM      6  C   UNL     1      29.503 -12.035  27.831  1.00  0.00     0.093 A 
ATOM      7  C   UNL     1      29.582 -13.087  28.751  1.00  0.00     0.136 A 
ATOM      8  C   UNL     1      28.848 -13.011  29.964  1.00  0.00     0.125 A 
ATOM      9  C   UNL     1      28.876 -14.010  30.948  1.00  0.00     0.078 A 
ATOM     10  C   UNL     1      28.129 -13.862  32.120  1.00  0.00     0.223 A 
ENDROOT
BRANCH   1  11
ATOM     11  C   UNL     1      26.505 -12.488  33.486  1.00  0.00     0.091 A 
ATOM     12  C   UNL     1      26.652 -11.300  34.218  1.00  0.00     0.068 A 
ATOM     13  C   UNL     1      25.862 -11.055  35.349  1.00  0.00     0.162 A 
ATOM     14  C   UNL     1      25.528 -13.417  33.880  1.00  0.00     0.068 A 
ATOM     15  C   UNL     1      24.902 -12.000  35.749  1.00  0.00     0.200 A 
ATOM     16  C   UNL     1      24.733 -13.178  35.010  1.00  0.00     0.162 A 
BRANCH  13  17
ATOM     17  O   UNL     1      26.027  -9.877  36.077  1.00  0.00    -0.504 OA
ATOM     18  H   UNL     1      26.200  -8.989  35.618  1.00  0.00     0.293 HD
ENDBRANCH  13  17
BRANCH  15  19
ATOM     19  O   UNL     1      24.105 -11.780  36.873  1.00  0.00    -0.502 OA
ATOM     20  H   UNL     1      24.435 -11.967  37.813  1.00  0.00     0.293 HD
ENDBRANCH  15  19
BRANCH  16  21
ATOM     21  O   UNL     1      23.770 -14.105  35.403  1.00  0.00    -0.504 OA
ATOM     22  H   UNL     1      22.781 -13.885  35.378  1.00  0.00     0.293 HD
ENDBRANCH  16  21
ENDBRANCH   1  11
BRANCH  10  23
ATOM     23  O   UNL     1      28.196 -14.832  33.121  1.00  0.00    -0.500 OA
ATOM     24  H   UNL     1      27.392 -15.063  33.693  1.00  0.00     0.294 HD
ENDBRANCH  10  23
BRANCH   5  25
ATOM     25  O   UNL     1      28.655  -9.883  27.153  1.00  0.00    -0.507 OA
ATOM     26  H   UNL     1      28.931  -8.937  27.389  1.00  0.00     0.293 HD
ENDBRANCH   5  25
BRANCH   7  27
ATOM     27  O   UNL     1      30.393 -14.175  28.416  1.00  0.00    -0.507 OA
ATOM     28  H   UNL     1      31.004 -14.651  29.063  1.00  0.00     0.293 HD
ENDBRANCH   7  27
TORSDOF 7
ENDMDL
MODEL 4
REMARK VINA RESULT:    -3.353      1.414      7.078
REMARK INTER + INTRA:          -4.264
REMARK INTER:                  -4.640
REMARK INTRA:                   0.376
REMARK UNBOUND:                -0.127
REMARK SMILES Oc1cc(O)c2cc(O)c(-c3cc(O)c(O)c(O)c3)[o+]c2c1
REMARK SMILES IDX 10 1 20 2 21 3 22 4 2 5 3 6 4 7 6 8 7 9 8 10 11 11 12 12
REMARK SMILES IDX 13 13 19 14 15 15 17 16 14 17 16 19 18 21 9 23 1 25 5 27
REMARK H PARENT 14 18 16 20 18 22 9 24 1 26 5 28
REMARK Flexibility Score: inf
ROOT
ATOM      1  C   UNL     1      26.639 -12.615  33.061  1.00  0.00     0.402 A 
ATOM      2  O   UNL     1      27.490 -11.703  32.596  1.00  0.00    -0.202 OA
ATOM      3  C   UNL     1      28.103 -11.809  31.422  1.00  0.00     0.368 A 
ATOM      4  C   UNL     1      28.978 -10.796  31.018  1.00  0.00     0.162 A 
ATOM      5  C   UNL     1      29.633 -10.880  29.786  1.00  0.00     0.128 A 
ATOM      6  C   UNL     1      29.411 -11.980  28.954  1.00  0.00     0.093 A 
ATOM      7  C   UNL     1      28.539 -13.007  29.335  1.00  0.00     0.136 A 
ATOM      8  C   UNL     1      27.873 -12.929  30.586  1.00  0.00     0.125 A 
ATOM      9  C   UNL     1      26.993 -13.916  31.056  1.00  0.00     0.078 A 
ATOM     10  C   UNL     1      26.377 -13.771  32.302  1.00  0.00     0.223 A 
ENDROOT
BRANCH   1  11
ATOM     11  C   UNL     1      26.012 -12.379  34.382  1.00  0.00     0.091 A 
ATOM     12  C   UNL     1      26.382 -11.251  35.130  1.00  0.00     0.068 A 
ATOM     13  C   UNL     1      25.790 -10.992  36.373  1.00  0.00     0.162 A 
ATOM     14  C   UNL     1      25.012 -13.232  34.879  1.00  0.00     0.068 A 
ATOM     15  C   UNL     1      24.806 -11.862  36.873  1.00  0.00     0.200 A 
ATOM     16  C   UNL     1      24.415 -12.978  36.122  1.00  0.00     0.162 A 
BRANCH  13  17
ATOM     17  O   UNL     1      26.175  -9.875  37.113  1.00  0.00    -0.504 OA
ATOM     18  H   UNL     1      27.141  -9.569  37.148  1.00  0.00     0.293 HD
ENDBRANCH  13  17
BRANCH  15  19
ATOM     19  O   UNL     1      24.204 -11.628  38.109  1.00  0.00    -0.502 OA
ATOM     20  H   UNL     1      24.116 -12.352  38.812  1.00  0.00     0.293 HD
ENDBRANCH  15  19
BRANCH  16  21
ATOM     21  O   UNL     1      23.429 -13.829  36.616  1.00  0.00    -0.504 OA
ATOM     22  H   UNL     1      23.329 -14.007  37.609  1.00  0.00     0.293 HD
ENDBRANCH  16  21
ENDBRANCH   1  11
BRANCH  10  23
ATOM     23  O   UNL     1      25.541 -14.775  32.792  1.00  0.00    -0.500 OA
ATOM     24  H   UNL     1      25.179 -15.507  32.191  1.00  0.00     0.294 HD
ENDBRANCH  10  23
BRANCH   5  25
ATOM     25  O   UNL     1      30.507  -9.875  29.377  1.00  0.00    -0.507 OA
ATOM     26  H   UNL     1      30.768  -9.117  29.996  1.00  0.00     0.293 HD
ENDBRANCH   5  25
BRANCH   7  27
ATOM     27  O   UNL     1      28.369 -14.071  28.444  1.00  0.00    -0.507 OA
ATOM     28  H   UNL     1      28.476 -13.998  27.443  1.00  0.00     0.293 HD
ENDBRANCH   7  27
TORSDOF 7
ENDMDL
MODEL 5
REMARK VINA RESULT:    -3.312      1.059      2.563
REMARK INTER + INTRA:          -4.213
REMARK INTER:                  -3.920
REMARK INTRA:                  -0.293
REMARK UNBOUND:                -0.127
REMARK SMILES Oc1cc(O)c2cc(O)c(-c3cc(O)c(O)c(O)c3)[o+]c2c1
REMARK SMILES IDX 10 1 20 2 21 3 22 4 2 5 3 6 4 7 6 8 7 9 8 10 11 11 12 12
REMARK SMILES IDX 13 13 19 14 15 15 17 16 14 17 16 19 18 21 9 23 1 25 5 27
REMARK H PARENT 14 18 16 20 18 22 9 24 1 26 5 28
REMARK Flexibility Score: inf
ROOT
ATOM      1  C   UNL     1      27.504 -12.090  32.074  1.00  0.00     0.402 A 
ATOM      2  O   UNL     1      26.716 -12.967  32.692  1.00  0.00    -0.202 OA
ATOM      3  C   UNL     1      26.036 -12.682  33.798  1.00  0.00     0.368 A 
ATOM      4  C   UNL     1      25.231 -13.669  34.374  1.00  0.00     0.162 A 
ATOM      5  C   UNL     1      24.503 -13.396  35.535  1.00  0.00     0.128 A 
ATOM      6  C   UNL     1      24.577 -12.130  36.121  1.00  0.00     0.093 A 
ATOM      7  C   UNL     1      25.375 -11.124  35.563  1.00  0.00     0.136 A 
ATOM      8  C   UNL     1      26.120 -11.397  34.386  1.00  0.00     0.125 A 
ATOM      9  C   UNL     1      26.955 -10.455  33.765  1.00  0.00     0.078 A 
ATOM     10  C   UNL     1      27.661 -10.798  32.609  1.00  0.00     0.223 A 
ENDROOT
BRANCH   1  11
ATOM     11  C   UNL     1      28.203 -12.524  30.842  1.00  0.00     0.091 A 
ATOM     12  C   UNL     1      27.479 -12.653  29.646  1.00  0.00     0.068 A 
ATOM     13  C   UNL     1      28.120 -13.043  28.462  1.00  0.00     0.162 A 
ATOM     14  C   UNL     1      29.588 -12.758  30.831  1.00  0.00     0.068 A 
ATOM     15  C   UNL     1      29.502 -13.295  28.465  1.00  0.00     0.200 A 
ATOM     16  C   UNL     1      30.235 -13.147  29.650  1.00  0.00     0.162 A 
BRANCH  13  17
ATOM     17  O   UNL     1      27.388 -13.180  27.283  1.00  0.00    -0.504 OA
ATOM     18  H   UNL     1      26.582 -12.597  27.088  1.00  0.00     0.293 HD
ENDBRANCH  13  17
BRANCH  15  19
ATOM     19  O   UNL     1      30.161 -13.687  27.300  1.00  0.00    -0.502 OA
ATOM     20  H   UNL     1      29.945 -14.554  26.824  1.00  0.00     0.293 HD
ENDBRANCH  15  19
BRANCH  16  21
ATOM     21  O   UNL     1      31.608 -13.385  29.645  1.00  0.00    -0.504 OA
ATOM     22  H   UNL     1      32.011 -14.157  29.127  1.00  0.00     0.293 HD
ENDBRANCH  16  21
ENDBRANCH   1  11
BRANCH  10  23
ATOM     23  O   UNL     1      28.530  -9.879  32.019  1.00  0.00    -0.500 OA
ATOM     24  H   UNL     1      28.194  -9.013  31.615  1.00  0.00     0.294 HD
ENDBRANCH  10  23
BRANCH   5  25
ATOM     25  O   UNL     1      23.699 -14.375  36.115  1.00  0.00    -0.507 OA
ATOM     26  H   UNL     1      23.175 -14.195  36.964  1.00  0.00     0.293 HD
ENDBRANCH   5  25
BRANCH   7  27
ATOM     27  O   UNL     1      25.392  -9.884  36.208  1.00  0.00    -0.507 OA
ATOM     28  H   UNL     1      25.885  -9.695  37.068  1.00  0.00     0.293 HD
ENDBRANCH   7  27
TORSDOF 7
ENDMDL
MODEL 6
REMARK VINA RESULT:    -3.279      1.083      3.118
REMARK INTER + INTRA:          -4.172
REMARK INTER:                  -3.939
REMARK INTRA:                  -0.233
REMARK UNBOUND:                -0.127
REMARK SMILES Oc1cc(O)c2cc(O)c(-c3cc(O)c(O)c(O)c3)[o+]c2c1
REMARK SMILES IDX 10 1 20 2 21 3 22 4 2 5 3 6 4 7 6 8 7 9 8 10 11 11 12 12
REMARK SMILES IDX 13 13 19 14 15 15 17 16 14 17 16 19 18 21 9 23 1 25 5 27
REMARK H PARENT 14 18 16 20 18 22 9 24 1 26 5 28
REMARK Flexibility Score: inf
ROOT
ATOM      1  C   UNL     1      27.450 -12.085  32.013  1.00  0.00     0.402 A 
ATOM      2  O   UNL     1      26.672 -12.961  32.645  1.00  0.00    -0.202 OA
ATOM      3  C   UNL     1      26.013 -12.676  33.763  1.00  0.00     0.368 A 
ATOM      4  C   UNL     1      25.217 -13.661  34.353  1.00  0.00     0.162 A 
ATOM      5  C   UNL     1      24.510 -13.387  35.527  1.00  0.00     0.128 A 
ATOM      6  C   UNL     1      24.598 -12.122  36.113  1.00  0.00     0.093 A 
ATOM      7  C   UNL     1      25.388 -11.117  35.541  1.00  0.00     0.136 A 
ATOM      8  C   UNL     1      26.110 -11.391  34.351  1.00  0.00     0.125 A 
ATOM      9  C   UNL     1      26.936 -10.450  33.715  1.00  0.00     0.078 A 
ATOM     10  C   UNL     1      27.621 -10.794  32.546  1.00  0.00     0.223 A 
ENDROOT
BRANCH   1  11
ATOM     11  C   UNL     1      28.126 -12.520  30.769  1.00  0.00     0.091 A 
ATOM     12  C   UNL     1      29.522 -12.668  30.756  1.00  0.00     0.068 A 
ATOM     13  C   UNL     1      30.184 -13.098  29.599  1.00  0.00     0.162 A 
ATOM     14  C   UNL     1      27.394 -12.843  29.613  1.00  0.00     0.068 A 
ATOM     15  C   UNL     1      29.446 -13.398  28.441  1.00  0.00     0.200 A 
ATOM     16  C   UNL     1      28.051 -13.274  28.453  1.00  0.00     0.162 A 
BRANCH  13  17
ATOM     17  O   UNL     1      31.572 -13.228  29.594  1.00  0.00    -0.504 OA
ATOM     18  H   UNL     1      32.024 -14.089  29.306  1.00  0.00     0.293 HD
ENDBRANCH  13  17
BRANCH  15  19
ATOM     19  O   UNL     1      30.083 -13.824  27.276  1.00  0.00    -0.502 OA
ATOM     20  H   UNL     1      30.831 -13.294  26.845  1.00  0.00     0.293 HD
ENDBRANCH  15  19
BRANCH  16  21
ATOM     21  O   UNL     1      27.322 -13.586  27.307  1.00  0.00    -0.504 OA
ATOM     22  H   UNL     1      26.324 -13.423  27.252  1.00  0.00     0.293 HD
ENDBRANCH  16  21
ENDBRANCH   1  11
BRANCH  10  23
ATOM     23  O   UNL     1      28.481  -9.877  31.942  1.00  0.00    -0.500 OA
ATOM     24  H   UNL     1      28.814 -10.004  30.993  1.00  0.00     0.294 HD
ENDBRANCH  10  23
BRANCH   5  25
ATOM     25  O   UNL     1      23.715 -14.365  36.122  1.00  0.00    -0.507 OA
ATOM     26  H   UNL     1      22.710 -14.258  36.194  1.00  0.00     0.293 HD
ENDBRANCH   5  25
BRANCH   7  27
ATOM     27  O   UNL     1      25.419  -9.878  36.187  1.00  0.00    -0.507 OA
ATOM     28  H   UNL     1      25.792  -9.033  35.781  1.00  0.00     0.293 HD
ENDBRANCH   7  27
TORSDOF 7
ENDMDL
MODEL 7
REMARK VINA RESULT:    -3.123      1.514      6.981
REMARK INTER + INTRA:          -3.980
REMARK INTER:                  -3.868
REMARK INTRA:                  -0.112
REMARK UNBOUND:                -0.127
REMARK SMILES Oc1cc(O)c2cc(O)c(-c3cc(O)c(O)c(O)c3)[o+]c2c1
REMARK SMILES IDX 10 1 20 2 21 3 22 4 2 5 3 6 4 7 6 8 7 9 8 10 11 11 12 12
REMARK SMILES IDX 13 13 19 14 15 15 17 16 14 17 16 19 18 21 9 23 1 25 5 27
REMARK H PARENT 14 18 16 20 18 22 9 24 1 26 5 28
REMARK Flexibility Score: inf
ROOT
ATOM      1  C   UNL     1      27.271 -12.625  32.344  1.00  0.00     0.402 A 
ATOM      2  O   UNL     1      27.302 -11.691  31.396  1.00  0.00    -0.202 OA
ATOM      3  C   UNL     1      27.985 -11.824  30.264  1.00  0.00     0.368 A 
ATOM      4  C   UNL     1      27.954 -10.789  29.326  1.00  0.00     0.162 A 
ATOM      5  C   UNL     1      28.661 -10.903  28.126  1.00  0.00     0.128 A 
ATOM      6  C   UNL     1      29.400 -12.059  27.861  1.00  0.00     0.093 A 
ATOM      7  C   UNL     1      29.447 -13.110  28.785  1.00  0.00     0.136 A 
ATOM      8  C   UNL     1      28.734 -12.998  30.007  1.00  0.00     0.125 A 
ATOM      9  C   UNL     1      28.733 -13.995  30.995  1.00  0.00     0.078 A 
ATOM     10  C   UNL     1      28.010 -13.811  32.177  1.00  0.00     0.223 A 
ENDROOT
BRANCH   1  11
ATOM     11  C   UNL     1      26.464 -12.363  33.558  1.00  0.00     0.091 A 
ATOM     12  C   UNL     1      25.494 -13.295  33.957  1.00  0.00     0.068 A 
ATOM     13  C   UNL     1      24.730 -13.083  35.113  1.00  0.00     0.162 A 
ATOM     14  C   UNL     1      26.687 -11.226  34.353  1.00  0.00     0.068 A 
ATOM     15  C   UNL     1      24.945 -11.932  35.890  1.00  0.00     0.200 A 
ATOM     16  C   UNL     1      25.927 -11.008  35.511  1.00  0.00     0.162 A 
BRANCH  13  17
ATOM     17  O   UNL     1      23.760 -14.010  35.492  1.00  0.00    -0.504 OA
ATOM     18  H   UNL     1      23.536 -14.176  36.466  1.00  0.00     0.293 HD
ENDBRANCH  13  17
BRANCH  15  19
ATOM     19  O   UNL     1      24.196 -11.696  37.043  1.00  0.00    -0.502 OA
ATOM     20  H   UNL     1      24.153 -12.364  37.804  1.00  0.00     0.293 HD
ENDBRANCH  15  19
BRANCH  16  21
ATOM     21  O   UNL     1      26.146  -9.876  36.293  1.00  0.00    -0.504 OA
ATOM     22  H   UNL     1      26.577  -9.938  37.209  1.00  0.00     0.293 HD
ENDBRANCH  16  21
ENDBRANCH   1  11
BRANCH  10  23
ATOM     23  O   UNL     1      28.049 -14.779  33.181  1.00  0.00    -0.500 OA
ATOM     24  H   UNL     1      28.873 -15.346  33.341  1.00  0.00     0.294 HD
ENDBRANCH  10  23
BRANCH   5  25
ATOM     25  O   UNL     1      28.635  -9.875  27.186  1.00  0.00    -0.507 OA
ATOM     26  H   UNL     1      28.992  -8.952  27.401  1.00  0.00     0.293 HD
ENDBRANCH   5  25
BRANCH   7  27
ATOM     27  O   UNL     1      30.207 -14.233  28.443  1.00  0.00    -0.507 OA
ATOM     28  H   UNL     1      29.891 -15.186  28.543  1.00  0.00     0.293 HD
ENDBRANCH   7  27
TORSDOF 7
ENDMDL
MODEL 8
REMARK VINA RESULT:    -2.859      2.002      7.499
REMARK INTER + INTRA:          -3.654
REMARK INTER:                  -3.990
REMARK INTRA:                   0.336
REMARK UNBOUND:                -0.127
REMARK SMILES Oc1cc(O)c2cc(O)c(-c3cc(O)c(O)c(O)c3)[o+]c2c1
REMARK SMILES IDX 10 1 20 2 21 3 22 4 2 5 3 6 4 7 6 8 7 9 8 10 11 11 12 12
REMARK SMILES IDX 13 13 19 14 15 15 17 16 14 17 16 19 18 21 9 23 1 25 5 27
REMARK H PARENT 14 18 16 20 18 22 9 24 1 26 5 28
REMARK Flexibility Score: inf
ROOT
ATOM      1  C   UNL     1      27.498 -12.086  30.843  1.00  0.00     0.402 A 
ATOM      2  O   UNL     1      26.973 -12.929  29.957  1.00  0.00    -0.202 OA
ATOM      3  C   UNL     1      27.351 -12.977  28.684  1.00  0.00     0.368 A 
ATOM      4  C   UNL     1      26.744 -13.901  27.829  1.00  0.00     0.162 A 
ATOM      5  C   UNL     1      27.124 -13.975  26.486  1.00  0.00     0.128 A 
ATOM      6  C   UNL     1      28.118 -13.124  25.997  1.00  0.00     0.093 A 
ATOM      7  C   UNL     1      28.743 -12.190  26.833  1.00  0.00     0.136 A 
ATOM      8  C   UNL     1      28.358 -12.109  28.197  1.00  0.00     0.125 A 
ATOM      9  C   UNL     1      28.920 -11.197  29.104  1.00  0.00     0.078 A 
ATOM     10  C   UNL     1      28.486 -11.172  30.433  1.00  0.00     0.223 A 
ENDROOT
BRANCH   1  11
ATOM     11  C   UNL     1      26.999 -12.135  32.237  1.00  0.00     0.091 A 
ATOM     12  C   UNL     1      27.107 -10.996  33.050  1.00  0.00     0.068 A 
ATOM     13  C   UNL     1      26.625 -11.008  34.366  1.00  0.00     0.162 A 
ATOM     14  C   UNL     1      26.368 -13.282  32.748  1.00  0.00     0.068 A 
ATOM     15  C   UNL     1      26.014 -12.167  34.875  1.00  0.00     0.200 A 
ATOM     16  C   UNL     1      25.882 -13.300  34.063  1.00  0.00     0.162 A 
BRANCH  13  17
ATOM     17  O   UNL     1      26.750  -9.875  35.168  1.00  0.00    -0.504 OA
ATOM     18  H   UNL     1      26.034  -9.158  35.189  1.00  0.00     0.293 HD
ENDBRANCH  13  17
BRANCH  15  19
ATOM     19  O   UNL     1      25.529 -12.205  36.182  1.00  0.00    -0.502 OA
ATOM     20  H   UNL     1      24.696 -12.724  36.433  1.00  0.00     0.293 HD
ENDBRANCH  15  19
BRANCH  16  21
ATOM     21  O   UNL     1      25.263 -14.442  34.568  1.00  0.00    -0.504 OA
ATOM     22  H   UNL     1      24.594 -14.390  35.328  1.00  0.00     0.293 HD
ENDBRANCH  16  21
ENDBRANCH   1  11
BRANCH  10  23
ATOM     23  O   UNL     1      29.007 -10.232  31.323  1.00  0.00    -0.500 OA
ATOM     24  H   UNL     1      29.778  -9.626  31.066  1.00  0.00     0.294 HD
ENDBRANCH  10  23
BRANCH   5  25
ATOM     25  O   UNL     1      26.522 -14.892  25.627  1.00  0.00    -0.507 OA
ATOM     26  H   UNL     1      26.908 -15.093  24.712  1.00  0.00     0.293 HD
ENDBRANCH   5  25
BRANCH   7  27
ATOM     27  O   UNL     1      29.730 -11.379  26.267  1.00  0.00    -0.507 OA
ATOM     28  H   UNL     1      30.081 -11.480  25.326  1.00  0.00     0.293 HD
ENDBRANCH   7  27
TORSDOF 7
ENDMDL
