MODEL 1
REMARK VINA RESULT:    -4.590      0.000      0.000
REMARK INTER + INTRA:          -5.197
REMARK INTER:                  -5.127
REMARK INTRA:                  -0.070
REMARK UNBOUND:                -0.070
REMARK SMILES CCc1ccc(O)cc1O
REMARK SMILES IDX 3 1 9 2 8 3 6 4 5 5 4 6 2 7 1 8 10 9 7 11
REMARK H PARENT 10 10 7 12
REMARK Flexibility Score: inf
ROOT
ATOM      1  C   UNL     1      38.981  18.529  53.286  1.00  0.00    -0.006 A 
ATOM      2  C   UNL     1      39.137  19.665  54.122  1.00  0.00     0.122 A 
ATOM      3  C   UNL     1      38.107  20.610  54.222  1.00  0.00     0.092 A 
ATOM      4  C   UNL     1      36.919  20.448  53.503  1.00  0.00     0.119 A 
ATOM      5  C   UNL     1      36.756  19.335  52.679  1.00  0.00     0.047 A 
ATOM      6  C   UNL     1      37.773  18.384  52.569  1.00  0.00     0.011 A 
ENDROOT
BRANCH   1   7
ATOM      7  C   UNL     1      40.108  17.512  53.189  1.00  0.00     0.036 C 
ATOM      8  C   UNL     1      39.684  16.042  53.205  1.00  0.00     0.009 C 
ENDBRANCH   1   7
BRANCH   2   9
ATOM      9  O   UNL     1      40.297  19.888  54.867  1.00  0.00    -0.508 OA
ATOM     10  H   UNL     1      40.293  20.239  55.815  1.00  0.00     0.293 HD
ENDBRANCH   2   9
BRANCH   4  11
ATOM     11  O   UNL     1      35.895  21.387  53.602  1.00  0.00    -0.508 OA
ATOM     12  H   UNL     1      35.096  21.238  54.206  1.00  0.00     0.293 HD
ENDBRANCH   4  11
TORSDOF 3
ENDMDL
MODEL 2
REMARK VINA RESULT:    -4.574      1.445      1.556
REMARK INTER + INTRA:          -5.179
REMARK INTER:                  -5.110
REMARK INTRA:                  -0.069
REMARK UNBOUND:                -0.070
REMARK SMILES CCc1ccc(O)cc1O
REMARK SMILES IDX 3 1 9 2 8 3 6 4 5 5 4 6 2 7 1 8 10 9 7 11
REMARK H PARENT 10 10 7 12
REMARK Flexibility Score: inf
ROOT
ATOM      1  C   UNL     1      39.064  18.671  53.911  1.00  0.00    -0.006 A 
ATOM      2  C   UNL     1      39.825  19.845  54.146  1.00  0.00     0.122 A 
ATOM      3  C   UNL     1      39.227  20.962  54.742  1.00  0.00     0.092 A 
ATOM      4  C   UNL     1      37.879  20.937  55.113  1.00  0.00     0.119 A 
ATOM      5  C   UNL     1      37.122  19.788  54.886  1.00  0.00     0.047 A 
ATOM      6  C   UNL     1      37.704  18.666  54.292  1.00  0.00     0.011 A 
ENDROOT
BRANCH   1   7
ATOM      7  C   UNL     1      39.728  17.466  53.263  1.00  0.00     0.036 C 
ATOM      8  C   UNL     1      38.844  16.230  53.087  1.00  0.00     0.009 C 
ENDBRANCH   1   7
BRANCH   2   9
ATOM      9  O   UNL     1      41.176  19.938  53.800  1.00  0.00    -0.508 OA
ATOM     10  H   UNL     1      41.504  20.350  52.937  1.00  0.00     0.293 HD
ENDBRANCH   2   9
BRANCH   4  11
ATOM     11  O   UNL     1      37.284  22.047  55.706  1.00  0.00    -0.508 OA
ATOM     12  H   UNL     1      37.833  22.748  56.189  1.00  0.00     0.293 HD
ENDBRANCH   4  11
TORSDOF 3
ENDMDL
MODEL 3
REMARK VINA RESULT:    -4.537      1.826      3.505
REMARK INTER + INTRA:          -5.137
REMARK INTER:                  -5.052
REMARK INTRA:                  -0.085
REMARK UNBOUND:                -0.070
REMARK SMILES CCc1ccc(O)cc1O
REMARK SMILES IDX 3 1 9 2 8 3 6 4 5 5 4 6 2 7 1 8 10 9 7 11
REMARK H PARENT 10 10 7 12
REMARK Flexibility Score: inf
ROOT
ATOM      1  C   UNL     1      37.946  19.394  54.305  1.00  0.00    -0.006 A 
ATOM      2  C   UNL     1      38.156  20.780  54.527  1.00  0.00     0.122 A 
ATOM      3  C   UNL     1      39.397  21.358  54.234  1.00  0.00     0.092 A 
ATOM      4  C   UNL     1      40.442  20.582  53.723  1.00  0.00     0.119 A 
ATOM      5  C   UNL     1      40.246  19.219  53.501  1.00  0.00     0.047 A 
ATOM      6  C   UNL     1      39.014  18.628  53.788  1.00  0.00     0.011 A 
ENDROOT
BRANCH   1   7
ATOM      7  C   UNL     1      36.592  18.781  54.627  1.00  0.00     0.036 C 
ATOM      8  C   UNL     1      36.379  18.354  56.081  1.00  0.00     0.009 C 
ENDBRANCH   1   7
BRANCH   2   9
ATOM      9  O   UNL     1      37.155  21.612  55.035  1.00  0.00    -0.508 OA
ATOM     10  H   UNL     1      36.444  22.044  54.461  1.00  0.00     0.293 HD
ENDBRANCH   2   9
BRANCH   4  11
ATOM     11  O   UNL     1      41.677  21.156  53.432  1.00  0.00    -0.508 OA
ATOM     12  H   UNL     1      41.845  22.147  53.562  1.00  0.00     0.293 HD
ENDBRANCH   4  11
TORSDOF 3
ENDMDL
MODEL 4
REMARK VINA RESULT:    -4.368      7.347      7.920
REMARK INTER + INTRA:          -4.949
REMARK INTER:                  -4.874
REMARK INTRA:                  -0.075
REMARK UNBOUND:                -0.070
REMARK SMILES CCc1ccc(O)cc1O
REMARK SMILES IDX 3 1 9 2 8 3 6 4 5 5 4 6 2 7 1 8 10 9 7 11
REMARK H PARENT 10 10 7 12
REMARK Flexibility Score: inf
ROOT
ATOM      1  C   UNL     1      43.315  25.418  52.925  1.00  0.00    -0.006 A 
ATOM      2  C   UNL     1      42.821  25.743  54.215  1.00  0.00     0.122 A 
ATOM      3  C   UNL     1      41.458  26.004  54.400  1.00  0.00     0.092 A 
ATOM      4  C   UNL     1      40.568  25.949  53.322  1.00  0.00     0.119 A 
ATOM      5  C   UNL     1      41.043  25.631  52.050  1.00  0.00     0.047 A 
ATOM      6  C   UNL     1      42.400  25.367  51.850  1.00  0.00     0.011 A 
ENDROOT
BRANCH   1   7
ATOM      7  C   UNL     1      44.798  25.136  52.740  1.00  0.00     0.036 C 
ATOM      8  C   UNL     1      45.529  26.032  51.738  1.00  0.00     0.009 C 
ENDBRANCH   1   7
BRANCH   2   9
ATOM      9  O   UNL     1      43.655  25.816  55.334  1.00  0.00    -0.508 OA
ATOM     10  H   UNL     1      44.146  25.019  55.716  1.00  0.00     0.293 HD
ENDBRANCH   2   9
BRANCH   4  11
ATOM     11  O   UNL     1      39.213  26.209  53.506  1.00  0.00    -0.508 OA
ATOM     12  H   UNL     1      38.831  26.411  54.422  1.00  0.00     0.293 HD
ENDBRANCH   4  11
TORSDOF 3
ENDMDL
MODEL 5
REMARK VINA RESULT:    -4.325      2.323      3.608
REMARK INTER + INTRA:          -4.900
REMARK INTER:                  -4.815
REMARK INTRA:                  -0.085
REMARK UNBOUND:                -0.070
REMARK SMILES CCc1ccc(O)cc1O
REMARK SMILES IDX 3 1 9 2 8 3 6 4 5 5 4 6 2 7 1 8 10 9 7 11
REMARK H PARENT 10 10 7 12
REMARK Flexibility Score: inf
ROOT
ATOM      1  C   UNL     1      37.986  19.317  54.292  1.00  0.00    -0.006 A 
ATOM      2  C   UNL     1      39.076  18.571  53.776  1.00  0.00     0.122 A 
ATOM      3  C   UNL     1      40.292  19.208  53.495  1.00  0.00     0.092 A 
ATOM      4  C   UNL     1      40.447  20.580  53.718  1.00  0.00     0.119 A 
ATOM      5  C   UNL     1      39.381  21.322  54.225  1.00  0.00     0.047 A 
ATOM      6  C   UNL     1      38.162  20.702  54.511  1.00  0.00     0.011 A 
ENDROOT
BRANCH   1   7
ATOM      7  C   UNL     1      36.672  18.612  54.594  1.00  0.00     0.036 C 
ATOM      8  C   UNL     1      36.344  18.414  56.075  1.00  0.00     0.009 C 
ENDBRANCH   1   7
BRANCH   2   9
ATOM      9  O   UNL     1      38.989  17.199  53.530  1.00  0.00    -0.508 OA
ATOM     10  H   UNL     1      39.067  16.791  52.608  1.00  0.00     0.293 HD
ENDBRANCH   2   9
BRANCH   4  11
ATOM     11  O   UNL     1      41.655  21.213  53.438  1.00  0.00    -0.508 OA
ATOM     12  H   UNL     1      41.918  22.079  53.894  1.00  0.00     0.293 HD
ENDBRANCH   4  11
TORSDOF 3
ENDMDL
MODEL 6
REMARK VINA RESULT:    -4.320     16.944     18.338
REMARK INTER + INTRA:          -4.895
REMARK INTER:                  -4.805
REMARK INTRA:                  -0.090
REMARK UNBOUND:                -0.070
REMARK SMILES CCc1ccc(O)cc1O
REMARK SMILES IDX 3 1 9 2 8 3 6 4 5 5 4 6 2 7 1 8 10 9 7 11
REMARK H PARENT 10 10 7 12
REMARK Flexibility Score: inf
ROOT
ATOM      1  C   UNL     1      47.351  33.478  60.982  1.00  0.00    -0.006 A 
ATOM      2  C   UNL     1      46.661  32.866  59.904  1.00  0.00     0.122 A 
ATOM      3  C   UNL     1      47.341  32.555  58.721  1.00  0.00     0.092 A 
ATOM      4  C   UNL     1      48.704  32.840  58.585  1.00  0.00     0.119 A 
ATOM      5  C   UNL     1      49.392  33.442  59.639  1.00  0.00     0.047 A 
ATOM      6  C   UNL     1      48.727  33.758  60.825  1.00  0.00     0.011 A 
ENDROOT
BRANCH   1   7
ATOM      7  C   UNL     1      46.598  33.809  62.262  1.00  0.00     0.036 C 
ATOM      8  C   UNL     1      46.514  32.687  63.298  1.00  0.00     0.009 C 
ENDBRANCH   1   7
BRANCH   2   9
ATOM      9  O   UNL     1      45.301  32.554  59.973  1.00  0.00    -0.508 OA
ATOM     10  H   UNL     1      44.811  32.382  60.841  1.00  0.00     0.293 HD
ENDBRANCH   2   9
BRANCH   4  11
ATOM     11  O   UNL     1      49.381  32.531  57.408  1.00  0.00    -0.508 OA
ATOM     12  H   UNL     1      48.885  32.352  56.543  1.00  0.00     0.293 HD
ENDBRANCH   4  11
TORSDOF 3
ENDMDL
MODEL 7
REMARK VINA RESULT:    -4.312      2.236      2.791
REMARK INTER + INTRA:          -4.886
REMARK INTER:                  -4.805
REMARK INTRA:                  -0.082
REMARK UNBOUND:                -0.070
REMARK SMILES CCc1ccc(O)cc1O
REMARK SMILES IDX 3 1 9 2 8 3 6 4 5 5 4 6 2 7 1 8 10 9 7 11
REMARK H PARENT 10 10 7 12
REMARK Flexibility Score: inf
ROOT
ATOM      1  C   UNL     1      38.315  19.798  53.658  1.00  0.00    -0.006 A 
ATOM      2  C   UNL     1      39.546  20.411  54.007  1.00  0.00     0.122 A 
ATOM      3  C   UNL     1      39.971  21.564  53.337  1.00  0.00     0.092 A 
ATOM      4  C   UNL     1      39.194  22.125  52.318  1.00  0.00     0.119 A 
ATOM      5  C   UNL     1      37.982  21.530  51.967  1.00  0.00     0.047 A 
ATOM      6  C   UNL     1      37.544  20.380  52.627  1.00  0.00     0.011 A 
ENDROOT
BRANCH   1   7
ATOM      7  C   UNL     1      37.865  18.546  54.396  1.00  0.00     0.036 C 
ATOM      8  C   UNL     1      36.630  18.701  55.285  1.00  0.00     0.009 C 
ENDBRANCH   1   7
BRANCH   2   9
ATOM      9  O   UNL     1      40.370  19.903  55.014  1.00  0.00    -0.508 OA
ATOM     10  H   UNL     1      40.914  19.056  54.915  1.00  0.00     0.293 HD
ENDBRANCH   2   9
BRANCH   4  11
ATOM     11  O   UNL     1      39.617  23.272  51.651  1.00  0.00    -0.508 OA
ATOM     12  H   UNL     1      38.957  23.966  51.319  1.00  0.00     0.293 HD
ENDBRANCH   4  11
TORSDOF 3
ENDMDL
MODEL 8
REMARK VINA RESULT:    -4.258     16.993     18.135
REMARK INTER + INTRA:          -4.825
REMARK INTER:                  -4.756
REMARK INTRA:                  -0.069
REMARK UNBOUND:                -0.070
REMARK SMILES CCc1ccc(O)cc1O
REMARK SMILES IDX 3 1 9 2 8 3 6 4 5 5 4 6 2 7 1 8 10 9 7 11
REMARK H PARENT 10 10 7 12
REMARK Flexibility Score: inf
ROOT
ATOM      1  C   UNL     1      47.047  32.986  60.751  1.00  0.00    -0.006 A 
ATOM      2  C   UNL     1      48.371  33.496  60.722  1.00  0.00     0.122 A 
ATOM      3  C   UNL     1      49.143  33.380  59.559  1.00  0.00     0.092 A 
ATOM      4  C   UNL     1      48.624  32.762  58.417  1.00  0.00     0.119 A 
ATOM      5  C   UNL     1      47.324  32.257  58.436  1.00  0.00     0.047 A 
ATOM      6  C   UNL     1      46.541  32.366  59.587  1.00  0.00     0.011 A 
ENDROOT
BRANCH   1   7
ATOM      7  C   UNL     1      46.220  33.121  62.021  1.00  0.00     0.036 C 
ATOM      8  C   UNL     1      44.875  32.392  62.024  1.00  0.00     0.009 C 
ENDBRANCH   1   7
BRANCH   2   9
ATOM      9  O   UNL     1      48.951  34.124  61.827  1.00  0.00    -0.508 OA
ATOM     10  H   UNL     1      49.527  34.953  61.759  1.00  0.00     0.293 HD
ENDBRANCH   2   9
BRANCH   4  11
ATOM     11  O   UNL     1      49.391  32.645  57.261  1.00  0.00    -0.508 OA
ATOM     12  H   UNL     1      50.074  31.905  57.151  1.00  0.00     0.293 HD
ENDBRANCH   4  11
TORSDOF 3
ENDMDL
MODEL 9
REMARK VINA RESULT:    -4.238      2.011      3.666
REMARK INTER + INTRA:          -4.803
REMARK INTER:                  -4.732
REMARK INTRA:                  -0.071
REMARK UNBOUND:                -0.070
REMARK SMILES CCc1ccc(O)cc1O
REMARK SMILES IDX 3 1 9 2 8 3 6 4 5 5 4 6 2 7 1 8 10 9 7 11
REMARK H PARENT 10 10 7 12
REMARK Flexibility Score: inf
ROOT
ATOM      1  C   UNL     1      38.040  20.057  54.606  1.00  0.00    -0.006 A 
ATOM      2  C   UNL     1      39.196  19.313  54.256  1.00  0.00     0.122 A 
ATOM      3  C   UNL     1      39.069  18.015  53.747  1.00  0.00     0.092 A 
ATOM      4  C   UNL     1      37.807  17.436  53.577  1.00  0.00     0.119 A 
ATOM      5  C   UNL     1      36.664  18.159  53.918  1.00  0.00     0.047 A 
ATOM      6  C   UNL     1      36.774  19.455  54.426  1.00  0.00     0.011 A 
ENDROOT
BRANCH   1   7
ATOM      7  C   UNL     1      38.194  21.467  55.156  1.00  0.00     0.036 C 
ATOM      8  C   UNL     1      37.377  21.789  56.409  1.00  0.00     0.009 C 
ENDBRANCH   1   7
BRANCH   2   9
ATOM      9  O   UNL     1      40.486  19.831  54.400  1.00  0.00    -0.508 OA
ATOM     10  H   UNL     1      40.987  19.841  55.278  1.00  0.00     0.293 HD
ENDBRANCH   2   9
BRANCH   4  11
ATOM     11  O   UNL     1      37.679  16.145  53.072  1.00  0.00    -0.508 OA
ATOM     12  H   UNL     1      38.412  15.454  53.189  1.00  0.00     0.293 HD
ENDBRANCH   4  11
TORSDOF 3
ENDMDL
