MODEL 1
REMARK VINA RESULT:    -8.563      0.000      0.000
REMARK INTER + INTRA:          -9.341
REMARK INTER:                  -9.314
REMARK INTRA:                  -0.027
REMARK UNBOUND:                -0.027
REMARK SMILES C[C@@H]1[C@H](C)CC[C@]2(C(=O)[O-])CC[C@@]3(C)C(=CC[C@H]4[C@@]5(C)CC[C@@H](O)C(C)(C)[C@@H]5CC[C@]43C)[C@H]12
REMARK SMILES IDX 7 1 6 2 11 3 33 4 5 5 12 6 15 7 2 8 3 9 13 10 16 11 1 12
REMARK SMILES IDX 4 13 14 14 31 15 17 16 18 17 30 18 32 19 19 20 29 21 28 22
REMARK SMILES IDX 21 23 20 24 25 25 22 26 23 27 26 28 27 29 8 30 9 31 10 32
REMARK SMILES IDX 24 33
REMARK H PARENT 24 34
REMARK Flexibility Score: inf
ROOT
ATOM      1  C   UNL     1      18.371 -25.462 -27.870  1.00  0.00     0.017 C 
ATOM      2  C   UNL     1      18.895 -25.545 -26.398  1.00  0.00     0.014 C 
ATOM      3  C   UNL     1      19.512 -25.669 -28.880  1.00  0.00     0.014 C 
ATOM      4  C   UNL     1      17.697 -24.062 -28.092  1.00  0.00     0.030 C 
ATOM      5  C   UNL     1      17.782 -25.351 -25.349  1.00  0.00     0.004 C 
ATOM      6  C   UNL     1      20.592 -24.600 -28.797  1.00  0.00     0.013 C 
ATOM      7  C   UNL     1      18.760 -22.918 -28.182  1.00  0.00    -0.063 C 
ATOM      8  C   UNL     1      16.528 -23.928 -27.031  1.00  0.00    -0.003 C 
ATOM      9  C   UNL     1      16.991 -24.040 -25.553  1.00  0.00    -0.011 C 
ATOM     10  C   UNL     1      20.079 -23.126 -28.962  1.00  0.00    -0.006 C 
ATOM     11  C   UNL     1      18.364 -21.646 -28.006  1.00  0.00    -0.027 C 
ATOM     12  C   UNL     1      15.439 -22.863 -27.287  1.00  0.00     0.008 C 
ATOM     13  C   UNL     1      17.774 -22.827 -25.020  1.00  0.00     0.008 C 
ATOM     14  C   UNL     1      19.702 -22.946 -30.468  1.00  0.00     0.017 C 
ATOM     15  C   UNL     1      21.226 -22.057 -28.531  1.00  0.00    -0.020 C 
ATOM     16  C   UNL     1      19.251 -20.448 -27.994  1.00  0.00     0.032 C 
ATOM     17  C   UNL     1      20.671 -20.567 -28.619  1.00  0.00     0.006 C 
ATOM     18  C   UNL     1      21.724 -22.298 -27.066  1.00  0.00     0.008 C 
ATOM     19  C   UNL     1      22.448 -22.249 -29.489  1.00  0.00     0.012 C 
ATOM     20  C   UNL     1      21.649 -19.424 -28.049  1.00  0.00    -0.025 C 
ATOM     21  C   UNL     1      22.688 -21.227 -26.516  1.00  0.00     0.005 C 
ATOM     22  C   UNL     1      22.086 -19.807 -26.582  1.00  0.00     0.003 C 
ATOM     23  C   UNL     1      20.919 -18.033 -27.991  1.00  0.00     0.010 C 
ATOM     24  C   UNL     1      22.859 -19.244 -29.030  1.00  0.00     0.012 C 
ATOM     25  C   UNL     1      22.891 -18.697 -25.786  1.00  0.00    -0.006 C 
ATOM     26  C   UNL     1      21.716 -16.935 -27.265  1.00  0.00     0.033 C 
ATOM     27  C   UNL     1      22.097 -17.350 -25.834  1.00  0.00     0.120 C 
ATOM     28  C   UNL     1      24.335 -18.476 -26.307  1.00  0.00     0.014 C 
ATOM     29  C   UNL     1      23.029 -19.109 -24.292  1.00  0.00     0.014 C 
ENDROOT
BRANCH   1  30
ATOM     30  C   UNL     1      17.397 -26.605 -28.152  1.00  0.00     0.048 C 
ATOM     31  O   UNL     1      17.556 -27.734 -27.612  1.00  0.00    -0.550 OA
ATOM     32  O   UNL     1      16.389 -26.454 -29.097  1.00  0.00    -0.550 OA
ENDBRANCH   1  30
BRANCH  27  33
ATOM     33  O   UNL     1      20.926 -17.450 -25.057  1.00  0.00    -0.393 OA
ATOM     34  H   UNL     1      21.087 -18.155 -24.377  1.00  0.00     0.210 HD
ENDBRANCH  27  33
TORSDOF 2
ENDMDL
MODEL 2
REMARK VINA RESULT:    -8.240      1.172      1.339
REMARK INTER + INTRA:          -8.990
REMARK INTER:                  -8.963
REMARK INTRA:                  -0.027
REMARK UNBOUND:                -0.027
REMARK SMILES C[C@@H]1[C@H](C)CC[C@]2(C(=O)[O-])CC[C@@]3(C)C(=CC[C@H]4[C@@]5(C)CC[C@@H](O)C(C)(C)[C@@H]5CC[C@]43C)[C@H]12
REMARK SMILES IDX 7 1 6 2 11 3 33 4 5 5 12 6 15 7 2 8 3 9 13 10 16 11 1 12
REMARK SMILES IDX 4 13 14 14 31 15 17 16 18 17 30 18 32 19 19 20 29 21 28 22
REMARK SMILES IDX 21 23 20 24 25 25 22 26 23 27 26 28 27 29 8 30 9 31 10 32
REMARK SMILES IDX 24 33
REMARK H PARENT 24 34
REMARK Flexibility Score: inf
ROOT
ATOM      1  C   UNL     1      18.080 -25.383 -29.307  1.00  0.00     0.017 C 
ATOM      2  C   UNL     1      18.761 -26.049 -28.065  1.00  0.00     0.014 C 
ATOM      3  C   UNL     1      19.063 -25.262 -30.483  1.00  0.00     0.014 C 
ATOM      4  C   UNL     1      17.549 -23.965 -28.897  1.00  0.00     0.030 C 
ATOM      5  C   UNL     1      17.809 -26.198 -26.862  1.00  0.00     0.004 C 
ATOM      6  C   UNL     1      20.260 -24.373 -30.180  1.00  0.00     0.013 C 
ATOM      7  C   UNL     1      18.718 -22.939 -28.722  1.00  0.00    -0.063 C 
ATOM      8  C   UNL     1      16.535 -24.170 -27.695  1.00  0.00    -0.003 C 
ATOM      9  C   UNL     1      17.154 -24.861 -26.449  1.00  0.00    -0.011 C 
ATOM     10  C   UNL     1      19.903 -22.918 -29.714  1.00  0.00    -0.006 C 
ATOM     11  C   UNL     1      18.492 -21.807 -28.035  1.00  0.00    -0.027 C 
ATOM     12  C   UNL     1      15.552 -23.022 -27.375  1.00  0.00     0.008 C 
ATOM     13  C   UNL     1      18.127 -23.991 -25.635  1.00  0.00     0.008 C 
ATOM     14  C   UNL     1      19.375 -22.159 -30.973  1.00  0.00     0.017 C 
ATOM     15  C   UNL     1      21.207 -22.164 -29.101  1.00  0.00    -0.020 C 
ATOM     16  C   UNL     1      19.505 -20.760 -27.720  1.00  0.00     0.032 C 
ATOM     17  C   UNL     1      20.819 -20.721 -28.553  1.00  0.00     0.006 C 
ATOM     18  C   UNL     1      21.843 -22.971 -27.920  1.00  0.00     0.008 C 
ATOM     19  C   UNL     1      22.279 -22.054 -30.237  1.00  0.00     0.012 C 
ATOM     20  C   UNL     1      21.982 -19.941 -27.759  1.00  0.00    -0.025 C 
ATOM     21  C   UNL     1      22.981 -22.250 -27.169  1.00  0.00     0.005 C 
ATOM     22  C   UNL     1      22.542 -20.876 -26.619  1.00  0.00     0.003 C 
ATOM     23  C   UNL     1      21.426 -18.633 -27.087  1.00  0.00     0.010 C 
ATOM     24  C   UNL     1      23.080 -19.478 -28.778  1.00  0.00     0.012 C 
ATOM     25  C   UNL     1      23.556 -20.202 -25.604  1.00  0.00    -0.006 C 
ATOM     26  C   UNL     1      22.424 -17.942 -26.139  1.00  0.00     0.033 C 
ATOM     27  C   UNL     1      22.921 -18.891 -25.034  1.00  0.00     0.120 C 
ATOM     28  C   UNL     1      24.944 -19.890 -26.221  1.00  0.00     0.014 C 
ATOM     29  C   UNL     1      23.820 -21.156 -24.404  1.00  0.00     0.014 C 
ENDROOT
BRANCH   1  30
ATOM     30  C   UNL     1      16.956 -26.273 -29.836  1.00  0.00     0.048 C 
ATOM     31  O   UNL     1      17.044 -27.529 -29.771  1.00  0.00    -0.550 OA
ATOM     32  O   UNL     1      15.872 -25.714 -30.503  1.00  0.00    -0.550 OA
ENDBRANCH   1  30
BRANCH  27  33
ATOM     33  O   UNL     1      21.846 -19.204 -24.180  1.00  0.00    -0.393 OA
ATOM     34  H   UNL     1      21.167 -19.678 -24.728  1.00  0.00     0.210 HD
ENDBRANCH  27  33
TORSDOF 2
ENDMDL
MODEL 3
REMARK VINA RESULT:    -7.855      2.756      4.798
REMARK INTER + INTRA:          -8.571
REMARK INTER:                  -8.565
REMARK INTRA:                  -0.006
REMARK UNBOUND:                -0.027
REMARK SMILES C[C@@H]1[C@H](C)CC[C@]2(C(=O)[O-])CC[C@@]3(C)C(=CC[C@H]4[C@@]5(C)CC[C@@H](O)C(C)(C)[C@@H]5CC[C@]43C)[C@H]12
REMARK SMILES IDX 7 1 6 2 11 3 33 4 5 5 12 6 15 7 2 8 3 9 13 10 16 11 1 12
REMARK SMILES IDX 4 13 14 14 31 15 17 16 18 17 30 18 32 19 19 20 29 21 28 22
REMARK SMILES IDX 21 23 20 24 25 25 22 26 23 27 26 28 27 29 8 30 9 31 10 32
REMARK SMILES IDX 24 33
REMARK H PARENT 24 34
REMARK Flexibility Score: inf
ROOT
ATOM      1  C   UNL     1      18.142 -23.310 -25.518  1.00  0.00     0.017 C 
ATOM      2  C   UNL     1      16.960 -22.746 -26.376  1.00  0.00     0.014 C 
ATOM      3  C   UNL     1      18.880 -22.182 -24.779  1.00  0.00     0.014 C 
ATOM      4  C   UNL     1      19.133 -24.080 -26.459  1.00  0.00     0.030 C 
ATOM      5  C   UNL     1      16.185 -23.844 -27.130  1.00  0.00     0.004 C 
ATOM      6  C   UNL     1      19.532 -21.174 -25.713  1.00  0.00     0.013 C 
ATOM      7  C   UNL     1      19.967 -23.098 -27.347  1.00  0.00    -0.063 C 
ATOM      8  C   UNL     1      18.307 -25.231 -27.172  1.00  0.00    -0.003 C 
ATOM      9  C   UNL     1      17.100 -24.725 -28.009  1.00  0.00    -0.011 C 
ATOM     10  C   UNL     1      20.533 -21.788 -26.755  1.00  0.00    -0.006 C 
ATOM     11  C   UNL     1      20.582 -23.574 -28.442  1.00  0.00    -0.027 C 
ATOM     12  C   UNL     1      19.096 -26.394 -27.814  1.00  0.00     0.008 C 
ATOM     13  C   UNL     1      17.468 -24.013 -29.322  1.00  0.00     0.008 C 
ATOM     14  C   UNL     1      21.809 -22.211 -25.958  1.00  0.00     0.017 C 
ATOM     15  C   UNL     1      20.915 -20.704 -27.906  1.00  0.00    -0.020 C 
ATOM     16  C   UNL     1      21.357 -22.769 -29.429  1.00  0.00     0.032 C 
ATOM     17  C   UNL     1      21.862 -21.359 -29.005  1.00  0.00     0.006 C 
ATOM     18  C   UNL     1      19.642 -20.157 -28.634  1.00  0.00     0.008 C 
ATOM     19  C   UNL     1      21.627 -19.495 -27.212  1.00  0.00     0.012 C 
ATOM     20  C   UNL     1      22.170 -20.446 -30.294  1.00  0.00    -0.025 C 
ATOM     21  C   UNL     1      19.920 -19.253 -29.853  1.00  0.00     0.005 C 
ATOM     22  C   UNL     1      20.804 -19.950 -30.909  1.00  0.00     0.003 C 
ATOM     23  C   UNL     1      22.931 -21.266 -31.398  1.00  0.00     0.010 C 
ATOM     24  C   UNL     1      23.126 -19.274 -29.879  1.00  0.00     0.012 C 
ATOM     25  C   UNL     1      20.902 -19.201 -32.303  1.00  0.00    -0.006 C 
ATOM     26  C   UNL     1      23.077 -20.526 -32.740  1.00  0.00     0.033 C 
ATOM     27  C   UNL     1      21.716 -20.084 -33.306  1.00  0.00     0.120 C 
ATOM     28  C   UNL     1      21.535 -17.789 -32.212  1.00  0.00     0.014 C 
ATOM     29  C   UNL     1      19.480 -19.001 -32.901  1.00  0.00     0.014 C 
ENDROOT
BRANCH   1  30
ATOM     30  C   UNL     1      17.607 -24.212 -24.406  1.00  0.00     0.048 C 
ATOM     31  O   UNL     1      16.420 -24.092 -23.995  1.00  0.00    -0.550 OA
ATOM     32  O   UNL     1      18.454 -25.099 -23.751  1.00  0.00    -0.550 OA
ENDBRANCH   1  30
BRANCH  27  33
ATOM     33  O   UNL     1      20.973 -21.227 -33.660  1.00  0.00    -0.393 OA
ATOM     34  H   UNL     1      21.592 -22.002 -33.620  1.00  0.00     0.210 HD
ENDBRANCH  27  33
TORSDOF 2
ENDMDL
MODEL 4
REMARK VINA RESULT:    -7.561      2.630      7.596
REMARK INTER + INTRA:          -8.252
REMARK INTER:                  -8.223
REMARK INTRA:                  -0.029
REMARK UNBOUND:                -0.027
REMARK SMILES C[C@@H]1[C@H](C)CC[C@]2(C(=O)[O-])CC[C@@]3(C)C(=CC[C@H]4[C@@]5(C)CC[C@@H](O)C(C)(C)[C@@H]5CC[C@]43C)[C@H]12
REMARK SMILES IDX 7 1 6 2 11 3 33 4 5 5 12 6 15 7 2 8 3 9 13 10 16 11 1 12
REMARK SMILES IDX 4 13 14 14 31 15 17 16 18 17 30 18 32 19 19 20 29 21 28 22
REMARK SMILES IDX 21 23 20 24 25 25 22 26 23 27 26 28 27 29 8 30 9 31 10 32
REMARK SMILES IDX 24 33
REMARK H PARENT 24 34
REMARK Flexibility Score: inf
ROOT
ATOM      1  C   UNL     1      21.389 -21.415 -26.460  1.00  0.00     0.017 C 
ATOM      2  C   UNL     1      22.406 -22.320 -27.233  1.00  0.00     0.014 C 
ATOM      3  C   UNL     1      20.502 -22.250 -25.523  1.00  0.00     0.014 C 
ATOM      4  C   UNL     1      20.504 -20.641 -27.498  1.00  0.00     0.030 C 
ATOM      5  C   UNL     1      23.324 -21.523 -28.181  1.00  0.00     0.004 C 
ATOM      6  C   UNL     1      19.633 -23.261 -26.256  1.00  0.00     0.013 C 
ATOM      7  C   UNL     1      19.464 -21.585 -28.187  1.00  0.00    -0.063 C 
ATOM      8  C   UNL     1      21.483 -19.796 -28.415  1.00  0.00    -0.003 C 
ATOM      9  C   UNL     1      22.536 -20.646 -29.178  1.00  0.00    -0.011 C 
ATOM     10  C   UNL     1      18.704 -22.653 -27.367  1.00  0.00    -0.006 C 
ATOM     11  C   UNL     1      18.888 -21.191 -29.335  1.00  0.00    -0.027 C 
ATOM     12  C   UNL     1      20.882 -18.629 -29.230  1.00  0.00     0.008 C 
ATOM     13  C   UNL     1      21.980 -21.484 -30.341  1.00  0.00     0.008 C 
ATOM     14  C   UNL     1      17.568 -21.876 -26.628  1.00  0.00     0.017 C 
ATOM     15  C   UNL     1      18.077 -23.822 -28.307  1.00  0.00    -0.020 C 
ATOM     16  C   UNL     1      17.931 -21.991 -30.152  1.00  0.00     0.032 C 
ATOM     17  C   UNL     1      17.206 -23.194 -29.482  1.00  0.00     0.006 C 
ATOM     18  C   UNL     1      19.193 -24.707 -28.957  1.00  0.00     0.008 C 
ATOM     19  C   UNL     1      17.198 -24.748 -27.402  1.00  0.00     0.012 C 
ATOM     20  C   UNL     1      16.674 -24.234 -30.589  1.00  0.00    -0.025 C 
ATOM     21  C   UNL     1      18.696 -25.732 -29.997  1.00  0.00     0.005 C 
ATOM     22  C   UNL     1      17.896 -25.068 -31.138  1.00  0.00     0.003 C 
ATOM     23  C   UNL     1      16.014 -23.482 -31.801  1.00  0.00     0.010 C 
ATOM     24  C   UNL     1      15.547 -25.125 -29.959  1.00  0.00     0.012 C 
ATOM     25  C   UNL     1      17.594 -26.005 -32.381  1.00  0.00    -0.006 C 
ATOM     26  C   UNL     1      15.670 -24.393 -32.993  1.00  0.00     0.033 C 
ATOM     27  C   UNL     1      16.899 -25.165 -33.503  1.00  0.00     0.120 C 
ATOM     28  C   UNL     1      16.725 -27.242 -32.036  1.00  0.00     0.014 C 
ATOM     29  C   UNL     1      18.925 -26.559 -32.965  1.00  0.00     0.014 C 
ENDROOT
BRANCH   1  30
ATOM     30  C   UNL     1      22.134 -20.456 -25.531  1.00  0.00     0.048 C 
ATOM     31  O   UNL     1      23.230 -20.791 -25.004  1.00  0.00    -0.550 OA
ATOM     32  O   UNL     1      21.556 -19.247 -25.158  1.00  0.00    -0.550 OA
ENDBRANCH   1  30
BRANCH  27  33
ATOM     33  O   UNL     1      17.815 -24.252 -34.063  1.00  0.00    -0.393 OA
ATOM     34  H   UNL     1      17.317 -23.713 -34.731  1.00  0.00     0.210 HD
ENDBRANCH  27  33
TORSDOF 2
ENDMDL
MODEL 5
REMARK VINA RESULT:    -7.524      2.355      4.357
REMARK INTER + INTRA:          -8.212
REMARK INTER:                  -8.185
REMARK INTRA:                  -0.027
REMARK UNBOUND:                -0.027
REMARK SMILES C[C@@H]1[C@H](C)CC[C@]2(C(=O)[O-])CC[C@@]3(C)C(=CC[C@H]4[C@@]5(C)CC[C@@H](O)C(C)(C)[C@@H]5CC[C@]43C)[C@H]12
REMARK SMILES IDX 7 1 6 2 11 3 33 4 5 5 12 6 15 7 2 8 3 9 13 10 16 11 1 12
REMARK SMILES IDX 4 13 14 14 31 15 17 16 18 17 30 18 32 19 19 20 29 21 28 22
REMARK SMILES IDX 21 23 20 24 25 25 22 26 23 27 26 28 27 29 8 30 9 31 10 32
REMARK SMILES IDX 24 33
REMARK H PARENT 24 34
REMARK Flexibility Score: inf
ROOT
ATOM      1  C   UNL     1      18.403 -22.932 -25.808  1.00  0.00     0.017 C 
ATOM      2  C   UNL     1      17.292 -22.147 -26.583  1.00  0.00     0.014 C 
ATOM      3  C   UNL     1      18.945 -22.108 -24.629  1.00  0.00     0.014 C 
ATOM      4  C   UNL     1      19.564 -23.285 -26.802  1.00  0.00     0.030 C 
ATOM      5  C   UNL     1      16.713 -22.939 -27.772  1.00  0.00     0.004 C 
ATOM      6  C   UNL     1      19.619 -20.813 -25.056  1.00  0.00     0.013 C 
ATOM      7  C   UNL     1      20.414 -22.023 -27.169  1.00  0.00    -0.063 C 
ATOM      8  C   UNL     1      18.935 -24.142 -27.978  1.00  0.00    -0.003 C 
ATOM      9  C   UNL     1      17.801 -23.420 -28.757  1.00  0.00    -0.011 C 
ATOM     10  C   UNL     1      20.789 -20.984 -26.088  1.00  0.00    -0.006 C 
ATOM     11  C   UNL     1      21.197 -22.061 -28.259  1.00  0.00    -0.027 C 
ATOM     12  C   UNL     1      19.893 -24.975 -28.858  1.00  0.00     0.008 C 
ATOM     13  C   UNL     1      18.264 -22.279 -29.678  1.00  0.00     0.008 C 
ATOM     14  C   UNL     1      21.988 -21.612 -25.308  1.00  0.00     0.017 C 
ATOM     15  C   UNL     1      21.215 -19.552 -26.730  1.00  0.00    -0.020 C 
ATOM     16  C   UNL     1      22.017 -20.932 -28.787  1.00  0.00     0.032 C 
ATOM     17  C   UNL     1      22.343 -19.743 -27.837  1.00  0.00     0.006 C 
ATOM     18  C   UNL     1      19.999 -18.831 -27.403  1.00  0.00     0.008 C 
ATOM     19  C   UNL     1      21.730 -18.637 -25.569  1.00  0.00     0.012 C 
ATOM     20  C   UNL     1      22.727 -18.425 -28.676  1.00  0.00    -0.025 C 
ATOM     21  C   UNL     1      20.346 -17.548 -28.185  1.00  0.00     0.005 C 
ATOM     22  C   UNL     1      21.410 -17.795 -29.275  1.00  0.00     0.003 C 
ATOM     23  C   UNL     1      23.686 -18.776 -29.871  1.00  0.00     0.010 C 
ATOM     24  C   UNL     1      23.522 -17.439 -27.751  1.00  0.00     0.012 C 
ATOM     25  C   UNL     1      21.614 -16.602 -30.299  1.00  0.00    -0.006 C 
ATOM     26  C   UNL     1      23.932 -17.607 -30.843  1.00  0.00     0.033 C 
ATOM     27  C   UNL     1      22.618 -17.046 -31.414  1.00  0.00     0.120 C 
ATOM     28  C   UNL     1      22.108 -15.289 -29.639  1.00  0.00     0.014 C 
ATOM     29  C   UNL     1      20.264 -16.259 -30.991  1.00  0.00     0.014 C 
ENDROOT
BRANCH   1  30
ATOM     30  C   UNL     1      17.815 -24.186 -25.163  1.00  0.00     0.048 C 
ATOM     31  O   UNL     1      16.622 -24.200 -24.751  1.00  0.00    -0.550 OA
ATOM     32  O   UNL     1      18.619 -25.292 -24.914  1.00  0.00    -0.550 OA
ENDBRANCH   1  30
BRANCH  27  33
ATOM     33  O   UNL     1      22.025 -18.019 -32.242  1.00  0.00    -0.393 OA
ATOM     34  H   UNL     1      21.384 -17.545 -32.834  1.00  0.00     0.210 HD
ENDBRANCH  27  33
TORSDOF 2
ENDMDL
MODEL 6
REMARK VINA RESULT:    -7.485      1.568      7.645
REMARK INTER + INTRA:          -8.168
REMARK INTER:                  -8.141
REMARK INTRA:                  -0.027
REMARK UNBOUND:                -0.027
REMARK SMILES C[C@@H]1[C@H](C)CC[C@]2(C(=O)[O-])CC[C@@]3(C)C(=CC[C@H]4[C@@]5(C)CC[C@@H](O)C(C)(C)[C@@H]5CC[C@]43C)[C@H]12
REMARK SMILES IDX 7 1 6 2 11 3 33 4 5 5 12 6 15 7 2 8 3 9 13 10 16 11 1 12
REMARK SMILES IDX 4 13 14 14 31 15 17 16 18 17 30 18 32 19 19 20 29 21 28 22
REMARK SMILES IDX 21 23 20 24 25 25 22 26 23 27 26 28 27 29 8 30 9 31 10 32
REMARK SMILES IDX 24 33
REMARK H PARENT 24 34
REMARK Flexibility Score: inf
ROOT
ATOM      1  C   UNL     1      22.798 -17.573 -26.757  1.00  0.00     0.017 C 
ATOM      2  C   UNL     1      21.877 -17.590 -25.491  1.00  0.00     0.014 C 
ATOM      3  C   UNL     1      22.002 -17.208 -28.020  1.00  0.00     0.014 C 
ATOM      4  C   UNL     1      23.461 -18.986 -26.923  1.00  0.00     0.030 C 
ATOM      5  C   UNL     1      22.636 -17.945 -24.197  1.00  0.00     0.004 C 
ATOM      6  C   UNL     1      20.909 -18.212 -28.355  1.00  0.00     0.013 C 
ATOM      7  C   UNL     1      22.431 -20.051 -27.426  1.00  0.00    -0.063 C 
ATOM      8  C   UNL     1      24.272 -19.285 -25.594  1.00  0.00    -0.003 C 
ATOM      9  C   UNL     1      23.408 -19.278 -24.303  1.00  0.00    -0.011 C 
ATOM     10  C   UNL     1      21.399 -19.694 -28.520  1.00  0.00    -0.006 C 
ATOM     11  C   UNL     1      22.718 -21.354 -27.277  1.00  0.00    -0.027 C 
ATOM     12  C   UNL     1      25.353 -20.388 -25.641  1.00  0.00     0.008 C 
ATOM     13  C   UNL     1      22.466 -20.483 -24.141  1.00  0.00     0.008 C 
ATOM     14  C   UNL     1      22.185 -19.761 -29.868  1.00  0.00     0.017 C 
ATOM     15  C   UNL     1      20.142 -20.725 -28.542  1.00  0.00    -0.020 C 
ATOM     16  C   UNL     1      21.826 -22.493 -27.639  1.00  0.00     0.032 C 
ATOM     17  C   UNL     1      20.649 -22.232 -28.623  1.00  0.00     0.006 C 
ATOM     18  C   UNL     1      19.253 -20.586 -27.261  1.00  0.00     0.008 C 
ATOM     19  C   UNL     1      19.252 -20.374 -29.781  1.00  0.00     0.012 C 
ATOM     20  C   UNL     1      19.511 -23.360 -28.473  1.00  0.00    -0.025 C 
ATOM     21  C   UNL     1      18.137 -21.641 -27.118  1.00  0.00     0.005 C 
ATOM     22  C   UNL     1      18.685 -23.084 -27.157  1.00  0.00     0.003 C 
ATOM     23  C   UNL     1      20.149 -24.792 -28.355  1.00  0.00     0.010 C 
ATOM     24  C   UNL     1      18.628 -23.377 -29.769  1.00  0.00     0.012 C 
ATOM     25  C   UNL     1      17.650 -24.209 -26.739  1.00  0.00    -0.006 C 
ATOM     26  C   UNL     1      19.141 -25.901 -28.000  1.00  0.00     0.033 C 
ATOM     27  C   UNL     1      18.379 -25.592 -26.700  1.00  0.00     0.120 C 
ATOM     28  C   UNL     1      16.410 -24.294 -27.666  1.00  0.00     0.014 C 
ATOM     29  C   UNL     1      17.104 -23.924 -25.310  1.00  0.00     0.014 C 
ENDROOT
BRANCH   1  30
ATOM     30  C   UNL     1      23.849 -16.471 -26.633  1.00  0.00     0.048 C 
ATOM     31  O   UNL     1      23.585 -15.393 -26.032  1.00  0.00    -0.550 OA
ATOM     32  O   UNL     1      25.074 -16.590 -27.280  1.00  0.00    -0.550 OA
ENDBRANCH   1  30
BRANCH  27  33
ATOM     33  O   UNL     1      19.281 -25.634 -25.618  1.00  0.00    -0.393 OA
ATOM     34  H   UNL     1      18.927 -25.023 -24.921  1.00  0.00     0.210 HD
ENDBRANCH  27  33
TORSDOF 2
ENDMDL
MODEL 7
REMARK VINA RESULT:    -7.477      2.205      4.360
REMARK INTER + INTRA:          -8.160
REMARK INTER:                  -8.480
REMARK INTRA:                   0.320
REMARK UNBOUND:                -0.027
REMARK SMILES C[C@@H]1[C@H](C)CC[C@]2(C(=O)[O-])CC[C@@]3(C)C(=CC[C@H]4[C@@]5(C)CC[C@@H](O)C(C)(C)[C@@H]5CC[C@]43C)[C@H]12
REMARK SMILES IDX 7 1 6 2 11 3 33 4 5 5 12 6 15 7 2 8 3 9 13 10 16 11 1 12
REMARK SMILES IDX 4 13 14 14 31 15 17 16 18 17 30 18 32 19 19 20 29 21 28 22
REMARK SMILES IDX 21 23 20 24 25 25 22 26 23 27 26 28 27 29 8 30 9 31 10 32
REMARK SMILES IDX 24 33
REMARK H PARENT 24 34
REMARK Flexibility Score: inf
ROOT
ATOM      1  C   UNL     1      15.582 -23.902 -28.793  1.00  0.00     0.017 C 
ATOM      2  C   UNL     1      15.776 -22.953 -30.023  1.00  0.00     0.014 C 
ATOM      3  C   UNL     1      15.333 -23.101 -27.506  1.00  0.00     0.014 C 
ATOM      4  C   UNL     1      16.859 -24.799 -28.635  1.00  0.00     0.030 C 
ATOM      5  C   UNL     1      16.021 -23.715 -31.340  1.00  0.00     0.004 C 
ATOM      6  C   UNL     1      16.500 -22.205 -27.117  1.00  0.00     0.013 C 
ATOM      7  C   UNL     1      18.073 -23.982 -28.081  1.00  0.00    -0.063 C 
ATOM      8  C   UNL     1      17.043 -25.602 -29.990  1.00  0.00    -0.003 C 
ATOM      9  C   UNL     1      17.204 -24.704 -31.247  1.00  0.00    -0.011 C 
ATOM     10  C   UNL     1      17.875 -22.943 -26.953  1.00  0.00    -0.006 C 
ATOM     11  C   UNL     1      19.313 -24.479 -28.225  1.00  0.00    -0.027 C 
ATOM     12  C   UNL     1      17.947 -26.854 -29.971  1.00  0.00     0.008 C 
ATOM     13  C   UNL     1      18.553 -23.974 -31.360  1.00  0.00     0.008 C 
ATOM     14  C   UNL     1      17.784 -23.776 -25.635  1.00  0.00     0.017 C 
ATOM     15  C   UNL     1      19.102 -21.880 -26.871  1.00  0.00    -0.020 C 
ATOM     16  C   UNL     1      20.578 -23.805 -27.816  1.00  0.00     0.032 C 
ATOM     17  C   UNL     1      20.501 -22.636 -26.791  1.00  0.00     0.006 C 
ATOM     18  C   UNL     1      19.138 -20.936 -28.120  1.00  0.00     0.008 C 
ATOM     19  C   UNL     1      18.883 -20.988 -25.604  1.00  0.00     0.012 C 
ATOM     20  C   UNL     1      21.807 -21.701 -26.885  1.00  0.00    -0.025 C 
ATOM     21  C   UNL     1      20.368 -20.009 -28.208  1.00  0.00     0.005 C 
ATOM     22  C   UNL     1      21.697 -20.794 -28.172  1.00  0.00     0.003 C 
ATOM     23  C   UNL     1      23.113 -22.566 -27.010  1.00  0.00     0.010 C 
ATOM     24  C   UNL     1      21.948 -20.879 -25.557  1.00  0.00     0.012 C 
ATOM     25  C   UNL     1      22.987 -19.949 -28.538  1.00  0.00    -0.006 C 
ATOM     26  C   UNL     1      24.381 -21.747 -27.313  1.00  0.00     0.033 C 
ATOM     27  C   UNL     1      24.229 -20.899 -28.588  1.00  0.00     0.120 C 
ATOM     28  C   UNL     1      23.263 -18.774 -27.563  1.00  0.00     0.014 C 
ATOM     29  C   UNL     1      22.825 -19.313 -29.948  1.00  0.00     0.014 C 
ENDROOT
BRANCH   1  30
ATOM     30  C   UNL     1      14.321 -24.747 -28.970  1.00  0.00     0.048 C 
ATOM     31  O   UNL     1      13.178 -24.246 -28.782  1.00  0.00    -0.550 OA
ATOM     32  O   UNL     1      14.418 -26.110 -29.225  1.00  0.00    -0.550 OA
ENDBRANCH   1  30
BRANCH  27  33
ATOM     33  O   UNL     1      24.138 -21.757 -29.702  1.00  0.00    -0.393 OA
ATOM     34  H   UNL     1      24.136 -21.182 -30.512  1.00  0.00     0.210 HD
ENDBRANCH  27  33
TORSDOF 2
ENDMDL
MODEL 8
REMARK VINA RESULT:    -7.208      1.877      7.607
REMARK INTER + INTRA:          -7.867
REMARK INTER:                  -7.838
REMARK INTRA:                  -0.029
REMARK UNBOUND:                -0.027
REMARK SMILES C[C@@H]1[C@H](C)CC[C@]2(C(=O)[O-])CC[C@@]3(C)C(=CC[C@H]4[C@@]5(C)CC[C@@H](O)C(C)(C)[C@@H]5CC[C@]43C)[C@H]12
REMARK SMILES IDX 7 1 6 2 11 3 33 4 5 5 12 6 15 7 2 8 3 9 13 10 16 11 1 12
REMARK SMILES IDX 4 13 14 14 31 15 17 16 18 17 30 18 32 19 19 20 29 21 28 22
REMARK SMILES IDX 21 23 20 24 25 25 22 26 23 27 26 28 27 29 8 30 9 31 10 32
REMARK SMILES IDX 24 33
REMARK H PARENT 24 34
REMARK Flexibility Score: inf
ROOT
ATOM      1  C   UNL     1      22.924 -20.110 -27.512  1.00  0.00     0.017 C 
ATOM      2  C   UNL     1      23.506 -21.189 -28.485  1.00  0.00     0.014 C 
ATOM      3  C   UNL     1      22.747 -20.677 -26.094  1.00  0.00     0.014 C 
ATOM      4  C   UNL     1      21.546 -19.610 -28.071  1.00  0.00     0.030 C 
ATOM      5  C   UNL     1      23.707 -20.662 -29.920  1.00  0.00     0.004 C 
ATOM      6  C   UNL     1      21.756 -21.829 -26.024  1.00  0.00     0.013 C 
ATOM      7  C   UNL     1      20.424 -20.685 -27.888  1.00  0.00    -0.063 C 
ATOM      8  C   UNL     1      21.809 -19.029 -29.523  1.00  0.00    -0.003 C 
ATOM      9  C   UNL     1      22.420 -20.052 -30.519  1.00  0.00    -0.011 C 
ATOM     10  C   UNL     1      20.325 -21.507 -26.583  1.00  0.00    -0.006 C 
ATOM     11  C   UNL     1      19.300 -20.583 -28.617  1.00  0.00    -0.027 C 
ATOM     12  C   UNL     1      20.740 -18.095 -30.132  1.00  0.00     0.008 C 
ATOM     13  C   UNL     1      21.456 -21.148 -31.003  1.00  0.00     0.008 C 
ATOM     14  C   UNL     1      19.640 -20.560 -25.548  1.00  0.00     0.017 C 
ATOM     15  C   UNL     1      19.454 -22.867 -26.775  1.00  0.00    -0.020 C 
ATOM     16  C   UNL     1      18.166 -21.550 -28.615  1.00  0.00     0.032 C 
ATOM     17  C   UNL     1      18.037 -22.542 -27.422  1.00  0.00     0.006 C 
ATOM     18  C   UNL     1      20.181 -23.897 -27.703  1.00  0.00     0.008 C 
ATOM     19  C   UNL     1      19.280 -23.530 -25.368  1.00  0.00     0.012 C 
ATOM     20  C   UNL     1      17.147 -23.820 -27.830  1.00  0.00    -0.025 C 
ATOM     21  C   UNL     1      19.353 -25.143 -28.077  1.00  0.00     0.005 C 
ATOM     22  C   UNL     1      18.009 -24.776 -28.742  1.00  0.00     0.003 C 
ATOM     23  C   UNL     1      15.875 -23.385 -28.646  1.00  0.00     0.010 C 
ATOM     24  C   UNL     1      16.617 -24.514 -26.528  1.00  0.00     0.012 C 
ATOM     25  C   UNL     1      17.232 -25.989 -29.404  1.00  0.00    -0.006 C 
ATOM     26  C   UNL     1      15.085 -24.560 -29.250  1.00  0.00     0.033 C 
ATOM     27  C   UNL     1      15.966 -25.447 -30.146  1.00  0.00     0.120 C 
ATOM     28  C   UNL     1      16.819 -27.093 -28.396  1.00  0.00     0.014 C 
ATOM     29  C   UNL     1      18.136 -26.685 -30.462  1.00  0.00     0.014 C 
ENDROOT
BRANCH   1  30
ATOM     30  C   UNL     1      23.914 -18.958 -27.345  1.00  0.00     0.048 C 
ATOM     31  O   UNL     1      25.157 -19.164 -27.400  1.00  0.00    -0.550 OA
ATOM     32  O   UNL     1      23.463 -17.685 -27.012  1.00  0.00    -0.550 OA
ENDBRANCH   1  30
BRANCH  27  33
ATOM     33  O   UNL     1      16.349 -24.712 -31.285  1.00  0.00    -0.393 OA
ATOM     34  H   UNL     1      16.980 -25.281 -31.799  1.00  0.00     0.210 HD
ENDBRANCH  27  33
TORSDOF 2
ENDMDL
MODEL 9
REMARK VINA RESULT:    -7.178      2.252      7.480
REMARK INTER + INTRA:          -7.835
REMARK INTER:                  -7.810
REMARK INTRA:                  -0.024
REMARK UNBOUND:                -0.027
REMARK SMILES C[C@@H]1[C@H](C)CC[C@]2(C(=O)[O-])CC[C@@]3(C)C(=CC[C@H]4[C@@]5(C)CC[C@@H](O)C(C)(C)[C@@H]5CC[C@]43C)[C@H]12
REMARK SMILES IDX 7 1 6 2 11 3 33 4 5 5 12 6 15 7 2 8 3 9 13 10 16 11 1 12
REMARK SMILES IDX 4 13 14 14 31 15 17 16 18 17 30 18 32 19 19 20 29 21 28 22
REMARK SMILES IDX 21 23 20 24 25 25 22 26 23 27 26 28 27 29 8 30 9 31 10 32
REMARK SMILES IDX 24 33
REMARK H PARENT 24 34
REMARK Flexibility Score: inf
ROOT
ATOM      1  C   UNL     1      23.297 -18.488 -29.138  1.00  0.00     0.017 C 
ATOM      2  C   UNL     1      22.941 -18.061 -27.674  1.00  0.00     0.014 C 
ATOM      3  C   UNL     1      22.119 -18.233 -30.093  1.00  0.00     0.014 C 
ATOM      4  C   UNL     1      23.682 -20.008 -29.146  1.00  0.00     0.030 C 
ATOM      5  C   UNL     1      24.097 -18.292 -26.681  1.00  0.00     0.004 C 
ATOM      6  C   UNL     1      20.877 -19.042 -29.749  1.00  0.00     0.013 C 
ATOM      7  C   UNL     1      22.427 -20.923 -28.959  1.00  0.00    -0.063 C 
ATOM      8  C   UNL     1      24.906 -20.190 -28.154  1.00  0.00    -0.003 C 
ATOM      9  C   UNL     1      24.615 -19.747 -26.694  1.00  0.00    -0.011 C 
ATOM     10  C   UNL     1      21.098 -20.595 -29.678  1.00  0.00    -0.006 C 
ATOM     11  C   UNL     1      22.602 -22.201 -28.582  1.00  0.00    -0.027 C 
ATOM     12  C   UNL     1      25.755 -21.474 -28.283  1.00  0.00     0.008 C 
ATOM     13  C   UNL     1      23.683 -20.679 -25.902  1.00  0.00     0.008 C 
ATOM     14  C   UNL     1      21.288 -21.091 -31.147  1.00  0.00     0.017 C 
ATOM     15  C   UNL     1      19.824 -21.334 -28.988  1.00  0.00    -0.020 C 
ATOM     16  C   UNL     1      21.520 -23.185 -28.296  1.00  0.00     0.032 C 
ATOM     17  C   UNL     1      20.091 -22.897 -28.841  1.00  0.00     0.006 C 
ATOM     18  C   UNL     1      19.522 -20.762 -27.562  1.00  0.00     0.008 C 
ATOM     19  C   UNL     1      18.569 -21.069 -29.885  1.00  0.00     0.012 C 
ATOM     20  C   UNL     1      18.982 -23.718 -28.011  1.00  0.00    -0.025 C 
ATOM     21  C   UNL     1      18.439 -21.519 -26.767  1.00  0.00     0.005 C 
ATOM     22  C   UNL     1      18.765 -23.020 -26.613  1.00  0.00     0.003 C 
ATOM     23  C   UNL     1      19.452 -25.195 -27.750  1.00  0.00     0.010 C 
ATOM     24  C   UNL     1      17.670 -23.819 -28.865  1.00  0.00     0.012 C 
ATOM     25  C   UNL     1      17.855 -23.804 -25.579  1.00  0.00    -0.006 C 
ATOM     26  C   UNL     1      18.544 -25.982 -26.788  1.00  0.00     0.033 C 
ATOM     27  C   UNL     1      18.384 -25.269 -25.434  1.00  0.00     0.120 C 
ATOM     28  C   UNL     1      16.351 -23.824 -25.959  1.00  0.00     0.014 C 
ATOM     29  C   UNL     1      17.939 -23.132 -24.179  1.00  0.00     0.014 C 
ENDROOT
BRANCH   1  30
ATOM     30  C   UNL     1      24.429 -17.618 -29.683  1.00  0.00     0.048 C 
ATOM     31  O   UNL     1      24.496 -16.392 -29.394  1.00  0.00    -0.550 OA
ATOM     32  O   UNL     1      25.336 -18.138 -30.600  1.00  0.00    -0.550 OA
ENDBRANCH   1  30
BRANCH  27  33
ATOM     33  O   UNL     1      19.624 -25.272 -24.764  1.00  0.00    -0.393 OA
ATOM     34  H   UNL     1      19.724 -26.164 -24.341  1.00  0.00     0.210 HD
ENDBRANCH  27  33
TORSDOF 2
ENDMDL
