MODEL 1
REMARK VINA RESULT:    -0.598      0.000      0.000
REMARK INTER + INTRA:          -0.157
REMARK INTER:                  -1.017
REMARK INTRA:                   0.860
REMARK UNBOUND:                 0.860
REMARK SMILES CCCCCCCCCCCCCC(=O)[O-]
REMARK SMILES IDX 8 1 9 2 10 3 11 4 12 5 13 6 14 7 15 8 16 9 7 10 6 11 5 12
REMARK SMILES IDX 4 13 3 14 2 15 1 16
REMARK H PARENT
REMARK Flexibility Score: inf
ROOT
ATOM      1  C   UNL     1       4.347 -52.028   8.895  1.00  0.00     0.000 C 
ENDROOT
BRANCH   1   2
ATOM      2  C   UNL     1       3.281 -50.978   9.256  1.00  0.00     0.000 C 
BRANCH   2   3
ATOM      3  C   UNL     1       2.697 -51.198  10.666  1.00  0.00     0.000 C 
BRANCH   3   4
ATOM      4  C   UNL     1       1.204 -51.581  10.677  1.00  0.00     0.000 C 
BRANCH   4   5
ATOM      5  C   UNL     1       0.550 -51.614   9.281  1.00  0.00     0.006 C 
BRANCH   5   6
ATOM      6  C   UNL     1      -0.903 -51.119   9.301  1.00  0.00     0.053 C 
BRANCH   6   7
ATOM      7  C   UNL     1      -0.952 -49.651   9.586  1.00  0.00     0.041 C 
ATOM      8  O   UNL     1      -1.038 -49.238  10.772  1.00  0.00    -0.550 OA
ATOM      9  O   UNL     1      -0.950 -48.740   8.538  1.00  0.00    -0.550 OA
ENDBRANCH   6   7
ENDBRANCH   5   6
ENDBRANCH   4   5
ENDBRANCH   3   4
ENDBRANCH   2   3
ENDBRANCH   1   2
BRANCH   1  10
ATOM     10  C   UNL     1       4.089 -53.387   9.566  1.00  0.00     0.000 C 
BRANCH  10  11
ATOM     11  C   UNL     1       4.562 -53.425  11.026  1.00  0.00    -0.000 C 
BRANCH  11  12
ATOM     12  C   UNL     1       6.064 -53.125  11.124  1.00  0.00    -0.000 C 
BRANCH  12  13
ATOM     13  C   UNL     1       6.732 -52.951   9.749  1.00  0.00    -0.000 C 
BRANCH  13  14
ATOM     14  C   UNL     1       8.124 -53.601   9.612  1.00  0.00    -0.000 C 
BRANCH  14  15
ATOM     15  C   UNL     1       9.120 -53.246  10.730  1.00  0.00    -0.003 C 
ATOM     16  C   UNL     1       9.128 -51.754  11.067  1.00  0.00     0.004 C 
ENDBRANCH  14  15
ENDBRANCH  13  14
ENDBRANCH  12  13
ENDBRANCH  11  12
ENDBRANCH  10  11
ENDBRANCH   1  10
TORSDOF 12
ENDMDL
