MODEL 1
REMARK VINA RESULT:    -6.908      0.000      0.000
REMARK INTER + INTRA:          -9.744
REMARK INTER:                  -8.725
REMARK INTRA:                  -1.019
REMARK UNBOUND:                -1.019
REMARK SMILES O=C(C=Cc1ccc(O)cc1)c1ccc(O)cc1O
REMARK SMILES IDX 4 1 3 2 5 3 6 4 7 5 8 6 11 7 10 8 9 9 2 11 1 12 12 13 18 14
REMARK SMILES IDX 13 15 17 16 14 17 15 18 19 19 16 21
REMARK H PARENT 9 10 19 20 16 22
REMARK Flexibility Score: inf
ROOT
ATOM      1  C   UNL     1      62.523 153.047   6.459  1.00  0.00     0.012 C 
ATOM      2  C   UNL     1      61.194 153.238   6.473  1.00  0.00     0.053 C 
ENDROOT
BRANCH   1   3
ATOM      3  C   UNL     1      63.220 151.927   5.792  1.00  0.00    -0.025 A 
ATOM      4  C   UNL     1      63.078 150.604   6.250  1.00  0.00     0.012 A 
ATOM      5  C   UNL     1      63.784 149.566   5.635  1.00  0.00     0.047 A 
ATOM      6  C   UNL     1      64.656 149.842   4.572  1.00  0.00     0.115 A 
ATOM      7  C   UNL     1      64.116 152.199   4.748  1.00  0.00     0.012 A 
ATOM      8  C   UNL     1      64.822 151.159   4.135  1.00  0.00     0.047 A 
BRANCH   6   9
ATOM      9  O   UNL     1      65.364 148.815   3.950  1.00  0.00    -0.508 OA
ATOM     10  H   UNL     1      65.999 148.999   3.183  1.00  0.00     0.293 HD
ENDBRANCH   6   9
ENDBRANCH   1   3
BRANCH   2  11
ATOM     11  C   UNL     1      60.209 152.472   5.670  1.00  0.00     0.189 C 
ATOM     12  O   UNL     1      59.715 151.405   6.127  1.00  0.00    -0.289 OA
BRANCH  11  13
ATOM     13  C   UNL     1      59.815 152.919   4.313  1.00  0.00     0.064 A 
ATOM     14  C   UNL     1      60.281 152.232   3.171  1.00  0.00     0.130 A 
ATOM     15  C   UNL     1      58.989 154.046   4.142  1.00  0.00     0.020 A 
ATOM     16  C   UNL     1      59.913 152.671   1.890  1.00  0.00     0.093 A 
ATOM     17  C   UNL     1      58.627 154.474   2.862  1.00  0.00     0.047 A 
ATOM     18  C   UNL     1      59.088 153.787   1.733  1.00  0.00     0.119 A 
BRANCH  14  19
ATOM     19  O   UNL     1      61.093 151.106   3.309  1.00  0.00    -0.507 OA
ATOM     20  H   UNL     1      62.085 151.138   3.105  1.00  0.00     0.293 HD
ENDBRANCH  14  19
BRANCH  18  21
ATOM     21  O   UNL     1      58.733 154.206   0.453  1.00  0.00    -0.508 OA
ATOM     22  H   UNL     1      58.123 153.652  -0.136  1.00  0.00     0.293 HD
ENDBRANCH  18  21
ENDBRANCH  11  13
ENDBRANCH   2  11
TORSDOF 6
ENDMDL
MODEL 2
REMARK VINA RESULT:    -6.836      0.929      1.578
REMARK INTER + INTRA:          -9.654
REMARK INTER:                  -8.663
REMARK INTRA:                  -0.991
REMARK UNBOUND:                -1.019
REMARK SMILES O=C(C=Cc1ccc(O)cc1)c1ccc(O)cc1O
REMARK SMILES IDX 4 1 3 2 5 3 6 4 7 5 8 6 11 7 10 8 9 9 2 11 1 12 12 13 18 14
REMARK SMILES IDX 13 15 17 16 14 17 15 18 19 19 16 21
REMARK H PARENT 9 10 19 20 16 22
REMARK Flexibility Score: inf
ROOT
ATOM      1  C   UNL     1      62.453 153.034   6.387  1.00  0.00     0.012 C 
ATOM      2  C   UNL     1      61.138 153.288   6.290  1.00  0.00     0.053 C 
ENDROOT
BRANCH   1   3
ATOM      3  C   UNL     1      63.150 151.879   5.783  1.00  0.00    -0.025 A 
ATOM      4  C   UNL     1      62.993 150.581   6.302  1.00  0.00     0.012 A 
ATOM      5  C   UNL     1      63.698 149.510   5.746  1.00  0.00     0.047 A 
ATOM      6  C   UNL     1      64.585 149.729   4.682  1.00  0.00     0.115 A 
ATOM      7  C   UNL     1      64.061 152.095   4.738  1.00  0.00     0.012 A 
ATOM      8  C   UNL     1      64.766 151.023   4.184  1.00  0.00     0.047 A 
BRANCH   6   9
ATOM      9  O   UNL     1      65.292 148.669   4.118  1.00  0.00    -0.508 OA
ATOM     10  H   UNL     1      66.286 148.552   4.277  1.00  0.00     0.293 HD
ENDBRANCH   6   9
ENDBRANCH   1   3
BRANCH   2  11
ATOM     11  C   UNL     1      60.189 152.564   5.409  1.00  0.00     0.189 C 
ATOM     12  O   UNL     1      59.582 151.544   5.837  1.00  0.00    -0.289 OA
BRANCH  11  13
ATOM     13  C   UNL     1      59.961 152.997   4.010  1.00  0.00     0.064 A 
ATOM     14  C   UNL     1      58.962 153.949   3.711  1.00  0.00     0.130 A 
ATOM     15  C   UNL     1      60.720 152.451   2.958  1.00  0.00     0.020 A 
ATOM     16  C   UNL     1      58.744 154.343   2.382  1.00  0.00     0.093 A 
ATOM     17  C   UNL     1      60.496 152.852   1.638  1.00  0.00     0.047 A 
ATOM     18  C   UNL     1      59.508 153.798   1.347  1.00  0.00     0.119 A 
BRANCH  14  19
ATOM     19  O   UNL     1      58.199 154.514   4.733  1.00  0.00    -0.507 OA
ATOM     20  H   UNL     1      58.361 155.461   5.056  1.00  0.00     0.293 HD
ENDBRANCH  14  19
BRANCH  18  21
ATOM     21  O   UNL     1      59.277 154.203   0.035  1.00  0.00    -0.508 OA
ATOM     22  H   UNL     1      58.340 154.376  -0.310  1.00  0.00     0.293 HD
ENDBRANCH  18  21
ENDBRANCH  11  13
ENDBRANCH   2  11
TORSDOF 6
ENDMDL
MODEL 3
REMARK VINA RESULT:    -6.773      1.592      5.683
REMARK INTER + INTRA:          -9.574
REMARK INTER:                  -9.026
REMARK INTRA:                  -0.549
REMARK UNBOUND:                -1.019
REMARK SMILES O=C(C=Cc1ccc(O)cc1)c1ccc(O)cc1O
REMARK SMILES IDX 4 1 3 2 5 3 6 4 7 5 8 6 11 7 10 8 9 9 2 11 1 12 12 13 18 14
REMARK SMILES IDX 13 15 17 16 14 17 15 18 19 19 16 21
REMARK H PARENT 9 10 19 20 16 22
REMARK Flexibility Score: inf
ROOT
ATOM      1  C   UNL     1      59.087 152.260   4.579  1.00  0.00     0.012 C 
ATOM      2  C   UNL     1      59.757 152.256   5.743  1.00  0.00     0.053 C 
ENDROOT
BRANCH   1   3
ATOM      3  C   UNL     1      59.583 152.826   3.307  1.00  0.00    -0.025 A 
ATOM      4  C   UNL     1      58.869 153.833   2.631  1.00  0.00     0.012 A 
ATOM      5  C   UNL     1      59.330 154.321   1.405  1.00  0.00     0.047 A 
ATOM      6  C   UNL     1      60.495 153.792   0.830  1.00  0.00     0.115 A 
ATOM      7  C   UNL     1      60.730 152.282   2.712  1.00  0.00     0.012 A 
ATOM      8  C   UNL     1      61.189 152.771   1.485  1.00  0.00     0.047 A 
BRANCH   6   9
ATOM      9  O   UNL     1      60.965 154.272  -0.390  1.00  0.00    -0.508 OA
ATOM     10  H   UNL     1      60.349 154.387  -1.186  1.00  0.00     0.293 HD
ENDBRANCH   6   9
ENDBRANCH   1   3
BRANCH   2  11
ATOM     11  C   UNL     1      61.178 152.648   5.914  1.00  0.00     0.189 C 
ATOM     12  O   UNL     1      61.474 153.840   6.205  1.00  0.00    -0.289 OA
BRANCH  11  13
ATOM     13  C   UNL     1      62.272 151.667   5.716  1.00  0.00     0.064 A 
ATOM     14  C   UNL     1      63.593 152.108   5.488  1.00  0.00     0.130 A 
ATOM     15  C   UNL     1      62.006 150.285   5.731  1.00  0.00     0.020 A 
ATOM     16  C   UNL     1      64.620 151.172   5.288  1.00  0.00     0.093 A 
ATOM     17  C   UNL     1      63.035 149.362   5.532  1.00  0.00     0.047 A 
ATOM     18  C   UNL     1      64.344 149.803   5.311  1.00  0.00     0.119 A 
BRANCH  14  19
ATOM     19  O   UNL     1      63.889 153.471   5.477  1.00  0.00    -0.507 OA
ATOM     20  H   UNL     1      63.217 154.159   5.155  1.00  0.00     0.293 HD
ENDBRANCH  14  19
BRANCH  18  21
ATOM     21  O   UNL     1      65.377 148.890   5.111  1.00  0.00    -0.508 OA
ATOM     22  H   UNL     1      65.376 147.982   5.560  1.00  0.00     0.293 HD
ENDBRANCH  18  21
ENDBRANCH  11  13
ENDBRANCH   2  11
TORSDOF 6
ENDMDL
MODEL 4
REMARK VINA RESULT:    -6.668      1.602      5.656
REMARK INTER + INTRA:          -9.442
REMARK INTER:                  -8.898
REMARK INTRA:                  -0.544
REMARK UNBOUND:                -1.019
REMARK SMILES O=C(C=Cc1ccc(O)cc1)c1ccc(O)cc1O
REMARK SMILES IDX 4 1 3 2 5 3 6 4 7 5 8 6 11 7 10 8 9 9 2 11 1 12 12 13 18 14
REMARK SMILES IDX 13 15 17 16 14 17 15 18 19 19 16 21
REMARK H PARENT 9 10 19 20 16 22
REMARK Flexibility Score: inf
ROOT
ATOM      1  C   UNL     1      59.068 152.221   4.624  1.00  0.00     0.012 C 
ATOM      2  C   UNL     1      59.737 152.296   5.785  1.00  0.00     0.053 C 
ENDROOT
BRANCH   1   3
ATOM      3  C   UNL     1      59.563 152.704   3.317  1.00  0.00    -0.025 A 
ATOM      4  C   UNL     1      60.750 152.199   2.756  1.00  0.00     0.012 A 
ATOM      5  C   UNL     1      61.226 152.703   1.542  1.00  0.00     0.047 A 
ATOM      6  C   UNL     1      60.534 153.732   0.888  1.00  0.00     0.115 A 
ATOM      7  C   UNL     1      58.892 153.754   2.672  1.00  0.00     0.012 A 
ATOM      8  C   UNL     1      59.370 154.257   1.459  1.00  0.00     0.047 A 
BRANCH   6   9
ATOM      9  O   UNL     1      60.997 154.241  -0.323  1.00  0.00    -0.508 OA
ATOM     10  H   UNL     1      61.426 155.157  -0.383  1.00  0.00     0.293 HD
ENDBRANCH   6   9
ENDBRANCH   1   3
BRANCH   2  11
ATOM     11  C   UNL     1      61.157 152.702   5.931  1.00  0.00     0.189 C 
ATOM     12  O   UNL     1      61.450 153.907   6.161  1.00  0.00    -0.289 OA
BRANCH  11  13
ATOM     13  C   UNL     1      62.254 151.716   5.778  1.00  0.00     0.064 A 
ATOM     14  C   UNL     1      63.576 152.151   5.538  1.00  0.00     0.130 A 
ATOM     15  C   UNL     1      61.991 150.335   5.847  1.00  0.00     0.020 A 
ATOM     16  C   UNL     1      64.605 151.210   5.381  1.00  0.00     0.093 A 
ATOM     17  C   UNL     1      63.024 149.407   5.691  1.00  0.00     0.047 A 
ATOM     18  C   UNL     1      64.333 149.842   5.458  1.00  0.00     0.119 A 
BRANCH  14  19
ATOM     19  O   UNL     1      63.868 153.513   5.474  1.00  0.00    -0.507 OA
ATOM     20  H   UNL     1      63.429 154.182   6.096  1.00  0.00     0.293 HD
ENDBRANCH  14  19
BRANCH  18  21
ATOM     21  O   UNL     1      65.369 148.925   5.300  1.00  0.00    -0.508 OA
ATOM     22  H   UNL     1      66.317 149.224   5.106  1.00  0.00     0.293 HD
ENDBRANCH  18  21
ENDBRANCH  11  13
ENDBRANCH   2  11
TORSDOF 6
ENDMDL
MODEL 5
REMARK VINA RESULT:    -6.513      2.198      4.135
REMARK INTER + INTRA:          -9.245
REMARK INTER:                  -8.174
REMARK INTRA:                  -1.071
REMARK UNBOUND:                -1.019
REMARK SMILES O=C(C=Cc1ccc(O)cc1)c1ccc(O)cc1O
REMARK SMILES IDX 4 1 3 2 5 3 6 4 7 5 8 6 11 7 10 8 9 9 2 11 1 12 12 13 18 14
REMARK SMILES IDX 13 15 17 16 14 17 15 18 19 19 16 21
REMARK H PARENT 9 10 19 20 16 22
REMARK Flexibility Score: inf
ROOT
ATOM      1  C   UNL     1      64.446 149.166   5.145  1.00  0.00     0.012 C 
ATOM      2  C   UNL     1      64.976 150.340   4.766  1.00  0.00     0.053 C 
ENDROOT
BRANCH   1   3
ATOM      3  C   UNL     1      63.183 148.997   5.895  1.00  0.00    -0.025 A 
ATOM      4  C   UNL     1      63.050 149.468   7.213  1.00  0.00     0.012 A 
ATOM      5  C   UNL     1      61.864 149.256   7.921  1.00  0.00     0.047 A 
ATOM      6  C   UNL     1      60.807 148.552   7.328  1.00  0.00     0.115 A 
ATOM      7  C   UNL     1      62.132 148.268   5.318  1.00  0.00     0.012 A 
ATOM      8  C   UNL     1      60.947 148.057   6.028  1.00  0.00     0.047 A 
BRANCH   6   9
ATOM      9  O   UNL     1      59.619 148.336   8.023  1.00  0.00    -0.508 OA
ATOM     10  H   UNL     1      59.178 147.425   8.048  1.00  0.00     0.293 HD
ENDBRANCH   6   9
ENDBRANCH   1   3
BRANCH   2  11
ATOM     11  C   UNL     1      64.300 151.657   4.867  1.00  0.00     0.189 C 
ATOM     12  O   UNL     1      64.880 152.623   5.435  1.00  0.00    -0.289 OA
BRANCH  11  13
ATOM     13  C   UNL     1      62.929 151.856   4.340  1.00  0.00     0.064 A 
ATOM     14  C   UNL     1      61.883 152.252   5.201  1.00  0.00     0.130 A 
ATOM     15  C   UNL     1      62.645 151.632   2.979  1.00  0.00     0.020 A 
ATOM     16  C   UNL     1      60.586 152.425   4.696  1.00  0.00     0.093 A 
ATOM     17  C   UNL     1      61.350 151.809   2.486  1.00  0.00     0.047 A 
ATOM     18  C   UNL     1      60.318 152.206   3.342  1.00  0.00     0.119 A 
BRANCH  14  19
ATOM     19  O   UNL     1      62.136 152.490   6.552  1.00  0.00    -0.507 OA
ATOM     20  H   UNL     1      61.760 151.890   7.278  1.00  0.00     0.293 HD
ENDBRANCH  14  19
BRANCH  18  21
ATOM     21  O   UNL     1      59.023 152.384   2.860  1.00  0.00    -0.508 OA
ATOM     22  H   UNL     1      58.802 152.263   1.878  1.00  0.00     0.293 HD
ENDBRANCH  18  21
ENDBRANCH  11  13
ENDBRANCH   2  11
TORSDOF 6
ENDMDL
MODEL 6
REMARK VINA RESULT:    -6.177      2.203      5.652
REMARK INTER + INTRA:          -8.822
REMARK INTER:                  -8.170
REMARK INTRA:                  -0.651
REMARK UNBOUND:                -1.019
REMARK SMILES O=C(C=Cc1ccc(O)cc1)c1ccc(O)cc1O
REMARK SMILES IDX 4 1 3 2 5 3 6 4 7 5 8 6 11 7 10 8 9 9 2 11 1 12 12 13 18 14
REMARK SMILES IDX 13 15 17 16 14 17 15 18 19 19 16 21
REMARK H PARENT 9 10 19 20 16 22
REMARK Flexibility Score: inf
ROOT
ATOM      1  C   UNL     1      64.181 151.808   5.183  1.00  0.00     0.012 C 
ATOM      2  C   UNL     1      64.763 150.634   5.474  1.00  0.00     0.053 C 
ENDROOT
BRANCH   1   3
ATOM      3  C   UNL     1      62.880 151.975   4.502  1.00  0.00    -0.025 A 
ATOM      4  C   UNL     1      61.706 152.244   5.228  1.00  0.00     0.012 A 
ATOM      5  C   UNL     1      60.478 152.350   4.569  1.00  0.00     0.047 A 
ATOM      6  C   UNL     1      60.407 152.166   3.181  1.00  0.00     0.115 A 
ATOM      7  C   UNL     1      62.796 151.762   3.118  1.00  0.00     0.012 A 
ATOM      8  C   UNL     1      61.567 151.868   2.460  1.00  0.00     0.047 A 
BRANCH   6   9
ATOM      9  O   UNL     1      59.189 152.271   2.512  1.00  0.00    -0.508 OA
ATOM     10  H   UNL     1      58.706 153.157   2.428  1.00  0.00     0.293 HD
ENDBRANCH   6   9
ENDBRANCH   1   3
BRANCH   2  11
ATOM     11  C   UNL     1      64.123 149.302   5.333  1.00  0.00     0.189 C 
ATOM     12  O   UNL     1      64.582 148.465   4.508  1.00  0.00    -0.289 OA
BRANCH  11  13
ATOM     13  C   UNL     1      62.922 148.943   6.124  1.00  0.00     0.064 A 
ATOM     14  C   UNL     1      62.092 147.876   5.716  1.00  0.00     0.130 A 
ATOM     15  C   UNL     1      62.580 149.672   7.278  1.00  0.00     0.020 A 
ATOM     16  C   UNL     1      60.950 147.552   6.464  1.00  0.00     0.093 A 
ATOM     17  C   UNL     1      61.441 149.340   8.016  1.00  0.00     0.047 A 
ATOM     18  C   UNL     1      60.624 148.279   7.611  1.00  0.00     0.119 A 
BRANCH  14  19
ATOM     19  O   UNL     1      62.411 147.129   4.582  1.00  0.00    -0.507 OA
ATOM     20  H   UNL     1      63.114 146.399   4.606  1.00  0.00     0.293 HD
ENDBRANCH  14  19
BRANCH  18  21
ATOM     21  O   UNL     1      59.486 147.941   8.340  1.00  0.00    -0.508 OA
ATOM     22  H   UNL     1      59.353 148.259   9.293  1.00  0.00     0.293 HD
ENDBRANCH  18  21
ENDBRANCH  11  13
ENDBRANCH   2  11
TORSDOF 6
ENDMDL
MODEL 7
REMARK VINA RESULT:    -6.111      3.432      5.968
REMARK INTER + INTRA:          -8.738
REMARK INTER:                  -7.831
REMARK INTRA:                  -0.907
REMARK UNBOUND:                -1.019
REMARK SMILES O=C(C=Cc1ccc(O)cc1)c1ccc(O)cc1O
REMARK SMILES IDX 4 1 3 2 5 3 6 4 7 5 8 6 11 7 10 8 9 9 2 11 1 12 12 13 18 14
REMARK SMILES IDX 13 15 17 16 14 17 15 18 19 19 16 21
REMARK H PARENT 9 10 19 20 16 22
REMARK Flexibility Score: inf
ROOT
ATOM      1  C   UNL     1      58.583 152.456   3.659  1.00  0.00     0.012 C 
ATOM      2  C   UNL     1      58.340 153.106   4.808  1.00  0.00     0.053 C 
ENDROOT
BRANCH   1   3
ATOM      3  C   UNL     1      59.285 153.020   2.487  1.00  0.00    -0.025 A 
ATOM      4  C   UNL     1      58.625 153.872   1.583  1.00  0.00     0.012 A 
ATOM      5  C   UNL     1      59.294 154.356   0.455  1.00  0.00     0.047 A 
ATOM      6  C   UNL     1      60.620 153.975   0.206  1.00  0.00     0.115 A 
ATOM      7  C   UNL     1      60.601 152.619   2.215  1.00  0.00     0.012 A 
ATOM      8  C   UNL     1      61.268 153.103   1.086  1.00  0.00     0.047 A 
BRANCH   6   9
ATOM      9  O   UNL     1      61.297 154.452  -0.915  1.00  0.00    -0.508 OA
ATOM     10  H   UNL     1      62.080 155.088  -0.829  1.00  0.00     0.293 HD
ENDBRANCH   6   9
ENDBRANCH   1   3
BRANCH   2  11
ATOM     11  C   UNL     1      58.894 154.433   5.175  1.00  0.00     0.189 C 
ATOM     12  O   UNL     1      58.370 155.485   4.715  1.00  0.00    -0.289 OA
BRANCH  11  13
ATOM     13  C   UNL     1      60.083 154.550   6.051  1.00  0.00     0.064 A 
ATOM     14  C   UNL     1      60.290 155.716   6.821  1.00  0.00     0.130 A 
ATOM     15  C   UNL     1      61.033 153.513   6.113  1.00  0.00     0.020 A 
ATOM     16  C   UNL     1      61.426 155.823   7.638  1.00  0.00     0.093 A 
ATOM     17  C   UNL     1      62.159 153.630   6.931  1.00  0.00     0.047 A 
ATOM     18  C   UNL     1      62.359 154.785   7.695  1.00  0.00     0.119 A 
BRANCH  14  19
ATOM     19  O   UNL     1      59.362 156.756   6.787  1.00  0.00    -0.507 OA
ATOM     20  H   UNL     1      58.367 156.579   6.705  1.00  0.00     0.293 HD
ENDBRANCH  14  19
BRANCH  18  21
ATOM     21  O   UNL     1      63.479 154.910   8.513  1.00  0.00    -0.508 OA
ATOM     22  H   UNL     1      64.160 154.165   8.598  1.00  0.00     0.293 HD
ENDBRANCH  18  21
ENDBRANCH  11  13
ENDBRANCH   2  11
TORSDOF 6
ENDMDL
MODEL 8
REMARK VINA RESULT:    -5.881      2.517      5.388
REMARK INTER + INTRA:          -8.448
REMARK INTER:                  -7.118
REMARK INTRA:                  -1.329
REMARK UNBOUND:                -1.019
REMARK SMILES O=C(C=Cc1ccc(O)cc1)c1ccc(O)cc1O
REMARK SMILES IDX 4 1 3 2 5 3 6 4 7 5 8 6 11 7 10 8 9 9 2 11 1 12 12 13 18 14
REMARK SMILES IDX 13 15 17 16 14 17 15 18 19 19 16 21
REMARK H PARENT 9 10 19 20 16 22
REMARK Flexibility Score: inf
ROOT
ATOM      1  C   UNL     1      60.416 152.609   7.376  1.00  0.00     0.012 C 
ATOM      2  C   UNL     1      60.683 152.979   6.113  1.00  0.00     0.053 C 
ENDROOT
BRANCH   1   3
ATOM      3  C   UNL     1      60.339 151.216   7.863  1.00  0.00    -0.025 A 
ATOM      4  C   UNL     1      61.418 150.621   8.540  1.00  0.00     0.012 A 
ATOM      5  C   UNL     1      61.343 149.287   8.951  1.00  0.00     0.047 A 
ATOM      6  C   UNL     1      60.199 148.527   8.668  1.00  0.00     0.115 A 
ATOM      7  C   UNL     1      59.210 150.441   7.557  1.00  0.00     0.012 A 
ATOM      8  C   UNL     1      59.137 149.107   7.968  1.00  0.00     0.047 A 
BRANCH   6   9
ATOM      9  O   UNL     1      60.113 147.197   9.073  1.00  0.00    -0.508 OA
ATOM     10  H   UNL     1      60.554 146.453   8.546  1.00  0.00     0.293 HD
ENDBRANCH   6   9
ENDBRANCH   1   3
BRANCH   2  11
ATOM     11  C   UNL     1      61.132 152.068   5.030  1.00  0.00     0.189 C 
ATOM     12  O   UNL     1      60.462 151.975   3.965  1.00  0.00    -0.289 OA
BRANCH  11  13
ATOM     13  C   UNL     1      62.344 151.231   5.189  1.00  0.00     0.064 A 
ATOM     14  C   UNL     1      62.247 149.823   5.166  1.00  0.00     0.130 A 
ATOM     15  C   UNL     1      63.605 151.825   5.385  1.00  0.00     0.020 A 
ATOM     16  C   UNL     1      63.399 149.038   5.330  1.00  0.00     0.093 A 
ATOM     17  C   UNL     1      64.746 151.034   5.546  1.00  0.00     0.047 A 
ATOM     18  C   UNL     1      64.645 149.639   5.519  1.00  0.00     0.119 A 
BRANCH  14  19
ATOM     19  O   UNL     1      61.013 149.205   4.964  1.00  0.00    -0.507 OA
ATOM     20  H   UNL     1      60.435 148.903   5.740  1.00  0.00     0.293 HD
ENDBRANCH  14  19
BRANCH  18  21
ATOM     21  O   UNL     1      65.776 148.843   5.679  1.00  0.00    -0.508 OA
ATOM     22  H   UNL     1      66.665 149.236   5.965  1.00  0.00     0.293 HD
ENDBRANCH  18  21
ENDBRANCH  11  13
ENDBRANCH   2  11
TORSDOF 6
ENDMDL
MODEL 9
REMARK VINA RESULT:    -5.848      2.407      4.353
REMARK INTER + INTRA:          -8.405
REMARK INTER:                  -7.155
REMARK INTRA:                  -1.251
REMARK UNBOUND:                -1.019
REMARK SMILES O=C(C=Cc1ccc(O)cc1)c1ccc(O)cc1O
REMARK SMILES IDX 4 1 3 2 5 3 6 4 7 5 8 6 11 7 10 8 9 9 2 11 1 12 12 13 18 14
REMARK SMILES IDX 13 15 17 16 14 17 15 18 19 19 16 21
REMARK H PARENT 9 10 19 20 16 22
REMARK Flexibility Score: inf
ROOT
ATOM      1  C   UNL     1      64.629 149.687   5.750  1.00  0.00     0.012 C 
ATOM      2  C   UNL     1      64.806 150.808   5.032  1.00  0.00     0.053 C 
ENDROOT
BRANCH   1   3
ATOM      3  C   UNL     1      63.323 149.123   6.149  1.00  0.00    -0.025 A 
ATOM      4  C   UNL     1      62.663 149.562   7.311  1.00  0.00     0.012 A 
ATOM      5  C   UNL     1      61.452 148.981   7.696  1.00  0.00     0.047 A 
ATOM      6  C   UNL     1      60.898 147.940   6.938  1.00  0.00     0.115 A 
ATOM      7  C   UNL     1      62.778 148.061   5.412  1.00  0.00     0.012 A 
ATOM      8  C   UNL     1      61.566 147.480   5.799  1.00  0.00     0.047 A 
BRANCH   6   9
ATOM      9  O   UNL     1      59.690 147.355   7.311  1.00  0.00    -0.508 OA
ATOM     10  H   UNL     1      58.878 147.915   7.538  1.00  0.00     0.293 HD
ENDBRANCH   6   9
ENDBRANCH   1   3
BRANCH   2  11
ATOM     11  C   UNL     1      63.728 151.571   4.356  1.00  0.00     0.189 C 
ATOM     12  O   UNL     1      63.768 151.750   3.107  1.00  0.00    -0.289 OA
BRANCH  11  13
ATOM     13  C   UNL     1      62.611 152.165   5.128  1.00  0.00     0.064 A 
ATOM     14  C   UNL     1      61.275 151.810   4.837  1.00  0.00     0.130 A 
ATOM     15  C   UNL     1      62.862 153.104   6.145  1.00  0.00     0.020 A 
ATOM     16  C   UNL     1      60.223 152.388   5.564  1.00  0.00     0.093 A 
ATOM     17  C   UNL     1      61.807 153.671   6.865  1.00  0.00     0.047 A 
ATOM     18  C   UNL     1      60.485 153.314   6.576  1.00  0.00     0.119 A 
BRANCH  14  19
ATOM     19  O   UNL     1      60.996 150.875   3.840  1.00  0.00    -0.507 OA
ATOM     20  H   UNL     1      61.734 150.387   3.347  1.00  0.00     0.293 HD
ENDBRANCH  14  19
BRANCH  18  21
ATOM     21  O   UNL     1      59.427 153.875   7.287  1.00  0.00    -0.508 OA
ATOM     22  H   UNL     1      59.519 154.126   8.264  1.00  0.00     0.293 HD
ENDBRANCH  18  21
ENDBRANCH  11  13
ENDBRANCH   2  11
TORSDOF 6
ENDMDL
