MODEL 1
REMARK VINA RESULT:    -5.557      0.000      0.000
REMARK INTER + INTRA:          -6.969
REMARK INTER:                  -6.694
REMARK INTRA:                  -0.276
REMARK UNBOUND:                -0.276
REMARK SMILES O=c1c(O)c(-c2ccc(O)c(O)c2)oc2cc(O)cc(O)c12
REMARK SMILES IDX 5 1 3 2 2 3 1 4 22 5 20 6 19 7 17 8 16 9 15 10 14 11 6 12
REMARK SMILES IDX 7 13 8 14 9 15 13 16 11 17 10 18 12 20 4 22 21 24 18 26
REMARK H PARENT 10 19 12 21 4 23 21 25 18 27
REMARK Flexibility Score: inf
ROOT
ATOM      1  C   UNL     1    -116.754  12.588  22.937  1.00  0.00     0.180 A 
ATOM      2  C   UNL     1    -117.611  13.589  23.435  1.00  0.00     0.208 A 
ATOM      3  C   UNL     1    -118.445  14.275  22.539  1.00  0.00     0.238 A 
ATOM      4  O   UNL     1    -119.209  15.180  22.972  1.00  0.00    -0.285 OA
ATOM      5  C   UNL     1    -118.426  13.937  21.170  1.00  0.00     0.111 A 
ATOM      6  C   UNL     1    -119.238  14.576  20.202  1.00  0.00     0.134 A 
ATOM      7  C   UNL     1    -119.166  14.177  18.860  1.00  0.00     0.093 A 
ATOM      8  C   UNL     1    -118.299  13.151  18.467  1.00  0.00     0.123 A 
ATOM      9  C   UNL     1    -117.496  12.518  19.418  1.00  0.00     0.094 A 
ATOM     10  C   UNL     1    -117.552  12.902  20.760  1.00  0.00     0.146 A 
ATOM     11  O   UNL     1    -116.773  12.286  21.641  1.00  0.00    -0.452 OA
ENDROOT
BRANCH   1  12
ATOM     12  C   UNL     1    -115.831  11.835  23.816  1.00  0.00     0.025 A 
ATOM     13  C   UNL     1    -116.099  10.487  24.104  1.00  0.00     0.016 A 
ATOM     14  C   UNL     1    -115.231   9.750  24.914  1.00  0.00     0.051 A 
ATOM     15  C   UNL     1    -114.074  10.346  25.434  1.00  0.00     0.157 A 
ATOM     16  C   UNL     1    -114.658  12.422  24.322  1.00  0.00     0.062 A 
ATOM     17  C   UNL     1    -113.785  11.682  25.133  1.00  0.00     0.158 A 
BRANCH  15  18
ATOM     18  O   UNL     1    -113.207   9.615  26.243  1.00  0.00    -0.504 OA
ATOM     19  H   UNL     1    -112.215   9.821  26.280  1.00  0.00     0.293 HD
ENDBRANCH  15  18
BRANCH  17  20
ATOM     20  O   UNL     1    -112.625  12.267  25.640  1.00  0.00    -0.504 OA
ATOM     21  H   UNL     1    -112.482  12.383  26.636  1.00  0.00     0.293 HD
ENDBRANCH  17  20
ENDBRANCH   1  12
BRANCH   2  22
ATOM     22  O   UNL     1    -117.647  13.870  24.803  1.00  0.00    -0.502 OA
ATOM     23  H   UNL     1    -117.519  14.806  25.167  1.00  0.00     0.293 HD
ENDBRANCH   2  22
BRANCH   6  24
ATOM     24  O   UNL     1    -120.112  15.602  20.564  1.00  0.00    -0.507 OA
ATOM     25  H   UNL     1    -119.800  16.562  20.657  1.00  0.00     0.293 HD
ENDBRANCH   6  24
BRANCH   8  26
ATOM     26  O   UNL     1    -118.229  12.752  17.134  1.00  0.00    -0.508 OA
ATOM     27  H   UNL     1    -117.355  12.456  16.714  1.00  0.00     0.293 HD
ENDBRANCH   8  26
TORSDOF 6
ENDMDL
MODEL 2
REMARK VINA RESULT:    -5.043     19.794     21.431
REMARK INTER + INTRA:          -6.350
REMARK INTER:                  -6.061
REMARK INTRA:                  -0.289
REMARK UNBOUND:                -0.276
REMARK SMILES O=c1c(O)c(-c2ccc(O)c(O)c2)oc2cc(O)cc(O)c12
REMARK SMILES IDX 5 1 3 2 2 3 1 4 22 5 20 6 19 7 17 8 16 9 15 10 14 11 6 12
REMARK SMILES IDX 7 13 8 14 9 15 13 16 11 17 10 18 12 20 4 22 21 24 18 26
REMARK H PARENT 10 19 12 21 4 23 21 25 18 27
REMARK Flexibility Score: inf
ROOT
ATOM      1  C   UNL     1    -102.759  24.221  33.525  1.00  0.00     0.180 A 
ATOM      2  C   UNL     1    -102.104  25.394  33.948  1.00  0.00     0.208 A 
ATOM      3  C   UNL     1    -102.857  26.565  34.126  1.00  0.00     0.238 A 
ATOM      4  O   UNL     1    -102.280  27.623  34.494  1.00  0.00    -0.285 OA
ATOM      5  C   UNL     1    -104.248  26.540  33.900  1.00  0.00     0.111 A 
ATOM      6  C   UNL     1    -105.080  27.675  34.060  1.00  0.00     0.134 A 
ATOM      7  C   UNL     1    -106.458  27.566  33.823  1.00  0.00     0.093 A 
ATOM      8  C   UNL     1    -107.020  26.346  33.430  1.00  0.00     0.123 A 
ATOM      9  C   UNL     1    -106.204  25.225  33.270  1.00  0.00     0.094 A 
ATOM     10  C   UNL     1    -104.829  25.312  33.500  1.00  0.00     0.146 A 
ATOM     11  O   UNL     1    -104.076  24.231  33.335  1.00  0.00    -0.452 OA
ENDROOT
BRANCH   1  12
ATOM     12  C   UNL     1    -102.031  22.952  33.297  1.00  0.00     0.025 A 
ATOM     13  C   UNL     1    -101.293  22.784  32.115  1.00  0.00     0.016 A 
ATOM     14  C   UNL     1    -100.580  21.603  31.887  1.00  0.00     0.051 A 
ATOM     15  C   UNL     1    -100.583  20.581  32.846  1.00  0.00     0.157 A 
ATOM     16  C   UNL     1    -102.014  21.933  34.266  1.00  0.00     0.062 A 
ATOM     17  C   UNL     1    -101.297  20.748  34.039  1.00  0.00     0.158 A 
BRANCH  15  18
ATOM     18  O   UNL     1     -99.875  19.402  32.622  1.00  0.00    -0.504 OA
ATOM     19  H   UNL     1     -99.489  18.861  33.388  1.00  0.00     0.293 HD
ENDBRANCH  15  18
BRANCH  17  20
ATOM     20  O   UNL     1    -101.286  19.735  34.997  1.00  0.00    -0.504 OA
ATOM     21  H   UNL     1    -101.420  18.764  34.742  1.00  0.00     0.293 HD
ENDBRANCH  17  20
ENDBRANCH   1  12
BRANCH   2  22
ATOM     22  O   UNL     1    -100.732  25.379  34.214  1.00  0.00    -0.502 OA
ATOM     23  H   UNL     1    -100.363  25.354  35.157  1.00  0.00     0.293 HD
ENDBRANCH   2  22
BRANCH   6  24
ATOM     24  O   UNL     1    -104.549  28.904  34.451  1.00  0.00    -0.507 OA
ATOM     25  H   UNL     1    -105.023  29.778  34.253  1.00  0.00     0.293 HD
ENDBRANCH   6  24
BRANCH   8  26
ATOM     26  O   UNL     1    -108.389  26.238  33.197  1.00  0.00    -0.508 OA
ATOM     27  H   UNL     1    -108.771  26.261  32.258  1.00  0.00     0.293 HD
ENDBRANCH   8  26
TORSDOF 6
ENDMDL
MODEL 3
REMARK VINA RESULT:    -4.975     17.120     18.669
REMARK INTER + INTRA:          -6.268
REMARK INTER:                  -5.935
REMARK INTRA:                  -0.333
REMARK UNBOUND:                -0.276
REMARK SMILES O=c1c(O)c(-c2ccc(O)c(O)c2)oc2cc(O)cc(O)c12
REMARK SMILES IDX 5 1 3 2 2 3 1 4 22 5 20 6 19 7 17 8 16 9 15 10 14 11 6 12
REMARK SMILES IDX 7 13 8 14 9 15 13 16 11 17 10 18 12 20 4 22 21 24 18 26
REMARK H PARENT 10 19 12 21 4 23 21 25 18 27
REMARK Flexibility Score: inf
ROOT
ATOM      1  C   UNL     1    -107.452  27.489  20.477  1.00  0.00     0.180 A 
ATOM      2  C   UNL     1    -106.825  28.124  21.568  1.00  0.00     0.208 A 
ATOM      3  C   UNL     1    -105.429  28.042  21.689  1.00  0.00     0.238 A 
ATOM      4  O   UNL     1    -104.858  28.597  22.666  1.00  0.00    -0.285 OA
ATOM      5  C   UNL     1    -104.684  27.350  20.712  1.00  0.00     0.111 A 
ATOM      6  C   UNL     1    -103.274  27.225  20.758  1.00  0.00     0.134 A 
ATOM      7  C   UNL     1    -102.605  26.527  19.742  1.00  0.00     0.093 A 
ATOM      8  C   UNL     1    -103.317  25.953  18.683  1.00  0.00     0.123 A 
ATOM      9  C   UNL     1    -104.706  26.073  18.634  1.00  0.00     0.094 A 
ATOM     10  C   UNL     1    -105.393  26.764  19.637  1.00  0.00     0.146 A 
ATOM     11  O   UNL     1    -106.715  26.858  19.568  1.00  0.00    -0.452 OA
ENDROOT
BRANCH   1  12
ATOM     12  C   UNL     1    -108.920  27.514  20.292  1.00  0.00     0.025 A 
ATOM     13  C   UNL     1    -109.493  28.478  19.447  1.00  0.00     0.016 A 
ATOM     14  C   UNL     1    -110.875  28.508  19.241  1.00  0.00     0.051 A 
ATOM     15  C   UNL     1    -111.702  27.563  19.863  1.00  0.00     0.157 A 
ATOM     16  C   UNL     1    -109.752  26.554  20.897  1.00  0.00     0.062 A 
ATOM     17  C   UNL     1    -111.139  26.582  20.688  1.00  0.00     0.158 A 
BRANCH  15  18
ATOM     18  O   UNL     1    -113.080  27.589  19.660  1.00  0.00    -0.504 OA
ATOM     19  H   UNL     1    -113.608  28.454  19.711  1.00  0.00     0.293 HD
ENDBRANCH  15  18
BRANCH  17  20
ATOM     20  O   UNL     1    -111.963  25.635  21.294  1.00  0.00    -0.504 OA
ATOM     21  H   UNL     1    -111.859  25.390  22.272  1.00  0.00     0.293 HD
ENDBRANCH  17  20
ENDBRANCH   1  12
BRANCH   2  22
ATOM     22  O   UNL     1    -107.582  28.845  22.495  1.00  0.00    -0.502 OA
ATOM     23  H   UNL     1    -108.379  28.443  22.973  1.00  0.00     0.293 HD
ENDBRANCH   2  22
BRANCH   6  24
ATOM     24  O   UNL     1    -102.537  27.787  21.801  1.00  0.00    -0.507 OA
ATOM     25  H   UNL     1    -101.629  27.425  22.068  1.00  0.00     0.293 HD
ENDBRANCH   6  24
BRANCH   8  26
ATOM     26  O   UNL     1    -102.651  25.261  17.673  1.00  0.00    -0.508 OA
ATOM     27  H   UNL     1    -101.944  25.709  17.101  1.00  0.00     0.293 HD
ENDBRANCH   8  26
TORSDOF 6
ENDMDL
MODEL 4
REMARK VINA RESULT:    -4.964     20.063     21.713
REMARK INTER + INTRA:          -6.255
REMARK INTER:                  -5.993
REMARK INTRA:                  -0.262
REMARK UNBOUND:                -0.276
REMARK SMILES O=c1c(O)c(-c2ccc(O)c(O)c2)oc2cc(O)cc(O)c12
REMARK SMILES IDX 5 1 3 2 2 3 1 4 22 5 20 6 19 7 17 8 16 9 15 10 14 11 6 12
REMARK SMILES IDX 7 13 8 14 9 15 13 16 11 17 10 18 12 20 4 22 21 24 18 26
REMARK H PARENT 10 19 12 21 4 23 21 25 18 27
REMARK Flexibility Score: inf
ROOT
ATOM      1  C   UNL     1    -103.218  23.879  33.478  1.00  0.00     0.180 A 
ATOM      2  C   UNL     1    -102.557  23.792  32.237  1.00  0.00     0.208 A 
ATOM      3  C   UNL     1    -101.679  22.721  32.009  1.00  0.00     0.238 A 
ATOM      4  O   UNL     1    -101.074  22.639  30.906  1.00  0.00    -0.285 OA
ATOM      5  C   UNL     1    -101.493  21.747  33.011  1.00  0.00     0.111 A 
ATOM      6  C   UNL     1    -100.630  20.635  32.860  1.00  0.00     0.134 A 
ATOM      7  C   UNL     1    -100.506  19.704  33.902  1.00  0.00     0.093 A 
ATOM      8  C   UNL     1    -101.227  19.864  35.090  1.00  0.00     0.123 A 
ATOM      9  C   UNL     1    -102.079  20.959  35.244  1.00  0.00     0.094 A 
ATOM     10  C   UNL     1    -102.216  21.898  34.218  1.00  0.00     0.146 A 
ATOM     11  O   UNL     1    -103.029  22.933  34.394  1.00  0.00    -0.452 OA
ENDROOT
BRANCH   1  12
ATOM     12  C   UNL     1    -104.143  24.988  33.800  1.00  0.00     0.025 A 
ATOM     13  C   UNL     1    -103.705  26.034  34.628  1.00  0.00     0.016 A 
ATOM     14  C   UNL     1    -104.554  27.102  34.929  1.00  0.00     0.051 A 
ATOM     15  C   UNL     1    -105.848  27.148  34.393  1.00  0.00     0.157 A 
ATOM     16  C   UNL     1    -105.436  25.049  33.248  1.00  0.00     0.062 A 
ATOM     17  C   UNL     1    -106.287  26.122  33.548  1.00  0.00     0.158 A 
BRANCH  15  18
ATOM     18  O   UNL     1    -106.698  28.211  34.692  1.00  0.00    -0.504 OA
ATOM     19  H   UNL     1    -107.680  28.064  34.897  1.00  0.00     0.293 HD
ENDBRANCH  15  18
BRANCH  17  20
ATOM     20  O   UNL     1    -107.570  26.179  33.005  1.00  0.00    -0.504 OA
ATOM     21  H   UNL     1    -108.272  25.483  33.230  1.00  0.00     0.293 HD
ENDBRANCH  17  20
ENDBRANCH   1  12
BRANCH   2  22
ATOM     22  O   UNL     1    -102.797  24.743  31.242  1.00  0.00    -0.502 OA
ATOM     23  H   UNL     1    -103.716  25.138  31.080  1.00  0.00     0.293 HD
ENDBRANCH   2  22
BRANCH   6  24
ATOM     24  O   UNL     1     -99.898  20.448  31.687  1.00  0.00    -0.507 OA
ATOM     25  H   UNL     1     -98.898  20.282  31.702  1.00  0.00     0.293 HD
ENDBRANCH   6  24
BRANCH   8  26
ATOM     26  O   UNL     1    -101.105  18.938  36.124  1.00  0.00    -0.508 OA
ATOM     27  H   UNL     1    -100.535  19.127  36.941  1.00  0.00     0.293 HD
ENDBRANCH   8  26
TORSDOF 6
ENDMDL
MODEL 5
REMARK VINA RESULT:    -4.839     17.282     18.590
REMARK INTER + INTRA:          -6.104
REMARK INTER:                  -5.811
REMARK INTRA:                  -0.293
REMARK UNBOUND:                -0.276
REMARK SMILES O=c1c(O)c(-c2ccc(O)c(O)c2)oc2cc(O)cc(O)c12
REMARK SMILES IDX 5 1 3 2 2 3 1 4 22 5 20 6 19 7 17 8 16 9 15 10 14 11 6 12
REMARK SMILES IDX 7 13 8 14 9 15 13 16 11 17 10 18 12 20 4 22 21 24 18 26
REMARK H PARENT 10 19 12 21 4 23 21 25 18 27
REMARK Flexibility Score: inf
ROOT
ATOM      1  C   UNL     1    -107.479  27.418  21.197  1.00  0.00     0.180 A 
ATOM      2  C   UNL     1    -107.678  26.884  19.908  1.00  0.00     0.208 A 
ATOM      3  C   UNL     1    -106.570  26.729  19.060  1.00  0.00     0.238 A 
ATOM      4  O   UNL     1    -106.737  26.262  17.901  1.00  0.00    -0.285 OA
ATOM      5  C   UNL     1    -105.286  27.087  19.519  1.00  0.00     0.111 A 
ATOM      6  C   UNL     1    -104.118  26.958  18.729  1.00  0.00     0.134 A 
ATOM      7  C   UNL     1    -102.874  27.330  19.261  1.00  0.00     0.093 A 
ATOM      8  C   UNL     1    -102.776  27.826  20.566  1.00  0.00     0.123 A 
ATOM      9  C   UNL     1    -103.925  27.956  21.348  1.00  0.00     0.094 A 
ATOM     10  C   UNL     1    -105.174  27.592  20.836  1.00  0.00     0.146 A 
ATOM     11  O   UNL     1    -106.251  27.731  21.600  1.00  0.00    -0.452 OA
ENDROOT
BRANCH   1  12
ATOM     12  C   UNL     1    -108.599  27.630  22.141  1.00  0.00     0.025 A 
ATOM     13  C   UNL     1    -109.175  28.905  22.253  1.00  0.00     0.016 A 
ATOM     14  C   UNL     1    -110.247  29.125  23.123  1.00  0.00     0.051 A 
ATOM     15  C   UNL     1    -110.769  28.067  23.880  1.00  0.00     0.157 A 
ATOM     16  C   UNL     1    -109.140  26.567  22.887  1.00  0.00     0.062 A 
ATOM     17  C   UNL     1    -110.218  26.786  23.758  1.00  0.00     0.158 A 
BRANCH  15  18
ATOM     18  O   UNL     1    -111.837  28.282  24.749  1.00  0.00    -0.504 OA
ATOM     19  H   UNL     1    -111.855  29.073  25.382  1.00  0.00     0.293 HD
ENDBRANCH  15  18
BRANCH  17  20
ATOM     20  O   UNL     1    -110.749  25.733  24.502  1.00  0.00    -0.504 OA
ATOM     21  H   UNL     1    -111.403  25.896  25.258  1.00  0.00     0.293 HD
ENDBRANCH  17  20
ENDBRANCH   1  12
BRANCH   2  22
ATOM     22  O   UNL     1    -108.954  26.490  19.497  1.00  0.00    -0.502 OA
ATOM     23  H   UNL     1    -109.166  26.266  18.533  1.00  0.00     0.293 HD
ENDBRANCH   2  22
BRANCH   6  24
ATOM     24  O   UNL     1    -104.183  26.466  17.425  1.00  0.00    -0.507 OA
ATOM     25  H   UNL     1    -104.066  27.070  16.620  1.00  0.00     0.293 HD
ENDBRANCH   6  24
BRANCH   8  26
ATOM     26  O   UNL     1    -101.541  28.193  21.095  1.00  0.00    -0.508 OA
ATOM     27  H   UNL     1    -101.228  27.852  21.997  1.00  0.00     0.293 HD
ENDBRANCH   8  26
TORSDOF 6
ENDMDL
MODEL 6
REMARK VINA RESULT:    -4.758      2.831      4.441
REMARK INTER + INTRA:          -6.007
REMARK INTER:                  -5.718
REMARK INTRA:                  -0.289
REMARK UNBOUND:                -0.276
REMARK SMILES O=c1c(O)c(-c2ccc(O)c(O)c2)oc2cc(O)cc(O)c12
REMARK SMILES IDX 5 1 3 2 2 3 1 4 22 5 20 6 19 7 17 8 16 9 15 10 14 11 6 12
REMARK SMILES IDX 7 13 8 14 9 15 13 16 11 17 10 18 12 20 4 22 21 24 18 26
REMARK H PARENT 10 19 12 21 4 23 21 25 18 27
REMARK Flexibility Score: inf
ROOT
ATOM      1  C   UNL     1    -115.297  10.943  24.018  1.00  0.00     0.180 A 
ATOM      2  C   UNL     1    -116.174  10.150  24.784  1.00  0.00     0.208 A 
ATOM      3  C   UNL     1    -117.471  10.624  25.037  1.00  0.00     0.238 A 
ATOM      4  O   UNL     1    -118.261   9.928  25.729  1.00  0.00    -0.285 OA
ATOM      5  C   UNL     1    -117.875  11.867  24.507  1.00  0.00     0.111 A 
ATOM      6  C   UNL     1    -119.164  12.414  24.712  1.00  0.00     0.134 A 
ATOM      7  C   UNL     1    -119.492  13.654  24.144  1.00  0.00     0.093 A 
ATOM      8  C   UNL     1    -118.557  14.355  23.375  1.00  0.00     0.123 A 
ATOM      9  C   UNL     1    -117.284  13.820  23.171  1.00  0.00     0.094 A 
ATOM     10  C   UNL     1    -116.937  12.587  23.729  1.00  0.00     0.146 A 
ATOM     11  O   UNL     1    -115.718  12.104  23.523  1.00  0.00    -0.452 OA
ENDROOT
BRANCH   1  12
ATOM     12  C   UNL     1    -113.909  10.521  23.725  1.00  0.00     0.025 A 
ATOM     13  C   UNL     1    -112.923  10.658  24.715  1.00  0.00     0.016 A 
ATOM     14  C   UNL     1    -111.610  10.247  24.468  1.00  0.00     0.051 A 
ATOM     15  C   UNL     1    -111.268   9.678  23.233  1.00  0.00     0.157 A 
ATOM     16  C   UNL     1    -113.566   9.931  22.495  1.00  0.00     0.062 A 
ATOM     17  C   UNL     1    -112.249   9.516  22.247  1.00  0.00     0.158 A 
BRANCH  15  18
ATOM     18  O   UNL     1    -109.961   9.268  22.983  1.00  0.00    -0.504 OA
ATOM     19  H   UNL     1    -109.758   8.489  22.367  1.00  0.00     0.293 HD
ENDBRANCH  15  18
BRANCH  17  20
ATOM     20  O   UNL     1    -111.910   8.937  21.026  1.00  0.00    -0.504 OA
ATOM     21  H   UNL     1    -110.974   8.593  20.845  1.00  0.00     0.293 HD
ENDBRANCH  17  20
ENDBRANCH   1  12
BRANCH   2  22
ATOM     22  O   UNL     1    -115.766   8.900  25.255  1.00  0.00    -0.502 OA
ATOM     23  H   UNL     1    -115.793   8.068  24.677  1.00  0.00     0.293 HD
ENDBRANCH   2  22
BRANCH   6  24
ATOM     24  O   UNL     1    -120.119  11.738  25.473  1.00  0.00    -0.507 OA
ATOM     25  H   UNL     1    -120.156  11.825  26.482  1.00  0.00     0.293 HD
ENDBRANCH   6  24
BRANCH   8  26
ATOM     26  O   UNL     1    -118.883  15.586  22.809  1.00  0.00    -0.508 OA
ATOM     27  H   UNL     1    -119.343  15.649  21.907  1.00  0.00     0.293 HD
ENDBRANCH   8  26
TORSDOF 6
ENDMDL
MODEL 7
REMARK VINA RESULT:    -4.551     12.509     15.757
REMARK INTER + INTRA:          -5.758
REMARK INTER:                  -5.587
REMARK INTRA:                  -0.171
REMARK UNBOUND:                -0.276
REMARK SMILES O=c1c(O)c(-c2ccc(O)c(O)c2)oc2cc(O)cc(O)c12
REMARK SMILES IDX 5 1 3 2 2 3 1 4 22 5 20 6 19 7 17 8 16 9 15 10 14 11 6 12
REMARK SMILES IDX 7 13 8 14 9 15 13 16 11 17 10 18 12 20 4 22 21 24 18 26
REMARK H PARENT 10 19 12 21 4 23 21 25 18 27
REMARK Flexibility Score: inf
ROOT
ATOM      1  C   UNL     1    -102.316   9.820  22.297  1.00  0.00     0.180 A 
ATOM      2  C   UNL     1    -101.232   9.833  23.197  1.00  0.00     0.208 A 
ATOM      3  C   UNL     1    -101.485   9.667  24.567  1.00  0.00     0.238 A 
ATOM      4  O   UNL     1    -100.523   9.687  25.382  1.00  0.00    -0.285 OA
ATOM      5  C   UNL     1    -102.808   9.472  25.013  1.00  0.00     0.111 A 
ATOM      6  C   UNL     1    -103.148   9.294  26.376  1.00  0.00     0.134 A 
ATOM      7  C   UNL     1    -104.489   9.096  26.738  1.00  0.00     0.093 A 
ATOM      8  C   UNL     1    -105.494   9.074  25.765  1.00  0.00     0.123 A 
ATOM      9  C   UNL     1    -105.164   9.250  24.420  1.00  0.00     0.094 A 
ATOM     10  C   UNL     1    -103.835   9.449  24.039  1.00  0.00     0.146 A 
ATOM     11  O   UNL     1    -103.550   9.619  22.753  1.00  0.00    -0.452 OA
ENDROOT
BRANCH   1  12
ATOM     12  C   UNL     1    -102.132  10.008  20.841  1.00  0.00     0.025 A 
ATOM     13  C   UNL     1    -101.460   9.024  20.099  1.00  0.00     0.016 A 
ATOM     14  C   UNL     1    -101.292   9.169  18.719  1.00  0.00     0.051 A 
ATOM     15  C   UNL     1    -101.809  10.293  18.059  1.00  0.00     0.157 A 
ATOM     16  C   UNL     1    -102.667  11.123  20.172  1.00  0.00     0.062 A 
ATOM     17  C   UNL     1    -102.501  11.269  18.786  1.00  0.00     0.158 A 
BRANCH  15  18
ATOM     18  O   UNL     1    -101.643  10.442  16.684  1.00  0.00    -0.504 OA
ATOM     19  H   UNL     1    -101.055  11.171  16.296  1.00  0.00     0.293 HD
ENDBRANCH  15  18
BRANCH  17  20
ATOM     20  O   UNL     1    -103.026  12.378  18.125  1.00  0.00    -0.504 OA
ATOM     21  H   UNL     1    -102.659  12.685  17.232  1.00  0.00     0.293 HD
ENDBRANCH  17  20
ENDBRANCH   1  12
BRANCH   2  22
ATOM     22  O   UNL     1     -99.925   9.978  22.724  1.00  0.00    -0.502 OA
ATOM     23  H   UNL     1     -99.427   9.224  22.267  1.00  0.00     0.293 HD
ENDBRANCH   2  22
BRANCH   6  24
ATOM     24  O   UNL     1    -102.168   9.311  27.369  1.00  0.00    -0.507 OA
ATOM     25  H   UNL     1    -102.390   9.132  28.342  1.00  0.00     0.293 HD
ENDBRANCH   6  24
BRANCH   8  26
ATOM     26  O   UNL     1    -106.826   8.876  26.125  1.00  0.00    -0.508 OA
ATOM     27  H   UNL     1    -107.201   7.946  26.278  1.00  0.00     0.293 HD
ENDBRANCH   8  26
TORSDOF 6
ENDMDL
MODEL 8
REMARK VINA RESULT:    -4.551     18.910     21.270
REMARK INTER + INTRA:          -5.758
REMARK INTER:                  -5.557
REMARK INTRA:                  -0.202
REMARK UNBOUND:                -0.276
REMARK SMILES O=c1c(O)c(-c2ccc(O)c(O)c2)oc2cc(O)cc(O)c12
REMARK SMILES IDX 5 1 3 2 2 3 1 4 22 5 20 6 19 7 17 8 16 9 15 10 14 11 6 12
REMARK SMILES IDX 7 13 8 14 9 15 13 16 11 17 10 18 12 20 4 22 21 24 18 26
REMARK H PARENT 10 19 12 21 4 23 21 25 18 27
REMARK Flexibility Score: inf
ROOT
ATOM      1  C   UNL     1    -105.696  25.332  34.241  1.00  0.00     0.180 A 
ATOM      2  C   UNL     1    -105.024  26.424  34.825  1.00  0.00     0.208 A 
ATOM      3  C   UNL     1    -103.682  26.654  34.486  1.00  0.00     0.238 A 
ATOM      4  O   UNL     1    -103.068  27.622  35.011  1.00  0.00    -0.285 OA
ATOM      5  C   UNL     1    -103.042  25.807  33.559  1.00  0.00     0.111 A 
ATOM      6  C   UNL     1    -101.693  25.973  33.161  1.00  0.00     0.134 A 
ATOM      7  C   UNL     1    -101.131  25.093  32.225  1.00  0.00     0.093 A 
ATOM      8  C   UNL     1    -101.890  24.051  31.680  1.00  0.00     0.123 A 
ATOM      9  C   UNL     1    -103.220  23.883  32.070  1.00  0.00     0.094 A 
ATOM     10  C   UNL     1    -103.799  24.749  33.002  1.00  0.00     0.146 A 
ATOM     11  O   UNL     1    -105.064  24.563  33.358  1.00  0.00    -0.452 OA
ENDROOT
BRANCH   1  12
ATOM     12  C   UNL     1    -107.105  25.012  34.562  1.00  0.00     0.025 A 
ATOM     13  C   UNL     1    -107.397  23.872  35.326  1.00  0.00     0.016 A 
ATOM     14  C   UNL     1    -108.718  23.561  35.659  1.00  0.00     0.051 A 
ATOM     15  C   UNL     1    -109.765  24.397  35.247  1.00  0.00     0.157 A 
ATOM     16  C   UNL     1    -108.157  25.859  34.168  1.00  0.00     0.062 A 
ATOM     17  C   UNL     1    -109.483  25.550  34.504  1.00  0.00     0.158 A 
BRANCH  15  18
ATOM     18  O   UNL     1    -111.084  24.090  35.576  1.00  0.00    -0.504 OA
ATOM     19  H   UNL     1    -111.411  24.115  36.535  1.00  0.00     0.293 HD
ENDBRANCH  15  18
BRANCH  17  20
ATOM     20  O   UNL     1    -110.526  26.387  34.108  1.00  0.00    -0.504 OA
ATOM     21  H   UNL     1    -110.382  27.128  33.433  1.00  0.00     0.293 HD
ENDBRANCH  17  20
ENDBRANCH   1  12
BRANCH   2  22
ATOM     22  O   UNL     1    -105.697  27.277  35.703  1.00  0.00    -0.502 OA
ATOM     23  H   UNL     1    -106.700  27.411  35.667  1.00  0.00     0.293 HD
ENDBRANCH   2  22
BRANCH   6  24
ATOM     24  O   UNL     1    -100.911  27.003  33.686  1.00  0.00    -0.507 OA
ATOM     25  H   UNL     1    -101.001  27.960  33.362  1.00  0.00     0.293 HD
ENDBRANCH   6  24
BRANCH   8  26
ATOM     26  O   UNL     1    -101.332  23.178  30.749  1.00  0.00    -0.508 OA
ATOM     27  H   UNL     1    -100.822  22.350  31.038  1.00  0.00     0.293 HD
ENDBRANCH   8  26
TORSDOF 6
ENDMDL
MODEL 9
REMARK VINA RESULT:    -4.538     17.972     19.043
REMARK INTER + INTRA:          -5.743
REMARK INTER:                  -5.587
REMARK INTRA:                  -0.156
REMARK UNBOUND:                -0.276
REMARK SMILES O=c1c(O)c(-c2ccc(O)c(O)c2)oc2cc(O)cc(O)c12
REMARK SMILES IDX 5 1 3 2 2 3 1 4 22 5 20 6 19 7 17 8 16 9 15 10 14 11 6 12
REMARK SMILES IDX 7 13 8 14 9 15 13 16 11 17 10 18 12 20 4 22 21 24 18 26
REMARK H PARENT 10 19 12 21 4 23 21 25 18 27
REMARK Flexibility Score: inf
ROOT
ATOM      1  C   UNL     1    -103.683  25.721  18.912  1.00  0.00     0.180 A 
ATOM      2  C   UNL     1    -103.203  26.478  20.000  1.00  0.00     0.208 A 
ATOM      3  C   UNL     1    -104.097  27.303  20.699  1.00  0.00     0.238 A 
ATOM      4  O   UNL     1    -103.677  27.992  21.667  1.00  0.00    -0.285 OA
ATOM      5  C   UNL     1    -105.453  27.344  20.316  1.00  0.00     0.111 A 
ATOM      6  C   UNL     1    -106.420  28.146  20.970  1.00  0.00     0.134 A 
ATOM      7  C   UNL     1    -107.753  28.124  20.533  1.00  0.00     0.093 A 
ATOM      8  C   UNL     1    -108.137  27.317  19.457  1.00  0.00     0.123 A 
ATOM      9  C   UNL     1    -107.188  26.526  18.808  1.00  0.00     0.094 A 
ATOM     10  C   UNL     1    -105.855  26.533  19.227  1.00  0.00     0.146 A 
ATOM     11  O   UNL     1    -104.972  25.774  18.589  1.00  0.00    -0.452 OA
ENDROOT
BRANCH   1  12
ATOM     12  C   UNL     1    -102.798  24.843  18.114  1.00  0.00     0.025 A 
ATOM     13  C   UNL     1    -101.741  25.409  17.384  1.00  0.00     0.016 A 
ATOM     14  C   UNL     1    -100.880  24.598  16.640  1.00  0.00     0.051 A 
ATOM     15  C   UNL     1    -101.054  23.207  16.629  1.00  0.00     0.157 A 
ATOM     16  C   UNL     1    -102.956  23.445  18.118  1.00  0.00     0.062 A 
ATOM     17  C   UNL     1    -102.091  22.630  17.373  1.00  0.00     0.158 A 
BRANCH  15  18
ATOM     18  O   UNL     1    -100.199  22.395  15.888  1.00  0.00    -0.504 OA
ATOM     19  H   UNL     1     -99.933  21.471  16.210  1.00  0.00     0.293 HD
ENDBRANCH  15  18
BRANCH  17  20
ATOM     20  O   UNL     1    -102.252  21.245  17.372  1.00  0.00    -0.504 OA
ATOM     21  H   UNL     1    -102.371  20.727  16.510  1.00  0.00     0.293 HD
ENDBRANCH  17  20
ENDBRANCH   1  12
BRANCH   2  22
ATOM     22  O   UNL     1    -101.865  26.381  20.391  1.00  0.00    -0.502 OA
ATOM     23  H   UNL     1    -101.264  25.626  20.082  1.00  0.00     0.293 HD
ENDBRANCH   2  22
BRANCH   6  24
ATOM     24  O   UNL     1    -106.067  28.960  22.047  1.00  0.00    -0.507 OA
ATOM     25  H   UNL     1    -106.564  29.820  22.251  1.00  0.00     0.293 HD
ENDBRANCH   6  24
BRANCH   8  26
ATOM     26  O   UNL     1    -109.461  27.294  19.024  1.00  0.00    -0.508 OA
ATOM     27  H   UNL     1    -109.706  27.021  18.079  1.00  0.00     0.293 HD
ENDBRANCH   8  26
TORSDOF 6
ENDMDL
