MODEL 1
REMARK VINA RESULT:    -5.574      0.000      0.000
REMARK INTER + INTRA:          -9.295
REMARK INTER:                  -8.670
REMARK INTRA:                  -0.625
REMARK UNBOUND:                -0.625
REMARK SMILES COc1cc(CNC(=O)CCCCC=CC(C)C)ccc1O
REMARK SMILES IDX 11 1 12 2 13 3 14 4 15 5 16 6 17 7 18 8 10 9 8 10 9 11 7 12
REMARK SMILES IDX 6 14 5 15 4 16 19 17 3 18 20 19 21 20 2 21 1 22 22 23
REMARK H PARENT 7 13 22 24
REMARK Flexibility Score: inf
ROOT
ATOM      1  C   UNL     1     115.117 256.132 337.504  1.00  0.00     0.010 C 
ENDROOT
BRANCH   1   2
ATOM      2  C   UNL     1     114.343 257.432 337.207  1.00  0.00     0.005 C 
BRANCH   2   3
ATOM      3  C   UNL     1     113.243 257.271 336.138  1.00  0.00     0.027 C 
BRANCH   3   4
ATOM      4  C   UNL     1     113.225 258.409 335.147  1.00  0.00    -0.031 C 
ATOM      5  C   UNL     1     113.138 258.269 333.810  1.00  0.00    -0.028 C 
BRANCH   5   6
ATOM      6  C   UNL     1     113.066 256.949 333.071  1.00  0.00     0.005 C 
ATOM      7  C   UNL     1     114.455 256.583 332.540  1.00  0.00     0.012 C 
ATOM      8  C   UNL     1     112.062 257.054 331.921  1.00  0.00     0.012 C 
ENDBRANCH   5   6
ENDBRANCH   3   4
ENDBRANCH   2   3
ENDBRANCH   1   2
BRANCH   1   9
ATOM      9  C   UNL     1     116.558 256.348 337.992  1.00  0.00     0.100 C 
BRANCH   9  10
ATOM     10  C   UNL     1     116.918 255.435 339.130  1.00  0.00     0.220 C 
ATOM     11  O   UNL     1     118.089 254.973 339.206  1.00  0.00    -0.275 OA
ATOM     12  N   UNL     1     115.943 255.101 340.128  1.00  0.00    -0.352 N 
ATOM     13  H   UNL     1     114.983 255.506 340.062  1.00  0.00     0.163 HD
BRANCH  12  14
ATOM     14  C   UNL     1     116.248 254.230 341.260  1.00  0.00     0.151 C 
BRANCH  14  15
ATOM     15  C   UNL     1     115.068 254.158 342.191  1.00  0.00    -0.025 A 
ATOM     16  C   UNL     1     115.022 254.980 343.328  1.00  0.00     0.056 A 
ATOM     17  C   UNL     1     114.025 253.252 341.951  1.00  0.00     0.009 A 
ATOM     18  C   UNL     1     113.934 254.907 344.222  1.00  0.00     0.160 A 
ATOM     19  C   UNL     1     112.945 253.177 342.831  1.00  0.00     0.050 A 
ATOM     20  C   UNL     1     112.892 253.997 343.962  1.00  0.00     0.157 A 
BRANCH  18  21
ATOM     21  O   UNL     1     113.858 255.717 345.366  1.00  0.00    -0.493 OA
ATOM     22  C   UNL     1     114.858 256.650 345.764  1.00  0.00     0.278 C 
ENDBRANCH  18  21
BRANCH  20  23
ATOM     23  O   UNL     1     111.797 253.893 344.819  1.00  0.00    -0.504 OA
ATOM     24  H   UNL     1     111.374 253.002 345.049  1.00  0.00     0.293 HD
ENDBRANCH  20  23
ENDBRANCH  14  15
ENDBRANCH  12  14
ENDBRANCH   9  10
ENDBRANCH   1   9
TORSDOF 10
ENDMDL
MODEL 2
REMARK VINA RESULT:    -5.542      2.773     10.269
REMARK INTER + INTRA:          -9.245
REMARK INTER:                  -8.661
REMARK INTRA:                  -0.584
REMARK UNBOUND:                -0.625
REMARK SMILES COc1cc(CNC(=O)CCCCC=CC(C)C)ccc1O
REMARK SMILES IDX 11 1 12 2 13 3 14 4 15 5 16 6 17 7 18 8 10 9 8 10 9 11 7 12
REMARK SMILES IDX 6 14 5 15 4 16 19 17 3 18 20 19 21 20 2 21 1 22 22 23
REMARK H PARENT 7 13 22 24
REMARK Flexibility Score: inf
ROOT
ATOM      1  C   UNL     1     115.124 256.123 345.949  1.00  0.00     0.010 C 
ENDROOT
BRANCH   1   2
ATOM      2  C   UNL     1     115.420 257.629 346.097  1.00  0.00     0.005 C 
BRANCH   2   3
ATOM      3  C   UNL     1     116.405 257.962 347.236  1.00  0.00     0.027 C 
BRANCH   3   4
ATOM      4  C   UNL     1     115.904 259.068 348.132  1.00  0.00    -0.031 C 
ATOM      5  C   UNL     1     115.930 259.044 349.478  1.00  0.00    -0.028 C 
BRANCH   5   6
ATOM      6  C   UNL     1     116.443 257.897 350.324  1.00  0.00     0.005 C 
ATOM      7  C   UNL     1     115.266 257.204 351.016  1.00  0.00     0.012 C 
ATOM      8  C   UNL     1     117.441 258.422 351.358  1.00  0.00     0.012 C 
ENDBRANCH   5   6
ENDBRANCH   3   4
ENDBRANCH   2   3
ENDBRANCH   1   2
BRANCH   1   9
ATOM      9  C   UNL     1     113.871 255.799 345.123  1.00  0.00     0.100 C 
BRANCH   9  10
ATOM     10  C   UNL     1     114.114 254.707 344.119  1.00  0.00     0.220 C 
ATOM     11  O   UNL     1     113.683 253.545 344.352  1.00  0.00    -0.275 OA
ATOM     12  N   UNL     1     114.819 254.985 342.902  1.00  0.00    -0.352 N 
ATOM     13  H   UNL     1     115.153 255.957 342.714  1.00  0.00     0.163 HD
BRANCH  12  14
ATOM     14  C   UNL     1     115.069 253.963 341.889  1.00  0.00     0.151 C 
BRANCH  14  15
ATOM     15  C   UNL     1     116.123 254.435 340.925  1.00  0.00    -0.025 A 
ATOM     16  C   UNL     1     115.763 255.235 339.830  1.00  0.00     0.056 A 
ATOM     17  C   UNL     1     117.462 254.054 341.091  1.00  0.00     0.009 A 
ATOM     18  C   UNL     1     116.735 255.666 338.905  1.00  0.00     0.160 A 
ATOM     19  C   UNL     1     118.430 254.478 340.180  1.00  0.00     0.050 A 
ATOM     20  C   UNL     1     118.076 255.280 339.090  1.00  0.00     0.157 A 
BRANCH  18  21
ATOM     21  O   UNL     1     116.407 256.469 337.801  1.00  0.00    -0.493 OA
ATOM     22  C   UNL     1     115.101 256.582 337.244  1.00  0.00     0.278 C 
ENDBRANCH  18  21
BRANCH  20  23
ATOM     23  O   UNL     1     119.071 255.684 338.200  1.00  0.00    -0.504 OA
ATOM     24  H   UNL     1     119.763 256.382 338.444  1.00  0.00     0.293 HD
ENDBRANCH  20  23
ENDBRANCH  14  15
ENDBRANCH  12  14
ENDBRANCH   9  10
ENDBRANCH   1   9
TORSDOF 10
ENDMDL
MODEL 3
REMARK VINA RESULT:    -4.977      3.105      9.100
REMARK INTER + INTRA:          -8.366
REMARK INTER:                  -7.681
REMARK INTRA:                  -0.685
REMARK UNBOUND:                -0.625
REMARK SMILES COc1cc(CNC(=O)CCCCC=CC(C)C)ccc1O
REMARK SMILES IDX 11 1 12 2 13 3 14 4 15 5 16 6 17 7 18 8 10 9 8 10 9 11 7 12
REMARK SMILES IDX 6 14 5 15 4 16 19 17 3 18 20 19 21 20 2 21 1 22 22 23
REMARK H PARENT 7 13 22 24
REMARK Flexibility Score: inf
ROOT
ATOM      1  C   UNL     1     117.225 254.995 340.117  1.00  0.00     0.010 C 
ENDROOT
BRANCH   1   2
ATOM      2  C   UNL     1     116.634 254.353 341.388  1.00  0.00     0.005 C 
BRANCH   2   3
ATOM      3  C   UNL     1     115.139 254.663 341.605  1.00  0.00     0.027 C 
BRANCH   3   4
ATOM      4  C   UNL     1     114.376 253.486 342.161  1.00  0.00    -0.031 C 
ATOM      5  C   UNL     1     113.369 253.567 343.051  1.00  0.00    -0.028 C 
BRANCH   5   6
ATOM      6  C   UNL     1     112.844 254.849 343.664  1.00  0.00     0.005 C 
ATOM      7  C   UNL     1     113.543 255.100 345.003  1.00  0.00     0.012 C 
ATOM      8  C   UNL     1     111.330 254.746 343.859  1.00  0.00     0.012 C 
ENDBRANCH   5   6
ENDBRANCH   3   4
ENDBRANCH   2   3
ENDBRANCH   1   2
BRANCH   1   9
ATOM      9  C   UNL     1     116.338 254.869 338.869  1.00  0.00     0.100 C 
BRANCH   9  10
ATOM     10  C   UNL     1     116.060 256.198 338.227  1.00  0.00     0.220 C 
ATOM     11  O   UNL     1     116.995 257.038 338.113  1.00  0.00    -0.275 OA
ATOM     12  N   UNL     1     114.748 256.508 337.738  1.00  0.00    -0.352 N 
ATOM     13  H   UNL     1     113.989 255.795 337.823  1.00  0.00     0.163 HD
BRANCH  12  14
ATOM     14  C   UNL     1     114.431 257.780 337.095  1.00  0.00     0.151 C 
BRANCH  14  15
ATOM     15  C   UNL     1     113.760 257.537 335.770  1.00  0.00    -0.025 A 
ATOM     16  C   UNL     1     114.164 258.261 334.638  1.00  0.00     0.056 A 
ATOM     17  C   UNL     1     112.709 256.616 335.662  1.00  0.00     0.009 A 
ATOM     18  C   UNL     1     113.530 258.062 333.395  1.00  0.00     0.160 A 
ATOM     19  C   UNL     1     112.077 256.413 334.434  1.00  0.00     0.050 A 
ATOM     20  C   UNL     1     112.480 257.128 333.302  1.00  0.00     0.157 A 
BRANCH  18  21
ATOM     21  O   UNL     1     113.913 258.768 332.243  1.00  0.00    -0.493 OA
ATOM     22  C   UNL     1     115.254 259.125 331.923  1.00  0.00     0.278 C 
ENDBRANCH  18  21
BRANCH  20  23
ATOM     23  O   UNL     1     111.825 256.899 332.092  1.00  0.00    -0.504 OA
ATOM     24  H   UNL     1     111.821 255.991 331.643  1.00  0.00     0.293 HD
ENDBRANCH  20  23
ENDBRANCH  14  15
ENDBRANCH  12  14
ENDBRANCH   9  10
ENDBRANCH   1   9
TORSDOF 10
ENDMDL
MODEL 4
REMARK VINA RESULT:    -4.486      2.778      8.348
REMARK INTER + INTRA:          -7.603
REMARK INTER:                  -6.830
REMARK INTRA:                  -0.773
REMARK UNBOUND:                -0.625
REMARK SMILES COc1cc(CNC(=O)CCCCC=CC(C)C)ccc1O
REMARK SMILES IDX 11 1 12 2 13 3 14 4 15 5 16 6 17 7 18 8 10 9 8 10 9 11 7 12
REMARK SMILES IDX 6 14 5 15 4 16 19 17 3 18 20 19 21 20 2 21 1 22 22 23
REMARK H PARENT 7 13 22 24
REMARK Flexibility Score: inf
ROOT
ATOM      1  C   UNL     1     115.537 254.114 341.221  1.00  0.00     0.010 C 
ENDROOT
BRANCH   1   2
ATOM      2  C   UNL     1     114.943 254.936 342.381  1.00  0.00     0.005 C 
BRANCH   2   3
ATOM      3  C   UNL     1     114.828 254.153 343.705  1.00  0.00     0.027 C 
BRANCH   3   4
ATOM      4  C   UNL     1     114.082 254.918 344.770  1.00  0.00    -0.031 C 
ATOM      5  C   UNL     1     112.742 255.025 344.851  1.00  0.00    -0.028 C 
BRANCH   5   6
ATOM      6  C   UNL     1     111.755 254.418 343.876  1.00  0.00     0.005 C 
ATOM      7  C   UNL     1     110.996 255.535 343.153  1.00  0.00     0.012 C 
ATOM      8  C   UNL     1     110.783 253.505 344.626  1.00  0.00     0.012 C 
ENDBRANCH   5   6
ENDBRANCH   3   4
ENDBRANCH   2   3
ENDBRANCH   1   2
BRANCH   1   9
ATOM      9  C   UNL     1     117.004 254.436 340.899  1.00  0.00     0.100 C 
BRANCH   9  10
ATOM     10  C   UNL     1     117.161 255.119 339.569  1.00  0.00     0.220 C 
ATOM     11  O   UNL     1     118.315 255.429 339.166  1.00  0.00    -0.275 OA
ATOM     12  N   UNL     1     116.012 255.406 338.761  1.00  0.00    -0.352 N 
ATOM     13  H   UNL     1     115.064 255.125 339.100  1.00  0.00     0.163 HD
BRANCH  12  14
ATOM     14  C   UNL     1     116.113 256.054 337.456  1.00  0.00     0.151 C 
BRANCH  14  15
ATOM     15  C   UNL     1     114.818 256.741 337.117  1.00  0.00    -0.025 A 
ATOM     16  C   UNL     1     114.040 256.279 336.045  1.00  0.00     0.056 A 
ATOM     17  C   UNL     1     114.395 257.863 337.844  1.00  0.00     0.009 A 
ATOM     18  C   UNL     1     112.836 256.926 335.700  1.00  0.00     0.160 A 
ATOM     19  C   UNL     1     113.203 258.507 337.508  1.00  0.00     0.050 A 
ATOM     20  C   UNL     1     112.422 258.047 336.444  1.00  0.00     0.157 A 
BRANCH  18  21
ATOM     21  O   UNL     1     112.035 256.486 334.634  1.00  0.00    -0.493 OA
ATOM     22  C   UNL     1     112.250 256.824 333.268  1.00  0.00     0.278 C 
ENDBRANCH  18  21
BRANCH  20  23
ATOM     23  O   UNL     1     111.238 258.717 336.138  1.00  0.00    -0.504 OA
ATOM     24  H   UNL     1     110.516 258.881 336.829  1.00  0.00     0.293 HD
ENDBRANCH  20  23
ENDBRANCH  14  15
ENDBRANCH  12  14
ENDBRANCH   9  10
ENDBRANCH   1   9
TORSDOF 10
ENDMDL
MODEL 5
REMARK VINA RESULT:    -4.399      4.119      7.481
REMARK INTER + INTRA:          -7.468
REMARK INTER:                  -6.772
REMARK INTRA:                  -0.696
REMARK UNBOUND:                -0.625
REMARK SMILES COc1cc(CNC(=O)CCCCC=CC(C)C)ccc1O
REMARK SMILES IDX 11 1 12 2 13 3 14 4 15 5 16 6 17 7 18 8 10 9 8 10 9 11 7 12
REMARK SMILES IDX 6 14 5 15 4 16 19 17 3 18 20 19 21 20 2 21 1 22 22 23
REMARK H PARENT 7 13 22 24
REMARK Flexibility Score: inf
ROOT
ATOM      1  C   UNL     1     113.639 253.981 343.302  1.00  0.00     0.010 C 
ENDROOT
BRANCH   1   2
ATOM      2  C   UNL     1     114.403 253.619 342.014  1.00  0.00     0.005 C 
BRANCH   2   3
ATOM      3  C   UNL     1     115.489 254.642 341.624  1.00  0.00     0.027 C 
BRANCH   3   4
ATOM      4  C   UNL     1     116.775 253.987 341.184  1.00  0.00    -0.031 C 
ATOM      5  C   UNL     1     117.698 254.554 340.385  1.00  0.00    -0.028 C 
BRANCH   5   6
ATOM      6  C   UNL     1     117.596 255.935 339.772  1.00  0.00     0.005 C 
ATOM      7  C   UNL     1     117.036 255.825 338.352  1.00  0.00     0.012 C 
ATOM      8  C   UNL     1     118.976 256.597 339.756  1.00  0.00     0.012 C 
ENDBRANCH   5   6
ENDBRANCH   3   4
ENDBRANCH   2   3
ENDBRANCH   1   2
BRANCH   1   9
ATOM      9  C   UNL     1     114.539 254.332 344.497  1.00  0.00     0.100 C 
BRANCH   9  10
ATOM     10  C   UNL     1     114.262 255.707 345.037  1.00  0.00     0.220 C 
ATOM     11  O   UNL     1     113.084 256.157 345.011  1.00  0.00    -0.275 OA
ATOM     12  N   UNL     1     115.325 256.498 345.586  1.00  0.00    -0.352 N 
ATOM     13  H   UNL     1     116.292 256.105 345.618  1.00  0.00     0.163 HD
BRANCH  12  14
ATOM     14  C   UNL     1     115.105 257.834 346.136  1.00  0.00     0.151 C 
BRANCH  14  15
ATOM     15  C   UNL     1     115.825 257.979 347.449  1.00  0.00    -0.025 A 
ATOM     16  C   UNL     1     115.115 258.360 348.598  1.00  0.00     0.056 A 
ATOM     17  C   UNL     1     117.208 257.769 347.530  1.00  0.00     0.009 A 
ATOM     18  C   UNL     1     115.779 258.522 349.831  1.00  0.00     0.160 A 
ATOM     19  C   UNL     1     117.872 257.927 348.747  1.00  0.00     0.050 A 
ATOM     20  C   UNL     1     117.168 258.301 349.896  1.00  0.00     0.157 A 
BRANCH  18  21
ATOM     21  O   UNL     1     115.096 258.900 350.998  1.00  0.00    -0.493 OA
ATOM     22  C   UNL     1     114.414 257.998 351.863  1.00  0.00     0.278 C 
ENDBRANCH  18  21
BRANCH  20  23
ATOM     23  O   UNL     1     117.865 258.450 351.095  1.00  0.00    -0.504 OA
ATOM     24  H   UNL     1     118.841 258.196 351.188  1.00  0.00     0.293 HD
ENDBRANCH  20  23
ENDBRANCH  14  15
ENDBRANCH  12  14
ENDBRANCH   9  10
ENDBRANCH   1   9
TORSDOF 10
ENDMDL
MODEL 6
REMARK VINA RESULT:    -3.232      2.670      9.153
REMARK INTER + INTRA:          -5.652
REMARK INTER:                  -5.708
REMARK INTRA:                   0.056
REMARK UNBOUND:                -0.625
REMARK SMILES COc1cc(CNC(=O)CCCCC=CC(C)C)ccc1O
REMARK SMILES IDX 11 1 12 2 13 3 14 4 15 5 16 6 17 7 18 8 10 9 8 10 9 11 7 12
REMARK SMILES IDX 6 14 5 15 4 16 19 17 3 18 20 19 21 20 2 21 1 22 22 23
REMARK H PARENT 7 13 22 24
REMARK Flexibility Score: inf
ROOT
ATOM      1  C   UNL     1     113.610 256.120 344.478  1.00  0.00     0.010 C 
ENDROOT
BRANCH   1   2
ATOM      2  C   UNL     1     114.777 255.670 345.378  1.00  0.00     0.005 C 
BRANCH   2   3
ATOM      3  C   UNL     1     115.130 256.677 346.491  1.00  0.00     0.027 C 
BRANCH   3   4
ATOM      4  C   UNL     1     115.169 258.102 345.996  1.00  0.00    -0.031 C 
ATOM      5  C   UNL     1     115.991 259.061 346.463  1.00  0.00    -0.028 C 
BRANCH   5   6
ATOM      6  C   UNL     1     116.999 258.883 347.580  1.00  0.00     0.005 C 
ATOM      7  C   UNL     1     117.810 257.606 347.338  1.00  0.00     0.012 C 
ATOM      8  C   UNL     1     116.274 258.812 348.925  1.00  0.00     0.012 C 
ENDBRANCH   5   6
ENDBRANCH   3   4
ENDBRANCH   2   3
ENDBRANCH   1   2
BRANCH   1   9
ATOM      9  C   UNL     1     112.738 254.973 343.946  1.00  0.00     0.100 C 
BRANCH   9  10
ATOM     10  C   UNL     1     113.517 254.012 343.092  1.00  0.00     0.220 C 
ATOM     11  O   UNL     1     113.187 252.795 343.070  1.00  0.00    -0.275 OA
ATOM     12  N   UNL     1     114.619 254.476 342.299  1.00  0.00    -0.352 N 
ATOM     13  H   UNL     1     114.868 255.490 342.312  1.00  0.00     0.163 HD
BRANCH  12  14
ATOM     14  C   UNL     1     115.398 253.586 341.442  1.00  0.00     0.151 C 
BRANCH  14  15
ATOM     15  C   UNL     1     116.343 254.385 340.588  1.00  0.00    -0.025 A 
ATOM     16  C   UNL     1     115.850 255.129 339.505  1.00  0.00     0.056 A 
ATOM     17  C   UNL     1     117.721 254.368 340.843  1.00  0.00     0.009 A 
ATOM     18  C   UNL     1     116.726 255.864 338.681  1.00  0.00     0.160 A 
ATOM     19  C   UNL     1     118.594 255.094 340.032  1.00  0.00     0.050 A 
ATOM     20  C   UNL     1     118.107 255.842 338.955  1.00  0.00     0.157 A 
BRANCH  18  21
ATOM     21  O   UNL     1     116.263 256.620 337.592  1.00  0.00    -0.493 OA
ATOM     22  C   UNL     1     114.890 256.823 337.275  1.00  0.00     0.278 C 
ENDBRANCH  18  21
BRANCH  20  23
ATOM     23  O   UNL     1     119.009 256.555 338.167  1.00  0.00    -0.504 OA
ATOM     24  H   UNL     1     118.720 257.327 337.578  1.00  0.00     0.293 HD
ENDBRANCH  20  23
ENDBRANCH  14  15
ENDBRANCH  12  14
ENDBRANCH   9  10
ENDBRANCH   1   9
TORSDOF 10
ENDMDL
