MODEL 1
REMARK VINA RESULT:     1.627      0.000      0.000
REMARK INTER + INTRA:           1.713
REMARK INTER:                   1.769
REMARK INTRA:                  -0.056
REMARK UNBOUND:                -0.056
REMARK SMILES CCc1cccc(O)c1
REMARK SMILES IDX 3 1 9 2 7 3 6 4 5 5 4 6 2 7 1 8 8 9
REMARK H PARENT 8 10
REMARK Flexibility Score: inf
ROOT
ATOM      1  C   UNL     1      15.117  53.498  61.994  1.00  0.00    -0.045 A 
ATOM      2  C   UNL     1      16.256  53.156  61.246  1.00  0.00     0.049 A 
ATOM      3  C   UNL     1      16.475  51.829  60.860  1.00  0.00     0.115 A 
ATOM      4  C   UNL     1      15.551  50.838  61.215  1.00  0.00     0.046 A 
ATOM      5  C   UNL     1      14.409  51.175  61.949  1.00  0.00     0.004 A 
ATOM      6  C   UNL     1      14.189  52.500  62.334  1.00  0.00     0.004 A 
ENDROOT
BRANCH   1   7
ATOM      7  C   UNL     1      14.865  54.932  62.380  1.00  0.00     0.032 C 
ATOM      8  C   UNL     1      15.038  55.125  63.882  1.00  0.00     0.009 C 
ENDBRANCH   1   7
BRANCH   3   9
ATOM      9  O   UNL     1      17.613  51.506  60.123  1.00  0.00    -0.508 OA
ATOM     10  H   UNL     1      18.257  50.787  60.432  1.00  0.00     0.293 HD
ENDBRANCH   3   9
TORSDOF 2
ENDMDL
MODEL 2
REMARK VINA RESULT:     2.300      1.751      1.965
REMARK INTER + INTRA:           2.445
REMARK INTER:                   2.511
REMARK INTRA:                  -0.066
REMARK UNBOUND:                -0.056
REMARK SMILES CCc1cccc(O)c1
REMARK SMILES IDX 3 1 9 2 7 3 6 4 5 5 4 6 2 7 1 8 8 9
REMARK H PARENT 8 10
REMARK Flexibility Score: inf
ROOT
ATOM      1  C   UNL     1      15.847  53.828  61.478  1.00  0.00    -0.045 A 
ATOM      2  C   UNL     1      15.127  53.389  60.354  1.00  0.00     0.049 A 
ATOM      3  C   UNL     1      15.443  52.167  59.746  1.00  0.00     0.115 A 
ATOM      4  C   UNL     1      16.477  51.377  60.265  1.00  0.00     0.046 A 
ATOM      5  C   UNL     1      17.188  51.804  61.391  1.00  0.00     0.004 A 
ATOM      6  C   UNL     1      16.872  53.022  61.999  1.00  0.00     0.004 A 
ENDROOT
BRANCH   1   7
ATOM      7  C   UNL     1      15.484  55.125  62.151  1.00  0.00     0.032 C 
ATOM      8  C   UNL     1      15.126  54.892  63.615  1.00  0.00     0.009 C 
ENDBRANCH   1   7
BRANCH   3   9
ATOM      9  O   UNL     1      14.724  51.750  58.628  1.00  0.00    -0.508 OA
ATOM     10  H   UNL     1      14.154  52.395  58.094  1.00  0.00     0.293 HD
ENDBRANCH   3   9
TORSDOF 2
ENDMDL
MODEL 3
REMARK VINA RESULT:     3.165      2.262      4.097
REMARK INTER + INTRA:           3.386
REMARK INTER:                   3.438
REMARK INTRA:                  -0.052
REMARK UNBOUND:                -0.056
REMARK SMILES CCc1cccc(O)c1
REMARK SMILES IDX 3 1 9 2 7 3 6 4 5 5 4 6 2 7 1 8 8 9
REMARK H PARENT 8 10
REMARK Flexibility Score: inf
ROOT
ATOM      1  C   UNL     1      16.313  52.808  61.547  1.00  0.00    -0.045 A 
ATOM      2  C   UNL     1      15.039  53.401  61.503  1.00  0.00     0.049 A 
ATOM      3  C   UNL     1      14.770  54.553  62.252  1.00  0.00     0.115 A 
ATOM      4  C   UNL     1      15.777  55.121  63.044  1.00  0.00     0.046 A 
ATOM      5  C   UNL     1      17.049  54.542  63.081  1.00  0.00     0.004 A 
ATOM      6  C   UNL     1      17.319  53.393  62.333  1.00  0.00     0.004 A 
ENDROOT
BRANCH   1   7
ATOM      7  C   UNL     1      16.611  51.589  60.715  1.00  0.00     0.032 C 
ATOM      8  C   UNL     1      15.459  51.292  59.761  1.00  0.00     0.009 C 
ENDBRANCH   1   7
BRANCH   3   9
ATOM      9  O   UNL     1      13.500  55.125  62.201  1.00  0.00    -0.508 OA
ATOM     10  H   UNL     1      13.345  56.091  62.461  1.00  0.00     0.293 HD
ENDBRANCH   3   9
TORSDOF 2
ENDMDL
MODEL 4
REMARK VINA RESULT:     3.427      2.176      3.970
REMARK INTER + INTRA:           3.672
REMARK INTER:                   3.724
REMARK INTRA:                  -0.052
REMARK UNBOUND:                -0.056
REMARK SMILES CCc1cccc(O)c1
REMARK SMILES IDX 3 1 9 2 7 3 6 4 5 5 4 6 2 7 1 8 8 9
REMARK H PARENT 8 10
REMARK Flexibility Score: inf
ROOT
ATOM      1  C   UNL     1      15.521  52.594  60.947  1.00  0.00    -0.045 A 
ATOM      2  C   UNL     1      15.234  52.777  62.310  1.00  0.00     0.049 A 
ATOM      3  C   UNL     1      14.863  54.039  62.790  1.00  0.00     0.115 A 
ATOM      4  C   UNL     1      14.770  55.122  61.905  1.00  0.00     0.046 A 
ATOM      5  C   UNL     1      15.043  54.942  60.546  1.00  0.00     0.004 A 
ATOM      6  C   UNL     1      15.413  53.682  60.066  1.00  0.00     0.004 A 
ENDROOT
BRANCH   1   7
ATOM      7  C   UNL     1      15.887  51.230  60.426  1.00  0.00     0.032 C 
ATOM      8  C   UNL     1      15.494  50.147  61.425  1.00  0.00     0.009 C 
ENDBRANCH   1   7
BRANCH   3   9
ATOM      9  O   UNL     1      14.587  54.205  64.145  1.00  0.00    -0.508 OA
ATOM     10  H   UNL     1      15.179  53.797  64.859  1.00  0.00     0.293 HD
ENDBRANCH   3   9
TORSDOF 2
ENDMDL
