MODEL 1
REMARK VINA RESULT:    -5.770      0.000      0.000
REMARK INTER + INTRA:          -9.781
REMARK INTER:                  -8.806
REMARK INTRA:                  -0.976
REMARK UNBOUND:                -0.976
REMARK SMILES OC[C@H]1O[C@@H](O[C@@]2(CO)O[C@H](CO)[C@@H](O)[C@H]2O)[C@H](O)[C@H](O)[C@@H]1O
REMARK SMILES IDX 6 1 5 2 3 3 22 4 4 5 20 6 18 7 2 8 1 9 23 11 21 13 19 15
REMARK SMILES IDX 7 17 16 18 10 19 14 20 11 21 8 22 9 23 17 25 15 27 12 29
REMARK SMILES IDX 13 30
REMARK H PARENT 1 10 23 12 21 14 19 16 9 24 17 26 15 28 13 31
REMARK Flexibility Score: inf
ROOT
ATOM      1  O   UNL     1     -14.400   6.902 -42.350  1.00  0.00    -0.313 OA
ENDROOT
BRANCH   1   2
ATOM      2  C   UNL     1     -15.620   6.732 -41.633  1.00  0.00     0.285 C 
ATOM      3  C   UNL     1     -17.448   5.346 -41.214  1.00  0.00     0.178 C 
ATOM      4  C   UNL     1     -18.510   6.142 -42.015  1.00  0.00     0.177 C 
ATOM      5  O   UNL     1     -16.193   5.452 -41.862  1.00  0.00    -0.341 OA
ATOM      6  C   UNL     1     -17.873   7.352 -42.751  1.00  0.00     0.179 C 
ATOM      7  C   UNL     1     -16.595   7.882 -42.056  1.00  0.00     0.202 C 
BRANCH   3   8
ATOM      8  C   UNL     1     -17.828   3.863 -41.079  1.00  0.00     0.191 C 
BRANCH   8   9
ATOM      9  O   UNL     1     -19.209   3.674 -41.236  1.00  0.00    -0.394 OA
ATOM     10  H   UNL     1     -19.528   4.366 -41.869  1.00  0.00     0.210 HD
ENDBRANCH   8   9
ENDBRANCH   3   8
BRANCH   4  11
ATOM     11  O   UNL     1     -19.587   6.522 -41.190  1.00  0.00    -0.387 OA
ATOM     12  H   UNL     1     -19.459   7.470 -40.930  1.00  0.00     0.211 HD
ENDBRANCH   4  11
BRANCH   6  13
ATOM     13  O   UNL     1     -18.816   8.381 -42.913  1.00  0.00    -0.387 OA
ATOM     14  H   UNL     1     -19.191   8.286 -43.828  1.00  0.00     0.211 HD
ENDBRANCH   6  13
BRANCH   7  15
ATOM     15  O   UNL     1     -16.918   8.722 -40.973  1.00  0.00    -0.385 OA
ATOM     16  H   UNL     1     -16.652   8.271 -40.134  1.00  0.00     0.211 HD
ENDBRANCH   7  15
ENDBRANCH   1   2
BRANCH   1  17
ATOM     17  C   UNL     1     -13.167   6.963 -41.623  1.00  0.00     0.224 C 
ATOM     18  C   UNL     1     -11.932   6.353 -42.322  1.00  0.00     0.208 C 
ATOM     19  O   UNL     1     -13.362   6.162 -40.476  1.00  0.00    -0.337 OA
ATOM     20  C   UNL     1     -12.108   4.878 -42.080  1.00  0.00     0.180 C 
ATOM     21  C   UNL     1     -12.877   4.861 -40.753  1.00  0.00     0.179 C 
BRANCH  17  22
ATOM     22  C   UNL     1     -12.868   8.396 -41.114  1.00  0.00     0.225 C 
BRANCH  22  23
ATOM     23  O   UNL     1     -11.943   8.375 -40.059  1.00  0.00    -0.391 OA
ATOM     24  H   UNL     1     -11.066   8.627 -40.447  1.00  0.00     0.210 HD
ENDBRANCH  22  23
ENDBRANCH  17  22
BRANCH  18  25
ATOM     25  O   UNL     1     -11.799   6.667 -43.682  1.00  0.00    -0.385 OA
ATOM     26  H   UNL     1     -11.080   6.086 -44.042  1.00  0.00     0.211 HD
ENDBRANCH  18  25
BRANCH  20  27
ATOM     27  O   UNL     1     -12.888   4.300 -43.102  1.00  0.00    -0.387 OA
ATOM     28  H   UNL     1     -12.700   3.325 -43.083  1.00  0.00     0.211 HD
ENDBRANCH  20  27
BRANCH  21  29
ATOM     29  C   UNL     1     -12.008   4.391 -39.579  1.00  0.00     0.191 C 
BRANCH  29  30
ATOM     30  O   UNL     1     -12.189   5.234 -38.472  1.00  0.00    -0.394 OA
ATOM     31  H   UNL     1     -12.675   6.033 -38.806  1.00  0.00     0.210 HD
ENDBRANCH  29  30
ENDBRANCH  21  29
ENDBRANCH   1  17
TORSDOF 13
ENDMDL
MODEL 2
REMARK VINA RESULT:    -5.760      1.641      3.372
REMARK INTER + INTRA:          -9.766
REMARK INTER:                  -8.515
REMARK INTRA:                  -1.251
REMARK UNBOUND:                -0.976
REMARK SMILES OC[C@H]1O[C@@H](O[C@@]2(CO)O[C@H](CO)[C@@H](O)[C@H]2O)[C@H](O)[C@H](O)[C@@H]1O
REMARK SMILES IDX 6 1 5 2 3 3 22 4 4 5 20 6 18 7 2 8 1 9 23 11 21 13 19 15
REMARK SMILES IDX 7 17 16 18 10 19 14 20 11 21 8 22 9 23 17 25 15 27 12 29
REMARK SMILES IDX 13 30
REMARK H PARENT 1 10 23 12 21 14 19 16 9 24 17 26 15 28 13 31
REMARK Flexibility Score: inf
ROOT
ATOM      1  O   UNL     1     -14.295   6.359 -41.501  1.00  0.00    -0.313 OA
ENDROOT
BRANCH   1   2
ATOM      2  C   UNL     1     -15.667   6.144 -41.819  1.00  0.00     0.285 C 
ATOM      3  C   UNL     1     -17.581   7.002 -42.840  1.00  0.00     0.178 C 
ATOM      4  C   UNL     1     -18.363   7.372 -41.554  1.00  0.00     0.177 C 
ATOM      5  O   UNL     1     -16.195   7.194 -42.619  1.00  0.00    -0.341 OA
ATOM      6  C   UNL     1     -17.516   7.105 -40.280  1.00  0.00     0.179 C 
ATOM      7  C   UNL     1     -16.458   5.991 -40.476  1.00  0.00     0.202 C 
BRANCH   3   8
ATOM      8  C   UNL     1     -18.026   7.848 -44.042  1.00  0.00     0.191 C 
BRANCH   8   9
ATOM      9  O   UNL     1     -18.999   8.789 -43.672  1.00  0.00    -0.394 OA
ATOM     10  H   UNL     1     -18.829   9.027 -42.726  1.00  0.00     0.210 HD
ENDBRANCH   8   9
ENDBRANCH   3   8
BRANCH   4  11
ATOM     11  O   UNL     1     -19.611   6.720 -41.515  1.00  0.00    -0.387 OA
ATOM     12  H   UNL     1     -20.128   6.994 -42.315  1.00  0.00     0.211 HD
ENDBRANCH   4  11
BRANCH   6  13
ATOM     13  O   UNL     1     -18.350   6.814 -39.187  1.00  0.00    -0.387 OA
ATOM     14  H   UNL     1     -18.586   5.851 -39.253  1.00  0.00     0.211 HD
ENDBRANCH   6  13
BRANCH   7  15
ATOM     15  O   UNL     1     -17.037   4.714 -40.348  1.00  0.00    -0.385 OA
ATOM     16  H   UNL     1     -17.489   4.660 -39.470  1.00  0.00     0.211 HD
ENDBRANCH   7  15
ENDBRANCH   1   2
BRANCH   1  17
ATOM     17  C   UNL     1     -13.315   5.430 -41.982  1.00  0.00     0.224 C 
ATOM     18  C   UNL     1     -12.925   4.289 -41.016  1.00  0.00     0.208 C 
ATOM     19  O   UNL     1     -12.130   6.180 -42.147  1.00  0.00    -0.337 OA
ATOM     20  C   UNL     1     -11.960   4.963 -40.077  1.00  0.00     0.180 C 
ATOM     21  C   UNL     1     -11.352   6.051 -40.972  1.00  0.00     0.179 C 
BRANCH  17  22
ATOM     22  C   UNL     1     -13.684   4.874 -43.379  1.00  0.00     0.225 C 
BRANCH  22  23
ATOM     23  O   UNL     1     -12.539   4.483 -44.087  1.00  0.00    -0.391 OA
ATOM     24  H   UNL     1     -12.535   3.491 -44.094  1.00  0.00     0.210 HD
ENDBRANCH  22  23
ENDBRANCH  17  22
BRANCH  18  25
ATOM     25  O   UNL     1     -13.996   3.680 -40.346  1.00  0.00    -0.385 OA
ATOM     26  H   UNL     1     -13.610   3.186 -39.577  1.00  0.00     0.211 HD
ENDBRANCH  18  25
BRANCH  20  27
ATOM     27  O   UNL     1     -12.650   5.550 -38.998  1.00  0.00    -0.387 OA
ATOM     28  H   UNL     1     -12.926   6.456 -39.299  1.00  0.00     0.211 HD
ENDBRANCH  20  27
BRANCH  21  29
ATOM     29  C   UNL     1      -9.901   5.742 -41.364  1.00  0.00     0.191 C 
BRANCH  29  30
ATOM     30  O   UNL     1      -9.860   5.107 -42.614  1.00  0.00    -0.394 OA
ATOM     31  H   UNL     1     -10.752   4.690 -42.744  1.00  0.00     0.210 HD
ENDBRANCH  29  30
ENDBRANCH  21  29
ENDBRANCH   1  17
TORSDOF 13
ENDMDL
MODEL 3
REMARK VINA RESULT:    -5.651      1.567      3.563
REMARK INTER + INTRA:          -9.600
REMARK INTER:                  -9.089
REMARK INTRA:                  -0.511
REMARK UNBOUND:                -0.976
REMARK SMILES OC[C@H]1O[C@@H](O[C@@]2(CO)O[C@H](CO)[C@@H](O)[C@H]2O)[C@H](O)[C@H](O)[C@@H]1O
REMARK SMILES IDX 6 1 5 2 3 3 22 4 4 5 20 6 18 7 2 8 1 9 23 11 21 13 19 15
REMARK SMILES IDX 7 17 16 18 10 19 14 20 11 21 8 22 9 23 17 25 15 27 12 29
REMARK SMILES IDX 13 30
REMARK H PARENT 1 10 23 12 21 14 19 16 9 24 17 26 15 28 13 31
REMARK Flexibility Score: inf
ROOT
ATOM      1  O   UNL     1     -14.404   5.163 -40.727  1.00  0.00    -0.313 OA
ENDROOT
BRANCH   1   2
ATOM      2  C   UNL     1     -15.567   5.640 -41.398  1.00  0.00     0.285 C 
ATOM      3  C   UNL     1     -16.566   7.423 -42.521  1.00  0.00     0.178 C 
ATOM      4  C   UNL     1     -17.536   7.869 -41.397  1.00  0.00     0.177 C 
ATOM      5  O   UNL     1     -15.368   6.937 -41.944  1.00  0.00    -0.341 OA
ATOM      6  C   UNL     1     -17.324   7.035 -40.105  1.00  0.00     0.179 C 
ATOM      7  C   UNL     1     -16.756   5.621 -40.380  1.00  0.00     0.202 C 
BRANCH   3   8
ATOM      8  C   UNL     1     -16.237   8.576 -43.483  1.00  0.00     0.191 C 
BRANCH   8   9
ATOM      9  O   UNL     1     -16.982   9.725 -43.175  1.00  0.00    -0.394 OA
ATOM     10  H   UNL     1     -16.904   9.869 -42.198  1.00  0.00     0.210 HD
ENDBRANCH   8   9
ENDBRANCH   3   8
BRANCH   4  11
ATOM     11  O   UNL     1     -18.872   7.844 -41.841  1.00  0.00    -0.387 OA
ATOM     12  H   UNL     1     -19.315   8.678 -41.537  1.00  0.00     0.211 HD
ENDBRANCH   4  11
BRANCH   6  13
ATOM     13  O   UNL     1     -18.520   6.957 -39.369  1.00  0.00    -0.387 OA
ATOM     14  H   UNL     1     -19.227   6.658 -39.999  1.00  0.00     0.211 HD
ENDBRANCH   6  13
BRANCH   7  15
ATOM     15  O   UNL     1     -17.774   4.733 -40.777  1.00  0.00    -0.385 OA
ATOM     16  H   UNL     1     -18.648   5.176 -40.641  1.00  0.00     0.211 HD
ENDBRANCH   7  15
ENDBRANCH   1   2
BRANCH   1  17
ATOM     17  C   UNL     1     -13.139   5.221 -41.399  1.00  0.00     0.224 C 
ATOM     18  C   UNL     1     -11.958   4.520 -40.691  1.00  0.00     0.208 C 
ATOM     19  O   UNL     1     -12.783   6.588 -41.422  1.00  0.00    -0.337 OA
ATOM     20  C   UNL     1     -11.554   5.525 -39.646  1.00  0.00     0.180 C 
ATOM     21  C   UNL     1     -11.953   6.851 -40.307  1.00  0.00     0.179 C 
BRANCH  17  22
ATOM     22  C   UNL     1     -13.249   4.769 -42.877  1.00  0.00     0.225 C 
BRANCH  22  23
ATOM     23  O   UNL     1     -12.370   3.710 -43.149  1.00  0.00    -0.391 OA
ATOM     24  H   UNL     1     -11.542   4.117 -43.512  1.00  0.00     0.210 HD
ENDBRANCH  22  23
ENDBRANCH  17  22
BRANCH  18  25
ATOM     25  O   UNL     1     -12.249   3.261 -40.147  1.00  0.00    -0.385 OA
ATOM     26  H   UNL     1     -11.635   3.131 -39.379  1.00  0.00     0.211 HD
ENDBRANCH  18  25
BRANCH  20  27
ATOM     27  O   UNL     1     -12.291   5.331 -38.462  1.00  0.00    -0.387 OA
ATOM     28  H   UNL     1     -11.640   5.046 -37.767  1.00  0.00     0.211 HD
ENDBRANCH  20  27
BRANCH  21  29
ATOM     29  C   UNL     1     -10.736   7.663 -40.771  1.00  0.00     0.191 C 
BRANCH  29  30
ATOM     30  O   UNL     1     -10.072   8.219 -39.667  1.00  0.00    -0.394 OA
ATOM     31  H   UNL     1     -10.236   9.198 -39.708  1.00  0.00     0.210 HD
ENDBRANCH  29  30
ENDBRANCH  21  29
ENDBRANCH   1  17
TORSDOF 13
ENDMDL
MODEL 4
REMARK VINA RESULT:    -5.610      0.998      2.288
REMARK INTER + INTRA:          -9.537
REMARK INTER:                  -8.564
REMARK INTRA:                  -0.974
REMARK UNBOUND:                -0.976
REMARK SMILES OC[C@H]1O[C@@H](O[C@@]2(CO)O[C@H](CO)[C@@H](O)[C@H]2O)[C@H](O)[C@H](O)[C@@H]1O
REMARK SMILES IDX 6 1 5 2 3 3 22 4 4 5 20 6 18 7 2 8 1 9 23 11 21 13 19 15
REMARK SMILES IDX 7 17 16 18 10 19 14 20 11 21 8 22 9 23 17 25 15 27 12 29
REMARK SMILES IDX 13 30
REMARK H PARENT 1 10 23 12 21 14 19 16 9 24 17 26 15 28 13 31
REMARK Flexibility Score: inf
ROOT
ATOM      1  O   UNL     1     -14.495   6.333 -42.367  1.00  0.00    -0.313 OA
ENDROOT
BRANCH   1   2
ATOM      2  C   UNL     1     -15.706   6.247 -41.622  1.00  0.00     0.285 C 
ATOM      3  C   UNL     1     -17.692   5.073 -41.275  1.00  0.00     0.178 C 
ATOM      4  C   UNL     1     -18.658   6.082 -41.945  1.00  0.00     0.177 C 
ATOM      5  O   UNL     1     -16.451   5.084 -41.959  1.00  0.00    -0.341 OA
ATOM      6  C   UNL     1     -17.885   7.271 -42.578  1.00  0.00     0.179 C 
ATOM      7  C   UNL     1     -16.530   7.552 -41.884  1.00  0.00     0.202 C 
BRANCH   3   8
ATOM      8  C   UNL     1     -18.262   3.646 -41.278  1.00  0.00     0.191 C 
BRANCH   8   9
ATOM      9  O   UNL     1     -19.665   3.657 -41.229  1.00  0.00    -0.394 OA
ATOM     10  H   UNL     1     -19.989   3.313 -42.099  1.00  0.00     0.210 HD
ENDBRANCH   8   9
ENDBRANCH   3   8
BRANCH   4  11
ATOM     11  O   UNL     1     -19.653   6.507 -41.043  1.00  0.00    -0.387 OA
ATOM     12  H   UNL     1     -20.538   6.332 -41.453  1.00  0.00     0.211 HD
ENDBRANCH   4  11
BRANCH   6  13
ATOM     13  O   UNL     1     -18.687   8.426 -42.594  1.00  0.00    -0.387 OA
ATOM     14  H   UNL     1     -18.129   9.168 -42.241  1.00  0.00     0.211 HD
ENDBRANCH   6  13
BRANCH   7  15
ATOM     15  O   UNL     1     -16.709   8.306 -40.708  1.00  0.00    -0.385 OA
ATOM     16  H   UNL     1     -15.853   8.325 -40.213  1.00  0.00     0.211 HD
ENDBRANCH   7  15
ENDBRANCH   1   2
BRANCH   1  17
ATOM     17  C   UNL     1     -13.316   5.698 -41.855  1.00  0.00     0.224 C 
ATOM     18  C   UNL     1     -12.077   6.603 -41.676  1.00  0.00     0.208 C 
ATOM     19  O   UNL     1     -12.934   4.758 -42.838  1.00  0.00    -0.337 OA
ATOM     20  C   UNL     1     -11.530   6.698 -43.075  1.00  0.00     0.180 C 
ATOM     21  C   UNL     1     -11.973   5.362 -43.683  1.00  0.00     0.179 C 
BRANCH  17  22
ATOM     22  C   UNL     1     -13.609   4.893 -40.564  1.00  0.00     0.225 C 
BRANCH  22  23
ATOM     23  O   UNL     1     -12.928   5.435 -39.465  1.00  0.00    -0.391 OA
ATOM     24  H   UNL     1     -12.356   6.164 -39.818  1.00  0.00     0.210 HD
ENDBRANCH  22  23
ENDBRANCH  17  22
BRANCH  18  25
ATOM     25  O   UNL     1     -12.331   7.859 -41.107  1.00  0.00    -0.385 OA
ATOM     26  H   UNL     1     -13.189   8.179 -41.487  1.00  0.00     0.211 HD
ENDBRANCH  18  25
BRANCH  20  27
ATOM     27  O   UNL     1     -12.128   7.770 -43.767  1.00  0.00    -0.387 OA
ATOM     28  H   UNL     1     -11.689   7.812 -44.657  1.00  0.00     0.211 HD
ENDBRANCH  20  27
BRANCH  21  29
ATOM     29  C   UNL     1     -10.800   4.391 -43.880  1.00  0.00     0.191 C 
BRANCH  29  30
ATOM     30  O   UNL     1     -11.132   3.121 -43.383  1.00  0.00    -0.394 OA
ATOM     31  H   UNL     1     -12.113   3.024 -43.498  1.00  0.00     0.210 HD
ENDBRANCH  29  30
ENDBRANCH  21  29
ENDBRANCH   1  17
TORSDOF 13
ENDMDL
MODEL 5
REMARK VINA RESULT:    -5.522      1.404      5.823
REMARK INTER + INTRA:          -9.404
REMARK INTER:                  -8.475
REMARK INTRA:                  -0.929
REMARK UNBOUND:                -0.976
REMARK SMILES OC[C@H]1O[C@@H](O[C@@]2(CO)O[C@H](CO)[C@@H](O)[C@H]2O)[C@H](O)[C@H](O)[C@@H]1O
REMARK SMILES IDX 6 1 5 2 3 3 22 4 4 5 20 6 18 7 2 8 1 9 23 11 21 13 19 15
REMARK SMILES IDX 7 17 16 18 10 19 14 20 11 21 8 22 9 23 17 25 15 27 12 29
REMARK SMILES IDX 13 30
REMARK H PARENT 1 10 23 12 21 14 19 16 9 24 17 26 15 28 13 31
REMARK Flexibility Score: inf
ROOT
ATOM      1  O   UNL     1     -15.731   7.194 -41.677  1.00  0.00    -0.313 OA
ENDROOT
BRANCH   1   2
ATOM      2  C   UNL     1     -14.358   6.837 -41.805  1.00  0.00     0.285 C 
ATOM      3  C   UNL     1     -12.493   5.893 -40.771  1.00  0.00     0.178 C 
ATOM      4  C   UNL     1     -11.703   7.201 -40.514  1.00  0.00     0.177 C 
ATOM      5  O   UNL     1     -13.881   6.150 -40.656  1.00  0.00    -0.341 OA
ATOM      6  C   UNL     1     -12.520   8.448 -40.948  1.00  0.00     0.179 C 
ATOM      7  C   UNL     1     -13.540   8.146 -42.072  1.00  0.00     0.202 C 
BRANCH   3   8
ATOM      8  C   UNL     1     -12.097   4.783 -39.784  1.00  0.00     0.191 C 
BRANCH   8   9
ATOM      9  O   UNL     1     -12.198   5.223 -38.455  1.00  0.00    -0.394 OA
ATOM     10  H   UNL     1     -13.070   4.904 -38.108  1.00  0.00     0.210 HD
ENDBRANCH   8   9
ENDBRANCH   3   8
BRANCH   4  11
ATOM     11  O   UNL     1     -10.432   7.154 -41.119  1.00  0.00    -0.387 OA
ATOM     12  H   UNL     1      -9.949   6.365 -40.763  1.00  0.00     0.211 HD
ENDBRANCH   4  11
BRANCH   6  13
ATOM     13  O   UNL     1     -11.658   9.494 -41.324  1.00  0.00    -0.387 OA
ATOM     14  H   UNL     1     -11.465  10.017 -40.503  1.00  0.00     0.211 HD
ENDBRANCH   6  13
BRANCH   7  15
ATOM     15  O   UNL     1     -12.915   8.127 -43.333  1.00  0.00    -0.385 OA
ATOM     16  H   UNL     1     -11.946   8.281 -43.207  1.00  0.00     0.211 HD
ENDBRANCH   7  15
ENDBRANCH   1   2
BRANCH   1  17
ATOM     17  C   UNL     1     -16.706   6.507 -42.472  1.00  0.00     0.224 C 
ATOM     18  C   UNL     1     -18.186   6.816 -42.153  1.00  0.00     0.208 C 
ATOM     19  O   UNL     1     -16.551   5.137 -42.164  1.00  0.00    -0.337 OA
ATOM     20  C   UNL     1     -18.448   5.969 -40.936  1.00  0.00     0.180 C 
ATOM     21  C   UNL     1     -17.473   4.803 -41.144  1.00  0.00     0.179 C 
BRANCH  17  22
ATOM     22  C   UNL     1     -16.421   6.654 -43.987  1.00  0.00     0.225 C 
BRANCH  22  23
ATOM     23  O   UNL     1     -17.515   7.223 -44.655  1.00  0.00    -0.391 OA
ATOM     24  H   UNL     1     -18.286   6.618 -44.503  1.00  0.00     0.210 HD
ENDBRANCH  22  23
ENDBRANCH  17  22
BRANCH  18  25
ATOM     25  O   UNL     1     -18.483   8.170 -41.944  1.00  0.00    -0.385 OA
ATOM     26  H   UNL     1     -18.652   8.569 -42.837  1.00  0.00     0.211 HD
ENDBRANCH  18  25
BRANCH  20  27
ATOM     27  O   UNL     1     -18.117   6.676 -39.763  1.00  0.00    -0.387 OA
ATOM     28  H   UNL     1     -18.977   6.949 -39.346  1.00  0.00     0.211 HD
ENDBRANCH  20  27
BRANCH  21  29
ATOM     29  C   UNL     1     -18.192   3.501 -41.526  1.00  0.00     0.191 C 
BRANCH  29  30
ATOM     30  O   UNL     1     -18.584   2.805 -40.373  1.00  0.00    -0.394 OA
ATOM     31  H   UNL     1     -18.089   3.217 -39.617  1.00  0.00     0.210 HD
ENDBRANCH  29  30
ENDBRANCH  21  29
ENDBRANCH   1  17
TORSDOF 13
ENDMDL
MODEL 6
REMARK VINA RESULT:    -5.496      1.972      5.771
REMARK INTER + INTRA:          -9.364
REMARK INTER:                  -8.406
REMARK INTRA:                  -0.957
REMARK UNBOUND:                -0.976
REMARK SMILES OC[C@H]1O[C@@H](O[C@@]2(CO)O[C@H](CO)[C@@H](O)[C@H]2O)[C@H](O)[C@H](O)[C@@H]1O
REMARK SMILES IDX 6 1 5 2 3 3 22 4 4 5 20 6 18 7 2 8 1 9 23 11 21 13 19 15
REMARK SMILES IDX 7 17 16 18 10 19 14 20 11 21 8 22 9 23 17 25 15 27 12 29
REMARK SMILES IDX 13 30
REMARK H PARENT 1 10 23 12 21 14 19 16 9 24 17 26 15 28 13 31
REMARK Flexibility Score: inf
ROOT
ATOM      1  O   UNL     1     -15.466   6.663 -42.516  1.00  0.00    -0.313 OA
ENDROOT
BRANCH   1   2
ATOM      2  C   UNL     1     -14.688   5.496 -42.770  1.00  0.00     0.285 C 
ATOM      3  C   UNL     1     -13.039   4.052 -41.974  1.00  0.00     0.178 C 
ATOM      4  C   UNL     1     -11.880   4.522 -42.890  1.00  0.00     0.177 C 
ATOM      5  O   UNL     1     -13.868   5.157 -41.659  1.00  0.00    -0.341 OA
ATOM      6  C   UNL     1     -12.312   5.721 -43.776  1.00  0.00     0.179 C 
ATOM      7  C   UNL     1     -13.834   5.753 -44.057  1.00  0.00     0.202 C 
BRANCH   3   8
ATOM      8  C   UNL     1     -12.518   3.421 -40.673  1.00  0.00     0.191 C 
BRANCH   8   9
ATOM      9  O   UNL     1     -11.895   2.187 -40.918  1.00  0.00    -0.394 OA
ATOM     10  H   UNL     1     -12.292   1.531 -40.290  1.00  0.00     0.210 HD
ENDBRANCH   8   9
ENDBRANCH   3   8
BRANCH   4  11
ATOM     11  O   UNL     1     -11.368   3.451 -43.648  1.00  0.00    -0.387 OA
ATOM     12  H   UNL     1     -12.123   2.862 -43.902  1.00  0.00     0.211 HD
ENDBRANCH   4  11
BRANCH   6  13
ATOM     13  O   UNL     1     -11.583   5.732 -44.978  1.00  0.00    -0.387 OA
ATOM     14  H   UNL     1     -10.632   5.890 -44.737  1.00  0.00     0.211 HD
ENDBRANCH   6  13
BRANCH   7  15
ATOM     15  O   UNL     1     -14.177   4.871 -45.100  1.00  0.00    -0.385 OA
ATOM     16  H   UNL     1     -14.300   3.967 -44.719  1.00  0.00     0.211 HD
ENDBRANCH   7  15
ENDBRANCH   1   2
BRANCH   1  17
ATOM     17  C   UNL     1     -16.895   6.556 -42.492  1.00  0.00     0.224 C 
ATOM     18  C   UNL     1     -17.579   6.871 -41.143  1.00  0.00     0.208 C 
ATOM     19  O   UNL     1     -17.177   5.192 -42.727  1.00  0.00    -0.337 OA
ATOM     20  C   UNL     1     -17.378   5.599 -40.363  1.00  0.00     0.180 C 
ATOM     21  C   UNL     1     -17.329   4.546 -41.477  1.00  0.00     0.179 C 
BRANCH  17  22
ATOM     22  C   UNL     1     -17.553   7.349 -43.648  1.00  0.00     0.225 C 
BRANCH  22  23
ATOM     23  O   UNL     1     -18.493   8.268 -43.160  1.00  0.00    -0.391 OA
ATOM     24  H   UNL     1     -18.015   9.130 -43.048  1.00  0.00     0.210 HD
ENDBRANCH  22  23
ENDBRANCH  17  22
BRANCH  18  25
ATOM     25  O   UNL     1     -17.088   8.000 -40.472  1.00  0.00    -0.385 OA
ATOM     26  H   UNL     1     -17.189   7.825 -39.501  1.00  0.00     0.211 HD
ENDBRANCH  18  25
BRANCH  20  27
ATOM     27  O   UNL     1     -16.151   5.633 -39.671  1.00  0.00    -0.387 OA
ATOM     28  H   UNL     1     -15.985   6.585 -39.437  1.00  0.00     0.211 HD
ENDBRANCH  20  27
BRANCH  21  29
ATOM     29  C   UNL     1     -18.593   3.675 -41.515  1.00  0.00     0.191 C 
BRANCH  29  30
ATOM     30  O   UNL     1     -18.619   2.808 -40.412  1.00  0.00    -0.394 OA
ATOM     31  H   UNL     1     -18.347   1.916 -40.752  1.00  0.00     0.210 HD
ENDBRANCH  29  30
ENDBRANCH  21  29
ENDBRANCH   1  17
TORSDOF 13
ENDMDL
MODEL 7
REMARK VINA RESULT:    -5.453      5.295      8.093
REMARK INTER + INTRA:          -9.298
REMARK INTER:                  -8.211
REMARK INTRA:                  -1.088
REMARK UNBOUND:                -0.976
REMARK SMILES OC[C@H]1O[C@@H](O[C@@]2(CO)O[C@H](CO)[C@@H](O)[C@H]2O)[C@H](O)[C@H](O)[C@@H]1O
REMARK SMILES IDX 6 1 5 2 3 3 22 4 4 5 20 6 18 7 2 8 1 9 23 11 21 13 19 15
REMARK SMILES IDX 7 17 16 18 10 19 14 20 11 21 8 22 9 23 17 25 15 27 12 29
REMARK SMILES IDX 13 30
REMARK H PARENT 1 10 23 12 21 14 19 16 9 24 17 26 15 28 13 31
REMARK Flexibility Score: inf
ROOT
ATOM      1  O   UNL     1     -10.283   0.402 -40.955  1.00  0.00    -0.313 OA
ENDROOT
BRANCH   1   2
ATOM      2  C   UNL     1     -10.209   1.820 -40.828  1.00  0.00     0.285 C 
ATOM      3  C   UNL     1     -10.894   3.699 -39.629  1.00  0.00     0.178 C 
ATOM      4  C   UNL     1     -11.905   4.257 -40.663  1.00  0.00     0.177 C 
ATOM      5  O   UNL     1     -10.904   2.284 -39.678  1.00  0.00    -0.341 OA
ATOM      6  C   UNL     1     -12.048   3.309 -41.883  1.00  0.00     0.179 C 
ATOM      7  C   UNL     1     -10.782   2.454 -42.140  1.00  0.00     0.202 C 
BRANCH   3   8
ATOM      8  C   UNL     1     -11.223   4.161 -38.201  1.00  0.00     0.191 C 
BRANCH   8   9
ATOM      9  O   UNL     1     -12.212   5.157 -38.202  1.00  0.00    -0.394 OA
ATOM     10  H   UNL     1     -13.084   4.700 -38.090  1.00  0.00     0.210 HD
ENDBRANCH   8   9
ENDBRANCH   3   8
BRANCH   4  11
ATOM     11  O   UNL     1     -11.570   5.572 -41.040  1.00  0.00    -0.387 OA
ATOM     12  H   UNL     1     -12.176   6.195 -40.563  1.00  0.00     0.211 HD
ENDBRANCH   4  11
BRANCH   6  13
ATOM     13  O   UNL     1     -12.400   4.036 -43.033  1.00  0.00    -0.387 OA
ATOM     14  H   UNL     1     -13.212   3.605 -43.409  1.00  0.00     0.211 HD
ENDBRANCH   6  13
BRANCH   7  15
ATOM     15  O   UNL     1      -9.806   3.191 -42.838  1.00  0.00    -0.385 OA
ATOM     16  H   UNL     1      -9.748   4.094 -42.438  1.00  0.00     0.211 HD
ENDBRANCH   7  15
ENDBRANCH   1   2
BRANCH   1  17
ATOM     17  C   UNL     1      -9.150  -0.390 -40.579  1.00  0.00     0.224 C 
ATOM     18  C   UNL     1      -9.238  -1.900 -40.898  1.00  0.00     0.208 C 
ATOM     19  O   UNL     1      -9.091  -0.324 -39.169  1.00  0.00    -0.337 OA
ATOM     20  C   UNL     1     -10.095  -2.426 -39.777  1.00  0.00     0.180 C 
ATOM     21  C   UNL     1      -9.773  -1.447 -38.641  1.00  0.00     0.179 C 
BRANCH  17  22
ATOM     22  C   UNL     1      -7.824   0.213 -41.105  1.00  0.00     0.225 C 
BRANCH  22  23
ATOM     23  O   UNL     1      -6.968  -0.789 -41.585  1.00  0.00    -0.391 OA
ATOM     24  H   UNL     1      -6.425  -0.376 -42.305  1.00  0.00     0.210 HD
ENDBRANCH  22  23
ENDBRANCH  17  22
BRANCH  18  25
ATOM     25  O   UNL     1      -9.749  -2.215 -42.164  1.00  0.00    -0.385 OA
ATOM     26  H   UNL     1     -10.013  -3.171 -42.138  1.00  0.00     0.211 HD
ENDBRANCH  18  25
BRANCH  20  27
ATOM     27  O   UNL     1     -11.459  -2.343 -40.119  1.00  0.00    -0.387 OA
ATOM     28  H   UNL     1     -11.908  -1.864 -39.373  1.00  0.00     0.211 HD
ENDBRANCH  20  27
BRANCH  21  29
ATOM     29  C   UNL     1      -8.909  -2.086 -37.545  1.00  0.00     0.191 C 
BRANCH  29  30
ATOM     30  O   UNL     1      -8.796  -3.468 -37.759  1.00  0.00    -0.394 OA
ATOM     31  H   UNL     1      -8.814  -3.891 -36.861  1.00  0.00     0.210 HD
ENDBRANCH  29  30
ENDBRANCH  21  29
ENDBRANCH   1  17
TORSDOF 13
ENDMDL
MODEL 8
REMARK VINA RESULT:    -5.449      5.663      9.004
REMARK INTER + INTRA:          -9.292
REMARK INTER:                  -8.372
REMARK INTRA:                  -0.920
REMARK UNBOUND:                -0.976
REMARK SMILES OC[C@H]1O[C@@H](O[C@@]2(CO)O[C@H](CO)[C@@H](O)[C@H]2O)[C@H](O)[C@H](O)[C@@H]1O
REMARK SMILES IDX 6 1 5 2 3 3 22 4 4 5 20 6 18 7 2 8 1 9 23 11 21 13 19 15
REMARK SMILES IDX 7 17 16 18 10 19 14 20 11 21 8 22 9 23 17 25 15 27 12 29
REMARK SMILES IDX 13 30
REMARK H PARENT 1 10 23 12 21 14 19 16 9 24 17 26 15 28 13 31
REMARK Flexibility Score: inf
ROOT
ATOM      1  O   UNL     1      -9.234   1.247 -40.316  1.00  0.00    -0.313 OA
ENDROOT
BRANCH   1   2
ATOM      2  C   UNL     1      -9.680  -0.089 -40.532  1.00  0.00     0.285 C 
ATOM      3  C   UNL     1     -11.131  -1.785 -39.855  1.00  0.00     0.178 C 
ATOM      4  C   UNL     1     -10.092  -2.685 -39.139  1.00  0.00     0.177 C 
ATOM      5  O   UNL     1     -10.772  -0.425 -39.687  1.00  0.00    -0.341 OA
ATOM      6  C   UNL     1      -8.687  -2.025 -39.126  1.00  0.00     0.179 C 
ATOM      7  C   UNL     1      -8.463  -1.048 -40.307  1.00  0.00     0.202 C 
BRANCH   3   8
ATOM      8  C   UNL     1     -12.551  -2.007 -39.311  1.00  0.00     0.191 C 
BRANCH   8   9
ATOM      9  O   UNL     1     -12.910  -3.363 -39.360  1.00  0.00    -0.394 OA
ATOM     10  H   UNL     1     -13.500  -3.535 -38.583  1.00  0.00     0.210 HD
ENDBRANCH   8   9
ENDBRANCH   3   8
BRANCH   4  11
ATOM     11  O   UNL     1     -10.073  -3.978 -39.696  1.00  0.00    -0.387 OA
ATOM     12  H   UNL     1      -9.264  -4.446 -39.366  1.00  0.00     0.211 HD
ENDBRANCH   4  11
BRANCH   6  13
ATOM     13  O   UNL     1      -7.682  -3.008 -39.095  1.00  0.00    -0.387 OA
ATOM     14  H   UNL     1      -6.834  -2.561 -39.353  1.00  0.00     0.211 HD
ENDBRANCH   6  13
BRANCH   7  15
ATOM     15  O   UNL     1      -8.116  -1.743 -41.481  1.00  0.00    -0.385 OA
ATOM     16  H   UNL     1      -8.650  -1.380 -42.231  1.00  0.00     0.211 HD
ENDBRANCH   7  15
ENDBRANCH   1   2
BRANCH   1  17
ATOM     17  C   UNL     1     -10.064   2.335 -40.743  1.00  0.00     0.224 C 
ATOM     18  C   UNL     1      -9.332   3.639 -41.131  1.00  0.00     0.208 C 
ATOM     19  O   UNL     1     -10.843   2.683 -39.617  1.00  0.00    -0.337 OA
ATOM     20  C   UNL     1      -9.038   4.266 -39.795  1.00  0.00     0.180 C 
ATOM     21  C   UNL     1     -10.192   3.738 -38.933  1.00  0.00     0.179 C 
BRANCH  17  22
ATOM     22  C   UNL     1     -11.057   1.903 -41.850  1.00  0.00     0.225 C 
BRANCH  22  23
ATOM     23  O   UNL     1     -11.031   2.798 -42.930  1.00  0.00    -0.391 OA
ATOM     24  H   UNL     1     -11.909   3.260 -42.936  1.00  0.00     0.210 HD
ENDBRANCH  22  23
ENDBRANCH  17  22
BRANCH  18  25
ATOM     25  O   UNL     1      -8.181   3.469 -41.914  1.00  0.00    -0.385 OA
ATOM     26  H   UNL     1      -8.403   3.789 -42.826  1.00  0.00     0.211 HD
ENDBRANCH  18  25
BRANCH  20  27
ATOM     27  O   UNL     1      -7.806   3.803 -39.293  1.00  0.00    -0.387 OA
ATOM     28  H   UNL     1      -7.317   3.408 -40.063  1.00  0.00     0.211 HD
ENDBRANCH  20  27
BRANCH  21  29
ATOM     29  C   UNL     1     -11.221   4.827 -38.602  1.00  0.00     0.191 C 
BRANCH  29  30
ATOM     30  O   UNL     1     -12.448   4.542 -39.219  1.00  0.00    -0.394 OA
ATOM     31  H   UNL     1     -13.004   4.084 -38.536  1.00  0.00     0.210 HD
ENDBRANCH  29  30
ENDBRANCH  21  29
ENDBRANCH   1  17
TORSDOF 13
ENDMDL
MODEL 9
REMARK VINA RESULT:    -5.364      4.820      8.765
REMARK INTER + INTRA:          -9.161
REMARK INTER:                  -8.379
REMARK INTRA:                  -0.783
REMARK UNBOUND:                -0.976
REMARK SMILES OC[C@H]1O[C@@H](O[C@@]2(CO)O[C@H](CO)[C@@H](O)[C@H]2O)[C@H](O)[C@H](O)[C@@H]1O
REMARK SMILES IDX 6 1 5 2 3 3 22 4 4 5 20 6 18 7 2 8 1 9 23 11 21 13 19 15
REMARK SMILES IDX 7 17 16 18 10 19 14 20 11 21 8 22 9 23 17 25 15 27 12 29
REMARK SMILES IDX 13 30
REMARK H PARENT 1 10 23 12 21 14 19 16 9 24 17 26 15 28 13 31
REMARK Flexibility Score: inf
ROOT
ATOM      1  O   UNL     1     -10.797   2.022 -40.380  1.00  0.00    -0.313 OA
ENDROOT
BRANCH   1   2
ATOM      2  C   UNL     1      -9.716   1.174 -40.760  1.00  0.00     0.285 C 
ATOM      3  C   UNL     1      -9.028  -1.007 -41.216  1.00  0.00     0.178 C 
ATOM      4  C   UNL     1      -8.224  -1.256 -39.914  1.00  0.00     0.177 C 
ATOM      5  O   UNL     1     -10.137  -0.173 -40.932  1.00  0.00    -0.341 OA
ATOM      6  C   UNL     1      -8.334  -0.050 -38.943  1.00  0.00     0.179 C 
ATOM      7  C   UNL     1      -8.601   1.292 -39.668  1.00  0.00     0.202 C 
BRANCH   3   8
ATOM      8  C   UNL     1      -9.525  -2.320 -41.840  1.00  0.00     0.191 C 
BRANCH   8   9
ATOM      9  O   UNL     1      -8.752  -2.682 -42.953  1.00  0.00    -0.394 OA
ATOM     10  H   UNL     1      -8.303  -1.859 -43.275  1.00  0.00     0.210 HD
ENDBRANCH   8   9
ENDBRANCH   3   8
BRANCH   4  11
ATOM     11  O   UNL     1      -6.887  -1.594 -40.201  1.00  0.00    -0.387 OA
ATOM     12  H   UNL     1      -6.548  -0.963 -40.886  1.00  0.00     0.211 HD
ENDBRANCH   4  11
BRANCH   6  13
ATOM     13  O   UNL     1      -7.187   0.039 -38.136  1.00  0.00    -0.387 OA
ATOM     14  H   UNL     1      -6.895   0.988 -38.153  1.00  0.00     0.211 HD
ENDBRANCH   6  13
BRANCH   7  15
ATOM     15  O   UNL     1      -7.410   1.832 -40.189  1.00  0.00    -0.385 OA
ATOM     16  H   UNL     1      -7.597   2.198 -41.088  1.00  0.00     0.211 HD
ENDBRANCH   7  15
ENDBRANCH   1   2
BRANCH   1  17
ATOM     17  C   UNL     1     -11.104   3.164 -41.190  1.00  0.00     0.224 C 
ATOM     18  C   UNL     1     -10.811   4.544 -40.560  1.00  0.00     0.208 C 
ATOM     19  O   UNL     1     -12.505   3.139 -41.365  1.00  0.00    -0.337 OA
ATOM     20  C   UNL     1     -11.995   4.753 -39.654  1.00  0.00     0.180 C 
ATOM     21  C   UNL     1     -13.093   3.961 -40.375  1.00  0.00     0.179 C 
BRANCH  17  22
ATOM     22  C   UNL     1     -10.480   3.053 -42.603  1.00  0.00     0.225 C 
BRANCH  22  23
ATOM     23  O   UNL     1     -11.429   3.326 -43.599  1.00  0.00    -0.391 OA
ATOM     24  H   UNL     1     -11.227   4.235 -43.941  1.00  0.00     0.210 HD
ENDBRANCH  22  23
ENDBRANCH  17  22
BRANCH  18  25
ATOM     25  O   UNL     1      -9.587   4.646 -39.885  1.00  0.00    -0.385 OA
ATOM     26  H   UNL     1      -8.952   5.088 -40.505  1.00  0.00     0.211 HD
ENDBRANCH  18  25
BRANCH  20  27
ATOM     27  O   UNL     1     -11.748   4.197 -38.384  1.00  0.00    -0.387 OA
ATOM     28  H   UNL     1     -12.250   3.339 -38.348  1.00  0.00     0.211 HD
ENDBRANCH  20  27
BRANCH  21  29
ATOM     29  C   UNL     1     -14.135   4.874 -41.036  1.00  0.00     0.191 C 
BRANCH  29  30
ATOM     30  O   UNL     1     -15.358   4.789 -40.355  1.00  0.00    -0.394 OA
ATOM     31  H   UNL     1     -15.540   3.821 -40.228  1.00  0.00     0.210 HD
ENDBRANCH  29  30
ENDBRANCH  21  29
ENDBRANCH   1  17
TORSDOF 13
ENDMDL
