MODEL 1
REMARK VINA RESULT:    -5.101      0.000      0.000
REMARK INTER + INTRA:          -7.142
REMARK INTER:                  -6.443
REMARK INTRA:                  -0.699
REMARK UNBOUND:                -0.699
REMARK SMILES O=C(C=Cc1ccc(O)cc1)c1ccc(O)cc1O
REMARK SMILES IDX 4 1 3 2 5 3 6 4 7 5 8 6 11 7 10 8 9 9 2 11 1 12 12 13 18 14
REMARK SMILES IDX 13 15 17 16 14 17 15 18 19 19 16 21
REMARK H PARENT 9 10 19 20 16 22
REMARK Flexibility Score: inf
ROOT
ATOM      1  C   UNL     1      -6.412  23.582 -10.283  1.00  0.00     0.012 C 
ATOM      2  C   UNL     1      -5.859  24.773 -10.007  1.00  0.00     0.053 C 
ENDROOT
BRANCH   1   3
ATOM      3  C   UNL     1      -5.879  22.292  -9.781  1.00  0.00    -0.025 A 
ATOM      4  C   UNL     1      -4.648  22.193  -9.103  1.00  0.00     0.012 A 
ATOM      5  C   UNL     1      -4.194  20.955  -8.637  1.00  0.00     0.047 A 
ATOM      6  C   UNL     1      -4.962  19.804  -8.831  1.00  0.00     0.115 A 
ATOM      7  C   UNL     1      -6.652  21.131  -9.956  1.00  0.00     0.012 A 
ATOM      8  C   UNL     1      -6.194  19.895  -9.489  1.00  0.00     0.047 A 
BRANCH   6   9
ATOM      9  O   UNL     1      -4.496  18.577  -8.362  1.00  0.00    -0.508 OA
ATOM     10  H   UNL     1      -4.239  18.445  -7.391  1.00  0.00     0.293 HD
ENDBRANCH   6   9
ENDBRANCH   1   3
BRANCH   2  11
ATOM     11  C   UNL     1      -6.409  26.039 -10.539  1.00  0.00     0.189 C 
ATOM     12  O   UNL     1      -5.702  26.764 -11.290  1.00  0.00    -0.289 OA
BRANCH  11  13
ATOM     13  C   UNL     1      -7.766  26.500 -10.163  1.00  0.00     0.064 A 
ATOM     14  C   UNL     1      -8.654  27.055 -11.111  1.00  0.00     0.130 A 
ATOM     15  C   UNL     1      -8.171  26.406  -8.820  1.00  0.00     0.020 A 
ATOM     16  C   UNL     1      -9.935  27.465 -10.712  1.00  0.00     0.093 A 
ATOM     17  C   UNL     1      -9.447  26.823  -8.431  1.00  0.00     0.047 A 
ATOM     18  C   UNL     1     -10.333  27.348  -9.375  1.00  0.00     0.119 A 
BRANCH  14  19
ATOM     19  O   UNL     1      -8.261  27.225 -12.438  1.00  0.00    -0.507 OA
ATOM     20  H   UNL     1      -8.498  28.059 -12.962  1.00  0.00     0.293 HD
ENDBRANCH  14  19
BRANCH  18  21
ATOM     21  O   UNL     1     -11.603  27.755  -8.972  1.00  0.00    -0.508 OA
ATOM     22  H   UNL     1     -12.435  27.468  -9.473  1.00  0.00     0.293 HD
ENDBRANCH  18  21
ENDBRANCH  11  13
ENDBRANCH   2  11
TORSDOF 6
ENDMDL
MODEL 2
REMARK VINA RESULT:    -5.089      3.057      5.496
REMARK INTER + INTRA:          -7.127
REMARK INTER:                  -6.474
REMARK INTRA:                  -0.653
REMARK UNBOUND:                -0.699
REMARK SMILES O=C(C=Cc1ccc(O)cc1)c1ccc(O)cc1O
REMARK SMILES IDX 4 1 3 2 5 3 6 4 7 5 8 6 11 7 10 8 9 9 2 11 1 12 12 13 18 14
REMARK SMILES IDX 13 15 17 16 14 17 15 18 19 19 16 21
REMARK H PARENT 9 10 19 20 16 22
REMARK Flexibility Score: inf
ROOT
ATOM      1  C   UNL     1      -4.657  21.348  -7.744  1.00  0.00     0.012 C 
ATOM      2  C   UNL     1      -4.814  20.292  -8.555  1.00  0.00     0.053 C 
ENDROOT
BRANCH   1   3
ATOM      3  C   UNL     1      -3.459  21.562  -6.896  1.00  0.00    -0.025 A 
ATOM      4  C   UNL     1      -3.072  20.655  -5.888  1.00  0.00     0.012 A 
ATOM      5  C   UNL     1      -1.927  20.894  -5.122  1.00  0.00     0.047 A 
ATOM      6  C   UNL     1      -1.148  22.030  -5.355  1.00  0.00     0.115 A 
ATOM      7  C   UNL     1      -2.659  22.693  -7.133  1.00  0.00     0.012 A 
ATOM      8  C   UNL     1      -1.515  22.928  -6.364  1.00  0.00     0.047 A 
BRANCH   6   9
ATOM      9  O   UNL     1      -0.010  22.256  -4.584  1.00  0.00    -0.508 OA
ATOM     10  H   UNL     1       0.804  21.656  -4.652  1.00  0.00     0.293 HD
ENDBRANCH   6   9
ENDBRANCH   1   3
BRANCH   2  11
ATOM     11  C   UNL     1      -6.031  20.104  -9.376  1.00  0.00     0.189 C 
ATOM     12  O   UNL     1      -6.368  18.945  -9.743  1.00  0.00    -0.289 OA
BRANCH  11  13
ATOM     13  C   UNL     1      -6.839  21.263  -9.820  1.00  0.00     0.064 A 
ATOM     14  C   UNL     1      -8.199  21.405  -9.463  1.00  0.00     0.130 A 
ATOM     15  C   UNL     1      -6.244  22.236 -10.643  1.00  0.00     0.020 A 
ATOM     16  C   UNL     1      -8.921  22.528  -9.895  1.00  0.00     0.093 A 
ATOM     17  C   UNL     1      -6.974  23.347 -11.073  1.00  0.00     0.047 A 
ATOM     18  C   UNL     1      -8.310  23.498 -10.698  1.00  0.00     0.119 A 
BRANCH  14  19
ATOM     19  O   UNL     1      -8.840  20.426  -8.705  1.00  0.00    -0.507 OA
ATOM     20  H   UNL     1      -9.259  19.609  -9.134  1.00  0.00     0.293 HD
ENDBRANCH  14  19
BRANCH  18  21
ATOM     21  O   UNL     1      -9.023  24.614 -11.132  1.00  0.00    -0.508 OA
ATOM     22  H   UNL     1      -8.586  25.525 -11.209  1.00  0.00     0.293 HD
ENDBRANCH  18  21
ENDBRANCH  11  13
ENDBRANCH   2  11
TORSDOF 6
ENDMDL
MODEL 3
REMARK VINA RESULT:    -5.031      2.100      7.351
REMARK INTER + INTRA:          -7.053
REMARK INTER:                  -6.344
REMARK INTRA:                  -0.709
REMARK UNBOUND:                -0.699
REMARK SMILES O=C(C=Cc1ccc(O)cc1)c1ccc(O)cc1O
REMARK SMILES IDX 4 1 3 2 5 3 6 4 7 5 8 6 11 7 10 8 9 9 2 11 1 12 12 13 18 14
REMARK SMILES IDX 13 15 17 16 14 17 15 18 19 19 16 21
REMARK H PARENT 9 10 19 20 16 22
REMARK Flexibility Score: inf
ROOT
ATOM      1  C   UNL     1      -7.119  23.703  -9.923  1.00  0.00     0.012 C 
ATOM      2  C   UNL     1      -8.115  23.044  -9.314  1.00  0.00     0.053 C 
ENDROOT
BRANCH   1   3
ATOM      3  C   UNL     1      -7.232  25.103 -10.402  1.00  0.00    -0.025 A 
ATOM      4  C   UNL     1      -6.109  25.937 -10.578  1.00  0.00     0.012 A 
ATOM      5  C   UNL     1      -6.266  27.246 -11.044  1.00  0.00     0.047 A 
ATOM      6  C   UNL     1      -7.538  27.738 -11.350  1.00  0.00     0.115 A 
ATOM      7  C   UNL     1      -8.505  25.601 -10.729  1.00  0.00     0.012 A 
ATOM      8  C   UNL     1      -8.657  26.912 -11.194  1.00  0.00     0.047 A 
BRANCH   6   9
ATOM      9  O   UNL     1      -7.679  29.044 -11.813  1.00  0.00    -0.508 OA
ATOM     10  H   UNL     1      -8.050  29.778 -11.222  1.00  0.00     0.293 HD
ENDBRANCH   6   9
ENDBRANCH   1   3
BRANCH   2  11
ATOM     11  C   UNL     1      -7.971  21.642  -8.863  1.00  0.00     0.189 C 
ATOM     12  O   UNL     1      -8.972  20.874  -8.869  1.00  0.00    -0.289 OA
BRANCH  11  13
ATOM     13  C   UNL     1      -6.676  21.132  -8.354  1.00  0.00     0.064 A 
ATOM     14  C   UNL     1      -5.988  20.075  -8.991  1.00  0.00     0.130 A 
ATOM     15  C   UNL     1      -6.130  21.699  -7.189  1.00  0.00     0.020 A 
ATOM     16  C   UNL     1      -4.758  19.635  -8.481  1.00  0.00     0.093 A 
ATOM     17  C   UNL     1      -4.906  21.250  -6.686  1.00  0.00     0.047 A 
ATOM     18  C   UNL     1      -4.216  20.222  -7.331  1.00  0.00     0.119 A 
BRANCH  14  19
ATOM     19  O   UNL     1      -6.534  19.445 -10.109  1.00  0.00    -0.507 OA
ATOM     20  H   UNL     1      -7.454  19.021 -10.086  1.00  0.00     0.293 HD
ENDBRANCH  14  19
BRANCH  18  21
ATOM     21  O   UNL     1      -2.994  19.788  -6.819  1.00  0.00    -0.508 OA
ATOM     22  H   UNL     1      -2.268  19.422  -7.422  1.00  0.00     0.293 HD
ENDBRANCH  18  21
ENDBRANCH  11  13
ENDBRANCH   2  11
TORSDOF 6
ENDMDL
MODEL 4
REMARK VINA RESULT:    -5.021      1.977      7.483
REMARK INTER + INTRA:          -7.041
REMARK INTER:                  -6.416
REMARK INTRA:                  -0.625
REMARK UNBOUND:                -0.699
REMARK SMILES O=C(C=Cc1ccc(O)cc1)c1ccc(O)cc1O
REMARK SMILES IDX 4 1 3 2 5 3 6 4 7 5 8 6 11 7 10 8 9 9 2 11 1 12 12 13 18 14
REMARK SMILES IDX 13 15 17 16 14 17 15 18 19 19 16 21
REMARK H PARENT 9 10 19 20 16 22
REMARK Flexibility Score: inf
ROOT
ATOM      1  C   UNL     1      -7.560  24.482 -10.497  1.00  0.00     0.012 C 
ATOM      2  C   UNL     1      -7.514  23.208 -10.081  1.00  0.00     0.053 C 
ENDROOT
BRANCH   1   3
ATOM      3  C   UNL     1      -8.608  25.445 -10.079  1.00  0.00    -0.025 A 
ATOM      4  C   UNL     1      -8.774  26.701 -10.698  1.00  0.00     0.012 A 
ATOM      5  C   UNL     1      -9.785  27.570 -10.276  1.00  0.00     0.047 A 
ATOM      6  C   UNL     1     -10.649  27.197  -9.243  1.00  0.00     0.115 A 
ATOM      7  C   UNL     1      -9.494  25.073  -9.053  1.00  0.00     0.012 A 
ATOM      8  C   UNL     1     -10.503  25.946  -8.634  1.00  0.00     0.047 A 
BRANCH   6   9
ATOM      9  O   UNL     1     -11.652  28.074  -8.834  1.00  0.00    -0.508 OA
ATOM     10  H   UNL     1     -12.090  28.717  -9.481  1.00  0.00     0.293 HD
ENDBRANCH   6   9
ENDBRANCH   1   3
BRANCH   2  11
ATOM     11  C   UNL     1      -6.461  22.270 -10.532  1.00  0.00     0.189 C 
ATOM     12  O   UNL     1      -6.343  22.001 -11.759  1.00  0.00    -0.289 OA
BRANCH  11  13
ATOM     13  C   UNL     1      -5.569  21.598  -9.559  1.00  0.00     0.064 A 
ATOM     14  C   UNL     1      -5.684  20.220  -9.270  1.00  0.00     0.130 A 
ATOM     15  C   UNL     1      -4.598  22.359  -8.884  1.00  0.00     0.020 A 
ATOM     16  C   UNL     1      -4.808  19.623  -8.351  1.00  0.00     0.093 A 
ATOM     17  C   UNL     1      -3.733  21.756  -7.967  1.00  0.00     0.047 A 
ATOM     18  C   UNL     1      -3.832  20.389  -7.702  1.00  0.00     0.119 A 
BRANCH  14  19
ATOM     19  O   UNL     1      -6.680  19.450  -9.870  1.00  0.00    -0.507 OA
ATOM     20  H   UNL     1      -7.550  19.238  -9.395  1.00  0.00     0.293 HD
ENDBRANCH  14  19
BRANCH  18  21
ATOM     21  O   UNL     1      -2.960  19.802  -6.787  1.00  0.00    -0.508 OA
ATOM     22  H   UNL     1      -3.235  19.633  -5.827  1.00  0.00     0.293 HD
ENDBRANCH  18  21
ENDBRANCH  11  13
ENDBRANCH   2  11
TORSDOF 6
ENDMDL
MODEL 5
REMARK VINA RESULT:    -5.017      2.195      7.438
REMARK INTER + INTRA:          -7.036
REMARK INTER:                  -6.363
REMARK INTRA:                  -0.673
REMARK UNBOUND:                -0.699
REMARK SMILES O=C(C=Cc1ccc(O)cc1)c1ccc(O)cc1O
REMARK SMILES IDX 4 1 3 2 5 3 6 4 7 5 8 6 11 7 10 8 9 9 2 11 1 12 12 13 18 14
REMARK SMILES IDX 13 15 17 16 14 17 15 18 19 19 16 21
REMARK H PARENT 9 10 19 20 16 22
REMARK Flexibility Score: inf
ROOT
ATOM      1  C   UNL     1      -7.177  23.933  -9.520  1.00  0.00     0.012 C 
ATOM      2  C   UNL     1      -7.927  22.887  -9.898  1.00  0.00     0.053 C 
ENDROOT
BRANCH   1   3
ATOM      3  C   UNL     1      -7.186  25.244 -10.212  1.00  0.00    -0.025 A 
ATOM      4  C   UNL     1      -8.360  25.812 -10.747  1.00  0.00     0.012 A 
ATOM      5  C   UNL     1      -8.320  27.057 -11.381  1.00  0.00     0.047 A 
ATOM      6  C   UNL     1      -7.115  27.758 -11.482  1.00  0.00     0.115 A 
ATOM      7  C   UNL     1      -5.982  25.965 -10.304  1.00  0.00     0.012 A 
ATOM      8  C   UNL     1      -5.946  27.210 -10.940  1.00  0.00     0.047 A 
BRANCH   6   9
ATOM      9  O   UNL     1      -7.090  28.998 -12.116  1.00  0.00    -0.508 OA
ATOM     10  H   UNL     1      -7.686  29.199 -12.910  1.00  0.00     0.293 HD
ENDBRANCH   6   9
ENDBRANCH   1   3
BRANCH   2  11
ATOM     11  C   UNL     1      -7.881  21.588  -9.192  1.00  0.00     0.189 C 
ATOM     12  O   UNL     1      -8.922  20.881  -9.108  1.00  0.00    -0.289 OA
BRANCH  11  13
ATOM     13  C   UNL     1      -6.639  21.121  -8.534  1.00  0.00     0.064 A 
ATOM     14  C   UNL     1      -6.426  21.274  -7.146  1.00  0.00     0.130 A 
ATOM     15  C   UNL     1      -5.631  20.531  -9.318  1.00  0.00     0.020 A 
ATOM     16  C   UNL     1      -5.240  20.803  -6.564  1.00  0.00     0.093 A 
ATOM     17  C   UNL     1      -4.450  20.070  -8.729  1.00  0.00     0.047 A 
ATOM     18  C   UNL     1      -4.254  20.200  -7.353  1.00  0.00     0.119 A 
BRANCH  14  19
ATOM     19  O   UNL     1      -7.375  21.915  -6.350  1.00  0.00    -0.507 OA
ATOM     20  H   UNL     1      -7.777  21.468  -5.534  1.00  0.00     0.293 HD
ENDBRANCH  14  19
BRANCH  18  21
ATOM     21  O   UNL     1      -3.072  19.732  -6.781  1.00  0.00    -0.508 OA
ATOM     22  H   UNL     1      -2.879  18.741  -6.702  1.00  0.00     0.293 HD
ENDBRANCH  18  21
ENDBRANCH  11  13
ENDBRANCH   2  11
TORSDOF 6
ENDMDL
MODEL 6
REMARK VINA RESULT:    -4.922      3.263      6.491
REMARK INTER + INTRA:          -6.916
REMARK INTER:                  -6.207
REMARK INTRA:                  -0.709
REMARK UNBOUND:                -0.699
REMARK SMILES O=C(C=Cc1ccc(O)cc1)c1ccc(O)cc1O
REMARK SMILES IDX 4 1 3 2 5 3 6 4 7 5 8 6 11 7 10 8 9 9 2 11 1 12 12 13 18 14
REMARK SMILES IDX 13 15 17 16 14 17 15 18 19 19 16 21
REMARK H PARENT 9 10 19 20 16 22
REMARK Flexibility Score: inf
ROOT
ATOM      1  C   UNL     1      -7.084  24.166  -9.520  1.00  0.00     0.012 C 
ATOM      2  C   UNL     1      -7.196  22.972 -10.120  1.00  0.00     0.053 C 
ENDROOT
BRANCH   1   3
ATOM      3  C   UNL     1      -6.858  25.436 -10.253  1.00  0.00    -0.025 A 
ATOM      4  C   UNL     1      -5.592  26.049 -10.335  1.00  0.00     0.012 A 
ATOM      5  C   UNL     1      -5.427  27.240 -11.048  1.00  0.00     0.047 A 
ATOM      6  C   UNL     1      -6.515  27.830 -11.697  1.00  0.00     0.115 A 
ATOM      7  C   UNL     1      -7.943  26.029 -10.923  1.00  0.00     0.012 A 
ATOM      8  C   UNL     1      -7.773  27.220 -11.634  1.00  0.00     0.047 A 
BRANCH   6   9
ATOM      9  O   UNL     1      -6.335  29.017 -12.403  1.00  0.00    -0.508 OA
ATOM     10  H   UNL     1      -6.449  29.920 -11.959  1.00  0.00     0.293 HD
ENDBRANCH   6   9
ENDBRANCH   1   3
BRANCH   2  11
ATOM     11  C   UNL     1      -7.406  21.723  -9.355  1.00  0.00     0.189 C 
ATOM     12  O   UNL     1      -6.938  20.634  -9.789  1.00  0.00    -0.289 OA
BRANCH  11  13
ATOM     13  C   UNL     1      -8.202  21.717  -8.106  1.00  0.00     0.064 A 
ATOM     14  C   UNL     1      -7.627  21.392  -6.856  1.00  0.00     0.130 A 
ATOM     15  C   UNL     1      -9.574  22.018  -8.169  1.00  0.00     0.020 A 
ATOM     16  C   UNL     1      -8.417  21.413  -5.697  1.00  0.00     0.093 A 
ATOM     17  C   UNL     1     -10.353  22.031  -7.009  1.00  0.00     0.047 A 
ATOM     18  C   UNL     1      -9.778  21.734  -5.772  1.00  0.00     0.119 A 
BRANCH  14  19
ATOM     19  O   UNL     1      -6.285  21.023  -6.767  1.00  0.00    -0.507 OA
ATOM     20  H   UNL     1      -5.996  20.173  -6.297  1.00  0.00     0.293 HD
ENDBRANCH  14  19
BRANCH  18  21
ATOM     21  O   UNL     1     -10.568  21.755  -4.624  1.00  0.00    -0.508 OA
ATOM     22  H   UNL     1     -11.272  21.047  -4.453  1.00  0.00     0.293 HD
ENDBRANCH  18  21
ENDBRANCH  11  13
ENDBRANCH   2  11
TORSDOF 6
ENDMDL
MODEL 7
REMARK VINA RESULT:    -4.898      3.492      6.391
REMARK INTER + INTRA:          -6.886
REMARK INTER:                  -6.347
REMARK INTRA:                  -0.539
REMARK UNBOUND:                -0.699
REMARK SMILES O=C(C=Cc1ccc(O)cc1)c1ccc(O)cc1O
REMARK SMILES IDX 4 1 3 2 5 3 6 4 7 5 8 6 11 7 10 8 9 9 2 11 1 12 12 13 18 14
REMARK SMILES IDX 13 15 17 16 14 17 15 18 19 19 16 21
REMARK H PARENT 9 10 19 20 16 22
REMARK Flexibility Score: inf
ROOT
ATOM      1  C   UNL     1      -7.510  24.110  -9.603  1.00  0.00     0.012 C 
ATOM      2  C   UNL     1      -7.178  22.892 -10.057  1.00  0.00     0.053 C 
ENDROOT
BRANCH   1   3
ATOM      3  C   UNL     1      -7.236  25.366 -10.342  1.00  0.00    -0.025 A 
ATOM      4  C   UNL     1      -8.253  26.111 -10.975  1.00  0.00     0.012 A 
ATOM      5  C   UNL     1      -7.946  27.296 -11.649  1.00  0.00     0.047 A 
ATOM      6  C   UNL     1      -6.629  27.761 -11.695  1.00  0.00     0.115 A 
ATOM      7  C   UNL     1      -5.918  25.851 -10.380  1.00  0.00     0.012 A 
ATOM      8  C   UNL     1      -5.616  27.037 -11.057  1.00  0.00     0.047 A 
BRANCH   6   9
ATOM      9  O   UNL     1      -6.339  28.944 -12.372  1.00  0.00    -0.508 OA
ATOM     10  H   UNL     1      -6.629  29.845 -12.012  1.00  0.00     0.293 HD
ENDBRANCH   6   9
ENDBRANCH   1   3
BRANCH   2  11
ATOM     11  C   UNL     1      -7.453  21.661  -9.284  1.00  0.00     0.189 C 
ATOM     12  O   UNL     1      -7.012  20.552  -9.692  1.00  0.00    -0.289 OA
BRANCH  11  13
ATOM     13  C   UNL     1      -8.285  21.698  -8.059  1.00  0.00     0.064 A 
ATOM     14  C   UNL     1      -9.696  21.750  -8.116  1.00  0.00     0.130 A 
ATOM     15  C   UNL     1      -7.651  21.709  -6.804  1.00  0.00     0.020 A 
ATOM     16  C   UNL     1     -10.443  21.770  -6.929  1.00  0.00     0.093 A 
ATOM     17  C   UNL     1      -8.405  21.735  -5.627  1.00  0.00     0.047 A 
ATOM     18  C   UNL     1      -9.800  21.760  -5.686  1.00  0.00     0.119 A 
BRANCH  14  19
ATOM     19  O   UNL     1     -10.354  21.809  -9.344  1.00  0.00    -0.507 OA
ATOM     20  H   UNL     1     -10.897  21.029  -9.696  1.00  0.00     0.293 HD
ENDBRANCH  14  19
BRANCH  18  21
ATOM     21  O   UNL     1     -10.537  21.782  -4.504  1.00  0.00    -0.508 OA
ATOM     22  H   UNL     1     -11.268  22.464  -4.348  1.00  0.00     0.293 HD
ENDBRANCH  18  21
ENDBRANCH  11  13
ENDBRANCH   2  11
TORSDOF 6
ENDMDL
MODEL 8
REMARK VINA RESULT:    -4.866      2.869      7.279
REMARK INTER + INTRA:          -6.845
REMARK INTER:                  -6.196
REMARK INTRA:                  -0.649
REMARK UNBOUND:                -0.699
REMARK SMILES O=C(C=Cc1ccc(O)cc1)c1ccc(O)cc1O
REMARK SMILES IDX 4 1 3 2 5 3 6 4 7 5 8 6 11 7 10 8 9 9 2 11 1 12 12 13 18 14
REMARK SMILES IDX 13 15 17 16 14 17 15 18 19 19 16 21
REMARK H PARENT 9 10 19 20 16 22
REMARK Flexibility Score: inf
ROOT
ATOM      1  C   UNL     1      -8.876  23.794  -7.823  1.00  0.00     0.012 C 
ATOM      2  C   UNL     1      -9.137  23.848  -9.137  1.00  0.00     0.053 C 
ENDROOT
BRANCH   1   3
ATOM      3  C   UNL     1      -9.531  24.666  -6.817  1.00  0.00    -0.025 A 
ATOM      4  C   UNL     1      -9.897  24.204  -5.537  1.00  0.00     0.012 A 
ATOM      5  C   UNL     1     -10.502  25.068  -4.619  1.00  0.00     0.047 A 
ATOM      6  C   UNL     1     -10.741  26.403  -4.958  1.00  0.00     0.115 A 
ATOM      7  C   UNL     1      -9.760  26.014  -7.143  1.00  0.00     0.012 A 
ATOM      8  C   UNL     1     -10.366  26.874  -6.222  1.00  0.00     0.047 A 
BRANCH   6   9
ATOM      9  O   UNL     1     -11.345  27.252  -4.034  1.00  0.00    -0.508 OA
ATOM     10  H   UNL     1     -12.282  27.081  -3.692  1.00  0.00     0.293 HD
ENDBRANCH   6   9
ENDBRANCH   1   3
BRANCH   2  11
ATOM     11  C   UNL     1      -8.452  22.972 -10.113  1.00  0.00     0.189 C 
ATOM     12  O   UNL     1      -8.926  22.834 -11.274  1.00  0.00    -0.289 OA
BRANCH  11  13
ATOM     13  C   UNL     1      -7.239  22.211  -9.735  1.00  0.00     0.064 A 
ATOM     14  C   UNL     1      -7.299  20.849  -9.362  1.00  0.00     0.130 A 
ATOM     15  C   UNL     1      -5.996  22.868  -9.723  1.00  0.00     0.020 A 
ATOM     16  C   UNL     1      -6.122  20.164  -9.026  1.00  0.00     0.093 A 
ATOM     17  C   UNL     1      -4.830  22.178  -9.381  1.00  0.00     0.047 A 
ATOM     18  C   UNL     1      -4.888  20.826  -9.036  1.00  0.00     0.119 A 
BRANCH  14  19
ATOM     19  O   UNL     1      -8.523  20.184  -9.298  1.00  0.00    -0.507 OA
ATOM     20  H   UNL     1      -9.399  20.687  -9.210  1.00  0.00     0.293 HD
ENDBRANCH  14  19
BRANCH  18  21
ATOM     21  O   UNL     1      -3.716  20.151  -8.702  1.00  0.00    -0.508 OA
ATOM     22  H   UNL     1      -3.682  19.140  -8.655  1.00  0.00     0.293 HD
ENDBRANCH  18  21
ENDBRANCH  11  13
ENDBRANCH   2  11
TORSDOF 6
ENDMDL
MODEL 9
REMARK VINA RESULT:    -4.770      2.506      7.569
REMARK INTER + INTRA:          -6.723
REMARK INTER:                  -6.023
REMARK INTRA:                  -0.700
REMARK UNBOUND:                -0.699
REMARK SMILES O=C(C=Cc1ccc(O)cc1)c1ccc(O)cc1O
REMARK SMILES IDX 4 1 3 2 5 3 6 4 7 5 8 6 11 7 10 8 9 9 2 11 1 12 12 13 18 14
REMARK SMILES IDX 13 15 17 16 14 17 15 18 19 19 16 21
REMARK H PARENT 9 10 19 20 16 22
REMARK Flexibility Score: inf
ROOT
ATOM      1  C   UNL     1      -8.837  23.875  -9.065  1.00  0.00     0.012 C 
ATOM      2  C   UNL     1      -9.212  23.361  -7.885  1.00  0.00     0.053 C 
ENDROOT
BRANCH   1   3
ATOM      3  C   UNL     1      -9.227  25.228  -9.533  1.00  0.00    -0.025 A 
ATOM      4  C   UNL     1     -10.168  26.025  -8.850  1.00  0.00     0.012 A 
ATOM      5  C   UNL     1     -10.494  27.299  -9.324  1.00  0.00     0.047 A 
ATOM      6  C   UNL     1      -9.882  27.801 -10.476  1.00  0.00     0.115 A 
ATOM      7  C   UNL     1      -8.605  25.748 -10.682  1.00  0.00     0.012 A 
ATOM      8  C   UNL     1      -8.935  27.023 -11.153  1.00  0.00     0.047 A 
BRANCH   6   9
ATOM      9  O   UNL     1     -10.217  29.072 -10.937  1.00  0.00    -0.508 OA
ATOM     10  H   UNL     1      -9.671  29.537 -11.651  1.00  0.00     0.293 HD
ENDBRANCH   6   9
ENDBRANCH   1   3
BRANCH   2  11
ATOM     11  C   UNL     1      -8.816  22.001  -7.458  1.00  0.00     0.189 C 
ATOM     12  O   UNL     1      -9.606  21.307  -6.760  1.00  0.00    -0.289 OA
BRANCH  11  13
ATOM     13  C   UNL     1      -7.482  21.453  -7.793  1.00  0.00     0.064 A 
ATOM     14  C   UNL     1      -7.304  20.497  -8.819  1.00  0.00     0.130 A 
ATOM     15  C   UNL     1      -6.364  21.875  -7.052  1.00  0.00     0.020 A 
ATOM     16  C   UNL     1      -6.019  20.017  -9.111  1.00  0.00     0.093 A 
ATOM     17  C   UNL     1      -5.089  21.386  -7.347  1.00  0.00     0.047 A 
ATOM     18  C   UNL     1      -4.912  20.461  -8.378  1.00  0.00     0.119 A 
BRANCH  14  19
ATOM     19  O   UNL     1      -8.399  20.006  -9.529  1.00  0.00    -0.507 OA
ATOM     20  H   UNL     1      -8.392  19.085  -9.951  1.00  0.00     0.293 HD
ENDBRANCH  14  19
BRANCH  18  21
ATOM     21  O   UNL     1      -3.633  19.986  -8.663  1.00  0.00    -0.508 OA
ATOM     22  H   UNL     1      -3.266  19.154  -8.217  1.00  0.00     0.293 HD
ENDBRANCH  18  21
ENDBRANCH  11  13
ENDBRANCH   2  11
TORSDOF 6
ENDMDL
