MODEL 1
REMARK VINA RESULT:    -2.760      0.000      0.000
REMARK INTER + INTRA:          -3.109
REMARK INTER:                  -3.083
REMARK INTRA:                  -0.026
REMARK UNBOUND:                -0.026
REMARK SMILES CCCC(=O)[O-]
REMARK SMILES IDX 3 1 4 2 5 3 6 4 2 5 1 6
REMARK H PARENT
REMARK Flexibility Score: inf
ROOT
ATOM      1  C   UNL     1     192.854 190.896 192.002  1.00  0.00     0.052 C 
ENDROOT
BRANCH   1   2
ATOM      2  C   UNL     1     193.799 191.557 192.958  1.00  0.00     0.041 C 
ATOM      3  O   UNL     1     193.374 192.026 194.045  1.00  0.00    -0.550 OA
ATOM      4  O   UNL     1     195.155 191.624 192.661  1.00  0.00    -0.550 OA
ENDBRANCH   1   2
BRANCH   1   5
ATOM      5  C   UNL     1     193.467 190.756 190.603  1.00  0.00     0.003 C 
ATOM      6  C   UNL     1     192.720 191.582 189.556  1.00  0.00     0.004 C 
ENDBRANCH   1   5
TORSDOF 2
ENDMDL
MODEL 2
REMARK VINA RESULT:    -2.753      9.369      9.925
REMARK INTER + INTRA:          -3.101
REMARK INTER:                  -3.039
REMARK INTRA:                  -0.062
REMARK UNBOUND:                -0.026
REMARK SMILES CCCC(=O)[O-]
REMARK SMILES IDX 3 1 4 2 5 3 6 4 2 5 1 6
REMARK H PARENT
REMARK Flexibility Score: inf
ROOT
ATOM      1  C   UNL     1     185.329 187.857 191.487  1.00  0.00     0.052 C 
ENDROOT
BRANCH   1   2
ATOM      2  C   UNL     1     185.751 186.596 192.178  1.00  0.00     0.041 C 
ATOM      3  O   UNL     1     186.113 185.596 191.505  1.00  0.00    -0.550 OA
ATOM      4  O   UNL     1     185.775 186.539 193.566  1.00  0.00    -0.550 OA
ENDBRANCH   1   2
BRANCH   1   5
ATOM      5  C   UNL     1     183.954 187.708 190.824  1.00  0.00     0.003 C 
ATOM      6  C   UNL     1     182.845 187.438 191.841  1.00  0.00     0.004 C 
ENDBRANCH   1   5
TORSDOF 2
ENDMDL
MODEL 3
REMARK VINA RESULT:    -2.746      8.525      9.018
REMARK INTER + INTRA:          -3.092
REMARK INTER:                  -3.053
REMARK INTRA:                  -0.039
REMARK UNBOUND:                -0.026
REMARK SMILES CCCC(=O)[O-]
REMARK SMILES IDX 3 1 4 2 5 3 6 4 2 5 1 6
REMARK H PARENT
REMARK Flexibility Score: inf
ROOT
ATOM      1  C   UNL     1     193.196 183.373 189.496  1.00  0.00     0.052 C 
ENDROOT
BRANCH   1   2
ATOM      2  C   UNL     1     193.556 182.182 190.331  1.00  0.00     0.041 C 
ATOM      3  O   UNL     1     194.647 182.154 190.957  1.00  0.00    -0.550 OA
ATOM      4  O   UNL     1     192.670 181.117 190.441  1.00  0.00    -0.550 OA
ENDBRANCH   1   2
BRANCH   1   5
ATOM      5  C   UNL     1     192.309 184.359 190.267  1.00  0.00     0.003 C 
ATOM      6  C   UNL     1     190.835 184.238 189.881  1.00  0.00     0.004 C 
ENDBRANCH   1   5
TORSDOF 2
ENDMDL
MODEL 4
REMARK VINA RESULT:    -2.736      8.638      9.084
REMARK INTER + INTRA:          -3.082
REMARK INTER:                  -3.049
REMARK INTRA:                  -0.033
REMARK UNBOUND:                -0.026
REMARK SMILES CCCC(=O)[O-]
REMARK SMILES IDX 3 1 4 2 5 3 6 4 2 5 1 6
REMARK H PARENT
REMARK Flexibility Score: inf
ROOT
ATOM      1  C   UNL     1     192.869 183.146 189.368  1.00  0.00     0.052 C 
ENDROOT
BRANCH   1   2
ATOM      2  C   UNL     1     193.344 182.055 190.278  1.00  0.00     0.041 C 
ATOM      3  O   UNL     1     192.638 181.029 190.459  1.00  0.00    -0.550 OA
ATOM      4  O   UNL     1     194.581 182.158 190.902  1.00  0.00    -0.550 OA
ENDBRANCH   1   2
BRANCH   1   5
ATOM      5  C   UNL     1     192.131 184.247 190.138  1.00  0.00     0.003 C 
ATOM      6  C   UNL     1     190.624 184.224 189.884  1.00  0.00     0.004 C 
ENDBRANCH   1   5
TORSDOF 2
ENDMDL
MODEL 5
REMARK VINA RESULT:    -2.697      8.034      8.751
REMARK INTER + INTRA:          -3.038
REMARK INTER:                  -3.001
REMARK INTRA:                  -0.038
REMARK UNBOUND:                -0.026
REMARK SMILES CCCC(=O)[O-]
REMARK SMILES IDX 3 1 4 2 5 3 6 4 2 5 1 6
REMARK H PARENT
REMARK Flexibility Score: inf
ROOT
ATOM      1  C   UNL     1     185.914 195.378 189.305  1.00  0.00     0.052 C 
ENDROOT
BRANCH   1   2
ATOM      2  C   UNL     1     186.634 194.390 190.171  1.00  0.00     0.041 C 
ATOM      3  O   UNL     1     185.987 193.627 190.934  1.00  0.00    -0.550 OA
ATOM      4  O   UNL     1     188.019 194.292 190.110  1.00  0.00    -0.550 OA
ENDBRANCH   1   2
BRANCH   1   5
ATOM      5  C   UNL     1     185.121 196.392 190.139  1.00  0.00     0.003 C 
ATOM      6  C   UNL     1     185.927 197.657 190.435  1.00  0.00     0.004 C 
ENDBRANCH   1   5
TORSDOF 2
ENDMDL
MODEL 6
REMARK VINA RESULT:    -2.664      8.301      8.800
REMARK INTER + INTRA:          -3.002
REMARK INTER:                  -2.957
REMARK INTRA:                  -0.045
REMARK UNBOUND:                -0.026
REMARK SMILES CCCC(=O)[O-]
REMARK SMILES IDX 3 1 4 2 5 3 6 4 2 5 1 6
REMARK H PARENT
REMARK Flexibility Score: inf
ROOT
ATOM      1  C   UNL     1     192.117 183.124 189.057  1.00  0.00     0.052 C 
ENDROOT
BRANCH   1   2
ATOM      2  C   UNL     1     191.511 184.103 190.015  1.00  0.00     0.041 C 
ATOM      3  O   UNL     1     192.248 184.849 190.711  1.00  0.00    -0.550 OA
ATOM      4  O   UNL     1     190.129 184.213 190.115  1.00  0.00    -0.550 OA
ENDBRANCH   1   2
BRANCH   1   5
ATOM      5  C   UNL     1     193.424 182.533 189.600  1.00  0.00     0.003 C 
ATOM      6  C   UNL     1     193.183 181.323 190.503  1.00  0.00     0.004 C 
ENDBRANCH   1   5
TORSDOF 2
ENDMDL
MODEL 7
REMARK VINA RESULT:    -2.657      8.684      9.492
REMARK INTER + INTRA:          -2.994
REMARK INTER:                  -2.972
REMARK INTRA:                  -0.022
REMARK UNBOUND:                -0.026
REMARK SMILES CCCC(=O)[O-]
REMARK SMILES IDX 3 1 4 2 5 3 6 4 2 5 1 6
REMARK H PARENT
REMARK Flexibility Score: inf
ROOT
ATOM      1  C   UNL     1     186.089 195.968 189.114  1.00  0.00     0.052 C 
ENDROOT
BRANCH   1   2
ATOM      2  C   UNL     1     185.475 196.881 190.130  1.00  0.00     0.041 C 
ATOM      3  O   UNL     1     186.056 197.950 190.454  1.00  0.00    -0.550 OA
ATOM      4  O   UNL     1     184.245 196.567 190.695  1.00  0.00    -0.550 OA
ENDBRANCH   1   2
BRANCH   1   5
ATOM      5  C   UNL     1     187.064 194.975 189.758  1.00  0.00     0.003 C 
ATOM      6  C   UNL     1     186.343 193.860 190.516  1.00  0.00     0.004 C 
ENDBRANCH   1   5
TORSDOF 2
ENDMDL
MODEL 8
REMARK VINA RESULT:    -2.633      9.705     10.154
REMARK INTER + INTRA:          -2.967
REMARK INTER:                  -2.956
REMARK INTRA:                  -0.010
REMARK UNBOUND:                -0.026
REMARK SMILES CCCC(=O)[O-]
REMARK SMILES IDX 3 1 4 2 5 3 6 4 2 5 1 6
REMARK H PARENT
REMARK Flexibility Score: inf
ROOT
ATOM      1  C   UNL     1     197.907 182.399 194.276  1.00  0.00     0.052 C 
ENDROOT
BRANCH   1   2
ATOM      2  C   UNL     1     197.414 182.319 192.863  1.00  0.00     0.041 C 
ATOM      3  O   UNL     1     198.188 182.586 191.907  1.00  0.00    -0.550 OA
ATOM      4  O   UNL     1     196.109 181.919 192.603  1.00  0.00    -0.550 OA
ENDBRANCH   1   2
BRANCH   1   5
ATOM      5  C   UNL     1     197.212 183.520 195.057  1.00  0.00     0.003 C 
ATOM      6  C   UNL     1     198.209 184.458 195.739  1.00  0.00     0.004 C 
ENDBRANCH   1   5
TORSDOF 2
ENDMDL
MODEL 9
REMARK VINA RESULT:    -2.620      2.416      2.955
REMARK INTER + INTRA:          -2.952
REMARK INTER:                  -2.947
REMARK INTRA:                  -0.005
REMARK UNBOUND:                -0.026
REMARK SMILES CCCC(=O)[O-]
REMARK SMILES IDX 3 1 4 2 5 3 6 4 2 5 1 6
REMARK H PARENT
REMARK Flexibility Score: inf
ROOT
ATOM      1  C   UNL     1     194.743 191.551 192.504  1.00  0.00     0.052 C 
ENDROOT
BRANCH   1   2
ATOM      2  C   UNL     1     193.346 191.612 191.966  1.00  0.00     0.041 C 
ATOM      3  O   UNL     1     192.649 190.567 191.894  1.00  0.00    -0.550 OA
ATOM      4  O   UNL     1     192.804 192.830 191.575  1.00  0.00    -0.550 OA
ENDBRANCH   1   2
BRANCH   1   5
ATOM      5  C   UNL     1     195.751 191.150 191.421  1.00  0.00     0.003 C 
ATOM      6  C   UNL     1     197.199 191.348 191.872  1.00  0.00     0.004 C 
ENDBRANCH   1   5
TORSDOF 2
ENDMDL
