MODEL 1
REMARK VINA RESULT:    -4.502      0.000      0.000
REMARK INTER + INTRA:          -9.657
REMARK INTER:                  -8.450
REMARK INTRA:                  -1.207
REMARK UNBOUND:                -1.207
REMARK SMILES O=C([O-])CCCCCCCCCCCCCCC(=O)[O-]
REMARK SMILES IDX 10 1 9 2 8 3 7 4 6 5 5 6 4 7 2 8 1 9 3 10 11 11 12 12 13 13
REMARK SMILES IDX 14 14 15 15 16 16 17 17 18 18 19 19 20 20
REMARK H PARENT
REMARK Flexibility Score: inf
ROOT
ATOM      1  C   UNL     1      26.691  -1.608  43.428  1.00  0.00     0.000 C 
ENDROOT
BRANCH   1   2
ATOM      2  C   UNL     1      27.822  -1.910  44.425  1.00  0.00     0.000 C 
BRANCH   2   3
ATOM      3  C   UNL     1      28.193  -3.404  44.459  1.00  0.00     0.000 C 
BRANCH   3   4
ATOM      4  C   UNL     1      27.803  -4.141  43.167  1.00  0.00     0.000 C 
BRANCH   4   5
ATOM      5  C   UNL     1      26.969  -5.406  43.435  1.00  0.00     0.000 C 
BRANCH   5   6
ATOM      6  C   UNL     1      25.670  -5.108  44.208  1.00  0.00     0.006 C 
BRANCH   6   7
ATOM      7  C   UNL     1      25.260  -6.205  45.204  1.00  0.00     0.053 C 
BRANCH   7   8
ATOM      8  C   UNL     1      25.263  -5.706  46.617  1.00  0.00     0.041 C 
ATOM      9  O   UNL     1      24.326  -6.012  47.400  1.00  0.00    -0.550 OA
ATOM     10  O   UNL     1      26.285  -4.875  47.058  1.00  0.00    -0.550 OA
ENDBRANCH   7   8
ENDBRANCH   6   7
ENDBRANCH   5   6
ENDBRANCH   4   5
ENDBRANCH   3   4
ENDBRANCH   2   3
ENDBRANCH   1   2
BRANCH   1  11
ATOM     11  C   UNL     1      26.710  -0.152  42.937  1.00  0.00     0.000 C 
BRANCH  11  12
ATOM     12  C   UNL     1      26.761   0.826  44.117  1.00  0.00     0.000 C 
BRANCH  12  13
ATOM     13  C   UNL     1      26.436   2.256  43.660  1.00  0.00     0.000 C 
BRANCH  13  14
ATOM     14  C   UNL     1      25.409   2.295  42.517  1.00  0.00     0.000 C 
BRANCH  14  15
ATOM     15  C   UNL     1      25.678   3.428  41.516  1.00  0.00     0.000 C 
BRANCH  15  16
ATOM     16  C   UNL     1      26.516   2.927  40.333  1.00  0.00     0.006 C 
BRANCH  16  17
ATOM     17  C   UNL     1      25.647   2.172  39.322  1.00  0.00     0.053 C 
BRANCH  17  18
ATOM     18  C   UNL     1      26.361   0.955  38.824  1.00  0.00     0.041 C 
ATOM     19  O   UNL     1      27.565   0.757  39.131  1.00  0.00    -0.550 OA
ATOM     20  O   UNL     1      25.709   0.065  37.979  1.00  0.00    -0.550 OA
ENDBRANCH  17  18
ENDBRANCH  16  17
ENDBRANCH  15  16
ENDBRANCH  14  15
ENDBRANCH  13  14
ENDBRANCH  12  13
ENDBRANCH  11  12
ENDBRANCH   1  11
TORSDOF 15
ENDMDL
MODEL 2
REMARK VINA RESULT:    -4.469      0.854      8.654
REMARK INTER + INTRA:          -9.595
REMARK INTER:                  -8.671
REMARK INTRA:                  -0.925
REMARK UNBOUND:                -1.207
REMARK SMILES O=C([O-])CCCCCCCCCCCCCCC(=O)[O-]
REMARK SMILES IDX 10 1 9 2 8 3 7 4 6 5 5 6 4 7 2 8 1 9 3 10 11 11 12 12 13 13
REMARK SMILES IDX 14 14 15 15 16 16 17 17 18 18 19 19 20 20
REMARK H PARENT
REMARK Flexibility Score: inf
ROOT
ATOM      1  C   UNL     1      27.118  -0.430  43.923  1.00  0.00     0.000 C 
ENDROOT
BRANCH   1   2
ATOM      2  C   UNL     1      26.190   0.274  42.918  1.00  0.00     0.000 C 
BRANCH   2   3
ATOM      3  C   UNL     1      25.705   1.644  43.424  1.00  0.00     0.000 C 
BRANCH   3   4
ATOM      4  C   UNL     1      26.232   2.811  42.573  1.00  0.00     0.000 C 
BRANCH   4   5
ATOM      5  C   UNL     1      25.476   2.962  41.241  1.00  0.00     0.000 C 
BRANCH   5   6
ATOM      6  C   UNL     1      26.407   2.877  40.017  1.00  0.00     0.006 C 
BRANCH   6   7
ATOM      7  C   UNL     1      25.795   2.160  38.802  1.00  0.00     0.053 C 
BRANCH   7   8
ATOM      8  C   UNL     1      26.283   0.749  38.681  1.00  0.00     0.041 C 
ATOM      9  O   UNL     1      25.752  -0.037  37.853  1.00  0.00    -0.550 OA
ATOM     10  O   UNL     1      27.303   0.293  39.507  1.00  0.00    -0.550 OA
ENDBRANCH   7   8
ENDBRANCH   6   7
ENDBRANCH   5   6
ENDBRANCH   4   5
ENDBRANCH   3   4
ENDBRANCH   2   3
ENDBRANCH   1   2
BRANCH   1  11
ATOM     11  C   UNL     1      27.880  -1.610  43.299  1.00  0.00     0.000 C 
BRANCH  11  12
ATOM     12  C   UNL     1      27.601  -2.909  44.062  1.00  0.00     0.000 C 
BRANCH  12  13
ATOM     13  C   UNL     1      27.851  -4.135  43.171  1.00  0.00     0.000 C 
BRANCH  13  14
ATOM     14  C   UNL     1      26.955  -5.329  43.539  1.00  0.00     0.000 C 
BRANCH  14  15
ATOM     15  C   UNL     1      25.632  -4.900  44.188  1.00  0.00     0.000 C 
BRANCH  15  16
ATOM     16  C   UNL     1      25.316  -5.765  45.414  1.00  0.00     0.006 C 
BRANCH  16  17
ATOM     17  C   UNL     1      26.028  -5.234  46.661  1.00  0.00     0.053 C 
BRANCH  17  18
ATOM     18  C   UNL     1      25.224  -5.530  47.889  1.00  0.00     0.041 C 
ATOM     19  O   UNL     1      25.497  -4.960  48.977  1.00  0.00    -0.550 OA
ATOM     20  O   UNL     1      24.205  -6.473  47.841  1.00  0.00    -0.550 OA
ENDBRANCH  17  18
ENDBRANCH  16  17
ENDBRANCH  15  16
ENDBRANCH  14  15
ENDBRANCH  13  14
ENDBRANCH  12  13
ENDBRANCH  11  12
ENDBRANCH   1  11
TORSDOF 15
ENDMDL
MODEL 3
REMARK VINA RESULT:    -4.392      6.286      8.446
REMARK INTER + INTRA:          -9.450
REMARK INTER:                  -8.010
REMARK INTRA:                  -1.440
REMARK UNBOUND:                -1.207
REMARK SMILES O=C([O-])CCCCCCCCCCCCCCC(=O)[O-]
REMARK SMILES IDX 10 1 9 2 8 3 7 4 6 5 5 6 4 7 2 8 1 9 3 10 11 11 12 12 13 13
REMARK SMILES IDX 14 14 15 15 16 16 17 17 18 18 19 19 20 20
REMARK H PARENT
REMARK Flexibility Score: inf
ROOT
ATOM      1  C   UNL     1      23.125  -4.886  34.848  1.00  0.00     0.000 C 
ENDROOT
BRANCH   1   2
ATOM      2  C   UNL     1      23.201  -6.419  34.756  1.00  0.00     0.000 C 
BRANCH   2   3
ATOM      3  C   UNL     1      24.624  -6.954  34.999  1.00  0.00     0.000 C 
BRANCH   3   4
ATOM      4  C   UNL     1      25.267  -6.372  36.269  1.00  0.00     0.000 C 
BRANCH   4   5
ATOM      5  C   UNL     1      26.781  -6.147  36.117  1.00  0.00     0.000 C 
BRANCH   5   6
ATOM      6  C   UNL     1      27.125  -4.726  35.631  1.00  0.00     0.006 C 
BRANCH   6   7
ATOM      7  C   UNL     1      27.677  -3.798  36.725  1.00  0.00     0.053 C 
BRANCH   7   8
ATOM      8  C   UNL     1      29.151  -3.574  36.577  1.00  0.00     0.041 C 
ATOM      9  O   UNL     1      29.800  -2.998  37.489  1.00  0.00    -0.550 OA
ATOM     10  O   UNL     1      29.801  -3.971  35.415  1.00  0.00    -0.550 OA
ENDBRANCH   7   8
ENDBRANCH   6   7
ENDBRANCH   5   6
ENDBRANCH   4   5
ENDBRANCH   3   4
ENDBRANCH   2   3
ENDBRANCH   1   2
BRANCH   1  11
ATOM     11  C   UNL     1      22.041  -4.404  35.825  1.00  0.00     0.000 C 
BRANCH  11  12
ATOM     12  C   UNL     1      22.595  -3.343  36.782  1.00  0.00     0.000 C 
BRANCH  12  13
ATOM     13  C   UNL     1      24.018  -2.927  36.377  1.00  0.00     0.000 C 
BRANCH  13  14
ATOM     14  C   UNL     1      24.220  -1.403  36.399  1.00  0.00     0.000 C 
BRANCH  14  15
ATOM     15  C   UNL     1      25.494  -0.984  37.146  1.00  0.00     0.000 C 
BRANCH  15  16
ATOM     16  C   UNL     1      25.436   0.497  37.540  1.00  0.00     0.006 C 
BRANCH  16  17
ATOM     17  C   UNL     1      26.108   0.733  38.896  1.00  0.00     0.053 C 
BRANCH  17  18
ATOM     18  C   UNL     1      25.706   2.062  39.455  1.00  0.00     0.041 C 
ATOM     19  O   UNL     1      24.530   2.483  39.303  1.00  0.00    -0.550 OA
ATOM     20  O   UNL     1      26.645   2.855  40.103  1.00  0.00    -0.550 OA
ENDBRANCH  17  18
ENDBRANCH  16  17
ENDBRANCH  15  16
ENDBRANCH  14  15
ENDBRANCH  13  14
ENDBRANCH  12  13
ENDBRANCH  11  12
ENDBRANCH   1  11
TORSDOF 15
ENDMDL
MODEL 4
REMARK VINA RESULT:    -4.384      1.581      9.062
REMARK INTER + INTRA:          -9.435
REMARK INTER:                  -8.400
REMARK INTRA:                  -1.036
REMARK UNBOUND:                -1.207
REMARK SMILES O=C([O-])CCCCCCCCCCCCCCC(=O)[O-]
REMARK SMILES IDX 10 1 9 2 8 3 7 4 6 5 5 6 4 7 2 8 1 9 3 10 11 11 12 12 13 13
REMARK SMILES IDX 14 14 15 15 16 16 17 17 18 18 19 19 20 20
REMARK H PARENT
REMARK Flexibility Score: inf
ROOT
ATOM      1  C   UNL     1      28.255  -1.846  44.659  1.00  0.00     0.000 C 
ENDROOT
BRANCH   1   2
ATOM      2  C   UNL     1      27.796  -1.603  43.212  1.00  0.00     0.000 C 
BRANCH   2   3
ATOM      3  C   UNL     1      26.514  -0.755  43.136  1.00  0.00     0.000 C 
BRANCH   3   4
ATOM      4  C   UNL     1      26.598   0.524  43.984  1.00  0.00     0.000 C 
BRANCH   4   5
ATOM      5  C   UNL     1      25.525   1.559  43.604  1.00  0.00     0.000 C 
BRANCH   5   6
ATOM      6  C   UNL     1      26.052   2.631  42.631  1.00  0.00     0.006 C 
BRANCH   6   7
ATOM      7  C   UNL     1      25.338   2.658  41.270  1.00  0.00     0.053 C 
BRANCH   7   8
ATOM      8  C   UNL     1      26.215   2.145  40.168  1.00  0.00     0.041 C 
ATOM      9  O   UNL     1      26.781   2.949  39.383  1.00  0.00    -0.550 OA
ATOM     10  O   UNL     1      26.377   0.777  39.990  1.00  0.00    -0.550 OA
ENDBRANCH   7   8
ENDBRANCH   6   7
ENDBRANCH   5   6
ENDBRANCH   4   5
ENDBRANCH   3   4
ENDBRANCH   2   3
ENDBRANCH   1   2
BRANCH   1  11
ATOM     11  C   UNL     1      27.801  -3.210  45.203  1.00  0.00     0.000 C 
BRANCH  11  12
ATOM     12  C   UNL     1      27.653  -4.232  44.069  1.00  0.00     0.000 C 
BRANCH  12  13
ATOM     13  C   UNL     1      27.841  -5.664  44.592  1.00  0.00     0.000 C 
BRANCH  13  14
ATOM     14  C   UNL     1      27.079  -5.923  45.902  1.00  0.00     0.000 C 
BRANCH  14  15
ATOM     15  C   UNL     1      25.562  -6.029  45.695  1.00  0.00     0.000 C 
BRANCH  15  16
ATOM     16  C   UNL     1      24.822  -6.002  47.037  1.00  0.00     0.006 C 
BRANCH  16  17
ATOM     17  C   UNL     1      25.647  -5.281  48.107  1.00  0.00     0.053 C 
BRANCH  17  18
ATOM     18  C   UNL     1      24.943  -5.320  49.427  1.00  0.00     0.041 C 
ATOM     19  O   UNL     1      23.691  -5.202  49.480  1.00  0.00    -0.550 OA
ATOM     20  O   UNL     1      25.675  -5.439  50.602  1.00  0.00    -0.550 OA
ENDBRANCH  17  18
ENDBRANCH  16  17
ENDBRANCH  15  16
ENDBRANCH  14  15
ENDBRANCH  13  14
ENDBRANCH  12  13
ENDBRANCH  11  12
ENDBRANCH   1  11
TORSDOF 15
ENDMDL
MODEL 5
REMARK VINA RESULT:    -4.372      5.772      7.866
REMARK INTER + INTRA:          -9.414
REMARK INTER:                  -8.382
REMARK INTRA:                  -1.032
REMARK UNBOUND:                -1.207
REMARK SMILES O=C([O-])CCCCCCCCCCCCCCC(=O)[O-]
REMARK SMILES IDX 10 1 9 2 8 3 7 4 6 5 5 6 4 7 2 8 1 9 3 10 11 11 12 12 13 13
REMARK SMILES IDX 14 14 15 15 16 16 17 17 18 18 19 19 20 20
REMARK H PARENT
REMARK Flexibility Score: inf
ROOT
ATOM      1  C   UNL     1      22.653  -3.278  36.766  1.00  0.00     0.000 C 
ENDROOT
BRANCH   1   2
ATOM      2  C   UNL     1      22.075  -4.377  35.859  1.00  0.00     0.000 C 
BRANCH   2   3
ATOM      3  C   UNL     1      23.073  -4.839  34.783  1.00  0.00     0.000 C 
BRANCH   3   4
ATOM      4  C   UNL     1      23.290  -6.362  34.791  1.00  0.00     0.000 C 
BRANCH   4   5
ATOM      5  C   UNL     1      24.310  -6.809  35.853  1.00  0.00     0.000 C 
BRANCH   5   6
ATOM      6  C   UNL     1      25.714  -6.223  35.613  1.00  0.00     0.006 C 
BRANCH   6   7
ATOM      7  C   UNL     1      26.669  -6.353  36.810  1.00  0.00     0.053 C 
BRANCH   7   8
ATOM      8  C   UNL     1      27.788  -5.358  36.745  1.00  0.00     0.041 C 
ATOM      9  O   UNL     1      27.546  -4.126  36.828  1.00  0.00    -0.550 OA
ATOM     10  O   UNL     1      29.094  -5.793  36.556  1.00  0.00    -0.550 OA
ENDBRANCH   7   8
ENDBRANCH   6   7
ENDBRANCH   5   6
ENDBRANCH   4   5
ENDBRANCH   3   4
ENDBRANCH   2   3
ENDBRANCH   1   2
BRANCH   1  11
ATOM     11  C   UNL     1      24.102  -2.914  36.404  1.00  0.00     0.000 C 
BRANCH  11  12
ATOM     12  C   UNL     1      24.311  -1.396  36.434  1.00  0.00     0.000 C 
BRANCH  12  13
ATOM     13  C   UNL     1      25.585  -1.031  37.210  1.00  0.00     0.000 C 
BRANCH  13  14
ATOM     14  C   UNL     1      25.500   0.354  37.873  1.00  0.00     0.000 C 
BRANCH  14  15
ATOM     15  C   UNL     1      26.716   0.664  38.757  1.00  0.00     0.000 C 
BRANCH  15  16
ATOM     16  C   UNL     1      26.717   2.133  39.195  1.00  0.00     0.006 C 
BRANCH  16  17
ATOM     17  C   UNL     1      25.464   2.465  40.012  1.00  0.00     0.053 C 
BRANCH  17  18
ATOM     18  C   UNL     1      25.840   2.895  41.395  1.00  0.00     0.041 C 
ATOM     19  O   UNL     1      25.670   2.116  42.368  1.00  0.00    -0.550 OA
ATOM     20  O   UNL     1      26.334   4.175  41.614  1.00  0.00    -0.550 OA
ENDBRANCH  17  18
ENDBRANCH  16  17
ENDBRANCH  15  16
ENDBRANCH  14  15
ENDBRANCH  13  14
ENDBRANCH  12  13
ENDBRANCH  11  12
ENDBRANCH   1  11
TORSDOF 15
ENDMDL
MODEL 6
REMARK VINA RESULT:    -4.362      6.462      9.470
REMARK INTER + INTRA:          -9.395
REMARK INTER:                  -7.606
REMARK INTRA:                  -1.789
REMARK UNBOUND:                -1.207
REMARK SMILES O=C([O-])CCCCCCCCCCCCCCC(=O)[O-]
REMARK SMILES IDX 10 1 9 2 8 3 7 4 6 5 5 6 4 7 2 8 1 9 3 10 11 11 12 12 13 13
REMARK SMILES IDX 14 14 15 15 16 16 17 17 18 18 19 19 20 20
REMARK H PARENT
REMARK Flexibility Score: inf
ROOT
ATOM      1  C   UNL     1      22.614  -4.538  34.944  1.00  0.00     0.000 C 
ENDROOT
BRANCH   1   2
ATOM      2  C   UNL     1      22.351  -4.139  36.405  1.00  0.00     0.000 C 
BRANCH   2   3
ATOM      3  C   UNL     1      22.945  -2.763  36.756  1.00  0.00     0.000 C 
BRANCH   3   4
ATOM      4  C   UNL     1      24.212  -2.441  35.947  1.00  0.00     0.000 C 
BRANCH   4   5
ATOM      5  C   UNL     1      25.312  -1.788  36.803  1.00  0.00     0.000 C 
BRANCH   5   6
ATOM      6  C   UNL     1      24.996  -0.321  37.156  1.00  0.00     0.006 C 
BRANCH   6   7
ATOM      7  C   UNL     1      25.896   0.274  38.251  1.00  0.00     0.053 C 
BRANCH   7   8
ATOM      8  C   UNL     1      25.656   1.742  38.435  1.00  0.00     0.041 C 
ATOM      9  O   UNL     1      24.500   2.219  38.288  1.00  0.00    -0.550 OA
ATOM     10  O   UNL     1      26.717   2.587  38.735  1.00  0.00    -0.550 OA
ENDBRANCH   7   8
ENDBRANCH   6   7
ENDBRANCH   5   6
ENDBRANCH   4   5
ENDBRANCH   3   4
ENDBRANCH   2   3
ENDBRANCH   1   2
BRANCH   1  11
ATOM     11  C   UNL     1      23.442  -5.827  34.821  1.00  0.00     0.000 C 
BRANCH  11  12
ATOM     12  C   UNL     1      23.988  -6.261  36.187  1.00  0.00     0.000 C 
BRANCH  12  13
ATOM     13  C   UNL     1      25.524  -6.239  36.196  1.00  0.00     0.000 C 
BRANCH  13  14
ATOM     14  C   UNL     1      26.116  -5.575  34.943  1.00  0.00     0.000 C 
BRANCH  14  15
ATOM     15  C   UNL     1      27.257  -4.601  35.270  1.00  0.00     0.000 C 
BRANCH  15  16
ATOM     16  C   UNL     1      27.802  -4.849  36.682  1.00  0.00     0.006 C 
BRANCH  16  17
ATOM     17  C   UNL     1      28.482  -3.594  37.238  1.00  0.00     0.053 C 
BRANCH  17  18
ATOM     18  C   UNL     1      29.961  -3.660  37.020  1.00  0.00     0.041 C 
ATOM     19  O   UNL     1      30.543  -2.765  36.353  1.00  0.00    -0.550 OA
ATOM     20  O   UNL     1      30.688  -4.737  37.513  1.00  0.00    -0.550 OA
ENDBRANCH  17  18
ENDBRANCH  16  17
ENDBRANCH  15  16
ENDBRANCH  14  15
ENDBRANCH  13  14
ENDBRANCH  12  13
ENDBRANCH  11  12
ENDBRANCH   1  11
TORSDOF 15
ENDMDL
MODEL 7
REMARK VINA RESULT:    -4.358      6.072      9.575
REMARK INTER + INTRA:          -9.386
REMARK INTER:                  -8.368
REMARK INTRA:                  -1.019
REMARK UNBOUND:                -1.207
REMARK SMILES O=C([O-])CCCCCCCCCCCCCCC(=O)[O-]
REMARK SMILES IDX 10 1 9 2 8 3 7 4 6 5 5 6 4 7 2 8 1 9 3 10 11 11 12 12 13 13
REMARK SMILES IDX 14 14 15 15 16 16 17 17 18 18 19 19 20 20
REMARK H PARENT
REMARK Flexibility Score: inf
ROOT
ATOM      1  C   UNL     1      24.171  -2.825  35.818  1.00  0.00     0.000 C 
ENDROOT
BRANCH   1   2
ATOM      2  C   UNL     1      25.311  -2.150  36.600  1.00  0.00     0.000 C 
BRANCH   2   3
ATOM      3  C   UNL     1      24.960  -0.716  37.034  1.00  0.00     0.000 C 
BRANCH   3   4
ATOM      4  C   UNL     1      26.050  -0.078  37.910  1.00  0.00     0.000 C 
BRANCH   4   5
ATOM      5  C   UNL     1      26.010   1.460  37.881  1.00  0.00     0.000 C 
BRANCH   5   6
ATOM      6  C   UNL     1      26.564   2.094  39.171  1.00  0.00     0.006 C 
BRANCH   6   7
ATOM      7  C   UNL     1      25.487   2.499  40.191  1.00  0.00     0.053 C 
BRANCH   7   8
ATOM      8  C   UNL     1      26.085   3.093  41.430  1.00  0.00     0.041 C 
ATOM      9  O   UNL     1      26.734   4.169  41.367  1.00  0.00    -0.550 OA
ATOM     10  O   UNL     1      25.953   2.437  42.647  1.00  0.00    -0.550 OA
ENDBRANCH   7   8
ENDBRANCH   6   7
ENDBRANCH   5   6
ENDBRANCH   4   5
ENDBRANCH   3   4
ENDBRANCH   2   3
ENDBRANCH   1   2
BRANCH   1  11
ATOM     11  C   UNL     1      22.900  -3.003  36.663  1.00  0.00     0.000 C 
BRANCH  11  12
ATOM     12  C   UNL     1      22.259  -4.372  36.408  1.00  0.00     0.000 C 
BRANCH  12  13
ATOM     13  C   UNL     1      22.579  -4.874  34.991  1.00  0.00     0.000 C 
BRANCH  13  14
ATOM     14  C   UNL     1      23.062  -6.333  34.974  1.00  0.00     0.000 C 
BRANCH  14  15
ATOM     15  C   UNL     1      23.713  -6.727  33.640  1.00  0.00     0.000 C 
BRANCH  15  16
ATOM     16  C   UNL     1      25.221  -6.946  33.810  1.00  0.00     0.006 C 
BRANCH  16  17
ATOM     17  C   UNL     1      25.951  -5.617  34.019  1.00  0.00     0.053 C 
BRANCH  17  18
ATOM     18  C   UNL     1      26.744  -5.648  35.287  1.00  0.00     0.041 C 
ATOM     19  O   UNL     1      26.158  -5.617  36.401  1.00  0.00    -0.550 OA
ATOM     20  O   UNL     1      28.133  -5.664  35.239  1.00  0.00    -0.550 OA
ENDBRANCH  17  18
ENDBRANCH  16  17
ENDBRANCH  15  16
ENDBRANCH  14  15
ENDBRANCH  13  14
ENDBRANCH  12  13
ENDBRANCH  11  12
ENDBRANCH   1  11
TORSDOF 15
ENDMDL
MODEL 8
REMARK VINA RESULT:    -4.347      5.449      7.841
REMARK INTER + INTRA:          -9.367
REMARK INTER:                  -8.539
REMARK INTRA:                  -0.828
REMARK UNBOUND:                -1.207
REMARK SMILES O=C([O-])CCCCCCCCCCCCCCC(=O)[O-]
REMARK SMILES IDX 10 1 9 2 8 3 7 4 6 5 5 6 4 7 2 8 1 9 3 10 11 11 12 12 13 13
REMARK SMILES IDX 14 14 15 15 16 16 17 17 18 18 19 19 20 20
REMARK H PARENT
REMARK Flexibility Score: inf
ROOT
ATOM      1  C   UNL     1      24.252  -1.468  36.487  1.00  0.00     0.000 C 
ENDROOT
BRANCH   1   2
ATOM      2  C   UNL     1      23.991  -2.980  36.386  1.00  0.00     0.000 C 
BRANCH   2   3
ATOM      3  C   UNL     1      22.523  -3.345  36.667  1.00  0.00     0.000 C 
BRANCH   3   4
ATOM      4  C   UNL     1      22.207  -4.817  36.354  1.00  0.00     0.000 C 
BRANCH   4   5
ATOM      5  C   UNL     1      22.498  -5.187  34.889  1.00  0.00     0.000 C 
BRANCH   5   6
ATOM      6  C   UNL     1      23.176  -6.563  34.748  1.00  0.00     0.006 C 
BRANCH   6   7
ATOM      7  C   UNL     1      24.645  -6.502  34.297  1.00  0.00     0.053 C 
BRANCH   7   8
ATOM      8  C   UNL     1      25.580  -6.356  35.458  1.00  0.00     0.041 C 
ATOM      9  O   UNL     1      26.748  -5.920  35.280  1.00  0.00    -0.550 OA
ATOM     10  O   UNL     1      25.173  -6.736  36.730  1.00  0.00    -0.550 OA
ENDBRANCH   7   8
ENDBRANCH   6   7
ENDBRANCH   5   6
ENDBRANCH   4   5
ENDBRANCH   3   4
ENDBRANCH   2   3
ENDBRANCH   1   2
BRANCH   1  11
ATOM     11  C   UNL     1      25.622  -1.144  37.103  1.00  0.00     0.000 C 
BRANCH  11  12
ATOM     12  C   UNL     1      25.638   0.272  37.692  1.00  0.00     0.000 C 
BRANCH  12  13
ATOM     13  C   UNL     1      26.697   0.395  38.799  1.00  0.00     0.000 C 
BRANCH  13  14
ATOM     14  C   UNL     1      27.239   1.826  38.945  1.00  0.00     0.000 C 
BRANCH  14  15
ATOM     15  C   UNL     1      26.369   2.700  39.860  1.00  0.00     0.000 C 
BRANCH  15  16
ATOM     16  C   UNL     1      25.771   1.871  41.004  1.00  0.00     0.006 C 
BRANCH  16  17
ATOM     17  C   UNL     1      26.155   2.457  42.366  1.00  0.00     0.053 C 
BRANCH  17  18
ATOM     18  C   UNL     1      26.174   1.384  43.410  1.00  0.00     0.041 C 
ATOM     19  O   UNL     1      26.516   0.212  43.106  1.00  0.00    -0.550 OA
ATOM     20  O   UNL     1      25.768   1.671  44.707  1.00  0.00    -0.550 OA
ENDBRANCH  17  18
ENDBRANCH  16  17
ENDBRANCH  15  16
ENDBRANCH  14  15
ENDBRANCH  13  14
ENDBRANCH  12  13
ENDBRANCH  11  12
ENDBRANCH   1  11
TORSDOF 15
ENDMDL
MODEL 9
REMARK VINA RESULT:    -4.330      1.278      1.698
REMARK INTER + INTRA:          -9.335
REMARK INTER:                  -8.088
REMARK INTRA:                  -1.247
REMARK UNBOUND:                -1.207
REMARK SMILES O=C([O-])CCCCCCCCCCCCCCC(=O)[O-]
REMARK SMILES IDX 10 1 9 2 8 3 7 4 6 5 5 6 4 7 2 8 1 9 3 10 11 11 12 12 13 13
REMARK SMILES IDX 14 14 15 15 16 16 17 17 18 18 19 19 20 20
REMARK H PARENT
REMARK Flexibility Score: inf
ROOT
ATOM      1  C   UNL     1      27.540  -1.411  42.782  1.00  0.00     0.000 C 
ENDROOT
BRANCH   1   2
ATOM      2  C   UNL     1      27.353  -1.965  44.204  1.00  0.00     0.000 C 
BRANCH   2   3
ATOM      3  C   UNL     1      28.659  -1.952  45.018  1.00  0.00     0.000 C 
BRANCH   3   4
ATOM      4  C   UNL     1      28.829  -3.209  45.887  1.00  0.00     0.000 C 
BRANCH   4   5
ATOM      5  C   UNL     1      28.282  -4.477  45.208  1.00  0.00     0.000 C 
BRANCH   5   6
ATOM      6  C   UNL     1      27.702  -5.487  46.216  1.00  0.00     0.006 C 
BRANCH   6   7
ATOM      7  C   UNL     1      26.391  -5.037  46.882  1.00  0.00     0.053 C 
BRANCH   7   8
ATOM      8  C   UNL     1      25.241  -5.922  46.508  1.00  0.00     0.041 C 
ATOM      9  O   UNL     1      24.226  -5.989  47.249  1.00  0.00    -0.550 OA
ATOM     10  O   UNL     1      25.308  -6.699  45.359  1.00  0.00    -0.550 OA
ENDBRANCH   7   8
ENDBRANCH   6   7
ENDBRANCH   5   6
ENDBRANCH   4   5
ENDBRANCH   3   4
ENDBRANCH   2   3
ENDBRANCH   1   2
BRANCH   1  11
ATOM     11  C   UNL     1      26.733  -0.127  42.536  1.00  0.00     0.000 C 
BRANCH  11  12
ATOM     12  C   UNL     1      25.954   0.281  43.791  1.00  0.00     0.000 C 
BRANCH  12  13
ATOM     13  C   UNL     1      25.905   1.810  43.936  1.00  0.00     0.000 C 
BRANCH  13  14
ATOM     14  C   UNL     1      26.275   2.541  42.635  1.00  0.00     0.000 C 
BRANCH  14  15
ATOM     15  C   UNL     1      25.048   3.087  41.892  1.00  0.00     0.000 C 
BRANCH  15  16
ATOM     16  C   UNL     1      25.002   2.565  40.450  1.00  0.00     0.006 C 
BRANCH  16  17
ATOM     17  C   UNL     1      26.393   2.591  39.811  1.00  0.00     0.053 C 
BRANCH  17  18
ATOM     18  C   UNL     1      26.671   1.299  39.109  1.00  0.00     0.041 C 
ATOM     19  O   UNL     1      25.750   0.702  38.493  1.00  0.00    -0.550 OA
ATOM     20  O   UNL     1      27.937   0.730  39.177  1.00  0.00    -0.550 OA
ENDBRANCH  17  18
ENDBRANCH  16  17
ENDBRANCH  15  16
ENDBRANCH  14  15
ENDBRANCH  13  14
ENDBRANCH  12  13
ENDBRANCH  11  12
ENDBRANCH   1  11
TORSDOF 15
ENDMDL
