MODEL 1
REMARK VINA RESULT:    -4.958      0.000      0.000
REMARK INTER + INTRA:          -6.652
REMARK INTER:                  -6.987
REMARK INTRA:                   0.334
REMARK UNBOUND:                 0.334
REMARK SMILES CC1=CCC(=C(C)C)C(=O)CC(C)=CCC1
REMARK SMILES IDX 12 1 14 2 13 3 15 4 16 5 2 6 1 7 3 8 11 10 9 11 10 12 5 13
REMARK SMILES IDX 6 14 7 15 8 16 4 17
REMARK H PARENT
REMARK Flexibility Score: 60.00
ROOT
ATOM      1  C   UNL     1     -12.843 -19.186  29.455  1.00  0.00    -0.070 C 
ATOM      2  C   UNL     1     -13.275 -19.461  30.705  1.00  0.00    -0.027 C 
ATOM      3  C   UNL     1     -13.733 -19.567  28.299  1.00  0.00     0.039 C 
ENDROOT
BRANCH   2   4
ATOM      4  C   UNL     1     -12.490 -19.245  31.980  1.00  0.00     0.032 C 
BRANCH   4   5
ATOM      5  C   UNL     1     -11.958 -17.810  32.177  1.00  0.00     0.034 C 
BRANCH   5   6
ATOM      6  C   UNL     1     -13.036 -16.750  32.048  1.00  0.00    -0.077 C 
ATOM      7  C   UNL     1     -14.194 -16.805  33.013  1.00  0.00     0.039 C 
ATOM      8  C   UNL     1     -13.063 -15.801  31.080  1.00  0.00    -0.023 CG0
ATOM      9  G   UNL     1     -12.008 -15.544  30.022  1.00  0.00     0.000 G0
ENDBRANCH   5   6
ENDBRANCH   4   5
ENDBRANCH   2   4
BRANCH   1  10
ATOM     10  C   UNL     1     -11.475 -18.602  29.158  1.00  0.00     0.111 C 
BRANCH  10  11
ATOM     11  C   UNL     1     -11.572 -17.382  28.280  1.00  0.00     0.163 C 
ATOM     12  O   UNL     1     -10.934 -17.381  27.192  1.00  0.00    -0.294 OA
BRANCH  11  13
ATOM     13  C   UNL     1     -12.336 -16.164  28.681  1.00  0.00    -0.002 C 
ATOM     14  C   UNL     1     -13.238 -15.593  27.827  1.00  0.00    -0.069 C 
ATOM     15  C   UNL     1     -13.911 -14.274  28.139  1.00  0.00     0.039 C 
ATOM     16  C   UNL     1     -13.610 -16.257  26.519  1.00  0.00     0.039 C 
BRANCH  13  17
ATOM     17  C   UNL     1     -11.999 -15.541  30.026  1.00  0.00     0.066 CG0
ATOM     18  G   UNL     1     -13.069 -15.805  31.067  1.00  0.00     0.000 G0
ENDBRANCH  13  17
ENDBRANCH  11  13
ENDBRANCH  10  11
ENDBRANCH   1  10
TORSDOF 0
ENDMDL
MODEL 2
REMARK VINA RESULT:    -4.737      1.680      3.441
REMARK INTER + INTRA:          -6.340
REMARK INTER:                  -6.598
REMARK INTRA:                   0.258
REMARK UNBOUND:                 0.334
REMARK SMILES CC1=CCC(=C(C)C)C(=O)CC(C)=CCC1
REMARK SMILES IDX 12 1 14 2 13 3 15 4 16 5 2 6 1 7 3 8 11 10 9 11 10 12 5 13
REMARK SMILES IDX 6 14 7 15 8 16 4 17
REMARK H PARENT
REMARK Flexibility Score: 60.00
ROOT
ATOM      1  C   UNL     1     -11.690 -16.763  32.153  1.00  0.00    -0.070 C 
ATOM      2  C   UNL     1     -11.715 -18.100  32.346  1.00  0.00    -0.027 C 
ATOM      3  C   UNL     1     -10.879 -15.926  33.110  1.00  0.00     0.039 C 
ENDROOT
BRANCH   2   4
ATOM      4  C   UNL     1     -12.541 -19.092  31.558  1.00  0.00     0.032 C 
BRANCH   4   5
ATOM      5  C   UNL     1     -11.906 -19.552  30.229  1.00  0.00     0.034 C 
BRANCH   5   6
ATOM      6  C   UNL     1     -12.877 -19.527  29.063  1.00  0.00    -0.077 C 
ATOM      7  C   UNL     1     -13.960 -20.577  29.029  1.00  0.00     0.039 C 
ATOM      8  C   UNL     1     -12.794 -18.668  28.017  1.00  0.00    -0.023 CG0
ATOM      9  G   UNL     1     -11.809 -17.528  27.846  1.00  0.00     0.000 G0
ENDBRANCH   5   6
ENDBRANCH   4   5
ENDBRANCH   2   4
BRANCH   1  10
ATOM     10  C   UNL     1     -12.506 -16.062  31.085  1.00  0.00     0.111 C 
BRANCH  10  11
ATOM     11  C   UNL     1     -11.721 -15.891  29.811  1.00  0.00     0.163 C 
ATOM     12  O   UNL     1     -10.568 -15.387  29.887  1.00  0.00    -0.294 OA
BRANCH  11  13
ATOM     13  C   UNL     1     -12.283 -16.236  28.471  1.00  0.00    -0.002 C 
ATOM     14  C   UNL     1     -13.250 -15.458  27.898  1.00  0.00    -0.069 C 
ATOM     15  C   UNL     1     -13.950 -15.864  26.619  1.00  0.00     0.039 C 
ATOM     16  C   UNL     1     -13.671 -14.144  28.519  1.00  0.00     0.039 C 
BRANCH  13  17
ATOM     17  C   UNL     1     -11.805 -17.527  27.827  1.00  0.00     0.066 CG0
ATOM     18  G   UNL     1     -12.792 -18.663  28.016  1.00  0.00     0.000 G0
ENDBRANCH  13  17
ENDBRANCH  11  13
ENDBRANCH  10  11
ENDBRANCH   1  10
TORSDOF 0
ENDMDL
MODEL 3
REMARK VINA RESULT:    -4.592      1.646      3.509
REMARK INTER + INTRA:          -6.136
REMARK INTER:                  -7.248
REMARK INTRA:                   1.112
REMARK UNBOUND:                 0.334
REMARK SMILES CC1=CCC(=C(C)C)C(=O)CC(C)=CCC1
REMARK SMILES IDX 12 1 14 2 13 3 15 4 16 5 2 6 1 7 3 8 11 10 9 11 10 12 5 13
REMARK SMILES IDX 6 14 7 15 8 16 4 17
REMARK H PARENT
REMARK Flexibility Score: 60.00
ROOT
ATOM      1  C   UNL     1     -12.741 -15.476  29.284  1.00  0.00    -0.070 C 
ATOM      2  C   UNL     1     -13.577 -15.348  30.338  1.00  0.00    -0.027 C 
ATOM      3  C   UNL     1     -13.318 -15.311  27.900  1.00  0.00     0.039 C 
ENDROOT
BRANCH   2   4
ATOM      4  C   UNL     1     -13.212 -15.570  31.788  1.00  0.00     0.032 C 
BRANCH   4   5
ATOM      5  C   UNL     1     -12.609 -16.956  32.099  1.00  0.00     0.034 C 
BRANCH   5   6
ATOM      6  C   UNL     1     -11.140 -16.897  32.480  1.00  0.00    -0.077 C 
ATOM      7  C   UNL     1     -10.719 -15.859  33.488  1.00  0.00     0.039 C 
ATOM      8  C   UNL     1     -10.175 -17.668  31.922  1.00  0.00    -0.023 CG0
ATOM      9  G   UNL     1     -10.364 -18.782  30.911  1.00  0.00     0.000 G0
ENDBRANCH   5   6
ENDBRANCH   4   5
ENDBRANCH   2   4
BRANCH   1  10
ATOM     10  C   UNL     1     -11.283 -15.865  29.423  1.00  0.00     0.111 C 
BRANCH  10  11
ATOM     11  C   UNL     1     -11.037 -17.274  28.952  1.00  0.00     0.163 C 
ATOM     12  O   UNL     1     -10.618 -17.443  27.775  1.00  0.00    -0.294 OA
BRANCH  11  13
ATOM     13  C   UNL     1     -11.331 -18.466  29.802  1.00  0.00    -0.002 C 
ATOM     14  C   UNL     1     -12.490 -19.173  29.638  1.00  0.00    -0.069 C 
ATOM     15  C   UNL     1     -12.890 -20.285  30.583  1.00  0.00     0.039 C 
ATOM     16  C   UNL     1     -13.436 -18.875  28.495  1.00  0.00     0.039 C 
BRANCH  13  17
ATOM     17  C   UNL     1     -10.341 -18.793  30.908  1.00  0.00     0.066 CG0
ATOM     18  G   UNL     1     -10.196 -17.660  31.905  1.00  0.00     0.000 G0
ENDBRANCH  13  17
ENDBRANCH  11  13
ENDBRANCH  10  11
ENDBRANCH   1  10
TORSDOF 0
ENDMDL
MODEL 4
REMARK VINA RESULT:    -4.443      1.591      3.549
REMARK INTER + INTRA:          -5.927
REMARK INTER:                  -7.294
REMARK INTRA:                   1.367
REMARK UNBOUND:                 0.334
REMARK SMILES CC1=CCC(=C(C)C)C(=O)CC(C)=CCC1
REMARK SMILES IDX 12 1 14 2 13 3 15 4 16 5 2 6 1 7 3 8 11 10 9 11 10 12 5 13
REMARK SMILES IDX 6 14 7 15 8 16 4 17
REMARK H PARENT
REMARK Flexibility Score: 60.00
ROOT
ATOM      1  C   UNL     1     -12.341 -19.641  30.427  1.00  0.00    -0.070 C 
ATOM      2  C   UNL     1     -13.333 -19.711  29.513  1.00  0.00    -0.027 C 
ATOM      3  C   UNL     1     -12.520 -20.388  31.724  1.00  0.00     0.039 C 
ENDROOT
BRANCH   2   4
ATOM      4  C   UNL     1     -13.382 -18.959  28.202  1.00  0.00     0.032 C 
BRANCH   4   5
ATOM      5  C   UNL     1     -12.244 -17.938  27.998  1.00  0.00     0.034 C 
BRANCH   5   6
ATOM      6  C   UNL     1     -12.745 -16.520  27.786  1.00  0.00    -0.077 C 
ATOM      7  C   UNL     1     -13.675 -16.271  26.625  1.00  0.00     0.039 C 
ATOM      8  C   UNL     1     -12.357 -15.454  28.528  1.00  0.00    -0.023 CG0
ATOM      9  G   UNL     1     -11.454 -15.467  29.745  1.00  0.00     0.000 G0
ENDBRANCH   5   6
ENDBRANCH   4   5
ENDBRANCH   2   4
BRANCH   1  10
ATOM     10  C   UNL     1     -11.107 -18.779  30.249  1.00  0.00     0.111 C 
BRANCH  10  11
ATOM     11  C   UNL     1     -11.129 -17.583  31.164  1.00  0.00     0.163 C 
ATOM     12  O   UNL     1     -10.481 -17.649  32.244  1.00  0.00    -0.294 OA
BRANCH  11  13
ATOM     13  C   UNL     1     -11.935 -16.361  30.868  1.00  0.00    -0.002 C 
ATOM     14  C   UNL     1     -13.110 -16.124  31.525  1.00  0.00    -0.069 C 
ATOM     15  C   UNL     1     -14.026 -14.982  31.139  1.00  0.00     0.039 C 
ATOM     16  C   UNL     1     -13.556 -16.997  32.678  1.00  0.00     0.039 C 
BRANCH  13  17
ATOM     17  C   UNL     1     -11.443 -15.457  29.749  1.00  0.00     0.066 CG0
ATOM     18  G   UNL     1     -12.374 -15.465  28.553  1.00  0.00     0.000 G0
ENDBRANCH  13  17
ENDBRANCH  11  13
ENDBRANCH  10  11
ENDBRANCH   1  10
TORSDOF 0
ENDMDL
MODEL 5
REMARK VINA RESULT:    -4.411      1.812      4.511
REMARK INTER + INTRA:          -5.881
REMARK INTER:                  -6.842
REMARK INTRA:                   0.961
REMARK UNBOUND:                 0.334
REMARK SMILES CC1=CCC(=C(C)C)C(=O)CC(C)=CCC1
REMARK SMILES IDX 12 1 14 2 13 3 15 4 16 5 2 6 1 7 3 8 11 10 9 11 10 12 5 13
REMARK SMILES IDX 6 14 7 15 8 16 4 17
REMARK H PARENT
REMARK Flexibility Score: 60.00
ROOT
ATOM      1  C   UNL     1     -13.045 -15.875  31.449  1.00  0.00    -0.070 C 
ATOM      2  C   UNL     1     -13.971 -15.269  30.672  1.00  0.00    -0.027 C 
ATOM      3  C   UNL     1     -13.469 -16.346  32.816  1.00  0.00     0.039 C 
ENDROOT
BRANCH   2   4
ATOM      4  C   UNL     1     -13.717 -14.646  29.318  1.00  0.00     0.032 C 
BRANCH   4   5
ATOM      5  C   UNL     1     -12.507 -15.223  28.555  1.00  0.00     0.034 C 
BRANCH   5   6
ATOM      6  C   UNL     1     -12.894 -16.259  27.516  1.00  0.00    -0.077 C 
ATOM      7  C   UNL     1     -13.942 -15.877  26.500  1.00  0.00     0.039 C 
ATOM      8  C   UNL     1     -12.413 -17.526  27.484  1.00  0.00    -0.023 CG0
ATOM      9  G   UNL     1     -11.349 -18.123  28.383  1.00  0.00     0.000 G0
ENDBRANCH   5   6
ENDBRANCH   4   5
ENDBRANCH   2   4
BRANCH   1  10
ATOM     10  C   UNL     1     -11.590 -16.017  31.049  1.00  0.00     0.111 C 
BRANCH  10  11
ATOM     11  C   UNL     1     -11.205 -17.461  30.860  1.00  0.00     0.163 C 
ATOM     12  O   UNL     1     -10.286 -17.930  31.585  1.00  0.00    -0.294 OA
BRANCH  11  13
ATOM     13  C   UNL     1     -11.824 -18.325  29.812  1.00  0.00    -0.002 C 
ATOM     14  C   UNL     1     -12.715 -19.305  30.152  1.00  0.00    -0.069 C 
ATOM     15  C   UNL     1     -13.239 -20.298  29.136  1.00  0.00     0.039 C 
ATOM     16  C   UNL     1     -13.224 -19.447  31.570  1.00  0.00     0.039 C 
BRANCH  13  17
ATOM     17  C   UNL     1     -11.351 -18.131  28.380  1.00  0.00     0.066 CG0
ATOM     18  G   UNL     1     -12.425 -17.530  27.496  1.00  0.00     0.000 G0
ENDBRANCH  13  17
ENDBRANCH  11  13
ENDBRANCH  10  11
ENDBRANCH   1  10
TORSDOF 0
ENDMDL
MODEL 6
REMARK VINA RESULT:    -4.311      2.316      3.482
REMARK INTER + INTRA:          -5.741
REMARK INTER:                  -6.251
REMARK INTRA:                   0.510
REMARK UNBOUND:                 0.334
REMARK SMILES CC1=CCC(=C(C)C)C(=O)CC(C)=CCC1
REMARK SMILES IDX 12 1 14 2 13 3 15 4 16 5 2 6 1 7 3 8 11 10 9 11 10 12 5 13
REMARK SMILES IDX 6 14 7 15 8 16 4 17
REMARK H PARENT
REMARK Flexibility Score: 60.00
ROOT
ATOM      1  C   UNL     1     -13.896 -15.263  31.593  1.00  0.00    -0.070 C 
ATOM      2  C   UNL     1     -13.170 -15.268  32.732  1.00  0.00    -0.027 C 
ATOM      3  C   UNL     1     -15.084 -14.338  31.516  1.00  0.00     0.039 C 
ENDROOT
BRANCH   2   4
ATOM      4  C   UNL     1     -12.009 -16.189  33.036  1.00  0.00     0.032 C 
BRANCH   4   5
ATOM      5  C   UNL     1     -10.722 -15.894  32.237  1.00  0.00     0.034 C 
BRANCH   5   6
ATOM      6  C   UNL     1     -10.283 -17.055  31.363  1.00  0.00    -0.077 C 
ATOM      7  C   UNL     1      -9.886 -18.338  32.048  1.00  0.00     0.039 C 
ATOM      8  C   UNL     1     -10.159 -16.992  30.014  1.00  0.00    -0.023 CG0
ATOM      9  G   UNL     1     -10.515 -15.823  29.117  1.00  0.00     0.000 G0
ENDBRANCH   5   6
ENDBRANCH   4   5
ENDBRANCH   2   4
BRANCH   1  10
ATOM     10  C   UNL     1     -13.631 -16.203  30.434  1.00  0.00     0.111 C 
BRANCH  10  11
ATOM     11  C   UNL     1     -13.054 -15.474  29.249  1.00  0.00     0.163 C 
ATOM     12  O   UNL     1     -13.621 -14.413  28.871  1.00  0.00    -0.294 OA
BRANCH  11  13
ATOM     13  C   UNL     1     -11.886 -15.994  28.478  1.00  0.00    -0.002 C 
ATOM     14  C   UNL     1     -12.069 -16.664  27.300  1.00  0.00    -0.069 C 
ATOM     15  C   UNL     1     -10.923 -17.338  26.577  1.00  0.00     0.039 C 
ATOM     16  C   UNL     1     -13.435 -16.765  26.658  1.00  0.00     0.039 C 
BRANCH  13  17
ATOM     17  C   UNL     1     -10.510 -15.831  29.104  1.00  0.00     0.066 CG0
ATOM     18  G   UNL     1     -10.148 -16.993  30.007  1.00  0.00     0.000 G0
ENDBRANCH  13  17
ENDBRANCH  11  13
ENDBRANCH  10  11
ENDBRANCH   1  10
TORSDOF 0
ENDMDL
MODEL 7
REMARK VINA RESULT:    -4.195      2.095      4.387
REMARK INTER + INTRA:          -5.577
REMARK INTER:                  -6.186
REMARK INTRA:                   0.608
REMARK UNBOUND:                 0.334
REMARK SMILES CC1=CCC(=C(C)C)C(=O)CC(C)=CCC1
REMARK SMILES IDX 12 1 14 2 13 3 15 4 16 5 2 6 1 7 3 8 11 10 9 11 10 12 5 13
REMARK SMILES IDX 6 14 7 15 8 16 4 17
REMARK H PARENT
REMARK Flexibility Score: 60.00
ROOT
ATOM      1  C   UNL     1     -10.455 -16.488  29.276  1.00  0.00    -0.070 C 
ATOM      2  C   UNL     1     -11.252 -16.509  28.185  1.00  0.00    -0.027 C 
ATOM      3  C   UNL     1      -9.901 -15.158  29.721  1.00  0.00     0.039 C 
ENDROOT
BRANCH   2   4
ATOM      4  C   UNL     1     -11.822 -17.747  27.530  1.00  0.00     0.032 C 
BRANCH   4   5
ATOM      5  C   UNL     1     -13.284 -18.066  27.909  1.00  0.00     0.034 C 
BRANCH   5   6
ATOM      6  C   UNL     1     -13.403 -19.007  29.093  1.00  0.00    -0.077 C 
ATOM      7  C   UNL     1     -13.601 -20.474  28.806  1.00  0.00     0.039 C 
ATOM      8  C   UNL     1     -13.412 -18.608  30.389  1.00  0.00    -0.023 CG0
ATOM      9  G   UNL     1     -13.211 -17.200  30.913  1.00  0.00     0.000 G0
ENDBRANCH   5   6
ENDBRANCH   4   5
ENDBRANCH   2   4
BRANCH   1  10
ATOM     10  C   UNL     1     -10.020 -17.740  30.011  1.00  0.00     0.111 C 
BRANCH  10  11
ATOM     11  C   UNL     1     -10.770 -17.912  31.306  1.00  0.00     0.163 C 
ATOM     12  O   UNL     1     -10.448 -18.874  32.056  1.00  0.00    -0.294 OA
BRANCH  11  13
ATOM     13  C   UNL     1     -11.910 -17.030  31.696  1.00  0.00    -0.002 C 
ATOM     14  C   UNL     1     -11.802 -16.178  32.760  1.00  0.00    -0.069 C 
ATOM     15  C   UNL     1     -12.986 -15.389  33.276  1.00  0.00     0.039 C 
ATOM     16  C   UNL     1     -10.485 -15.981  33.477  1.00  0.00     0.039 C 
BRANCH  13  17
ATOM     17  C   UNL     1     -13.210 -17.193  30.925  1.00  0.00     0.066 CG0
ATOM     18  G   UNL     1     -13.396 -18.602  30.400  1.00  0.00     0.000 G0
ENDBRANCH  13  17
ENDBRANCH  11  13
ENDBRANCH  10  11
ENDBRANCH   1  10
TORSDOF 0
ENDMDL
MODEL 8
REMARK VINA RESULT:    -3.921      1.816      4.167
REMARK INTER + INTRA:          -5.191
REMARK INTER:                  -5.757
REMARK INTRA:                   0.566
REMARK UNBOUND:                 0.334
REMARK SMILES CC1=CCC(=C(C)C)C(=O)CC(C)=CCC1
REMARK SMILES IDX 12 1 14 2 13 3 15 4 16 5 2 6 1 7 3 8 11 10 9 11 10 12 5 13
REMARK SMILES IDX 6 14 7 15 8 16 4 17
REMARK H PARENT
REMARK Flexibility Score: 60.00
ROOT
ATOM      1  C   UNL     1     -12.510 -15.836  28.965  1.00  0.00    -0.070 C 
ATOM      2  C   UNL     1     -12.890 -16.776  28.072  1.00  0.00    -0.027 C 
ATOM      3  C   UNL     1     -13.402 -14.634  29.149  1.00  0.00     0.039 C 
ENDROOT
BRANCH   2   4
ATOM      4  C   UNL     1     -12.088 -17.997  27.679  1.00  0.00     0.032 C 
BRANCH   4   5
ATOM      5  C   UNL     1     -11.728 -18.939  28.846  1.00  0.00     0.034 C 
BRANCH   5   6
ATOM      6  C   UNL     1     -12.941 -19.418  29.623  1.00  0.00    -0.077 C 
ATOM      7  C   UNL     1     -13.979 -20.220  28.879  1.00  0.00     0.039 C 
ATOM      8  C   UNL     1     -13.186 -19.114  30.922  1.00  0.00    -0.023 CG0
ATOM      9  G   UNL     1     -12.283 -18.345  31.867  1.00  0.00     0.000 G0
ENDBRANCH   5   6
ENDBRANCH   4   5
ENDBRANCH   2   4
BRANCH   1  10
ATOM     10  C   UNL     1     -11.195 -15.888  29.718  1.00  0.00     0.111 C 
BRANCH  10  11
ATOM     11  C   UNL     1     -11.410 -16.007  31.203  1.00  0.00     0.163 C 
ATOM     12  O   UNL     1     -10.596 -15.424  31.970  1.00  0.00    -0.294 OA
BRANCH  11  13
ATOM     13  C   UNL     1     -12.505 -16.835  31.791  1.00  0.00    -0.002 C 
ATOM     14  C   UNL     1     -13.623 -16.245  32.314  1.00  0.00    -0.069 C 
ATOM     15  C   UNL     1     -14.674 -17.041  33.056  1.00  0.00     0.039 C 
ATOM     16  C   UNL     1     -13.864 -14.758  32.175  1.00  0.00     0.039 C 
BRANCH  13  17
ATOM     17  C   UNL     1     -12.278 -18.336  31.869  1.00  0.00     0.066 CG0
ATOM     18  G   UNL     1     -13.186 -19.104  30.929  1.00  0.00     0.000 G0
ENDBRANCH  13  17
ENDBRANCH  11  13
ENDBRANCH  10  11
ENDBRANCH   1  10
TORSDOF 0
ENDMDL
MODEL 9
REMARK VINA RESULT:    -3.916      1.614      3.210
REMARK INTER + INTRA:          -5.184
REMARK INTER:                  -6.193
REMARK INTRA:                   1.009
REMARK UNBOUND:                 0.334
REMARK SMILES CC1=CCC(=C(C)C)C(=O)CC(C)=CCC1
REMARK SMILES IDX 12 1 14 2 13 3 15 4 16 5 2 6 1 7 3 8 11 10 9 11 10 12 5 13
REMARK SMILES IDX 6 14 7 15 8 16 4 17
REMARK H PARENT
REMARK Flexibility Score: 60.00
ROOT
ATOM      1  C   UNL     1     -12.316 -17.542  28.111  1.00  0.00    -0.070 C 
ATOM      2  C   UNL     1     -12.305 -18.805  28.591  1.00  0.00    -0.027 C 
ATOM      3  C   UNL     1     -11.303 -17.178  27.054  1.00  0.00     0.039 C 
ENDROOT
BRANCH   2   4
ATOM      4  C   UNL     1     -13.171 -19.332  29.713  1.00  0.00     0.032 C 
BRANCH   4   5
ATOM      5  C   UNL     1     -12.425 -19.600  31.037  1.00  0.00     0.034 C 
BRANCH   5   6
ATOM      6  C   UNL     1     -11.332 -18.585  31.322  1.00  0.00    -0.077 C 
ATOM      7  C   UNL     1      -9.909 -18.983  31.019  1.00  0.00     0.039 C 
ATOM      8  C   UNL     1     -11.543 -17.374  31.894  1.00  0.00    -0.023 CG0
ATOM      9  G   UNL     1     -12.878 -16.758  32.263  1.00  0.00     0.000 G0
ENDBRANCH   5   6
ENDBRANCH   4   5
ENDBRANCH   2   4
BRANCH   1  10
ATOM     10  C   UNL     1     -13.229 -16.457  28.647  1.00  0.00     0.111 C 
BRANCH  10  11
ATOM     11  C   UNL     1     -12.652 -15.802  29.874  1.00  0.00     0.163 C 
ATOM     12  O   UNL     1     -11.500 -15.296  29.791  1.00  0.00    -0.294 OA
BRANCH  11  13
ATOM     13  C   UNL     1     -13.365 -15.789  31.186  1.00  0.00    -0.002 C 
ATOM     14  C   UNL     1     -14.371 -14.895  31.425  1.00  0.00    -0.069 C 
ATOM     15  C   UNL     1     -15.004 -14.750  32.792  1.00  0.00     0.039 C 
ATOM     16  C   UNL     1     -14.905 -14.001  30.327  1.00  0.00     0.039 C 
BRANCH  13  17
ATOM     17  C   UNL     1     -12.860 -16.737  32.262  1.00  0.00     0.066 CG0
ATOM     18  G   UNL     1     -11.534 -17.373  31.893  1.00  0.00     0.000 G0
ENDBRANCH  13  17
ENDBRANCH  11  13
ENDBRANCH  10  11
ENDBRANCH   1  10
TORSDOF 0
ENDMDL
