MODEL 1
REMARK VINA RESULT:    -7.901      0.000      0.000
REMARK INTER + INTRA:         -11.869
REMARK INTER:                 -10.441
REMARK INTRA:                  -1.428
REMARK UNBOUND:                -1.428
REMARK SMILES C=C(CC[C@@H](C)[C@@H]1CC[C@@]2(C)[C@H]3CC[C@H]4C(C)(C)[C@H](O)CC[C@]45C[C@]35CC[C@]12C)C(C)C
REMARK SMILES IDX 4 1 3 2 2 3 1 4 30 5 31 6 32 7 5 8 6 9 7 10 8 11 28 12 9 13
REMARK SMILES IDX 10 14 27 15 29 16 11 17 12 18 26 19 25 20 13 21 23 22 24 23
REMARK SMILES IDX 14 24 15 25 22 26 16 27 21 28 19 29 17 30 18 31 20 32
REMARK H PARENT 20 33
REMARK Flexibility Score: inf
ROOT
ATOM      1  C   UNL     1       8.596  19.125  44.671  1.00  0.00     0.008 C 
ENDROOT
BRANCH   1   2
ATOM      2  C   UNL     1       7.943  20.164  43.740  1.00  0.00     0.031 C 
BRANCH   2   3
ATOM      3  C   UNL     1       7.176  19.519  42.602  1.00  0.00    -0.075 C 
ATOM      4  C   UNL     1       6.910  18.200  42.653  1.00  0.00     0.008 C 
BRANCH   3   5
ATOM      5  C   UNL     1       6.644  20.379  41.463  1.00  0.00     0.008 C 
ATOM      6  C   UNL     1       7.587  21.555  41.181  1.00  0.00     0.012 C 
ATOM      7  C   UNL     1       5.217  20.875  41.733  1.00  0.00     0.012 C 
ENDBRANCH   3   5
ENDBRANCH   2   3
ENDBRANCH   1   2
BRANCH   1   8
ATOM      8  C   UNL     1       8.346  19.413  46.171  1.00  0.00    -0.010 C 
ATOM      9  C   UNL     1       9.423  20.370  46.722  1.00  0.00     0.008 C 
BRANCH   8  10
ATOM     10  C   UNL     1       6.904  19.880  46.582  1.00  0.00    -0.002 C 
ATOM     11  C   UNL     1       6.771  20.422  48.021  1.00  0.00     0.005 C 
ATOM     12  C   UNL     1       5.605  19.011  46.321  1.00  0.00    -0.024 C 
ATOM     13  C   UNL     1       5.308  20.177  48.432  1.00  0.00     0.008 C 
ATOM     14  C   UNL     1       4.950  18.849  47.750  1.00  0.00    -0.024 C 
ATOM     15  C   UNL     1       5.719  17.602  45.693  1.00  0.00     0.008 C 
ATOM     16  C   UNL     1       4.754  19.864  45.313  1.00  0.00     0.012 C 
ATOM     17  C   UNL     1       5.596  17.729  48.652  1.00  0.00     0.012 C 
ATOM     18  C   UNL     1       3.441  18.446  47.657  1.00  0.00     0.002 C 
ATOM     19  C   UNL     1       4.323  16.940  45.531  1.00  0.00     0.008 C 
ATOM     20  C   UNL     1       3.269  17.222  46.676  1.00  0.00    -0.020 C 
ATOM     21  C   UNL     1       2.406  19.597  47.441  1.00  0.00     0.005 C 
ATOM     22  C   UNL     1       1.793  16.791  46.458  1.00  0.00    -0.020 C 
ATOM     23  C   UNL     1       2.717  15.925  47.307  1.00  0.00     0.015 C 
ATOM     24  C   UNL     1       1.050  19.137  46.858  1.00  0.00     0.005 C 
ATOM     25  C   UNL     1       0.751  17.664  47.217  1.00  0.00     0.004 C 
ATOM     26  C   UNL     1       1.459  16.347  45.016  1.00  0.00     0.010 C 
ATOM     27  C   UNL     1      -0.723  17.171  46.968  1.00  0.00    -0.006 C 
ATOM     28  C   UNL     1       0.016  15.876  44.876  1.00  0.00     0.033 C 
ATOM     29  C   UNL     1      -0.971  16.903  45.450  1.00  0.00     0.120 C 
ATOM     30  C   UNL     1      -1.754  18.211  47.474  1.00  0.00     0.014 C 
ATOM     31  C   UNL     1      -0.952  15.876  47.798  1.00  0.00     0.014 C 
BRANCH  29  32
ATOM     32  O   UNL     1      -2.278  16.428  45.232  1.00  0.00    -0.393 OA
ATOM     33  H   UNL     1      -2.772  16.522  46.087  1.00  0.00     0.210 HD
ENDBRANCH  29  32
ENDBRANCH   8  10
ENDBRANCH   1   8
TORSDOF 6
ENDMDL
MODEL 2
REMARK VINA RESULT:    -7.619      5.037      8.439
REMARK INTER + INTRA:         -11.497
REMARK INTER:                  -9.575
REMARK INTRA:                  -1.922
REMARK UNBOUND:                -1.428
REMARK SMILES C=C(CC[C@@H](C)[C@@H]1CC[C@@]2(C)[C@H]3CC[C@H]4C(C)(C)[C@H](O)CC[C@]45C[C@]35CC[C@]12C)C(C)C
REMARK SMILES IDX 4 1 3 2 2 3 1 4 30 5 31 6 32 7 5 8 6 9 7 10 8 11 28 12 9 13
REMARK SMILES IDX 10 14 27 15 29 16 11 17 12 18 26 19 25 20 13 21 23 22 24 23
REMARK SMILES IDX 14 24 15 25 22 26 16 27 21 28 19 29 17 30 18 31 20 32
REMARK H PARENT 20 33
REMARK Flexibility Score: inf
ROOT
ATOM      1  C   UNL     1       1.152  16.988  46.353  1.00  0.00     0.008 C 
ENDROOT
BRANCH   1   2
ATOM      2  C   UNL     1       0.194  16.013  47.061  1.00  0.00     0.031 C 
BRANCH   2   3
ATOM      3  C   UNL     1      -1.256  16.444  46.951  1.00  0.00    -0.075 C 
ATOM      4  C   UNL     1      -1.799  16.614  45.730  1.00  0.00     0.008 C 
BRANCH   3   5
ATOM      5  C   UNL     1      -2.100  16.597  48.209  1.00  0.00     0.008 C 
ATOM      6  C   UNL     1      -2.965  17.860  48.136  1.00  0.00     0.012 C 
ATOM      7  C   UNL     1      -1.242  16.594  49.482  1.00  0.00     0.012 C 
ENDBRANCH   3   5
ENDBRANCH   2   3
ENDBRANCH   1   2
BRANCH   1   8
ATOM      8  C   UNL     1       1.724  18.071  47.300  1.00  0.00    -0.010 C 
ATOM      9  C   UNL     1       3.255  17.922  47.425  1.00  0.00     0.008 C 
BRANCH   8  10
ATOM     10  C   UNL     1       1.317  19.561  47.015  1.00  0.00    -0.002 C 
ATOM     11  C   UNL     1       2.476  20.495  46.606  1.00  0.00     0.005 C 
ATOM     12  C   UNL     1       0.397  20.408  47.989  1.00  0.00    -0.024 C 
ATOM     13  C   UNL     1       2.049  21.912  47.031  1.00  0.00     0.008 C 
ATOM     14  C   UNL     1       1.262  21.686  48.329  1.00  0.00    -0.024 C 
ATOM     15  C   UNL     1      -0.094  19.803  49.325  1.00  0.00     0.008 C 
ATOM     16  C   UNL     1      -0.896  20.708  47.149  1.00  0.00     0.012 C 
ATOM     17  C   UNL     1       2.354  21.470  49.446  1.00  0.00     0.012 C 
ATOM     18  C   UNL     1       0.381  22.858  48.875  1.00  0.00     0.002 C 
ATOM     19  C   UNL     1      -0.978  20.810  50.110  1.00  0.00     0.008 C 
ATOM     20  C   UNL     1      -0.560  22.334  50.029  1.00  0.00    -0.020 C 
ATOM     21  C   UNL     1      -0.334  23.765  47.822  1.00  0.00     0.005 C 
ATOM     22  C   UNL     1      -1.531  23.408  50.589  1.00  0.00    -0.020 C 
ATOM     23  C   UNL     1      -0.334  22.962  51.421  1.00  0.00     0.015 C 
ATOM     24  C   UNL     1      -1.552  24.545  48.370  1.00  0.00     0.005 C 
ATOM     25  C   UNL     1      -1.425  24.795  49.889  1.00  0.00     0.004 C 
ATOM     26  C   UNL     1      -2.938  22.879  50.949  1.00  0.00     0.010 C 
ATOM     27  C   UNL     1      -2.422  25.844  50.509  1.00  0.00    -0.006 C 
ATOM     28  C   UNL     1      -3.825  23.962  51.551  1.00  0.00     0.033 C 
ATOM     29  C   UNL     1      -3.846  25.225  50.679  1.00  0.00     0.120 C 
ATOM     30  C   UNL     1      -2.522  27.111  49.622  1.00  0.00     0.014 C 
ATOM     31  C   UNL     1      -1.856  26.305  51.882  1.00  0.00     0.014 C 
BRANCH  29  32
ATOM     32  O   UNL     1      -4.728  26.152  51.265  1.00  0.00    -0.393 OA
ATOM     33  H   UNL     1      -4.238  27.011  51.351  1.00  0.00     0.210 HD
ENDBRANCH  29  32
ENDBRANCH   8  10
ENDBRANCH   1   8
TORSDOF 6
ENDMDL
MODEL 3
REMARK VINA RESULT:    -7.224      1.058      1.737
REMARK INTER + INTRA:         -10.975
REMARK INTER:                  -9.608
REMARK INTRA:                  -1.366
REMARK UNBOUND:                -1.428
REMARK SMILES C=C(CC[C@@H](C)[C@@H]1CC[C@@]2(C)[C@H]3CC[C@H]4C(C)(C)[C@H](O)CC[C@]45C[C@]35CC[C@]12C)C(C)C
REMARK SMILES IDX 4 1 3 2 2 3 1 4 30 5 31 6 32 7 5 8 6 9 7 10 8 11 28 12 9 13
REMARK SMILES IDX 10 14 27 15 29 16 11 17 12 18 26 19 25 20 13 21 23 22 24 23
REMARK SMILES IDX 14 24 15 25 22 26 16 27 21 28 19 29 17 30 18 31 20 32
REMARK H PARENT 20 33
REMARK Flexibility Score: inf
ROOT
ATOM      1  C   UNL     1       8.586  20.359  44.546  1.00  0.00     0.008 C 
ENDROOT
BRANCH   1   2
ATOM      2  C   UNL     1       7.998  19.533  43.386  1.00  0.00     0.031 C 
BRANCH   2   3
ATOM      3  C   UNL     1       8.962  18.476  42.882  1.00  0.00    -0.075 C 
ATOM      4  C   UNL     1      10.090  18.862  42.254  1.00  0.00     0.008 C 
BRANCH   3   5
ATOM      5  C   UNL     1       8.689  17.004  43.162  1.00  0.00     0.008 C 
ATOM      6  C   UNL     1       9.651  16.111  42.371  1.00  0.00     0.012 C 
ATOM      7  C   UNL     1       7.230  16.625  42.876  1.00  0.00     0.012 C 
ENDBRANCH   3   5
ENDBRANCH   2   3
ENDBRANCH   1   2
BRANCH   1   8
ATOM      8  C   UNL     1       8.146  19.847  45.938  1.00  0.00    -0.010 C 
ATOM      9  C   UNL     1       9.213  20.188  46.999  1.00  0.00     0.008 C 
BRANCH   8  10
ATOM     10  C   UNL     1       6.707  20.244  46.428  1.00  0.00    -0.002 C 
ATOM     11  C   UNL     1       6.625  20.768  47.878  1.00  0.00     0.005 C 
ATOM     12  C   UNL     1       5.437  19.318  46.226  1.00  0.00    -0.024 C 
ATOM     13  C   UNL     1       5.198  20.453  48.362  1.00  0.00     0.008 C 
ATOM     14  C   UNL     1       4.866  19.116  47.685  1.00  0.00    -0.024 C 
ATOM     15  C   UNL     1       5.582  17.921  45.579  1.00  0.00     0.008 C 
ATOM     16  C   UNL     1       4.497  20.140  45.272  1.00  0.00     0.012 C 
ATOM     17  C   UNL     1       5.607  18.020  48.541  1.00  0.00     0.012 C 
ATOM     18  C   UNL     1       3.374  18.644  47.667  1.00  0.00     0.002 C 
ATOM     19  C   UNL     1       4.211  17.197  45.482  1.00  0.00     0.008 C 
ATOM     20  C   UNL     1       3.206  17.422  46.683  1.00  0.00    -0.020 C 
ATOM     21  C   UNL     1       2.277  19.749  47.515  1.00  0.00     0.005 C 
ATOM     22  C   UNL     1       1.742  16.925  46.537  1.00  0.00    -0.020 C 
ATOM     23  C   UNL     1       2.747  16.096  47.328  1.00  0.00     0.015 C 
ATOM     24  C   UNL     1       0.915  19.231  46.999  1.00  0.00     0.005 C 
ATOM     25  C   UNL     1       0.702  17.744  47.358  1.00  0.00     0.004 C 
ATOM     26  C   UNL     1       1.354  16.478  45.109  1.00  0.00     0.010 C 
ATOM     27  C   UNL     1      -0.758  17.185  47.180  1.00  0.00    -0.006 C 
ATOM     28  C   UNL     1      -0.072  15.943  45.040  1.00  0.00     0.033 C 
ATOM     29  C   UNL     1      -1.073  16.918  45.674  1.00  0.00     0.120 C 
ATOM     30  C   UNL     1      -1.807  18.174  47.750  1.00  0.00     0.014 C 
ATOM     31  C   UNL     1      -0.885  15.875  48.008  1.00  0.00     0.014 C 
BRANCH  29  32
ATOM     32  O   UNL     1      -2.366  16.387  45.519  1.00  0.00    -0.393 OA
ATOM     33  H   UNL     1      -2.777  16.342  46.421  1.00  0.00     0.210 HD
ENDBRANCH  29  32
ENDBRANCH   8  10
ENDBRANCH   1   8
TORSDOF 6
ENDMDL
MODEL 4
REMARK VINA RESULT:    -7.120      1.859      2.671
REMARK INTER + INTRA:         -10.837
REMARK INTER:                  -8.899
REMARK INTRA:                  -1.938
REMARK UNBOUND:                -1.428
REMARK SMILES C=C(CC[C@@H](C)[C@@H]1CC[C@@]2(C)[C@H]3CC[C@H]4C(C)(C)[C@H](O)CC[C@]45C[C@]35CC[C@]12C)C(C)C
REMARK SMILES IDX 4 1 3 2 2 3 1 4 30 5 31 6 32 7 5 8 6 9 7 10 8 11 28 12 9 13
REMARK SMILES IDX 10 14 27 15 29 16 11 17 12 18 26 19 25 20 13 21 23 22 24 23
REMARK SMILES IDX 14 24 15 25 22 26 16 27 21 28 19 29 17 30 18 31 20 32
REMARK H PARENT 20 33
REMARK Flexibility Score: inf
ROOT
ATOM      1  C   UNL     1       7.686  15.937  43.739  1.00  0.00     0.008 C 
ENDROOT
BRANCH   1   2
ATOM      2  C   UNL     1       7.392  17.171  42.866  1.00  0.00     0.031 C 
BRANCH   2   3
ATOM      3  C   UNL     1       8.651  17.934  42.499  1.00  0.00    -0.075 C 
ATOM      4  C   UNL     1       9.725  17.253  42.056  1.00  0.00     0.008 C 
BRANCH   3   5
ATOM      5  C   UNL     1       8.659  19.456  42.554  1.00  0.00     0.008 C 
ATOM      6  C   UNL     1       9.213  19.950  43.895  1.00  0.00     0.012 C 
ATOM      7  C   UNL     1       7.269  20.049  42.284  1.00  0.00     0.012 C 
ENDBRANCH   3   5
ENDBRANCH   2   3
ENDBRANCH   1   2
BRANCH   1   8
ATOM      8  C   UNL     1       7.732  16.262  45.251  1.00  0.00    -0.010 C 
ATOM      9  C   UNL     1       9.181  16.180  45.775  1.00  0.00     0.008 C 
BRANCH   8  10
ATOM     10  C   UNL     1       7.029  17.584  45.724  1.00  0.00    -0.002 C 
ATOM     11  C   UNL     1       7.683  18.284  46.935  1.00  0.00     0.005 C 
ATOM     12  C   UNL     1       5.464  17.701  45.946  1.00  0.00    -0.024 C 
ATOM     13  C   UNL     1       6.559  19.075  47.626  1.00  0.00     0.008 C 
ATOM     14  C   UNL     1       5.318  18.190  47.441  1.00  0.00    -0.024 C 
ATOM     15  C   UNL     1       4.553  16.465  45.763  1.00  0.00     0.008 C 
ATOM     16  C   UNL     1       4.990  18.749  44.875  1.00  0.00     0.012 C 
ATOM     17  C   UNL     1       5.451  17.054  48.526  1.00  0.00     0.012 C 
ATOM     18  C   UNL     1       3.911  18.819  47.714  1.00  0.00     0.002 C 
ATOM     19  C   UNL     1       3.064  16.815  46.031  1.00  0.00     0.008 C 
ATOM     20  C   UNL     1       2.778  17.855  47.188  1.00  0.00    -0.020 C 
ATOM     21  C   UNL     1       3.713  20.321  47.326  1.00  0.00     0.005 C 
ATOM     22  C   UNL     1       1.342  18.424  47.346  1.00  0.00    -0.020 C 
ATOM     23  C   UNL     1       1.815  17.299  48.260  1.00  0.00     0.015 C 
ATOM     24  C   UNL     1       2.237  20.741  47.131  1.00  0.00     0.005 C 
ATOM     25  C   UNL     1       1.282  19.854  47.961  1.00  0.00     0.004 C 
ATOM     26  C   UNL     1       0.387  18.093  46.177  1.00  0.00     0.010 C 
ATOM     27  C   UNL     1      -0.197  20.370  48.108  1.00  0.00    -0.006 C 
ATOM     28  C   UNL     1      -1.023  18.623  46.415  1.00  0.00     0.033 C 
ATOM     29  C   UNL     1      -1.010  20.109  46.800  1.00  0.00     0.120 C 
ATOM     30  C   UNL     1      -0.231  21.885  48.432  1.00  0.00     0.014 C 
ATOM     31  C   UNL     1      -0.851  19.641  49.315  1.00  0.00     0.014 C 
BRANCH  29  32
ATOM     32  O   UNL     1      -2.342  20.539  46.944  1.00  0.00    -0.393 OA
ATOM     33  H   UNL     1      -2.558  20.512  47.913  1.00  0.00     0.210 HD
ENDBRANCH  29  32
ENDBRANCH   8  10
ENDBRANCH   1   8
TORSDOF 6
ENDMDL
MODEL 5
REMARK VINA RESULT:    -6.969      6.872      9.779
REMARK INTER + INTRA:         -10.637
REMARK INTER:                  -8.769
REMARK INTRA:                  -1.868
REMARK UNBOUND:                -1.428
REMARK SMILES C=C(CC[C@@H](C)[C@@H]1CC[C@@]2(C)[C@H]3CC[C@H]4C(C)(C)[C@H](O)CC[C@]45C[C@]35CC[C@]12C)C(C)C
REMARK SMILES IDX 4 1 3 2 2 3 1 4 30 5 31 6 32 7 5 8 6 9 7 10 8 11 28 12 9 13
REMARK SMILES IDX 10 14 27 15 29 16 11 17 12 18 26 19 25 20 13 21 23 22 24 23
REMARK SMILES IDX 14 24 15 25 22 26 16 27 21 28 19 29 17 30 18 31 20 32
REMARK H PARENT 20 33
REMARK Flexibility Score: inf
ROOT
ATOM      1  C   UNL     1      -1.047  28.688  50.883  1.00  0.00     0.008 C 
ENDROOT
BRANCH   1   2
ATOM      2  C   UNL     1      -2.500  28.686  50.373  1.00  0.00     0.031 C 
BRANCH   2   3
ATOM      3  C   UNL     1      -2.593  28.374  48.892  1.00  0.00    -0.075 C 
ATOM      4  C   UNL     1      -1.463  28.326  48.159  1.00  0.00     0.008 C 
BRANCH   3   5
ATOM      5  C   UNL     1      -3.942  28.037  48.270  1.00  0.00     0.008 C 
ATOM      6  C   UNL     1      -4.869  27.383  49.301  1.00  0.00     0.012 C 
ATOM      7  C   UNL     1      -3.798  27.152  47.024  1.00  0.00     0.012 C 
ENDBRANCH   3   5
ENDBRANCH   2   3
ENDBRANCH   1   2
BRANCH   1   8
ATOM      8  C   UNL     1      -0.712  27.458  51.762  1.00  0.00    -0.010 C 
ATOM      9  C   UNL     1      -0.624  27.866  53.247  1.00  0.00     0.008 C 
BRANCH   8  10
ATOM     10  C   UNL     1      -1.600  26.177  51.573  1.00  0.00    -0.002 C 
ATOM     11  C   UNL     1      -2.181  25.579  52.873  1.00  0.00     0.005 C 
ATOM     12  C   UNL     1      -1.159  24.941  50.684  1.00  0.00    -0.024 C 
ATOM     13  C   UNL     1      -2.396  24.082  52.591  1.00  0.00     0.008 C 
ATOM     14  C   UNL     1      -1.228  23.708  51.669  1.00  0.00    -0.024 C 
ATOM     15  C   UNL     1       0.229  24.923  50.002  1.00  0.00     0.008 C 
ATOM     16  C   UNL     1      -2.213  24.897  49.519  1.00  0.00     0.012 C 
ATOM     17  C   UNL     1       0.019  23.548  52.620  1.00  0.00     0.012 C 
ATOM     18  C   UNL     1      -1.298  22.348  50.897  1.00  0.00     0.002 C 
ATOM     19  C   UNL     1       0.440  23.619  49.185  1.00  0.00     0.008 C 
ATOM     20  C   UNL     1      -0.167  22.293  49.798  1.00  0.00    -0.020 C 
ATOM     21  C   UNL     1      -2.705  21.881  50.399  1.00  0.00     0.005 C 
ATOM     22  C   UNL     1      -0.199  21.010  48.924  1.00  0.00    -0.020 C 
ATOM     23  C   UNL     1       0.892  21.183  49.975  1.00  0.00     0.015 C 
ATOM     24  C   UNL     1      -2.666  20.852  49.246  1.00  0.00     0.005 C 
ATOM     25  C   UNL     1      -1.359  20.029  49.266  1.00  0.00     0.004 C 
ATOM     26  C   UNL     1       0.149  21.237  47.435  1.00  0.00     0.010 C 
ATOM     27  C   UNL     1      -1.330  18.744  48.358  1.00  0.00    -0.006 C 
ATOM     28  C   UNL     1       0.163  19.936  46.641  1.00  0.00     0.033 C 
ATOM     29  C   UNL     1      -1.124  19.127  46.858  1.00  0.00     0.120 C 
ATOM     30  C   UNL     1      -2.642  17.931  48.498  1.00  0.00     0.014 C 
ATOM     31  C   UNL     1      -0.179  17.822  48.852  1.00  0.00     0.014 C 
BRANCH  29  32
ATOM     32  O   UNL     1      -1.063  17.976  46.051  1.00  0.00    -0.393 OA
ATOM     33  H   UNL     1      -0.469  18.184  45.283  1.00  0.00     0.210 HD
ENDBRANCH  29  32
ENDBRANCH   8  10
ENDBRANCH   1   8
TORSDOF 6
ENDMDL
MODEL 6
REMARK VINA RESULT:    -6.924      2.017      3.675
REMARK INTER + INTRA:         -10.578
REMARK INTER:                  -9.823
REMARK INTRA:                  -0.756
REMARK UNBOUND:                -1.428
REMARK SMILES C=C(CC[C@@H](C)[C@@H]1CC[C@@]2(C)[C@H]3CC[C@H]4C(C)(C)[C@H](O)CC[C@]45C[C@]35CC[C@]12C)C(C)C
REMARK SMILES IDX 4 1 3 2 2 3 1 4 30 5 31 6 32 7 5 8 6 9 7 10 8 11 28 12 9 13
REMARK SMILES IDX 10 14 27 15 29 16 11 17 12 18 26 19 25 20 13 21 23 22 24 23
REMARK SMILES IDX 14 24 15 25 22 26 16 27 21 28 19 29 17 30 18 31 20 32
REMARK H PARENT 20 33
REMARK Flexibility Score: inf
ROOT
ATOM      1  C   UNL     1       8.790  16.813  45.872  1.00  0.00     0.008 C 
ENDROOT
BRANCH   1   2
ATOM      2  C   UNL     1       9.155  17.816  44.762  1.00  0.00     0.031 C 
BRANCH   2   3
ATOM      3  C   UNL     1       8.551  17.440  43.421  1.00  0.00    -0.075 C 
ATOM      4  C   UNL     1       8.398  16.138  43.112  1.00  0.00     0.008 C 
BRANCH   3   5
ATOM      5  C   UNL     1       8.051  18.531  42.483  1.00  0.00     0.008 C 
ATOM      6  C   UNL     1       9.112  18.874  41.431  1.00  0.00     0.012 C 
ATOM      7  C   UNL     1       7.609  19.788  43.244  1.00  0.00     0.012 C 
ENDBRANCH   3   5
ENDBRANCH   2   3
ENDBRANCH   1   2
BRANCH   1   8
ATOM      8  C   UNL     1       7.859  17.416  46.951  1.00  0.00    -0.010 C 
ATOM      9  C   UNL     1       7.934  18.957  46.926  1.00  0.00     0.008 C 
BRANCH   8  10
ATOM     10  C   UNL     1       6.370  16.918  46.976  1.00  0.00    -0.002 C 
ATOM     11  C   UNL     1       5.907  16.158  45.714  1.00  0.00     0.005 C 
ATOM     12  C   UNL     1       5.154  17.842  47.398  1.00  0.00    -0.024 C 
ATOM     13  C   UNL     1       4.384  16.363  45.630  1.00  0.00     0.008 C 
ATOM     14  C   UNL     1       4.174  17.788  46.160  1.00  0.00    -0.024 C 
ATOM     15  C   UNL     1       5.388  19.330  47.749  1.00  0.00     0.008 C 
ATOM     16  C   UNL     1       4.585  17.175  48.702  1.00  0.00     0.012 C 
ATOM     17  C   UNL     1       4.564  18.739  44.964  1.00  0.00     0.012 C 
ATOM     18  C   UNL     1       2.723  18.230  46.545  1.00  0.00     0.002 C 
ATOM     19  C   UNL     1       4.058  20.036  48.133  1.00  0.00     0.008 C 
ATOM     20  C   UNL     1       2.766  19.597  47.332  1.00  0.00    -0.020 C 
ATOM     21  C   UNL     1       1.792  17.147  47.182  1.00  0.00     0.005 C 
ATOM     22  C   UNL     1       1.377  20.085  47.826  1.00  0.00    -0.020 C 
ATOM     23  C   UNL     1       2.055  20.788  46.655  1.00  0.00     0.015 C 
ATOM     24  C   UNL     1       0.606  17.720  47.991  1.00  0.00     0.005 C 
ATOM     25  C   UNL     1       0.201  19.123  47.485  1.00  0.00     0.004 C 
ATOM     26  C   UNL     1       1.389  20.758  49.217  1.00  0.00     0.010 C 
ATOM     27  C   UNL     1      -1.180  19.678  47.998  1.00  0.00    -0.006 C 
ATOM     28  C   UNL     1       0.012  21.273  49.621  1.00  0.00     0.033 C 
ATOM     29  C   UNL     1      -1.063  20.187  49.469  1.00  0.00     0.120 C 
ATOM     30  C   UNL     1      -2.281  18.590  47.923  1.00  0.00     0.014 C 
ATOM     31  C   UNL     1      -1.625  20.829  47.052  1.00  0.00     0.014 C 
BRANCH  29  32
ATOM     32  O   UNL     1      -2.289  20.715  49.915  1.00  0.00    -0.393 OA
ATOM     33  H   UNL     1      -2.095  21.585  50.351  1.00  0.00     0.210 HD
ENDBRANCH  29  32
ENDBRANCH   8  10
ENDBRANCH   1   8
TORSDOF 6
ENDMDL
MODEL 7
REMARK VINA RESULT:    -6.819      1.583      2.519
REMARK INTER + INTRA:         -10.440
REMARK INTER:                  -8.868
REMARK INTRA:                  -1.571
REMARK UNBOUND:                -1.428
REMARK SMILES C=C(CC[C@@H](C)[C@@H]1CC[C@@]2(C)[C@H]3CC[C@H]4C(C)(C)[C@H](O)CC[C@]45C[C@]35CC[C@]12C)C(C)C
REMARK SMILES IDX 4 1 3 2 2 3 1 4 30 5 31 6 32 7 5 8 6 9 7 10 8 11 28 12 9 13
REMARK SMILES IDX 10 14 27 15 29 16 11 17 12 18 26 19 25 20 13 21 23 22 24 23
REMARK SMILES IDX 14 24 15 25 22 26 16 27 21 28 19 29 17 30 18 31 20 32
REMARK H PARENT 20 33
REMARK Flexibility Score: inf
ROOT
ATOM      1  C   UNL     1       9.236  18.932  44.148  1.00  0.00     0.008 C 
ENDROOT
BRANCH   1   2
ATOM      2  C   UNL     1       8.851  20.422  44.102  1.00  0.00     0.031 C 
BRANCH   2   3
ATOM      3  C   UNL     1       9.985  21.327  44.544  1.00  0.00    -0.075 C 
ATOM      4  C   UNL     1      11.089  21.419  43.777  1.00  0.00     0.008 C 
BRANCH   3   5
ATOM      5  C   UNL     1       9.831  22.180  45.797  1.00  0.00     0.008 C 
ATOM      6  C   UNL     1      10.429  21.469  47.017  1.00  0.00     0.012 C 
ATOM      7  C   UNL     1       8.368  22.568  46.052  1.00  0.00     0.012 C 
ENDBRANCH   3   5
ENDBRANCH   2   3
ENDBRANCH   1   2
BRANCH   1   8
ATOM      8  C   UNL     1       8.180  18.056  44.865  1.00  0.00    -0.010 C 
ATOM      9  C   UNL     1       8.870  16.953  45.695  1.00  0.00     0.008 C 
BRANCH   8  10
ATOM     10  C   UNL     1       7.080  18.798  45.704  1.00  0.00    -0.002 C 
ATOM     11  C   UNL     1       7.495  19.185  47.140  1.00  0.00     0.005 C 
ATOM     12  C   UNL     1       5.581  18.295  45.805  1.00  0.00    -0.024 C 
ATOM     13  C   UNL     1       6.192  19.245  47.956  1.00  0.00     0.008 C 
ATOM     14  C   UNL     1       5.329  18.127  47.355  1.00  0.00    -0.024 C 
ATOM     15  C   UNL     1       5.148  16.981  45.113  1.00  0.00     0.008 C 
ATOM     16  C   UNL     1       4.736  19.435  45.132  1.00  0.00     0.012 C 
ATOM     17  C   UNL     1       5.886  16.791  47.978  1.00  0.00     0.012 C 
ATOM     18  C   UNL     1       3.802  18.104  47.699  1.00  0.00     0.002 C 
ATOM     19  C   UNL     1       3.641  16.689  45.345  1.00  0.00     0.008 C 
ATOM     20  C   UNL     1       3.054  17.077  46.762  1.00  0.00    -0.020 C 
ATOM     21  C   UNL     1       3.082  19.484  47.848  1.00  0.00     0.005 C 
ATOM     22  C   UNL     1       1.517  17.033  46.974  1.00  0.00    -0.020 C 
ATOM     23  C   UNL     1       2.383  15.882  47.473  1.00  0.00     0.015 C 
ATOM     24  C   UNL     1       1.546  19.425  47.675  1.00  0.00     0.005 C 
ATOM     25  C   UNL     1       0.988  18.033  48.045  1.00  0.00     0.004 C 
ATOM     26  C   UNL     1       0.694  16.850  45.679  1.00  0.00     0.010 C 
ATOM     27  C   UNL     1      -0.572  17.932  48.224  1.00  0.00    -0.006 C 
ATOM     28  C   UNL     1      -0.802  16.752  45.954  1.00  0.00     0.033 C 
ATOM     29  C   UNL     1      -1.291  17.908  46.838  1.00  0.00     0.120 C 
ATOM     30  C   UNL     1      -1.117  19.121  49.057  1.00  0.00     0.014 C 
ATOM     31  C   UNL     1      -0.889  16.641  49.029  1.00  0.00     0.014 C 
BRANCH  29  32
ATOM     32  O   UNL     1      -2.684  17.783  46.998  1.00  0.00    -0.393 OA
ATOM     33  H   UNL     1      -3.052  18.698  47.107  1.00  0.00     0.210 HD
ENDBRANCH  29  32
ENDBRANCH   8  10
ENDBRANCH   1   8
TORSDOF 6
ENDMDL
MODEL 8
REMARK VINA RESULT:    -6.734      5.524      8.337
REMARK INTER + INTRA:         -10.328
REMARK INTER:                  -8.731
REMARK INTRA:                  -1.597
REMARK UNBOUND:                -1.428
REMARK SMILES C=C(CC[C@@H](C)[C@@H]1CC[C@@]2(C)[C@H]3CC[C@H]4C(C)(C)[C@H](O)CC[C@]45C[C@]35CC[C@]12C)C(C)C
REMARK SMILES IDX 4 1 3 2 2 3 1 4 30 5 31 6 32 7 5 8 6 9 7 10 8 11 28 12 9 13
REMARK SMILES IDX 10 14 27 15 29 16 11 17 12 18 26 19 25 20 13 21 23 22 24 23
REMARK SMILES IDX 14 24 15 25 22 26 16 27 21 28 19 29 17 30 18 31 20 32
REMARK H PARENT 20 33
REMARK Flexibility Score: inf
ROOT
ATOM      1  C   UNL     1       1.227  17.866  47.757  1.00  0.00     0.008 C 
ENDROOT
BRANCH   1   2
ATOM      2  C   UNL     1       2.207  16.949  47.002  1.00  0.00     0.031 C 
BRANCH   2   3
ATOM      3  C   UNL     1       3.579  17.576  46.840  1.00  0.00    -0.075 C 
ATOM      4  C   UNL     1       4.205  17.489  45.651  1.00  0.00     0.008 C 
BRANCH   3   5
ATOM      5  C   UNL     1       4.191  18.366  47.990  1.00  0.00     0.008 C 
ATOM      6  C   UNL     1       4.962  19.583  47.466  1.00  0.00     0.012 C 
ATOM      7  C   UNL     1       5.089  17.490  48.875  1.00  0.00     0.012 C 
ENDBRANCH   3   5
ENDBRANCH   2   3
ENDBRANCH   1   2
BRANCH   1   8
ATOM      8  C   UNL     1       0.240  18.601  46.819  1.00  0.00    -0.010 C 
ATOM      9  C   UNL     1      -1.195  18.073  47.028  1.00  0.00     0.008 C 
BRANCH   8  10
ATOM     10  C   UNL     1       0.277  20.171  46.826  1.00  0.00    -0.002 C 
ATOM     11  C   UNL     1       1.599  20.803  46.341  1.00  0.00     0.005 C 
ATOM     12  C   UNL     1      -0.194  21.043  48.064  1.00  0.00    -0.024 C 
ATOM     13  C   UNL     1       1.691  22.176  47.030  1.00  0.00     0.008 C 
ATOM     14  C   UNL     1       1.060  21.939  48.409  1.00  0.00    -0.024 C 
ATOM     15  C   UNL     1      -0.659  20.359  49.371  1.00  0.00     0.008 C 
ATOM     16  C   UNL     1      -1.435  21.846  47.532  1.00  0.00     0.012 C 
ATOM     17  C   UNL     1       2.176  21.219  49.260  1.00  0.00     0.012 C 
ATOM     18  C   UNL     1       0.667  23.186  49.269  1.00  0.00     0.002 C 
ATOM     19  C   UNL     1      -1.073  21.407  50.440  1.00  0.00     0.008 C 
ATOM     20  C   UNL     1      -0.221  22.739  50.494  1.00  0.00    -0.020 C 
ATOM     21  C   UNL     1       0.128  24.439  48.504  1.00  0.00     0.005 C 
ATOM     22  C   UNL     1      -0.727  23.917  51.370  1.00  0.00    -0.020 C 
ATOM     23  C   UNL     1       0.377  23.004  51.893  1.00  0.00     0.015 C 
ATOM     24  C   UNL     1      -0.702  25.411  49.375  1.00  0.00     0.005 C 
ATOM     25  C   UNL     1      -0.296  25.324  50.863  1.00  0.00     0.004 C 
ATOM     26  C   UNL     1      -2.164  23.745  51.911  1.00  0.00     0.010 C 
ATOM     27  C   UNL     1      -0.827  26.474  51.798  1.00  0.00    -0.006 C 
ATOM     28  C   UNL     1      -2.583  24.900  52.814  1.00  0.00     0.033 C 
ATOM     29  C   UNL     1      -2.334  26.259  52.145  1.00  0.00     0.120 C 
ATOM     30  C   UNL     1      -0.653  27.862  51.130  1.00  0.00     0.014 C 
ATOM     31  C   UNL     1       0.037  26.490  53.090  1.00  0.00     0.014 C 
BRANCH  29  32
ATOM     32  O   UNL     1      -2.798  27.268  53.009  1.00  0.00    -0.393 OA
ATOM     33  H   UNL     1      -2.812  26.888  53.926  1.00  0.00     0.210 HD
ENDBRANCH  29  32
ENDBRANCH   8  10
ENDBRANCH   1   8
TORSDOF 6
ENDMDL
MODEL 9
REMARK VINA RESULT:    -6.707      4.529      7.839
REMARK INTER + INTRA:         -10.291
REMARK INTER:                  -8.541
REMARK INTRA:                  -1.750
REMARK UNBOUND:                -1.428
REMARK SMILES C=C(CC[C@@H](C)[C@@H]1CC[C@@]2(C)[C@H]3CC[C@H]4C(C)(C)[C@H](O)CC[C@]45C[C@]35CC[C@]12C)C(C)C
REMARK SMILES IDX 4 1 3 2 2 3 1 4 30 5 31 6 32 7 5 8 6 9 7 10 8 11 28 12 9 13
REMARK SMILES IDX 10 14 27 15 29 16 11 17 12 18 26 19 25 20 13 21 23 22 24 23
REMARK SMILES IDX 14 24 15 25 22 26 16 27 21 28 19 29 17 30 18 31 20 32
REMARK H PARENT 20 33
REMARK Flexibility Score: inf
ROOT
ATOM      1  C   UNL     1       1.098  16.437  45.559  1.00  0.00     0.008 C 
ENDROOT
BRANCH   1   2
ATOM      2  C   UNL     1       2.023  15.905  46.670  1.00  0.00     0.031 C 
BRANCH   2   3
ATOM      3  C   UNL     1       3.293  16.724  46.807  1.00  0.00    -0.075 C 
ATOM      4  C   UNL     1       3.928  16.757  47.995  1.00  0.00     0.008 C 
BRANCH   3   5
ATOM      5  C   UNL     1       3.878  17.425  45.588  1.00  0.00     0.008 C 
ATOM      6  C   UNL     1       5.077  16.646  45.035  1.00  0.00     0.012 C 
ATOM      7  C   UNL     1       4.263  18.880  45.891  1.00  0.00     0.012 C 
ENDBRANCH   3   5
ENDBRANCH   2   3
ENDBRANCH   1   2
BRANCH   1   8
ATOM      8  C   UNL     1      -0.126  17.209  46.107  1.00  0.00    -0.010 C 
ATOM      9  C   UNL     1      -1.395  16.335  46.021  1.00  0.00     0.008 C 
BRANCH   8  10
ATOM     10  C   UNL     1       0.017  17.869  47.525  1.00  0.00    -0.002 C 
ATOM     11  C   UNL     1      -0.953  17.337  48.602  1.00  0.00     0.005 C 
ATOM     12  C   UNL     1       0.097  19.436  47.746  1.00  0.00    -0.024 C 
ATOM     13  C   UNL     1      -1.135  18.483  49.612  1.00  0.00     0.008 C 
ATOM     14  C   UNL     1      -1.086  19.750  48.746  1.00  0.00    -0.024 C 
ATOM     15  C   UNL     1      -0.032  20.403  46.546  1.00  0.00     0.008 C 
ATOM     16  C   UNL     1       1.529  19.678  48.344  1.00  0.00     0.012 C 
ATOM     17  C   UNL     1      -2.510  19.853  48.078  1.00  0.00     0.012 C 
ATOM     18  C   UNL     1      -0.896  21.129  49.460  1.00  0.00     0.002 C 
ATOM     19  C   UNL     1       0.077  21.885  47.000  1.00  0.00     0.008 C 
ATOM     20  C   UNL     1      -0.577  22.249  48.394  1.00  0.00    -0.020 C 
ATOM     21  C   UNL     1       0.026  21.160  50.722  1.00  0.00     0.005 C 
ATOM     22  C   UNL     1      -0.297  23.646  49.011  1.00  0.00    -0.020 C 
ATOM     23  C   UNL     1      -1.613  23.389  48.283  1.00  0.00     0.015 C 
ATOM     24  C   UNL     1       0.584  22.558  51.074  1.00  0.00     0.005 C 
ATOM     25  C   UNL     1      -0.347  23.682  50.567  1.00  0.00     0.004 C 
ATOM     26  C   UNL     1       0.811  24.453  48.298  1.00  0.00     0.010 C 
ATOM     27  C   UNL     1      -0.070  25.125  51.131  1.00  0.00    -0.006 C 
ATOM     28  C   UNL     1       0.999  25.838  48.907  1.00  0.00     0.033 C 
ATOM     29  C   UNL     1       1.169  25.768  50.431  1.00  0.00     0.120 C 
ATOM     30  C   UNL     1       0.174  25.089  52.661  1.00  0.00     0.014 C 
ATOM     31  C   UNL     1      -1.340  25.992  50.902  1.00  0.00     0.014 C 
BRANCH  29  32
ATOM     32  O   UNL     1       1.396  27.071  50.911  1.00  0.00    -0.393 OA
ATOM     33  H   UNL     1       2.260  27.379  50.532  1.00  0.00     0.210 HD
ENDBRANCH  29  32
ENDBRANCH   8  10
ENDBRANCH   1   8
TORSDOF 6
ENDMDL
