MODEL 1
REMARK VINA RESULT:    -6.057      0.000      0.000
REMARK INTER + INTRA:          -7.183
REMARK INTER:                  -6.942
REMARK INTRA:                  -0.241
REMARK UNBOUND:                -0.241
REMARK SMILES O=c1c(-c2ccc(O)cc2)coc2c(O)c(O)ccc12
REMARK SMILES IDX 3 1 11 2 12 3 13 4 20 5 2 6 1 7 19 8 18 9 16 10 14 11 4 12
REMARK SMILES IDX 5 13 6 14 7 15 10 16 9 17 8 18 15 20 17 22
REMARK H PARENT 8 19 15 21 17 23
REMARK Flexibility Score: inf
ROOT
ATOM      1  C   UNL     1     -28.562 -24.220  -2.663  1.00  0.00     0.065 A 
ATOM      2  C   UNL     1     -28.066 -24.362  -3.968  1.00  0.00     0.208 A 
ATOM      3  O   UNL     1     -27.791 -23.297  -4.713  1.00  0.00    -0.459 OA
ATOM      4  C   UNL     1     -27.965 -22.053  -4.284  1.00  0.00     0.183 A 
ATOM      5  C   UNL     1     -28.466 -21.813  -2.984  1.00  0.00     0.069 A 
ATOM      6  C   UNL     1     -28.773 -22.917  -2.170  1.00  0.00     0.200 A 
ATOM      7  O   UNL     1     -29.251 -22.744  -1.014  1.00  0.00    -0.288 OA
ATOM      8  C   UNL     1     -28.648 -20.489  -2.546  1.00  0.00     0.020 A 
ATOM      9  C   UNL     1     -28.333 -19.422  -3.390  1.00  0.00     0.051 A 
ATOM     10  C   UNL     1     -27.834 -19.658  -4.678  1.00  0.00     0.161 A 
ATOM     11  C   UNL     1     -27.650 -20.977  -5.127  1.00  0.00     0.201 A 
ENDROOT
BRANCH   1  12
ATOM     12  C   UNL     1     -28.855 -25.425  -1.846  1.00  0.00    -0.011 A 
ATOM     13  C   UNL     1     -27.819 -26.126  -1.205  1.00  0.00     0.013 A 
ATOM     14  C   UNL     1     -28.100 -27.266  -0.445  1.00  0.00     0.047 A 
ATOM     15  C   UNL     1     -29.419 -27.721  -0.322  1.00  0.00     0.115 A 
ATOM     16  C   UNL     1     -30.175 -25.894  -1.723  1.00  0.00     0.013 A 
ATOM     17  C   UNL     1     -30.453 -27.033  -0.962  1.00  0.00     0.047 A 
BRANCH  15  18
ATOM     18  O   UNL     1     -29.711 -28.856   0.433  1.00  0.00    -0.508 OA
ATOM     19  H   UNL     1     -30.665 -29.109   0.661  1.00  0.00     0.293 HD
ENDBRANCH  15  18
ENDBRANCH   1  12
BRANCH  11  20
ATOM     20  O   UNL     1     -27.156 -21.235  -6.406  1.00  0.00    -0.502 OA
ATOM     21  H   UNL     1     -26.259 -21.680  -6.558  1.00  0.00     0.293 HD
ENDBRANCH  11  20
BRANCH  10  22
ATOM     22  O   UNL     1     -27.523 -18.586  -5.514  1.00  0.00    -0.504 OA
ATOM     23  H   UNL     1     -28.236 -17.947  -5.845  1.00  0.00     0.293 HD
ENDBRANCH  10  22
TORSDOF 4
ENDMDL
MODEL 2
REMARK VINA RESULT:    -6.038      1.216      2.228
REMARK INTER + INTRA:          -7.161
REMARK INTER:                  -6.902
REMARK INTRA:                  -0.259
REMARK UNBOUND:                -0.241
REMARK SMILES O=c1c(-c2ccc(O)cc2)coc2c(O)c(O)ccc12
REMARK SMILES IDX 3 1 11 2 12 3 13 4 20 5 2 6 1 7 19 8 18 9 16 10 14 11 4 12
REMARK SMILES IDX 5 13 6 14 7 15 10 16 9 17 8 18 15 20 17 22
REMARK H PARENT 8 19 15 21 17 23
REMARK Flexibility Score: inf
ROOT
ATOM      1  C   UNL     1     -28.927 -24.517  -2.149  1.00  0.00     0.065 A 
ATOM      2  C   UNL     1     -29.194 -23.265  -1.573  1.00  0.00     0.208 A 
ATOM      3  O   UNL     1     -28.877 -22.141  -2.206  1.00  0.00    -0.459 OA
ATOM      4  C   UNL     1     -28.295 -22.126  -3.400  1.00  0.00     0.183 A 
ATOM      5  C   UNL     1     -27.984 -23.339  -4.055  1.00  0.00     0.069 A 
ATOM      6  C   UNL     1     -28.301 -24.548  -3.411  1.00  0.00     0.200 A 
ATOM      7  O   UNL     1     -28.011 -25.652  -3.950  1.00  0.00    -0.288 OA
ATOM      8  C   UNL     1     -27.365 -23.306  -5.317  1.00  0.00     0.020 A 
ATOM      9  C   UNL     1     -27.065 -22.081  -5.918  1.00  0.00     0.051 A 
ATOM     10  C   UNL     1     -27.374 -20.877  -5.271  1.00  0.00     0.161 A 
ATOM     11  C   UNL     1     -27.991 -20.899  -4.008  1.00  0.00     0.201 A 
ENDROOT
BRANCH   1  12
ATOM     12  C   UNL     1     -29.298 -25.759  -1.426  1.00  0.00    -0.011 A 
ATOM     13  C   UNL     1     -28.344 -26.458  -0.665  1.00  0.00     0.013 A 
ATOM     14  C   UNL     1     -28.697 -27.633   0.006  1.00  0.00     0.047 A 
ATOM     15  C   UNL     1     -30.005 -28.127  -0.080  1.00  0.00     0.115 A 
ATOM     16  C   UNL     1     -30.607 -26.266  -1.513  1.00  0.00     0.013 A 
ATOM     17  C   UNL     1     -30.956 -27.441  -0.841  1.00  0.00     0.047 A 
BRANCH  15  18
ATOM     18  O   UNL     1     -30.368 -29.297   0.584  1.00  0.00    -0.508 OA
ATOM     19  H   UNL     1     -30.563 -30.153   0.079  1.00  0.00     0.293 HD
ENDBRANCH  15  18
ENDBRANCH   1  12
BRANCH  11  20
ATOM     20  O   UNL     1     -28.308 -19.712  -3.347  1.00  0.00    -0.502 OA
ATOM     21  H   UNL     1     -29.264 -19.446  -3.145  1.00  0.00     0.293 HD
ENDBRANCH  11  20
BRANCH  10  22
ATOM     22  O   UNL     1     -27.070 -19.660  -5.879  1.00  0.00    -0.504 OA
ATOM     23  H   UNL     1     -27.435 -19.417  -6.793  1.00  0.00     0.293 HD
ENDBRANCH  10  22
TORSDOF 4
ENDMDL
MODEL 3
REMARK VINA RESULT:    -6.028      0.092      1.086
REMARK INTER + INTRA:          -7.150
REMARK INTER:                  -6.898
REMARK INTRA:                  -0.252
REMARK UNBOUND:                -0.241
REMARK SMILES O=c1c(-c2ccc(O)cc2)coc2c(O)c(O)ccc12
REMARK SMILES IDX 3 1 11 2 12 3 13 4 20 5 2 6 1 7 19 8 18 9 16 10 14 11 4 12
REMARK SMILES IDX 5 13 6 14 7 15 10 16 9 17 8 18 15 20 17 22
REMARK H PARENT 8 19 15 21 17 23
REMARK Flexibility Score: inf
ROOT
ATOM      1  C   UNL     1     -28.535 -24.149  -2.674  1.00  0.00     0.065 A 
ATOM      2  C   UNL     1     -28.023 -24.289  -3.973  1.00  0.00     0.208 A 
ATOM      3  O   UNL     1     -27.749 -23.222  -4.717  1.00  0.00    -0.459 OA
ATOM      4  C   UNL     1     -27.938 -21.979  -4.290  1.00  0.00     0.183 A 
ATOM      5  C   UNL     1     -28.455 -21.741  -2.996  1.00  0.00     0.069 A 
ATOM      6  C   UNL     1     -28.761 -22.847  -2.185  1.00  0.00     0.200 A 
ATOM      7  O   UNL     1     -29.253 -22.676  -1.034  1.00  0.00    -0.288 OA
ATOM      8  C   UNL     1     -28.652 -20.418  -2.562  1.00  0.00     0.020 A 
ATOM      9  C   UNL     1     -28.336 -19.350  -3.404  1.00  0.00     0.051 A 
ATOM     10  C   UNL     1     -27.822 -19.583  -4.687  1.00  0.00     0.161 A 
ATOM     11  C   UNL     1     -27.622 -20.901  -5.132  1.00  0.00     0.201 A 
ENDROOT
BRANCH   1  12
ATOM     12  C   UNL     1     -28.827 -25.355  -1.859  1.00  0.00    -0.011 A 
ATOM     13  C   UNL     1     -30.138 -25.856  -1.763  1.00  0.00     0.013 A 
ATOM     14  C   UNL     1     -30.409 -26.986  -0.986  1.00  0.00     0.047 A 
ATOM     15  C   UNL     1     -29.374 -27.627  -0.292  1.00  0.00     0.115 A 
ATOM     16  C   UNL     1     -27.797 -26.000  -1.152  1.00  0.00     0.013 A 
ATOM     17  C   UNL     1     -28.071 -27.130  -0.377  1.00  0.00     0.047 A 
BRANCH  15  18
ATOM     18  O   UNL     1     -29.633 -28.754   0.485  1.00  0.00    -0.508 OA
ATOM     19  H   UNL     1     -30.015 -29.600   0.080  1.00  0.00     0.293 HD
ENDBRANCH  15  18
ENDBRANCH   1  12
BRANCH  11  20
ATOM     20  O   UNL     1     -27.112 -21.157  -6.405  1.00  0.00    -0.502 OA
ATOM     21  H   UNL     1     -26.616 -22.011  -6.625  1.00  0.00     0.293 HD
ENDBRANCH  11  20
BRANCH  10  22
ATOM     22  O   UNL     1     -27.510 -18.510  -5.520  1.00  0.00    -0.504 OA
ATOM     23  H   UNL     1     -26.591 -18.084  -5.516  1.00  0.00     0.293 HD
ENDBRANCH  10  22
TORSDOF 4
ENDMDL
MODEL 4
REMARK VINA RESULT:    -5.511     10.269     11.331
REMARK INTER + INTRA:          -6.558
REMARK INTER:                  -6.606
REMARK INTRA:                   0.048
REMARK UNBOUND:                -0.241
REMARK SMILES O=c1c(-c2ccc(O)cc2)coc2c(O)c(O)ccc12
REMARK SMILES IDX 3 1 11 2 12 3 13 4 20 5 2 6 1 7 19 8 18 9 16 10 14 11 4 12
REMARK SMILES IDX 5 13 6 14 7 15 10 16 9 17 8 18 15 20 17 22
REMARK H PARENT 8 19 15 21 17 23
REMARK Flexibility Score: inf
ROOT
ATOM      1  C   UNL     1     -30.605 -33.662  -3.303  1.00  0.00     0.065 A 
ATOM      2  C   UNL     1     -31.531 -33.032  -4.151  1.00  0.00     0.208 A 
ATOM      3  O   UNL     1     -32.574 -32.377  -3.654  1.00  0.00    -0.459 OA
ATOM      4  C   UNL     1     -32.809 -32.277  -2.351  1.00  0.00     0.183 A 
ATOM      5  C   UNL     1     -31.933 -32.884  -1.422  1.00  0.00     0.069 A 
ATOM      6  C   UNL     1     -30.821 -33.590  -1.913  1.00  0.00     0.200 A 
ATOM      7  O   UNL     1     -30.033 -34.171  -1.116  1.00  0.00    -0.288 OA
ATOM      8  C   UNL     1     -32.198 -32.772  -0.045  1.00  0.00     0.020 A 
ATOM      9  C   UNL     1     -33.317 -32.063   0.397  1.00  0.00     0.051 A 
ATOM     10  C   UNL     1     -34.185 -31.459  -0.522  1.00  0.00     0.161 A 
ATOM     11  C   UNL     1     -33.931 -31.566  -1.900  1.00  0.00     0.201 A 
ENDROOT
BRANCH   1  12
ATOM     12  C   UNL     1     -29.443 -34.382  -3.881  1.00  0.00    -0.011 A 
ATOM     13  C   UNL     1     -29.173 -35.714  -3.521  1.00  0.00     0.013 A 
ATOM     14  C   UNL     1     -28.071 -36.384  -4.061  1.00  0.00     0.047 A 
ATOM     15  C   UNL     1     -27.222 -35.729  -4.963  1.00  0.00     0.115 A 
ATOM     16  C   UNL     1     -28.581 -33.730  -4.781  1.00  0.00     0.013 A 
ATOM     17  C   UNL     1     -27.480 -34.403  -5.320  1.00  0.00     0.047 A 
BRANCH  15  18
ATOM     18  O   UNL     1     -26.121 -36.387  -5.507  1.00  0.00    -0.508 OA
ATOM     19  H   UNL     1     -25.253 -36.481  -4.993  1.00  0.00     0.293 HD
ENDBRANCH  15  18
ENDBRANCH   1  12
BRANCH  11  20
ATOM     20  O   UNL     1     -34.783 -30.974  -2.832  1.00  0.00    -0.502 OA
ATOM     21  H   UNL     1     -34.535 -30.887  -3.810  1.00  0.00     0.293 HD
ENDBRANCH  11  20
BRANCH  10  22
ATOM     22  O   UNL     1     -35.300 -30.753  -0.070  1.00  0.00    -0.504 OA
ATOM     23  H   UNL     1     -35.256 -29.760   0.124  1.00  0.00     0.293 HD
ENDBRANCH  10  22
TORSDOF 4
ENDMDL
MODEL 5
REMARK VINA RESULT:    -5.417     10.111     11.497
REMARK INTER + INTRA:          -6.449
REMARK INTER:                  -6.261
REMARK INTRA:                  -0.189
REMARK UNBOUND:                -0.241
REMARK SMILES O=c1c(-c2ccc(O)cc2)coc2c(O)c(O)ccc12
REMARK SMILES IDX 3 1 11 2 12 3 13 4 20 5 2 6 1 7 19 8 18 9 16 10 14 11 4 12
REMARK SMILES IDX 5 13 6 14 7 15 10 16 9 17 8 18 15 20 17 22
REMARK H PARENT 8 19 15 21 17 23
REMARK Flexibility Score: inf
ROOT
ATOM      1  C   UNL     1     -30.351 -33.973  -2.493  1.00  0.00     0.065 A 
ATOM      2  C   UNL     1     -30.464 -34.108  -1.101  1.00  0.00     0.208 A 
ATOM      3  O   UNL     1     -31.436 -33.497  -0.433  1.00  0.00    -0.459 OA
ATOM      4  C   UNL     1     -32.347 -32.733  -1.025  1.00  0.00     0.183 A 
ATOM      5  C   UNL     1     -32.309 -32.536  -2.425  1.00  0.00     0.069 A 
ATOM      6  C   UNL     1     -31.290 -33.163  -3.161  1.00  0.00     0.200 A 
ATOM      7  O   UNL     1     -31.204 -32.986  -4.409  1.00  0.00    -0.288 OA
ATOM      8  C   UNL     1     -33.279 -31.720  -3.035  1.00  0.00     0.020 A 
ATOM      9  C   UNL     1     -34.272 -31.114  -2.263  1.00  0.00     0.051 A 
ATOM     10  C   UNL     1     -34.312 -31.310  -0.876  1.00  0.00     0.161 A 
ATOM     11  C   UNL     1     -33.347 -32.121  -0.255  1.00  0.00     0.201 A 
ENDROOT
BRANCH   1  12
ATOM     12  C   UNL     1     -29.260 -34.671  -3.219  1.00  0.00    -0.011 A 
ATOM     13  C   UNL     1     -29.293 -36.066  -3.397  1.00  0.00     0.013 A 
ATOM     14  C   UNL     1     -28.258 -36.719  -4.072  1.00  0.00     0.047 A 
ATOM     15  C   UNL     1     -27.174 -35.987  -4.574  1.00  0.00     0.115 A 
ATOM     16  C   UNL     1     -28.164 -33.946  -3.719  1.00  0.00     0.013 A 
ATOM     17  C   UNL     1     -27.130 -34.602  -4.395  1.00  0.00     0.047 A 
BRANCH  15  18
ATOM     18  O   UNL     1     -26.137 -36.627  -5.249  1.00  0.00    -0.508 OA
ATOM     19  H   UNL     1     -25.500 -37.252  -4.769  1.00  0.00     0.293 HD
ENDBRANCH  15  18
ENDBRANCH   1  12
BRANCH  11  20
ATOM     20  O   UNL     1     -33.368 -32.329   1.125  1.00  0.00    -0.502 OA
ATOM     21  H   UNL     1     -33.891 -33.086   1.548  1.00  0.00     0.293 HD
ENDBRANCH  11  20
BRANCH  10  22
ATOM     22  O   UNL     1     -35.308 -30.700  -0.113  1.00  0.00    -0.504 OA
ATOM     23  H   UNL     1     -35.459 -30.947   0.857  1.00  0.00     0.293 HD
ENDBRANCH  10  22
TORSDOF 4
ENDMDL
MODEL 6
REMARK VINA RESULT:    -5.404      1.467      6.891
REMARK INTER + INTRA:          -6.434
REMARK INTER:                  -6.983
REMARK INTRA:                   0.549
REMARK UNBOUND:                -0.241
REMARK SMILES O=c1c(-c2ccc(O)cc2)coc2c(O)c(O)ccc12
REMARK SMILES IDX 3 1 11 2 12 3 13 4 20 5 2 6 1 7 19 8 18 9 16 10 14 11 4 12
REMARK SMILES IDX 5 13 6 14 7 15 10 16 9 17 8 18 15 20 17 22
REMARK H PARENT 8 19 15 21 17 23
REMARK Flexibility Score: inf
ROOT
ATOM      1  C   UNL     1     -28.612 -22.666  -3.047  1.00  0.00     0.065 A 
ATOM      2  C   UNL     1     -28.042 -23.881  -3.457  1.00  0.00     0.208 A 
ATOM      3  O   UNL     1     -28.286 -25.007  -2.796  1.00  0.00    -0.459 OA
ATOM      4  C   UNL     1     -29.068 -25.057  -1.723  1.00  0.00     0.183 A 
ATOM      5  C   UNL     1     -29.682 -23.881  -1.235  1.00  0.00     0.069 A 
ATOM      6  C   UNL     1     -29.440 -22.671  -1.908  1.00  0.00     0.200 A 
ATOM      7  O   UNL     1     -29.946 -21.594  -1.484  1.00  0.00    -0.288 OA
ATOM      8  C   UNL     1     -30.504 -23.951  -0.096  1.00  0.00     0.020 A 
ATOM      9  C   UNL     1     -30.714 -25.176   0.543  1.00  0.00     0.051 A 
ATOM     10  C   UNL     1     -30.108 -26.343   0.059  1.00  0.00     0.161 A 
ATOM     11  C   UNL     1     -29.282 -26.284  -1.077  1.00  0.00     0.201 A 
ENDROOT
BRANCH   1  12
ATOM     12  C   UNL     1     -28.330 -21.422  -3.807  1.00  0.00    -0.011 A 
ATOM     13  C   UNL     1     -28.863 -20.190  -3.389  1.00  0.00     0.013 A 
ATOM     14  C   UNL     1     -28.602 -19.023  -4.114  1.00  0.00     0.047 A 
ATOM     15  C   UNL     1     -27.809 -19.074  -5.268  1.00  0.00     0.115 A 
ATOM     16  C   UNL     1     -27.541 -21.465  -4.970  1.00  0.00     0.013 A 
ATOM     17  C   UNL     1     -27.282 -20.296  -5.693  1.00  0.00     0.047 A 
BRANCH  15  18
ATOM     18  O   UNL     1     -27.543 -17.918  -5.998  1.00  0.00    -0.508 OA
ATOM     19  H   UNL     1     -26.895 -17.216  -5.660  1.00  0.00     0.293 HD
ENDBRANCH  15  18
ENDBRANCH   1  12
BRANCH  11  20
ATOM     20  O   UNL     1     -28.669 -27.433  -1.576  1.00  0.00    -0.502 OA
ATOM     21  H   UNL     1     -28.630 -27.637  -2.567  1.00  0.00     0.293 HD
ENDBRANCH  11  20
BRANCH  10  22
ATOM     22  O   UNL     1     -30.323 -27.560   0.704  1.00  0.00    -0.504 OA
ATOM     23  H   UNL     1     -31.225 -27.800   1.096  1.00  0.00     0.293 HD
ENDBRANCH  10  22
TORSDOF 4
ENDMDL
MODEL 7
REMARK VINA RESULT:    -5.296      2.427      7.223
REMARK INTER + INTRA:          -6.311
REMARK INTER:                  -6.030
REMARK INTRA:                  -0.281
REMARK UNBOUND:                -0.241
REMARK SMILES O=c1c(-c2ccc(O)cc2)coc2c(O)c(O)ccc12
REMARK SMILES IDX 3 1 11 2 12 3 13 4 20 5 2 6 1 7 19 8 18 9 16 10 14 11 4 12
REMARK SMILES IDX 5 13 6 14 7 15 10 16 9 17 8 18 15 20 17 22
REMARK H PARENT 8 19 15 21 17 23
REMARK Flexibility Score: inf
ROOT
ATOM      1  C   UNL     1     -29.652 -23.011  -1.259  1.00  0.00     0.065 A 
ATOM      2  C   UNL     1     -29.105 -24.153  -1.865  1.00  0.00     0.208 A 
ATOM      3  O   UNL     1     -29.571 -25.365  -1.582  1.00  0.00    -0.459 OA
ATOM      4  C   UNL     1     -30.563 -25.573  -0.724  1.00  0.00     0.183 A 
ATOM      5  C   UNL     1     -31.172 -24.483  -0.062  1.00  0.00     0.069 A 
ATOM      6  C   UNL     1     -30.700 -23.187  -0.333  1.00  0.00     0.200 A 
ATOM      7  O   UNL     1     -31.198 -22.190   0.261  1.00  0.00    -0.288 OA
ATOM      8  C   UNL     1     -32.218 -24.722   0.846  1.00  0.00     0.020 A 
ATOM      9  C   UNL     1     -32.653 -26.027   1.088  1.00  0.00     0.051 A 
ATOM     10  C   UNL     1     -32.052 -27.109   0.431  1.00  0.00     0.161 A 
ATOM     11  C   UNL     1     -31.003 -26.882  -0.478  1.00  0.00     0.201 A 
ENDROOT
BRANCH   1  12
ATOM     12  C   UNL     1     -29.120 -21.667  -1.596  1.00  0.00    -0.011 A 
ATOM     13  C   UNL     1     -29.725 -20.886  -2.597  1.00  0.00     0.013 A 
ATOM     14  C   UNL     1     -29.213 -19.625  -2.917  1.00  0.00     0.047 A 
ATOM     15  C   UNL     1     -28.089 -19.131  -2.244  1.00  0.00     0.115 A 
ATOM     16  C   UNL     1     -27.987 -21.166  -0.931  1.00  0.00     0.013 A 
ATOM     17  C   UNL     1     -27.478 -19.904  -1.253  1.00  0.00     0.047 A 
BRANCH  15  18
ATOM     18  O   UNL     1     -27.570 -17.875  -2.554  1.00  0.00    -0.508 OA
ATOM     19  H   UNL     1     -26.816 -17.466  -2.016  1.00  0.00     0.293 HD
ENDBRANCH  15  18
ENDBRANCH   1  12
BRANCH  11  20
ATOM     20  O   UNL     1     -30.391 -27.945  -1.142  1.00  0.00    -0.502 OA
ATOM     21  H   UNL     1     -29.972 -28.722  -0.646  1.00  0.00     0.293 HD
ENDBRANCH  11  20
BRANCH  10  22
ATOM     22  O   UNL     1     -32.492 -28.409   0.679  1.00  0.00    -0.504 OA
ATOM     23  H   UNL     1     -32.538 -29.103  -0.057  1.00  0.00     0.293 HD
ENDBRANCH  10  22
TORSDOF 4
ENDMDL
MODEL 8
REMARK VINA RESULT:    -5.266     10.339     11.908
REMARK INTER + INTRA:          -6.276
REMARK INTER:                  -6.056
REMARK INTRA:                  -0.221
REMARK UNBOUND:                -0.241
REMARK SMILES O=c1c(-c2ccc(O)cc2)coc2c(O)c(O)ccc12
REMARK SMILES IDX 3 1 11 2 12 3 13 4 20 5 2 6 1 7 19 8 18 9 16 10 14 11 4 12
REMARK SMILES IDX 5 13 6 14 7 15 10 16 9 17 8 18 15 20 17 22
REMARK H PARENT 8 19 15 21 17 23
REMARK Flexibility Score: inf
ROOT
ATOM      1  C   UNL     1     -27.974 -34.820  -3.896  1.00  0.00     0.065 A 
ATOM      2  C   UNL     1     -28.555 -34.431  -5.113  1.00  0.00     0.208 A 
ATOM      3  O   UNL     1     -29.725 -33.803  -5.140  1.00  0.00    -0.459 OA
ATOM      4  C   UNL     1     -30.411 -33.509  -4.042  1.00  0.00     0.183 A 
ATOM      5  C   UNL     1     -29.906 -33.868  -2.771  1.00  0.00     0.069 A 
ATOM      6  C   UNL     1     -28.673 -34.538  -2.705  1.00  0.00     0.200 A 
ATOM      7  O   UNL     1     -28.203 -34.902  -1.591  1.00  0.00    -0.288 OA
ATOM      8  C   UNL     1     -30.647 -33.553  -1.618  1.00  0.00     0.020 A 
ATOM      9  C   UNL     1     -31.871 -32.888  -1.731  1.00  0.00     0.051 A 
ATOM     10  C   UNL     1     -32.372 -32.530  -2.990  1.00  0.00     0.161 A 
ATOM     11  C   UNL     1     -31.641 -32.842  -4.149  1.00  0.00     0.201 A 
ENDROOT
BRANCH   1  12
ATOM     12  C   UNL     1     -26.661 -35.514  -3.890  1.00  0.00    -0.011 A 
ATOM     13  C   UNL     1     -26.584 -36.902  -3.676  1.00  0.00     0.013 A 
ATOM     14  C   UNL     1     -25.345 -37.548  -3.662  1.00  0.00     0.047 A 
ATOM     15  C   UNL     1     -24.167 -36.815  -3.855  1.00  0.00     0.115 A 
ATOM     16  C   UNL     1     -25.473 -34.785  -4.076  1.00  0.00     0.013 A 
ATOM     17  C   UNL     1     -24.235 -35.435  -4.061  1.00  0.00     0.047 A 
BRANCH  15  18
ATOM     18  O   UNL     1     -22.926 -37.449  -3.843  1.00  0.00    -0.508 OA
ATOM     19  H   UNL     1     -22.387 -37.540  -2.990  1.00  0.00     0.293 HD
ENDBRANCH  15  18
ENDBRANCH   1  12
BRANCH  11  20
ATOM     20  O   UNL     1     -32.121 -32.496  -5.412  1.00  0.00    -0.502 OA
ATOM     21  H   UNL     1     -32.538 -31.593  -5.601  1.00  0.00     0.293 HD
ENDBRANCH  11  20
BRANCH  10  22
ATOM     22  O   UNL     1     -33.594 -31.867  -3.092  1.00  0.00    -0.504 OA
ATOM     23  H   UNL     1     -34.174 -31.696  -2.279  1.00  0.00     0.293 HD
ENDBRANCH  10  22
TORSDOF 4
ENDMDL
MODEL 9
REMARK VINA RESULT:    -5.257      9.247     11.020
REMARK INTER + INTRA:          -6.266
REMARK INTER:                  -5.981
REMARK INTRA:                  -0.285
REMARK UNBOUND:                -0.241
REMARK SMILES O=c1c(-c2ccc(O)cc2)coc2c(O)c(O)ccc12
REMARK SMILES IDX 3 1 11 2 12 3 13 4 20 5 2 6 1 7 19 8 18 9 16 10 14 11 4 12
REMARK SMILES IDX 5 13 6 14 7 15 10 16 9 17 8 18 15 20 17 22
REMARK H PARENT 8 19 15 21 17 23
REMARK Flexibility Score: inf
ROOT
ATOM      1  C   UNL     1     -32.215 -32.257  -2.072  1.00  0.00     0.065 A 
ATOM      2  C   UNL     1     -32.289 -32.200  -3.472  1.00  0.00     0.208 A 
ATOM      3  O   UNL     1     -31.420 -32.861  -4.229  1.00  0.00    -0.459 OA
ATOM      4  C   UNL     1     -30.441 -33.602  -3.722  1.00  0.00     0.183 A 
ATOM      5  C   UNL     1     -30.286 -33.715  -2.322  1.00  0.00     0.069 A 
ATOM      6  C   UNL     1     -31.186 -33.024  -1.491  1.00  0.00     0.200 A 
ATOM      7  O   UNL     1     -31.061 -33.075  -0.236  1.00  0.00    -0.288 OA
ATOM      8  C   UNL     1     -29.243 -34.501  -1.802  1.00  0.00     0.020 A 
ATOM      9  C   UNL     1     -28.370 -35.167  -2.666  1.00  0.00     0.051 A 
ATOM     10  C   UNL     1     -28.524 -35.059  -4.054  1.00  0.00     0.161 A 
ATOM     11  C   UNL     1     -29.562 -34.274  -4.585  1.00  0.00     0.201 A 
ENDROOT
BRANCH   1  12
ATOM     12  C   UNL     1     -33.202 -31.516  -1.247  1.00  0.00    -0.011 A 
ATOM     13  C   UNL     1     -34.411 -32.121  -0.859  1.00  0.00     0.013 A 
ATOM     14  C   UNL     1     -35.341 -31.415  -0.090  1.00  0.00     0.047 A 
ATOM     15  C   UNL     1     -35.077 -30.095   0.296  1.00  0.00     0.115 A 
ATOM     16  C   UNL     1     -32.949 -30.188  -0.862  1.00  0.00     0.013 A 
ATOM     17  C   UNL     1     -33.881 -29.485  -0.093  1.00  0.00     0.047 A 
BRANCH  15  18
ATOM     18  O   UNL     1     -35.997 -29.381   1.062  1.00  0.00    -0.508 OA
ATOM     19  H   UNL     1     -36.365 -28.490   0.752  1.00  0.00     0.293 HD
ENDBRANCH  15  18
ENDBRANCH   1  12
BRANCH  11  20
ATOM     20  O   UNL     1     -29.733 -34.152  -5.964  1.00  0.00    -0.502 OA
ATOM     21  H   UNL     1     -28.960 -34.238  -6.613  1.00  0.00     0.293 HD
ENDBRANCH  11  20
BRANCH  10  22
ATOM     22  O   UNL     1     -27.647 -35.728  -4.908  1.00  0.00    -0.504 OA
ATOM     23  H   UNL     1     -27.562 -36.737  -4.896  1.00  0.00     0.293 HD
ENDBRANCH  10  22
TORSDOF 4
ENDMDL
