MODEL 1
REMARK VINA RESULT:    -4.323      0.000      0.000
REMARK INTER + INTRA:          -4.450
REMARK INTER:                  -4.450
REMARK INTRA:                   0.000
REMARK UNBOUND:                 0.000
REMARK SMILES Nc1ncnc2nc[nH]c12
REMARK SMILES IDX 8 1 7 2 6 3 5 4 4 5 3 6 2 7 10 8 9 9 1 11
REMARK H PARENT 9 10 1 12 1 13
REMARK Flexibility Score: inf
ROOT
ATOM      1  C   UNL     1       8.469  42.334  75.746  1.00  0.00     0.199 A 
ATOM      2  N   UNL     1       9.715  42.868  75.857  1.00  0.00    -0.217 NA
ATOM      3  C   UNL     1       9.528  44.124  75.418  1.00  0.00     0.182 A 
ATOM      4  N   UNL     1      10.468  45.094  75.323  1.00  0.00    -0.215 NA
ATOM      5  C   UNL     1      10.085  46.319  74.850  1.00  0.00     0.226 A 
ATOM      6  N   UNL     1       8.782  46.548  74.485  1.00  0.00    -0.217 NA
ATOM      7  C   UNL     1       7.833  45.569  74.581  1.00  0.00     0.152 A 
ATOM      8  C   UNL     1       8.239  44.329  75.064  1.00  0.00     0.127 A 
ATOM      9  N   UNL     1       7.544  43.203  75.263  1.00  0.00    -0.340 N 
ATOM     10  H   UNL     1       6.529  43.022  75.093  1.00  0.00     0.168 HD
ENDROOT
BRANCH   7  11
ATOM     11  N   UNL     1       6.483  45.832  74.196  1.00  0.00    -0.382 N 
ATOM     12  H   UNL     1       5.682  45.348  74.658  1.00  0.00     0.158 HD
ATOM     13  H   UNL     1       6.280  46.519  73.436  1.00  0.00     0.158 HD
ENDBRANCH   7  11
TORSDOF 1
ENDMDL
MODEL 2
REMARK VINA RESULT:    -4.062     14.255     15.607
REMARK INTER + INTRA:          -4.181
REMARK INTER:                  -4.181
REMARK INTRA:                   0.000
REMARK UNBOUND:                 0.000
REMARK SMILES Nc1ncnc2nc[nH]c12
REMARK SMILES IDX 8 1 7 2 6 3 5 4 4 5 3 6 2 7 10 8 9 9 1 11
REMARK H PARENT 9 10 1 12 1 13
REMARK Flexibility Score: inf
ROOT
ATOM      1  C   UNL     1      -6.839  40.514  68.950  1.00  0.00     0.199 A 
ATOM      2  N   UNL     1      -6.485  39.293  68.463  1.00  0.00    -0.217 NA
ATOM      3  C   UNL     1      -5.144  39.368  68.453  1.00  0.00     0.182 A 
ATOM      4  N   UNL     1      -4.284  38.402  68.050  1.00  0.00    -0.215 NA
ATOM      5  C   UNL     1      -2.944  38.664  68.113  1.00  0.00     0.226 A 
ATOM      6  N   UNL     1      -2.492  39.874  68.574  1.00  0.00    -0.217 NA
ATOM      7  C   UNL     1      -3.358  40.851  68.980  1.00  0.00     0.152 A 
ATOM      8  C   UNL     1      -4.719  40.568  68.910  1.00  0.00     0.127 A 
ATOM      9  N   UNL     1      -5.781  41.316  69.233  1.00  0.00    -0.340 N 
ATOM     10  H   UNL     1      -5.805  42.288  69.614  1.00  0.00     0.168 HD
ENDROOT
BRANCH   7  11
ATOM     11  N   UNL     1      -2.864  42.103  69.456  1.00  0.00    -0.382 N 
ATOM     12  H   UNL     1      -2.088  42.152  70.152  1.00  0.00     0.158 HD
ATOM     13  H   UNL     1      -3.281  42.995  69.109  1.00  0.00     0.158 HD
ENDBRANCH   7  11
TORSDOF 1
ENDMDL
MODEL 3
REMARK VINA RESULT:    -3.992      9.166      9.883
REMARK INTER + INTRA:          -4.109
REMARK INTER:                  -4.109
REMARK INTRA:                   0.000
REMARK UNBOUND:                 0.000
REMARK SMILES Nc1ncnc2nc[nH]c12
REMARK SMILES IDX 8 1 7 2 6 3 5 4 4 5 3 6 2 7 10 8 9 9 1 11
REMARK H PARENT 9 10 1 12 1 13
REMARK Flexibility Score: inf
ROOT
ATOM      1  C   UNL     1       0.452  40.934  78.948  1.00  0.00     0.199 A 
ATOM      2  N   UNL     1       1.706  41.053  79.464  1.00  0.00    -0.217 NA
ATOM      3  C   UNL     1       1.581  42.118  80.275  1.00  0.00     0.182 A 
ATOM      4  N   UNL     1       2.553  42.667  81.042  1.00  0.00    -0.215 NA
ATOM      5  C   UNL     1       2.234  43.755  81.806  1.00  0.00     0.226 A 
ATOM      6  N   UNL     1       0.961  44.268  81.790  1.00  0.00    -0.217 NA
ATOM      7  C   UNL     1      -0.021  43.715  81.016  1.00  0.00     0.152 A 
ATOM      8  C   UNL     1       0.320  42.608  80.244  1.00  0.00     0.127 A 
ATOM      9  N   UNL     1      -0.418  41.871  79.406  1.00  0.00    -0.340 N 
ATOM     10  H   UNL     1      -1.426  41.979  79.155  1.00  0.00     0.168 HD
ENDROOT
BRANCH   7  11
ATOM     11  N   UNL     1      -1.338  44.266  81.017  1.00  0.00    -0.382 N 
ATOM     12  H   UNL     1      -2.075  43.912  81.665  1.00  0.00     0.158 HD
ATOM     13  H   UNL     1      -1.581  45.039  80.359  1.00  0.00     0.158 HD
ENDBRANCH   7  11
TORSDOF 1
ENDMDL
MODEL 4
REMARK VINA RESULT:    -3.957      1.124      3.155
REMARK INTER + INTRA:          -4.073
REMARK INTER:                  -4.073
REMARK INTRA:                   0.000
REMARK UNBOUND:                 0.000
REMARK SMILES Nc1ncnc2nc[nH]c12
REMARK SMILES IDX 8 1 7 2 6 3 5 4 4 5 3 6 2 7 10 8 9 9 1 11
REMARK H PARENT 9 10 1 12 1 13
REMARK Flexibility Score: inf
ROOT
ATOM      1  C   UNL     1       6.759  47.242  74.170  1.00  0.00     0.199 A 
ATOM      2  N   UNL     1       8.009  47.756  74.328  1.00  0.00    -0.217 NA
ATOM      3  C   UNL     1       8.716  46.675  74.701  1.00  0.00     0.182 A 
ATOM      4  N   UNL     1      10.039  46.636  74.990  1.00  0.00    -0.215 NA
ATOM      5  C   UNL     1      10.584  45.437  75.354  1.00  0.00     0.226 A 
ATOM      6  N   UNL     1       9.806  44.309  75.421  1.00  0.00    -0.217 NA
ATOM      7  C   UNL     1       8.470  44.347  75.130  1.00  0.00     0.152 A 
ATOM      8  C   UNL     1       7.930  45.576  74.762  1.00  0.00     0.127 A 
ATOM      9  N   UNL     1       6.678  45.912  74.428  1.00  0.00    -0.340 N 
ATOM     10  H   UNL     1       5.831  45.304  74.373  1.00  0.00     0.168 HD
ENDROOT
BRANCH   7  11
ATOM     11  N   UNL     1       7.679  43.161  75.207  1.00  0.00    -0.382 N 
ATOM     12  H   UNL     1       8.054  42.237  74.898  1.00  0.00     0.158 HD
ATOM     13  H   UNL     1       6.705  43.206  75.579  1.00  0.00     0.158 HD
ENDBRANCH   7  11
TORSDOF 1
ENDMDL
MODEL 5
REMARK VINA RESULT:    -3.883     13.218     14.460
REMARK INTER + INTRA:          -3.996
REMARK INTER:                  -3.996
REMARK INTRA:                   0.000
REMARK UNBOUND:                 0.000
REMARK SMILES Nc1ncnc2nc[nH]c12
REMARK SMILES IDX 8 1 7 2 6 3 5 4 4 5 3 6 2 7 10 8 9 9 1 11
REMARK H PARENT 9 10 1 12 1 13
REMARK Flexibility Score: inf
ROOT
ATOM      1  C   UNL     1      -0.730  38.569  68.324  1.00  0.00     0.199 A 
ATOM      2  N   UNL     1      -1.798  37.764  68.072  1.00  0.00    -0.217 NA
ATOM      3  C   UNL     1      -2.836  38.577  68.333  1.00  0.00     0.182 A 
ATOM      4  N   UNL     1      -4.150  38.265  68.238  1.00  0.00    -0.215 NA
ATOM      5  C   UNL     1      -5.067  39.231  68.547  1.00  0.00     0.226 A 
ATOM      6  N   UNL     1      -4.657  40.480  68.941  1.00  0.00    -0.217 NA
ATOM      7  C   UNL     1      -3.331  40.796  69.037  1.00  0.00     0.152 A 
ATOM      8  C   UNL     1      -2.410  39.802  68.719  1.00  0.00     0.127 A 
ATOM      9  N   UNL     1      -1.072  39.822  68.722  1.00  0.00    -0.340 N 
ATOM     10  H   UNL     1      -0.430  40.608  68.968  1.00  0.00     0.168 HD
ENDROOT
BRANCH   7  11
ATOM     11  N   UNL     1      -2.928  42.103  69.449  1.00  0.00    -0.382 N 
ATOM     12  H   UNL     1      -3.218  42.496  70.372  1.00  0.00     0.158 HD
ATOM     13  H   UNL     1      -2.331  42.687  68.823  1.00  0.00     0.158 HD
ENDBRANCH   7  11
TORSDOF 1
ENDMDL
MODEL 6
REMARK VINA RESULT:    -3.836      7.652      9.298
REMARK INTER + INTRA:          -3.948
REMARK INTER:                  -3.948
REMARK INTRA:                   0.000
REMARK UNBOUND:                 0.000
REMARK SMILES Nc1ncnc2nc[nH]c12
REMARK SMILES IDX 8 1 7 2 6 3 5 4 4 5 3 6 2 7 10 8 9 9 1 11
REMARK H PARENT 9 10 1 12 1 13
REMARK Flexibility Score: inf
ROOT
ATOM      1  C   UNL     1       2.314  43.276  81.410  1.00  0.00     0.199 A 
ATOM      2  N   UNL     1       1.032  42.920  81.122  1.00  0.00    -0.217 NA
ATOM      3  C   UNL     1       1.199  42.032  80.127  1.00  0.00     0.182 A 
ATOM      4  N   UNL     1       0.222  41.364  79.469  1.00  0.00    -0.215 NA
ATOM      5  C   UNL     1       0.588  40.496  78.479  1.00  0.00     0.226 A 
ATOM      6  N   UNL     1       1.912  40.312  78.168  1.00  0.00    -0.217 NA
ATOM      7  C   UNL     1       2.899  40.987  78.831  1.00  0.00     0.152 A 
ATOM      8  C   UNL     1       2.509  41.867  79.836  1.00  0.00     0.127 A 
ATOM      9  N   UNL     1       3.240  42.649  80.640  1.00  0.00    -0.340 N 
ATOM     10  H   UNL     1       4.278  42.759  80.678  1.00  0.00     0.168 HD
ENDROOT
BRANCH   7  11
ATOM     11  N   UNL     1       4.270  40.780  78.490  1.00  0.00    -0.382 N 
ATOM     12  H   UNL     1       4.552  40.472  77.533  1.00  0.00     0.158 HD
ATOM     13  H   UNL     1       5.016  40.936  79.204  1.00  0.00     0.158 HD
ENDBRANCH   7  11
TORSDOF 1
ENDMDL
MODEL 7
REMARK VINA RESULT:    -3.828      0.935      2.544
REMARK INTER + INTRA:          -3.940
REMARK INTER:                  -3.940
REMARK INTRA:                   0.000
REMARK UNBOUND:                 0.000
REMARK SMILES Nc1ncnc2nc[nH]c12
REMARK SMILES IDX 8 1 7 2 6 3 5 4 4 5 3 6 2 7 10 8 9 9 1 11
REMARK H PARENT 9 10 1 12 1 13
REMARK Flexibility Score: inf
ROOT
ATOM      1  C   UNL     1       9.097  42.423  75.838  1.00  0.00     0.199 A 
ATOM      2  N   UNL     1       7.994  43.063  75.362  1.00  0.00    -0.217 NA
ATOM      3  C   UNL     1       8.473  44.288  75.083  1.00  0.00     0.182 A 
ATOM      4  N   UNL     1       7.775  45.331  74.575  1.00  0.00    -0.215 NA
ATOM      5  C   UNL     1       8.438  46.506  74.358  1.00  0.00     0.226 A 
ATOM      6  N   UNL     1       9.775  46.616  74.648  1.00  0.00    -0.217 NA
ATOM      7  C   UNL     1      10.481  45.563  75.161  1.00  0.00     0.152 A 
ATOM      8  C   UNL     1       9.791  44.374  75.377  1.00  0.00     0.127 A 
ATOM      9  N   UNL     1      10.211  43.199  75.860  1.00  0.00    -0.340 N 
ATOM     10  H   UNL     1      11.168  42.929  76.180  1.00  0.00     0.168 HD
ENDROOT
BRANCH   7  11
ATOM     11  N   UNL     1      11.871  45.701  75.456  1.00  0.00    -0.382 N 
ATOM     12  H   UNL     1      12.233  46.513  76.003  1.00  0.00     0.158 HD
ATOM     13  H   UNL     1      12.550  44.982  75.121  1.00  0.00     0.158 HD
ENDBRANCH   7  11
TORSDOF 1
ENDMDL
MODEL 8
REMARK VINA RESULT:    -3.787      1.177      3.677
REMARK INTER + INTRA:          -3.898
REMARK INTER:                  -3.898
REMARK INTRA:                   0.000
REMARK UNBOUND:                 0.000
REMARK SMILES Nc1ncnc2nc[nH]c12
REMARK SMILES IDX 8 1 7 2 6 3 5 4 4 5 3 6 2 7 10 8 9 9 1 11
REMARK H PARENT 9 10 1 12 1 13
REMARK Flexibility Score: inf
ROOT
ATOM      1  C   UNL     1      11.767  46.781  75.155  1.00  0.00     0.199 A 
ATOM      2  N   UNL     1      10.658  47.393  74.658  1.00  0.00    -0.217 NA
ATOM      3  C   UNL     1       9.743  46.410  74.704  1.00  0.00     0.182 A 
ATOM      4  N   UNL     1       8.448  46.493  74.317  1.00  0.00    -0.215 NA
ATOM      5  C   UNL     1       7.666  45.379  74.440  1.00  0.00     0.226 A 
ATOM      6  N   UNL     1       8.186  44.214  74.944  1.00  0.00    -0.217 NA
ATOM      7  C   UNL     1       9.494  44.129  75.335  1.00  0.00     0.152 A 
ATOM      8  C   UNL     1      10.277  45.271  75.203  1.00  0.00     0.127 A 
ATOM      9  N   UNL     1      11.566  45.482  75.498  1.00  0.00    -0.340 N 
ATOM     10  H   UNL     1      12.262  44.815  75.898  1.00  0.00     0.168 HD
ENDROOT
BRANCH   7  11
ATOM     11  N   UNL     1      10.014  42.905  75.856  1.00  0.00    -0.382 N 
ATOM     12  H   UNL     1      11.037  42.774  76.015  1.00  0.00     0.158 HD
ATOM     13  H   UNL     1       9.367  42.119  76.087  1.00  0.00     0.158 HD
ENDBRANCH   7  11
TORSDOF 1
ENDMDL
MODEL 9
REMARK VINA RESULT:    -3.786      9.419     10.483
REMARK INTER + INTRA:          -3.897
REMARK INTER:                  -3.897
REMARK INTRA:                   0.000
REMARK UNBOUND:                 0.000
REMARK SMILES Nc1ncnc2nc[nH]c12
REMARK SMILES IDX 8 1 7 2 6 3 5 4 4 5 3 6 2 7 10 8 9 9 1 11
REMARK H PARENT 9 10 1 12 1 13
REMARK Flexibility Score: inf
ROOT
ATOM      1  C   UNL     1      -0.003  43.502  80.959  1.00  0.00     0.199 A 
ATOM      2  N   UNL     1       0.260  42.511  81.853  1.00  0.00    -0.217 NA
ATOM      3  C   UNL     1       0.576  41.479  81.051  1.00  0.00     0.182 A 
ATOM      4  N   UNL     1       0.924  40.231  81.442  1.00  0.00    -0.215 NA
ATOM      5  C   UNL     1       1.212  39.309  80.474  1.00  0.00     0.226 A 
ATOM      6  N   UNL     1       1.147  39.649  79.147  1.00  0.00    -0.217 NA
ATOM      7  C   UNL     1       0.794  40.909  78.751  1.00  0.00     0.152 A 
ATOM      8  C   UNL     1       0.505  41.836  79.748  1.00  0.00     0.127 A 
ATOM      9  N   UNL     1       0.138  43.120  79.663  1.00  0.00    -0.340 N 
ATOM     10  H   UNL     1      -0.008  43.703  78.809  1.00  0.00     0.168 HD
ENDROOT
BRANCH   7  11
ATOM     11  N   UNL     1       0.734  41.240  77.363  1.00  0.00    -0.382 N 
ATOM     12  H   UNL     1       0.515  42.210  77.046  1.00  0.00     0.158 HD
ATOM     13  H   UNL     1       0.909  40.506  76.643  1.00  0.00     0.158 HD
ENDBRANCH   7  11
TORSDOF 1
ENDMDL
