MODEL 1
REMARK VINA RESULT:    -4.906      0.000      0.000
REMARK INTER + INTRA:          -9.302
REMARK INTER:                  -7.773
REMARK INTRA:                  -1.528
REMARK UNBOUND:                -1.528
REMARK SMILES CCCCCCCCCCCC(=O)[O-]
REMARK SMILES IDX 7 1 8 2 9 3 10 4 11 5 12 6 13 7 14 8 6 9 5 10 4 11 3 12 2 13
REMARK SMILES IDX 1 14
REMARK H PARENT
REMARK Flexibility Score: inf
ROOT
ATOM      1  C   UNL     1      18.774  21.992   6.006  1.00  0.00     0.000 C 
ENDROOT
BRANCH   1   2
ATOM      2  C   UNL     1      18.042  23.343   6.068  1.00  0.00     0.000 C 
BRANCH   2   3
ATOM      3  C   UNL     1      16.939  23.373   7.140  1.00  0.00     0.000 C 
BRANCH   3   4
ATOM      4  C   UNL     1      17.127  24.518   8.147  1.00  0.00     0.006 C 
BRANCH   4   5
ATOM      5  C   UNL     1      18.542  25.109   8.111  1.00  0.00     0.053 C 
BRANCH   5   6
ATOM      6  C   UNL     1      18.700  26.152   9.172  1.00  0.00     0.041 C 
ATOM      7  O   UNL     1      18.174  27.287   9.029  1.00  0.00    -0.550 OA
ATOM      8  O   UNL     1      19.387  25.854  10.343  1.00  0.00    -0.550 OA
ENDBRANCH   5   6
ENDBRANCH   4   5
ENDBRANCH   3   4
ENDBRANCH   2   3
ENDBRANCH   1   2
BRANCH   1   9
ATOM      9  C   UNL     1      20.303  22.151   5.980  1.00  0.00     0.000 C 
BRANCH   9  10
ATOM     10  C   UNL     1      20.967  21.680   7.285  1.00  0.00    -0.000 C 
BRANCH  10  11
ATOM     11  C   UNL     1      21.515  22.843   8.126  1.00  0.00    -0.000 C 
BRANCH  11  12
ATOM     12  C   UNL     1      20.972  22.783   9.562  1.00  0.00    -0.000 C 
BRANCH  12  13
ATOM     13  C   UNL     1      19.673  21.969   9.668  1.00  0.00    -0.003 C 
ATOM     14  C   UNL     1      18.901  22.251  10.957  1.00  0.00     0.004 C 
ENDBRANCH  12  13
ENDBRANCH  11  12
ENDBRANCH  10  11
ENDBRANCH   9  10
ENDBRANCH   1   9
TORSDOF 10
ENDMDL
MODEL 2
REMARK VINA RESULT:    -4.854      1.733      4.048
REMARK INTER + INTRA:          -9.220
REMARK INTER:                  -7.878
REMARK INTRA:                  -1.341
REMARK UNBOUND:                -1.528
REMARK SMILES CCCCCCCCCCCC(=O)[O-]
REMARK SMILES IDX 7 1 8 2 9 3 10 4 11 5 12 6 13 7 14 8 6 9 5 10 4 11 3 12 2 13
REMARK SMILES IDX 1 14
REMARK H PARENT
REMARK Flexibility Score: inf
ROOT
ATOM      1  C   UNL     1      19.609  22.756   6.095  1.00  0.00     0.000 C 
ENDROOT
BRANCH   1   2
ATOM      2  C   UNL     1      20.816  21.850   6.387  1.00  0.00     0.000 C 
BRANCH   2   3
ATOM      3  C   UNL     1      21.683  22.369   7.547  1.00  0.00     0.000 C 
BRANCH   3   4
ATOM      4  C   UNL     1      20.946  23.395   8.420  1.00  0.00     0.006 C 
BRANCH   4   5
ATOM      5  C   UNL     1      20.850  22.960   9.888  1.00  0.00     0.053 C 
BRANCH   5   6
ATOM      6  C   UNL     1      19.522  22.327  10.160  1.00  0.00     0.041 C 
ATOM      7  O   UNL     1      18.727  22.849  10.984  1.00  0.00    -0.550 OA
ATOM      8  O   UNL     1      19.139  21.187   9.463  1.00  0.00    -0.550 OA
ENDBRANCH   5   6
ENDBRANCH   4   5
ENDBRANCH   3   4
ENDBRANCH   2   3
ENDBRANCH   1   2
BRANCH   1   9
ATOM      9  C   UNL     1      18.270  22.008   6.204  1.00  0.00     0.000 C 
BRANCH   9  10
ATOM     10  C   UNL     1      17.184  22.839   6.907  1.00  0.00    -0.000 C 
BRANCH  10  11
ATOM     11  C   UNL     1      17.594  24.306   7.106  1.00  0.00    -0.000 C 
BRANCH  11  12
ATOM     12  C   UNL     1      17.257  24.780   8.528  1.00  0.00    -0.000 C 
BRANCH  12  13
ATOM     13  C   UNL     1      17.600  26.261   8.754  1.00  0.00    -0.003 C 
ATOM     14  C   UNL     1      19.086  26.488   9.034  1.00  0.00     0.004 C 
ENDBRANCH  12  13
ENDBRANCH  11  12
ENDBRANCH  10  11
ENDBRANCH   9  10
ENDBRANCH   1   9
TORSDOF 10
ENDMDL
MODEL 3
REMARK VINA RESULT:    -4.737      1.251      3.238
REMARK INTER + INTRA:          -9.035
REMARK INTER:                  -7.640
REMARK INTRA:                  -1.395
REMARK UNBOUND:                -1.528
REMARK SMILES CCCCCCCCCCCC(=O)[O-]
REMARK SMILES IDX 7 1 8 2 9 3 10 4 11 5 12 6 13 7 14 8 6 9 5 10 4 11 3 12 2 13
REMARK SMILES IDX 1 14
REMARK H PARENT
REMARK Flexibility Score: inf
ROOT
ATOM      1  C   UNL     1      21.966  22.848   9.405  1.00  0.00     0.000 C 
ENDROOT
BRANCH   1   2
ATOM      2  C   UNL     1      21.030  23.384  10.502  1.00  0.00     0.000 C 
BRANCH   2   3
ATOM      3  C   UNL     1      19.600  22.830  10.385  1.00  0.00     0.000 C 
BRANCH   3   4
ATOM      4  C   UNL     1      18.556  23.934  10.160  1.00  0.00     0.006 C 
BRANCH   4   5
ATOM      5  C   UNL     1      19.159  25.198   9.535  1.00  0.00     0.053 C 
BRANCH   5   6
ATOM      6  C   UNL     1      18.125  25.936   8.745  1.00  0.00     0.041 C 
ATOM      7  O   UNL     1      17.323  25.307   8.007  1.00  0.00    -0.550 OA
ATOM      8  O   UNL     1      18.013  27.316   8.864  1.00  0.00    -0.550 OA
ENDBRANCH   5   6
ENDBRANCH   4   5
ENDBRANCH   3   4
ENDBRANCH   2   3
ENDBRANCH   1   2
BRANCH   1   9
ATOM      9  C   UNL     1      21.266  21.847   8.471  1.00  0.00     0.000 C 
BRANCH   9  10
ATOM     10  C   UNL     1      21.755  21.954   7.017  1.00  0.00    -0.000 C 
BRANCH  10  11
ATOM     11  C   UNL     1      20.601  22.072   6.010  1.00  0.00    -0.000 C 
BRANCH  11  12
ATOM     12  C   UNL     1      19.461  22.929   6.581  1.00  0.00    -0.000 C 
BRANCH  12  13
ATOM     13  C   UNL     1      18.081  22.285   6.380  1.00  0.00    -0.003 C 
ATOM     14  C   UNL     1      17.963  20.915   7.049  1.00  0.00     0.004 C 
ENDBRANCH  12  13
ENDBRANCH  11  12
ENDBRANCH  10  11
ENDBRANCH   9  10
ENDBRANCH   1   9
TORSDOF 10
ENDMDL
MODEL 4
REMARK VINA RESULT:    -4.679      2.254      4.691
REMARK INTER + INTRA:          -8.943
REMARK INTER:                  -7.578
REMARK INTRA:                  -1.365
REMARK UNBOUND:                -1.528
REMARK SMILES CCCCCCCCCCCC(=O)[O-]
REMARK SMILES IDX 7 1 8 2 9 3 10 4 11 5 12 6 13 7 14 8 6 9 5 10 4 11 3 12 2 13
REMARK SMILES IDX 1 14
REMARK H PARENT
REMARK Flexibility Score: inf
ROOT
ATOM      1  C   UNL     1      20.451  23.171  10.594  1.00  0.00     0.000 C 
ENDROOT
BRANCH   1   2
ATOM      2  C   UNL     1      21.301  23.055   9.317  1.00  0.00     0.000 C 
BRANCH   2   3
ATOM      3  C   UNL     1      20.532  23.471   8.051  1.00  0.00     0.000 C 
BRANCH   3   4
ATOM      4  C   UNL     1      20.600  22.408   6.944  1.00  0.00     0.006 C 
BRANCH   4   5
ATOM      5  C   UNL     1      19.446  22.527   5.940  1.00  0.00     0.053 C 
BRANCH   5   6
ATOM      6  C   UNL     1      18.134  22.307   6.624  1.00  0.00     0.041 C 
ATOM      7  O   UNL     1      17.969  21.308   7.372  1.00  0.00    -0.550 OA
ATOM      8  O   UNL     1      17.109  23.233   6.476  1.00  0.00    -0.550 OA
ENDBRANCH   5   6
ENDBRANCH   4   5
ENDBRANCH   3   4
ENDBRANCH   2   3
ENDBRANCH   1   2
BRANCH   1   9
ATOM      9  C   UNL     1      19.196  22.285  10.548  1.00  0.00     0.000 C 
BRANCH   9  10
ATOM     10  C   UNL     1      17.899  23.087  10.749  1.00  0.00    -0.000 C 
BRANCH  10  11
ATOM     11  C   UNL     1      18.089  24.593  10.514  1.00  0.00    -0.000 C 
BRANCH  11  12
ATOM     12  C   UNL     1      17.220  25.078   9.344  1.00  0.00    -0.000 C 
BRANCH  12  13
ATOM     13  C   UNL     1      17.948  26.093   8.449  1.00  0.00    -0.003 C 
ATOM     14  C   UNL     1      19.130  26.760   9.152  1.00  0.00     0.004 C 
ENDBRANCH  12  13
ENDBRANCH  11  12
ENDBRANCH  10  11
ENDBRANCH   9  10
ENDBRANCH   1   9
TORSDOF 10
ENDMDL
MODEL 5
REMARK VINA RESULT:    -4.665      1.062      3.135
REMARK INTER + INTRA:          -8.921
REMARK INTER:                  -7.450
REMARK INTRA:                  -1.471
REMARK UNBOUND:                -1.528
REMARK SMILES CCCCCCCCCCCC(=O)[O-]
REMARK SMILES IDX 7 1 8 2 9 3 10 4 11 5 12 6 13 7 14 8 6 9 5 10 4 11 3 12 2 13
REMARK SMILES IDX 1 14
REMARK H PARENT
REMARK Flexibility Score: inf
ROOT
ATOM      1  C   UNL     1      19.505  22.040  10.075  1.00  0.00     0.000 C 
ENDROOT
BRANCH   1   2
ATOM      2  C   UNL     1      18.335  22.517  10.952  1.00  0.00     0.000 C 
BRANCH   2   3
ATOM      3  C   UNL     1      17.135  23.011  10.126  1.00  0.00     0.000 C 
BRANCH   3   4
ATOM      4  C   UNL     1      16.965  24.537  10.186  1.00  0.00     0.006 C 
BRANCH   4   5
ATOM      5  C   UNL     1      17.302  25.221   8.855  1.00  0.00     0.053 C 
BRANCH   5   6
ATOM      6  C   UNL     1      18.160  26.424   9.089  1.00  0.00     0.041 C 
ATOM      7  O   UNL     1      19.241  26.319   9.724  1.00  0.00    -0.550 OA
ATOM      8  O   UNL     1      17.789  27.655   8.560  1.00  0.00    -0.550 OA
ENDBRANCH   5   6
ENDBRANCH   4   5
ENDBRANCH   3   4
ENDBRANCH   2   3
ENDBRANCH   1   2
BRANCH   1   9
ATOM      9  C   UNL     1      20.564  23.133   9.859  1.00  0.00     0.000 C 
BRANCH   9  10
ATOM     10  C   UNL     1      20.771  23.471   8.374  1.00  0.00    -0.000 C 
BRANCH  10  11
ATOM     11  C   UNL     1      20.931  22.220   7.496  1.00  0.00    -0.000 C 
BRANCH  11  12
ATOM     12  C   UNL     1      20.177  22.384   6.168  1.00  0.00    -0.000 C 
BRANCH  12  13
ATOM     13  C   UNL     1      18.844  23.131   6.333  1.00  0.00    -0.003 C 
ATOM     14  C   UNL     1      17.652  22.187   6.490  1.00  0.00     0.004 C 
ENDBRANCH  12  13
ENDBRANCH  11  12
ENDBRANCH  10  11
ENDBRANCH   9  10
ENDBRANCH   1   9
TORSDOF 10
ENDMDL
MODEL 6
REMARK VINA RESULT:    -4.665      3.094      4.569
REMARK INTER + INTRA:          -8.921
REMARK INTER:                  -7.368
REMARK INTRA:                  -1.553
REMARK UNBOUND:                -1.528
REMARK SMILES CCCCCCCCCCCC(=O)[O-]
REMARK SMILES IDX 7 1 8 2 9 3 10 4 11 5 12 6 13 7 14 8 6 9 5 10 4 11 3 12 2 13
REMARK SMILES IDX 1 14
REMARK H PARENT
REMARK Flexibility Score: inf
ROOT
ATOM      1  C   UNL     1      17.600  23.854   6.639  1.00  0.00     0.000 C 
ENDROOT
BRANCH   1   2
ATOM      2  C   UNL     1      18.453  22.599   6.893  1.00  0.00     0.000 C 
BRANCH   2   3
ATOM      3  C   UNL     1      19.899  22.752   6.392  1.00  0.00     0.000 C 
BRANCH   3   4
ATOM      4  C   UNL     1      20.927  22.705   7.533  1.00  0.00     0.006 C 
BRANCH   4   5
ATOM      5  C   UNL     1      21.102  21.296   8.112  1.00  0.00     0.053 C 
BRANCH   5   6
ATOM      6  C   UNL     1      22.381  20.688   7.631  1.00  0.00     0.041 C 
ATOM      7  O   UNL     1      22.490  20.298   6.439  1.00  0.00    -0.550 OA
ATOM      8  O   UNL     1      23.473  20.598   8.487  1.00  0.00    -0.550 OA
ENDBRANCH   5   6
ENDBRANCH   4   5
ENDBRANCH   3   4
ENDBRANCH   2   3
ENDBRANCH   1   2
BRANCH   1   9
ATOM      9  C   UNL     1      17.269  24.614   7.934  1.00  0.00     0.000 C 
BRANCH   9  10
ATOM     10  C   UNL     1      18.452  25.453   8.445  1.00  0.00    -0.000 C 
BRANCH  10  11
ATOM     11  C   UNL     1      18.983  24.968   9.803  1.00  0.00    -0.000 C 
BRANCH  11  12
ATOM     12  C   UNL     1      18.077  23.871  10.384  1.00  0.00    -0.000 C 
BRANCH  12  13
ATOM     13  C   UNL     1      18.851  22.592  10.738  1.00  0.00    -0.003 C 
ATOM     14  C   UNL     1      18.080  21.318  10.392  1.00  0.00     0.004 C 
ENDBRANCH  12  13
ENDBRANCH  11  12
ENDBRANCH  10  11
ENDBRANCH   9  10
ENDBRANCH   1   9
TORSDOF 10
ENDMDL
MODEL 7
REMARK VINA RESULT:    -4.656      2.039      4.233
REMARK INTER + INTRA:          -8.906
REMARK INTER:                  -7.305
REMARK INTRA:                  -1.601
REMARK UNBOUND:                -1.528
REMARK SMILES CCCCCCCCCCCC(=O)[O-]
REMARK SMILES IDX 7 1 8 2 9 3 10 4 11 5 12 6 13 7 14 8 6 9 5 10 4 11 3 12 2 13
REMARK SMILES IDX 1 14
REMARK H PARENT
REMARK Flexibility Score: inf
ROOT
ATOM      1  C   UNL     1      17.219  24.649   8.145  1.00  0.00     0.000 C 
ENDROOT
BRANCH   1   2
ATOM      2  C   UNL     1      18.436  25.281   8.842  1.00  0.00     0.000 C 
BRANCH   2   3
ATOM      3  C   UNL     1      19.686  24.386   8.783  1.00  0.00     0.000 C 
BRANCH   3   4
ATOM      4  C   UNL     1      19.821  23.479  10.016  1.00  0.00     0.006 C 
BRANCH   4   5
ATOM      5  C   UNL     1      19.519  22.008   9.701  1.00  0.00     0.053 C 
BRANCH   5   6
ATOM      6  C   UNL     1      18.189  21.616  10.262  1.00  0.00     0.041 C 
ATOM      7  O   UNL     1      17.677  20.505   9.965  1.00  0.00    -0.550 OA
ATOM      8  O   UNL     1      17.536  22.457  11.155  1.00  0.00    -0.550 OA
ENDBRANCH   5   6
ENDBRANCH   4   5
ENDBRANCH   3   4
ENDBRANCH   2   3
ENDBRANCH   1   2
BRANCH   1   9
ATOM      9  C   UNL     1      17.581  24.009   6.795  1.00  0.00     0.000 C 
BRANCH   9  10
ATOM     10  C   UNL     1      17.120  22.545   6.693  1.00  0.00    -0.000 C 
BRANCH  10  11
ATOM     11  C   UNL     1      18.160  21.640   6.017  1.00  0.00    -0.000 C 
BRANCH  11  12
ATOM     12  C   UNL     1      19.446  22.422   5.705  1.00  0.00    -0.000 C 
BRANCH  12  13
ATOM     13  C   UNL     1      20.697  21.531   5.720  1.00  0.00    -0.003 C 
ATOM     14  C   UNL     1      21.716  21.959   6.776  1.00  0.00     0.004 C 
ENDBRANCH  12  13
ENDBRANCH  11  12
ENDBRANCH  10  11
ENDBRANCH   9  10
ENDBRANCH   1   9
TORSDOF 10
ENDMDL
MODEL 8
REMARK VINA RESULT:    -4.649      2.609      4.132
REMARK INTER + INTRA:          -8.896
REMARK INTER:                  -7.278
REMARK INTRA:                  -1.617
REMARK UNBOUND:                -1.528
REMARK SMILES CCCCCCCCCCCC(=O)[O-]
REMARK SMILES IDX 7 1 8 2 9 3 10 4 11 5 12 6 13 7 14 8 6 9 5 10 4 11 3 12 2 13
REMARK SMILES IDX 1 14
REMARK H PARENT
REMARK Flexibility Score: inf
ROOT
ATOM      1  C   UNL     1      17.271  24.795   8.312  1.00  0.00     0.000 C 
ENDROOT
BRANCH   1   2
ATOM      2  C   UNL     1      17.101  23.620   7.335  1.00  0.00     0.000 C 
BRANCH   2   3
ATOM      3  C   UNL     1      18.295  23.466   6.376  1.00  0.00     0.000 C 
BRANCH   3   4
ATOM      4  C   UNL     1      19.050  22.144   6.581  1.00  0.00     0.006 C 
BRANCH   4   5
ATOM      5  C   UNL     1      20.569  22.305   6.446  1.00  0.00     0.053 C 
BRANCH   5   6
ATOM      6  C   UNL     1      21.275  21.136   7.057  1.00  0.00     0.041 C 
ATOM      7  O   UNL     1      21.088  19.976   6.607  1.00  0.00    -0.550 OA
ATOM      8  O   UNL     1      22.180  21.335   8.093  1.00  0.00    -0.550 OA
ENDBRANCH   5   6
ENDBRANCH   4   5
ENDBRANCH   3   4
ENDBRANCH   2   3
ENDBRANCH   1   2
BRANCH   1   9
ATOM      9  C   UNL     1      18.747  25.156   8.548  1.00  0.00     0.000 C 
BRANCH   9  10
ATOM     10  C   UNL     1      19.220  24.806   9.969  1.00  0.00    -0.000 C 
BRANCH  10  11
ATOM     11  C   UNL     1      20.215  23.636   9.992  1.00  0.00    -0.000 C 
BRANCH  11  12
ATOM     12  C   UNL     1      19.481  22.298  10.164  1.00  0.00    -0.000 C 
BRANCH  12  13
ATOM     13  C   UNL     1      18.353  22.372  11.205  1.00  0.00    -0.003 C 
ATOM     14  C   UNL     1      17.021  21.839  10.674  1.00  0.00     0.004 C 
ENDBRANCH  12  13
ENDBRANCH  11  12
ENDBRANCH  10  11
ENDBRANCH   9  10
ENDBRANCH   1   9
TORSDOF 10
ENDMDL
MODEL 9
REMARK VINA RESULT:    -4.621      3.097      5.226
REMARK INTER + INTRA:          -8.850
REMARK INTER:                  -7.341
REMARK INTRA:                  -1.510
REMARK UNBOUND:                -1.528
REMARK SMILES CCCCCCCCCCCC(=O)[O-]
REMARK SMILES IDX 7 1 8 2 9 3 10 4 11 5 12 6 13 7 14 8 6 9 5 10 4 11 3 12 2 13
REMARK SMILES IDX 1 14
REMARK H PARENT
REMARK Flexibility Score: inf
ROOT
ATOM      1  C   UNL     1      19.407  22.131   9.802  1.00  0.00     0.000 C 
ENDROOT
BRANCH   1   2
ATOM      2  C   UNL     1      20.750  22.881   9.813  1.00  0.00     0.000 C 
BRANCH   2   3
ATOM      3  C   UNL     1      21.132  23.437   8.430  1.00  0.00     0.000 C 
BRANCH   3   4
ATOM      4  C   UNL     1      20.234  22.894   7.308  1.00  0.00     0.006 C 
BRANCH   4   5
ATOM      5  C   UNL     1      21.007  22.037   6.297  1.00  0.00     0.053 C 
BRANCH   5   6
ATOM      6  C   UNL     1      21.274  20.678   6.861  1.00  0.00     0.041 C 
ATOM      7  O   UNL     1      20.361  19.811   6.886  1.00  0.00    -0.550 OA
ATOM      8  O   UNL     1      22.546  20.350   7.314  1.00  0.00    -0.550 OA
ENDBRANCH   5   6
ENDBRANCH   4   5
ENDBRANCH   3   4
ENDBRANCH   2   3
ENDBRANCH   1   2
BRANCH   1   9
ATOM      9  C   UNL     1      18.476  22.574  10.943  1.00  0.00     0.000 C 
BRANCH   9  10
ATOM     10  C   UNL     1      17.444  23.621  10.490  1.00  0.00    -0.000 C 
BRANCH  10  11
ATOM     11  C   UNL     1      17.042  23.461   9.017  1.00  0.00    -0.000 C 
BRANCH  11  12
ATOM     12  C   UNL     1      17.248  24.775   8.247  1.00  0.00    -0.000 C 
BRANCH  12  13
ATOM     13  C   UNL     1      17.646  25.941   9.166  1.00  0.00    -0.003 C 
ATOM     14  C   UNL     1      19.023  26.515   8.832  1.00  0.00     0.004 C 
ENDBRANCH  12  13
ENDBRANCH  11  12
ENDBRANCH  10  11
ENDBRANCH   9  10
ENDBRANCH   1   9
TORSDOF 10
ENDMDL
