MODEL 1
REMARK VINA RESULT:    -4.573      0.000      0.000
REMARK INTER + INTRA:          -9.576
REMARK INTER:                  -6.979
REMARK INTRA:                  -2.598
REMARK UNBOUND:                -2.598
REMARK SMILES CC(=O)CCC=C(C)CCC=C(C)CCC=C(C)C
REMARK SMILES IDX 10 1 11 2 12 3 13 4 14 5 15 6 16 7 18 8 17 9 19 10 9 11 7 12
REMARK SMILES IDX 6 13 8 14 5 15 4 16 2 17 3 18 1 19
REMARK H PARENT
REMARK Flexibility Score: inf
ROOT
ATOM      1  C   UNL     1     131.298 138.575 115.276  1.00  0.00     0.032 C 
ENDROOT
BRANCH   1   2
ATOM      2  C   UNL     1     130.484 137.710 114.338  1.00  0.00    -0.028 C 
ATOM      3  C   UNL     1     129.236 137.241 114.575  1.00  0.00    -0.077 C 
ATOM      4  C   UNL     1     128.601 136.365 113.525  1.00  0.00     0.039 C 
BRANCH   3   5
ATOM      5  C   UNL     1     128.449 137.558 115.831  1.00  0.00     0.034 C 
BRANCH   5   6
ATOM      6  C   UNL     1     127.147 138.296 115.499  1.00  0.00     0.032 C 
BRANCH   6   7
ATOM      7  C   UNL     1     127.437 139.598 114.793  1.00  0.00    -0.028 C 
ATOM      8  C   UNL     1     127.774 142.022 114.569  1.00  0.00     0.039 C 
ATOM      9  C   UNL     1     127.522 140.797 115.410  1.00  0.00    -0.080 C 
ATOM     10  C   UNL     1     127.390 140.938 116.909  1.00  0.00     0.039 C 
ENDBRANCH   6   7
ENDBRANCH   5   6
ENDBRANCH   3   5
ENDBRANCH   1   2
BRANCH   1  11
ATOM     11  C   UNL     1     131.191 140.059 114.896  1.00  0.00     0.034 C 
BRANCH  11  12
ATOM     12  C   UNL     1     131.163 140.964 116.111  1.00  0.00    -0.077 C 
ATOM     13  C   UNL     1     131.236 142.304 115.935  1.00  0.00    -0.028 C 
ATOM     14  C   UNL     1     131.057 140.346 117.485  1.00  0.00     0.039 C 
BRANCH  13  15
ATOM     15  C   UNL     1     131.165 143.320 117.050  1.00  0.00     0.035 C 
BRANCH  15  16
ATOM     16  C   UNL     1     129.728 143.807 117.278  1.00  0.00     0.079 C 
BRANCH  16  17
ATOM     17  C   UNL     1     129.435 145.056 116.486  1.00  0.00     0.130 C 
ATOM     18  O   UNL     1     128.335 145.200 115.973  1.00  0.00    -0.300 OA
ATOM     19  C   UNL     1     130.467 146.130 116.313  1.00  0.00     0.087 C 
ENDBRANCH  16  17
ENDBRANCH  15  16
ENDBRANCH  13  15
ENDBRANCH  11  12
ENDBRANCH   1  11
TORSDOF 9
ENDMDL
MODEL 2
REMARK VINA RESULT:    -4.457      1.336      3.246
REMARK INTER + INTRA:          -9.399
REMARK INTER:                  -7.080
REMARK INTRA:                  -2.320
REMARK UNBOUND:                -2.598
REMARK SMILES CC(=O)CCC=C(C)CCC=C(C)CCC=C(C)C
REMARK SMILES IDX 10 1 11 2 12 3 13 4 14 5 15 6 16 7 18 8 17 9 19 10 9 11 7 12
REMARK SMILES IDX 6 13 8 14 5 15 4 16 2 17 3 18 1 19
REMARK H PARENT
REMARK Flexibility Score: inf
ROOT
ATOM      1  C   UNL     1     126.289 139.165 114.313  1.00  0.00     0.032 C 
ENDROOT
BRANCH   1   2
ATOM      2  C   UNL     1     127.155 138.047 113.776  1.00  0.00    -0.028 C 
ATOM      3  C   UNL     1     127.926 137.215 114.516  1.00  0.00    -0.077 C 
ATOM      4  C   UNL     1     128.745 136.179 113.790  1.00  0.00     0.039 C 
BRANCH   3   5
ATOM      5  C   UNL     1     127.999 137.270 116.030  1.00  0.00     0.034 C 
BRANCH   5   6
ATOM      6  C   UNL     1     129.407 137.645 116.504  1.00  0.00     0.032 C 
BRANCH   6   7
ATOM      7  C   UNL     1     129.694 139.100 116.230  1.00  0.00    -0.028 C 
ATOM      8  C   UNL     1     130.859 141.029 115.249  1.00  0.00     0.039 C 
ATOM      9  C   UNL     1     130.657 139.542 115.391  1.00  0.00    -0.080 C 
ATOM     10  C   UNL     1     131.516 138.594 114.586  1.00  0.00     0.039 C 
ENDBRANCH   6   7
ENDBRANCH   5   6
ENDBRANCH   3   5
ENDBRANCH   1   2
BRANCH   1  11
ATOM     11  C   UNL     1     126.899 140.540 113.998  1.00  0.00     0.034 C 
BRANCH  11  12
ATOM     12  C   UNL     1     127.041 141.403 115.236  1.00  0.00    -0.077 C 
ATOM     13  C   UNL     1     127.663 142.600 115.135  1.00  0.00    -0.028 C 
ATOM     14  C   UNL     1     126.485 140.902 116.549  1.00  0.00     0.039 C 
BRANCH  13  15
ATOM     15  C   UNL     1     127.825 143.580 116.273  1.00  0.00     0.035 C 
BRANCH  15  16
ATOM     16  C   UNL     1     128.453 144.897 115.797  1.00  0.00     0.079 C 
BRANCH  16  17
ATOM     17  C   UNL     1     129.723 145.208 116.548  1.00  0.00     0.130 C 
ATOM     18  O   UNL     1     130.103 144.451 117.428  1.00  0.00    -0.300 OA
ATOM     19  C   UNL     1     130.533 146.431 116.235  1.00  0.00     0.087 C 
ENDBRANCH  16  17
ENDBRANCH  15  16
ENDBRANCH  13  15
ENDBRANCH  11  12
ENDBRANCH   1  11
TORSDOF 9
ENDMDL
MODEL 3
REMARK VINA RESULT:    -4.359      1.472      3.211
REMARK INTER + INTRA:          -9.251
REMARK INTER:                  -7.145
REMARK INTRA:                  -2.106
REMARK UNBOUND:                -2.598
REMARK SMILES CC(=O)CCC=C(C)CCC=C(C)CCC=C(C)C
REMARK SMILES IDX 10 1 11 2 12 3 13 4 14 5 15 6 16 7 18 8 17 9 19 10 9 11 7 12
REMARK SMILES IDX 6 13 8 14 5 15 4 16 2 17 3 18 1 19
REMARK H PARENT
REMARK Flexibility Score: inf
ROOT
ATOM      1  C   UNL     1     126.568 139.866 114.548  1.00  0.00     0.032 C 
ENDROOT
BRANCH   1   2
ATOM      2  C   UNL     1     126.533 139.081 113.255  1.00  0.00    -0.028 C 
ATOM      3  C   UNL     1     126.694 137.741 113.136  1.00  0.00    -0.077 C 
ATOM      4  C   UNL     1     126.656 137.147 111.751  1.00  0.00     0.039 C 
BRANCH   3   5
ATOM      5  C   UNL     1     126.901 136.816 114.319  1.00  0.00     0.034 C 
BRANCH   5   6
ATOM      6  C   UNL     1     128.211 136.032 114.188  1.00  0.00     0.032 C 
BRANCH   6   7
ATOM      7  C   UNL     1     129.382 136.970 114.027  1.00  0.00    -0.028 C 
ATOM      8  C   UNL     1     131.119 138.559 114.731  1.00  0.00     0.039 C 
ATOM      9  C   UNL     1     129.987 137.616 115.048  1.00  0.00    -0.080 C 
ATOM     10  C   UNL     1     129.574 137.405 116.486  1.00  0.00     0.039 C 
ENDBRANCH   6   7
ENDBRANCH   5   6
ENDBRANCH   3   5
ENDBRANCH   1   2
BRANCH   1  11
ATOM     11  C   UNL     1     127.370 141.165 114.386  1.00  0.00     0.034 C 
BRANCH  11  12
ATOM     12  C   UNL     1     128.447 141.312 115.442  1.00  0.00    -0.077 C 
ATOM     13  C   UNL     1     129.655 141.804 115.085  1.00  0.00    -0.028 C 
ATOM     14  C   UNL     1     128.142 140.904 116.864  1.00  0.00     0.039 C 
BRANCH  13  15
ATOM     15  C   UNL     1     130.797 142.053 116.042  1.00  0.00     0.035 C 
BRANCH  15  16
ATOM     16  C   UNL     1     131.079 143.552 116.205  1.00  0.00     0.079 C 
BRANCH  16  17
ATOM     17  C   UNL     1     129.971 144.246 116.958  1.00  0.00     0.130 C 
ATOM     18  O   UNL     1     129.827 144.029 118.151  1.00  0.00    -0.300 OA
ATOM     19  C   UNL     1     129.039 145.198 116.270  1.00  0.00     0.087 C 
ENDBRANCH  16  17
ENDBRANCH  15  16
ENDBRANCH  13  15
ENDBRANCH  11  12
ENDBRANCH   1  11
TORSDOF 9
ENDMDL
MODEL 4
REMARK VINA RESULT:    -4.313     14.106     16.428
REMARK INTER + INTRA:          -9.180
REMARK INTER:                  -6.164
REMARK INTRA:                  -3.016
REMARK UNBOUND:                -2.598
REMARK SMILES CC(=O)CCC=C(C)CCC=C(C)CCC=C(C)C
REMARK SMILES IDX 10 1 11 2 12 3 13 4 14 5 15 6 16 7 18 8 17 9 19 10 9 11 7 12
REMARK SMILES IDX 6 13 8 14 5 15 4 16 2 17 3 18 1 19
REMARK H PARENT
REMARK Flexibility Score: inf
ROOT
ATOM      1  C   UNL     1     143.757 134.129 121.746  1.00  0.00     0.032 C 
ENDROOT
BRANCH   1   2
ATOM      2  C   UNL     1     144.751 133.698 122.802  1.00  0.00    -0.028 C 
ATOM      3  C   UNL     1     144.446 133.243 124.040  1.00  0.00    -0.077 C 
ATOM      4  C   UNL     1     145.584 132.890 124.963  1.00  0.00     0.039 C 
BRANCH   3   5
ATOM      5  C   UNL     1     143.024 133.066 124.538  1.00  0.00     0.034 C 
BRANCH   5   6
ATOM      6  C   UNL     1     142.740 133.974 125.739  1.00  0.00     0.032 C 
BRANCH   6   7
ATOM      7  C   UNL     1     141.801 135.090 125.354  1.00  0.00    -0.028 C 
ATOM      8  C   UNL     1     141.139 137.371 124.721  1.00  0.00     0.039 C 
ATOM      9  C   UNL     1     142.195 136.345 125.043  1.00  0.00    -0.080 C 
ATOM     10  C   UNL     1     143.653 136.738 124.995  1.00  0.00     0.039 C 
ENDBRANCH   6   7
ENDBRANCH   5   6
ENDBRANCH   3   5
ENDBRANCH   1   2
BRANCH   1  11
ATOM     11  C   UNL     1     143.917 135.619 121.409  1.00  0.00     0.034 C 
BRANCH  11  12
ATOM     12  C   UNL     1     142.588 136.346 121.368  1.00  0.00    -0.077 C 
ATOM     13  C   UNL     1     141.445 135.624 121.311  1.00  0.00    -0.028 C 
ATOM     14  C   UNL     1     142.576 137.856 121.389  1.00  0.00     0.039 C 
BRANCH  13  15
ATOM     15  C   UNL     1     140.056 136.216 121.320  1.00  0.00     0.035 C 
BRANCH  15  16
ATOM     16  C   UNL     1     138.981 135.129 121.451  1.00  0.00     0.079 C 
BRANCH  16  17
ATOM     17  C   UNL     1     138.928 134.568 122.849  1.00  0.00     0.130 C 
ATOM     18  O   UNL     1     138.531 135.271 123.766  1.00  0.00    -0.300 OA
ATOM     19  C   UNL     1     139.354 133.159 123.140  1.00  0.00     0.087 C 
ENDBRANCH  16  17
ENDBRANCH  15  16
ENDBRANCH  13  15
ENDBRANCH  11  12
ENDBRANCH   1  11
TORSDOF 9
ENDMDL
MODEL 5
REMARK VINA RESULT:    -4.261     13.305     15.688
REMARK INTER + INTRA:          -9.100
REMARK INTER:                  -6.228
REMARK INTRA:                  -2.873
REMARK UNBOUND:                -2.598
REMARK SMILES CC(=O)CCC=C(C)CCC=C(C)CCC=C(C)C
REMARK SMILES IDX 10 1 11 2 12 3 13 4 14 5 15 6 16 7 18 8 17 9 19 10 9 11 7 12
REMARK SMILES IDX 6 13 8 14 5 15 4 16 2 17 3 18 1 19
REMARK H PARENT
REMARK Flexibility Score: inf
ROOT
ATOM      1  C   UNL     1     142.786 133.365 124.557  1.00  0.00     0.032 C 
ENDROOT
BRANCH   1   2
ATOM      2  C   UNL     1     144.205 133.678 124.136  1.00  0.00    -0.028 C 
ATOM      3  C   UNL     1     144.610 133.998 122.884  1.00  0.00    -0.077 C 
ATOM      4  C   UNL     1     146.079 134.247 122.659  1.00  0.00     0.039 C 
BRANCH   3   5
ATOM      5  C   UNL     1     143.662 134.123 121.707  1.00  0.00     0.034 C 
BRANCH   5   6
ATOM      6  C   UNL     1     143.772 135.505 121.051  1.00  0.00     0.032 C 
BRANCH   6   7
ATOM      7  C   UNL     1     142.493 136.284 121.231  1.00  0.00    -0.028 C 
ATOM      8  C   UNL     1     140.948 137.886 122.274  1.00  0.00     0.039 C 
ATOM      9  C   UNL     1     142.296 137.218 122.188  1.00  0.00    -0.080 C 
ATOM     10  C   UNL     1     143.388 137.618 123.153  1.00  0.00     0.039 C 
ENDBRANCH   6   7
ENDBRANCH   5   6
ENDBRANCH   3   5
ENDBRANCH   1   2
BRANCH   1  11
ATOM     11  C   UNL     1     142.025 134.643 124.939  1.00  0.00     0.034 C 
BRANCH  11  12
ATOM     12  C   UNL     1     140.648 134.702 124.311  1.00  0.00    -0.077 C 
ATOM     13  C   UNL     1     140.383 133.930 123.232  1.00  0.00    -0.028 C 
ATOM     14  C   UNL     1     139.608 135.623 124.906  1.00  0.00     0.039 C 
BRANCH  13  15
ATOM     15  C   UNL     1     139.041 133.851 122.543  1.00  0.00     0.035 C 
BRANCH  15  16
ATOM     16  C   UNL     1     138.949 134.841 121.375  1.00  0.00     0.079 C 
BRANCH  16  17
ATOM     17  C   UNL     1     137.613 135.541 121.345  1.00  0.00     0.130 C 
ATOM     18  O   UNL     1     137.343 136.360 122.210  1.00  0.00    -0.300 OA
ATOM     19  C   UNL     1     136.604 135.250 120.274  1.00  0.00     0.087 C 
ENDBRANCH  16  17
ENDBRANCH  15  16
ENDBRANCH  13  15
ENDBRANCH  11  12
ENDBRANCH   1  11
TORSDOF 9
ENDMDL
MODEL 6
REMARK VINA RESULT:    -4.235     14.041     16.256
REMARK INTER + INTRA:          -9.061
REMARK INTER:                  -6.502
REMARK INTRA:                  -2.559
REMARK UNBOUND:                -2.598
REMARK SMILES CC(=O)CCC=C(C)CCC=C(C)CCC=C(C)C
REMARK SMILES IDX 10 1 11 2 12 3 13 4 14 5 15 6 16 7 18 8 17 9 19 10 9 11 7 12
REMARK SMILES IDX 6 13 8 14 5 15 4 16 2 17 3 18 1 19
REMARK H PARENT
REMARK Flexibility Score: inf
ROOT
ATOM      1  C   UNL     1     140.893 136.153 120.354  1.00  0.00     0.032 C 
ENDROOT
BRANCH   1   2
ATOM      2  C   UNL     1     139.451 136.135 120.811  1.00  0.00    -0.028 C 
ATOM      3  C   UNL     1     138.828 135.105 121.432  1.00  0.00    -0.077 C 
ATOM      4  C   UNL     1     137.372 135.269 121.783  1.00  0.00     0.039 C 
BRANCH   3   5
ATOM      5  C   UNL     1     139.523 133.807 121.798  1.00  0.00     0.034 C 
BRANCH   5   6
ATOM      6  C   UNL     1     139.510 133.579 123.313  1.00  0.00     0.032 C 
BRANCH   6   7
ATOM      7  C   UNL     1     140.760 134.137 123.948  1.00  0.00    -0.028 C 
ATOM      8  C   UNL     1     142.140 135.747 125.191  1.00  0.00     0.039 C 
ATOM      9  C   UNL     1     140.809 135.290 124.652  1.00  0.00    -0.080 C 
ATOM     10  C   UNL     1     139.573 136.115 124.924  1.00  0.00     0.039 C 
ENDBRANCH   6   7
ENDBRANCH   5   6
ENDBRANCH   3   5
ENDBRANCH   1   2
BRANCH   1  11
ATOM     11  C   UNL     1     141.812 136.730 121.441  1.00  0.00     0.034 C 
BRANCH  11  12
ATOM     12  C   UNL     1     143.149 136.019 121.500  1.00  0.00    -0.077 C 
ATOM     13  C   UNL     1     143.173 134.672 121.629  1.00  0.00    -0.028 C 
ATOM     14  C   UNL     1     144.419 136.833 121.416  1.00  0.00     0.039 C 
BRANCH  13  15
ATOM     15  C   UNL     1     144.430 133.835 121.646  1.00  0.00     0.035 C 
BRANCH  15  16
ATOM     16  C   UNL     1     145.161 133.944 122.990  1.00  0.00     0.079 C 
BRANCH  16  17
ATOM     17  C   UNL     1     145.058 132.666 123.783  1.00  0.00     0.130 C 
ATOM     18  O   UNL     1     145.829 131.748 123.548  1.00  0.00    -0.300 OA
ATOM     19  C   UNL     1     144.026 132.497 124.858  1.00  0.00     0.087 C 
ENDBRANCH  16  17
ENDBRANCH  15  16
ENDBRANCH  13  15
ENDBRANCH  11  12
ENDBRANCH   1  11
TORSDOF 9
ENDMDL
MODEL 7
REMARK VINA RESULT:    -4.154     14.284     16.717
REMARK INTER + INTRA:          -8.936
REMARK INTER:                  -5.996
REMARK INTRA:                  -2.940
REMARK UNBOUND:                -2.598
REMARK SMILES CC(=O)CCC=C(C)CCC=C(C)CCC=C(C)C
REMARK SMILES IDX 10 1 11 2 12 3 13 4 14 5 15 6 16 7 18 8 17 9 19 10 9 11 7 12
REMARK SMILES IDX 6 13 8 14 5 15 4 16 2 17 3 18 1 19
REMARK H PARENT
REMARK Flexibility Score: inf
ROOT
ATOM      1  C   UNL     1     144.601 133.890 122.200  1.00  0.00     0.032 C 
ENDROOT
BRANCH   1   2
ATOM      2  C   UNL     1     145.463 135.113 121.979  1.00  0.00    -0.028 C 
ATOM      3  C   UNL     1     145.015 136.360 121.699  1.00  0.00    -0.077 C 
ATOM      4  C   UNL     1     146.037 137.445 121.481  1.00  0.00     0.039 C 
BRANCH   3   5
ATOM      5  C   UNL     1     143.544 136.716 121.603  1.00  0.00     0.034 C 
BRANCH   5   6
ATOM      6  C   UNL     1     143.189 137.865 122.554  1.00  0.00     0.032 C 
BRANCH   6   7
ATOM      7  C   UNL     1     142.258 137.391 123.642  1.00  0.00    -0.028 C 
ATOM      8  C   UNL     1     141.619 136.478 125.832  1.00  0.00     0.039 C 
ATOM      9  C   UNL     1     142.661 136.966 124.859  1.00  0.00    -0.080 C 
ATOM     10  C   UNL     1     144.115 136.985 125.273  1.00  0.00     0.039 C 
ENDBRANCH   6   7
ENDBRANCH   5   6
ENDBRANCH   3   5
ENDBRANCH   1   2
BRANCH   1  11
ATOM     11  C   UNL     1     144.463 133.572 123.697  1.00  0.00     0.034 C 
BRANCH  11  12
ATOM     12  C   UNL     1     143.016 133.416 124.120  1.00  0.00    -0.077 C 
ATOM     13  C   UNL     1     142.036 133.755 123.252  1.00  0.00    -0.028 C 
ATOM     14  C   UNL     1     142.708 132.887 125.502  1.00  0.00     0.039 C 
BRANCH  13  15
ATOM     15  C   UNL     1     140.558 133.599 123.523  1.00  0.00     0.035 C 
BRANCH  15  16
ATOM     16  C   UNL     1     139.733 133.717 122.235  1.00  0.00     0.079 C 
BRANCH  16  17
ATOM     17  C   UNL     1     138.687 134.798 122.344  1.00  0.00     0.130 C 
ATOM     18  O   UNL     1     137.734 134.792 121.581  1.00  0.00    -0.300 OA
ATOM     19  C   UNL     1     138.793 135.884 123.373  1.00  0.00     0.087 C 
ENDBRANCH  16  17
ENDBRANCH  15  16
ENDBRANCH  13  15
ENDBRANCH  11  12
ENDBRANCH   1  11
TORSDOF 9
ENDMDL
MODEL 8
REMARK VINA RESULT:    -4.100      1.490      2.767
REMARK INTER + INTRA:          -8.855
REMARK INTER:                  -6.624
REMARK INTRA:                  -2.231
REMARK UNBOUND:                -2.598
REMARK SMILES CC(=O)CCC=C(C)CCC=C(C)CCC=C(C)C
REMARK SMILES IDX 10 1 11 2 12 3 13 4 14 5 15 6 16 7 18 8 17 9 19 10 9 11 7 12
REMARK SMILES IDX 6 13 8 14 5 15 4 16 2 17 3 18 1 19
REMARK H PARENT
REMARK Flexibility Score: inf
ROOT
ATOM      1  C   UNL     1     130.546 138.083 114.625  1.00  0.00     0.032 C 
ENDROOT
BRANCH   1   2
ATOM      2  C   UNL     1     129.766 137.570 115.815  1.00  0.00    -0.028 C 
ATOM      3  C   UNL     1     128.689 138.170 116.376  1.00  0.00    -0.077 C 
ATOM      4  C   UNL     1     128.065 137.516 117.582  1.00  0.00     0.039 C 
BRANCH   3   5
ATOM      5  C   UNL     1     128.080 139.455 115.849  1.00  0.00     0.034 C 
BRANCH   5   6
ATOM      6  C   UNL     1     126.703 139.202 115.227  1.00  0.00     0.032 C 
BRANCH   6   7
ATOM      7  C   UNL     1     126.841 138.698 113.812  1.00  0.00    -0.028 C 
ATOM      8  C   UNL     1     126.868 137.046 111.993  1.00  0.00     0.039 C 
ATOM      9  C   UNL     1     126.651 137.413 113.438  1.00  0.00    -0.080 C 
ATOM     10  C   UNL     1     126.216 136.349 114.419  1.00  0.00     0.039 C 
ENDBRANCH   6   7
ENDBRANCH   5   6
ENDBRANCH   3   5
ENDBRANCH   1   2
BRANCH   1  11
ATOM     11  C   UNL     1     131.873 138.720 115.064  1.00  0.00     0.034 C 
BRANCH  11  12
ATOM     12  C   UNL     1     131.678 140.088 115.685  1.00  0.00    -0.077 C 
ATOM     13  C   UNL     1     131.108 141.069 114.948  1.00  0.00    -0.028 C 
ATOM     14  C   UNL     1     132.125 140.319 117.109  1.00  0.00     0.039 C 
BRANCH  13  15
ATOM     15  C   UNL     1     130.805 142.459 115.458  1.00  0.00     0.035 C 
BRANCH  15  16
ATOM     16  C   UNL     1     129.485 142.992 114.889  1.00  0.00     0.079 C 
BRANCH  16  17
ATOM     17  C   UNL     1     128.678 143.712 115.941  1.00  0.00     0.130 C 
ATOM     18  O   UNL     1     128.341 144.871 115.753  1.00  0.00    -0.300 OA
ATOM     19  C   UNL     1     128.280 143.032 117.217  1.00  0.00     0.087 C 
ENDBRANCH  16  17
ENDBRANCH  15  16
ENDBRANCH  13  15
ENDBRANCH  11  12
ENDBRANCH   1  11
TORSDOF 9
ENDMDL
MODEL 9
REMARK VINA RESULT:    -4.090     12.305     14.622
REMARK INTER + INTRA:          -8.839
REMARK INTER:                  -5.886
REMARK INTRA:                  -2.953
REMARK UNBOUND:                -2.598
REMARK SMILES CC(=O)CCC=C(C)CCC=C(C)CCC=C(C)C
REMARK SMILES IDX 10 1 11 2 12 3 13 4 14 5 15 6 16 7 18 8 17 9 19 10 9 11 7 12
REMARK SMILES IDX 6 13 8 14 5 15 4 16 2 17 3 18 1 19
REMARK H PARENT
REMARK Flexibility Score: inf
ROOT
ATOM      1  C   UNL     1     140.381 133.670 123.253  1.00  0.00     0.032 C 
ENDROOT
BRANCH   1   2
ATOM      2  C   UNL     1     141.761 133.563 123.864  1.00  0.00    -0.028 C 
ATOM      3  C   UNL     1     142.924 133.916 123.266  1.00  0.00    -0.077 C 
ATOM      4  C   UNL     1     144.205 133.702 124.031  1.00  0.00     0.039 C 
BRANCH   3   5
ATOM      5  C   UNL     1     142.998 134.518 121.876  1.00  0.00     0.034 C 
BRANCH   5   6
ATOM      6  C   UNL     1     143.815 135.815 121.877  1.00  0.00     0.032 C 
BRANCH   6   7
ATOM      7  C   UNL     1     142.921 137.010 121.658  1.00  0.00    -0.028 C 
ATOM      8  C   UNL     1     141.423 138.857 122.277  1.00  0.00     0.039 C 
ATOM      9  C   UNL     1     142.327 137.710 122.650  1.00  0.00    -0.080 C 
ATOM     10  C   UNL     1     142.557 137.387 124.108  1.00  0.00     0.039 C 
ENDBRANCH   6   7
ENDBRANCH   5   6
ENDBRANCH   3   5
ENDBRANCH   1   2
BRANCH   1  11
ATOM     11  C   UNL     1     139.619 134.879 123.816  1.00  0.00     0.034 C 
BRANCH  11  12
ATOM     12  C   UNL     1     139.135 135.813 122.725  1.00  0.00    -0.077 C 
ATOM     13  C   UNL     1     139.455 135.543 121.438  1.00  0.00    -0.028 C 
ATOM     14  C   UNL     1     138.309 137.020 123.103  1.00  0.00     0.039 C 
BRANCH  13  15
ATOM     15  C   UNL     1     138.995 136.356 120.251  1.00  0.00     0.035 C 
BRANCH  15  16
ATOM     16  C   UNL     1     140.182 136.888 119.439  1.00  0.00     0.079 C 
BRANCH  16  17
ATOM     17  C   UNL     1     139.868 138.221 118.807  1.00  0.00     0.130 C 
ATOM     18  O   UNL     1     138.707 138.592 118.730  1.00  0.00    -0.300 OA
ATOM     19  C   UNL     1     140.955 139.104 118.270  1.00  0.00     0.087 C 
ENDBRANCH  16  17
ENDBRANCH  15  16
ENDBRANCH  13  15
ENDBRANCH  11  12
ENDBRANCH   1  11
TORSDOF 9
ENDMDL
