MODEL 1
REMARK VINA RESULT:    -7.680      0.000      0.000
REMARK INTER + INTRA:          -9.214
REMARK INTER:                  -9.251
REMARK INTRA:                   0.038
REMARK UNBOUND:                 0.038
REMARK SMILES O=c1c(O)c(-c2ccc(O)c(O)c2)oc2cc(O)cc(O)c12
REMARK SMILES IDX 5 1 3 2 2 3 1 4 22 5 20 6 19 7 17 8 16 9 15 10 14 11 6 12
REMARK SMILES IDX 7 13 8 14 9 15 13 16 11 17 10 18 12 20 4 22 21 24 18 26
REMARK H PARENT 10 19 12 21 4 23 21 25 18 27
REMARK Flexibility Score: inf
ROOT
ATOM      1  C   UNL     1     -16.878 -33.722  -8.751  1.00  0.00     0.180 A 
ATOM      2  C   UNL     1     -17.776 -34.463  -9.540  1.00  0.00     0.208 A 
ATOM      3  C   UNL     1     -18.195 -33.935 -10.771  1.00  0.00     0.238 A 
ATOM      4  O   UNL     1     -18.957 -34.626 -11.498  1.00  0.00    -0.285 OA
ATOM      5  C   UNL     1     -17.725 -32.667 -11.191  1.00  0.00     0.111 A 
ATOM      6  C   UNL     1     -18.115 -32.018 -12.402  1.00  0.00     0.134 A 
ATOM      7  C   UNL     1     -17.487 -30.825 -12.779  1.00  0.00     0.093 A 
ATOM      8  C   UNL     1     -16.530 -30.224 -11.957  1.00  0.00     0.123 A 
ATOM      9  C   UNL     1     -16.186 -30.819 -10.746  1.00  0.00     0.094 A 
ATOM     10  C   UNL     1     -16.769 -32.028 -10.359  1.00  0.00     0.146 A 
ATOM     11  O   UNL     1     -16.405 -32.567  -9.202  1.00  0.00    -0.452 OA
ENDROOT
BRANCH   1  12
ATOM     12  C   UNL     1     -16.411 -34.201  -7.430  1.00  0.00     0.025 A 
ATOM     13  C   UNL     1     -17.306 -34.737  -6.487  1.00  0.00     0.016 A 
ATOM     14  C   UNL     1     -16.845 -35.161  -5.238  1.00  0.00     0.051 A 
ATOM     15  C   UNL     1     -15.489 -35.043  -4.907  1.00  0.00     0.157 A 
ATOM     16  C   UNL     1     -15.056 -34.066  -7.085  1.00  0.00     0.062 A 
ATOM     17  C   UNL     1     -14.593 -34.491  -5.831  1.00  0.00     0.158 A 
BRANCH  15  18
ATOM     18  O   UNL     1     -15.025 -35.465  -3.662  1.00  0.00    -0.504 OA
ATOM     19  H   UNL     1     -15.106 -34.879  -2.840  1.00  0.00     0.293 HD
ENDBRANCH  15  18
BRANCH  17  20
ATOM     20  O   UNL     1     -13.245 -34.368  -5.499  1.00  0.00    -0.504 OA
ATOM     21  H   UNL     1     -12.911 -33.618  -4.906  1.00  0.00     0.293 HD
ENDBRANCH  17  20
ENDBRANCH   1  12
BRANCH   2  22
ATOM     22  O   UNL     1     -18.211 -35.721  -9.117  1.00  0.00    -0.502 OA
ATOM     23  H   UNL     1     -18.304 -36.506  -9.750  1.00  0.00     0.293 HD
ENDBRANCH   2  22
BRANCH   6  24
ATOM     24  O   UNL     1     -19.125 -32.485 -13.247  1.00  0.00    -0.507 OA
ATOM     25  H   UNL     1     -20.102 -32.247 -13.163  1.00  0.00     0.293 HD
ENDBRANCH   6  24
BRANCH   8  26
ATOM     26  O   UNL     1     -15.921 -29.028 -12.333  1.00  0.00    -0.508 OA
ATOM     27  H   UNL     1     -15.559 -28.889 -13.269  1.00  0.00     0.293 HD
ENDBRANCH   8  26
TORSDOF 6
ENDMDL
MODEL 2
REMARK VINA RESULT:    -7.653      1.158      1.371
REMARK INTER + INTRA:          -9.181
REMARK INTER:                  -9.241
REMARK INTRA:                   0.060
REMARK UNBOUND:                 0.038
REMARK SMILES O=c1c(O)c(-c2ccc(O)c(O)c2)oc2cc(O)cc(O)c12
REMARK SMILES IDX 5 1 3 2 2 3 1 4 22 5 20 6 19 7 17 8 16 9 15 10 14 11 6 12
REMARK SMILES IDX 7 13 8 14 9 15 13 16 11 17 10 18 12 20 4 22 21 24 18 26
REMARK H PARENT 10 19 12 21 4 23 21 25 18 27
REMARK Flexibility Score: inf
ROOT
ATOM      1  C   UNL     1     -17.115 -33.101  -8.971  1.00  0.00     0.180 A 
ATOM      2  C   UNL     1     -18.008 -33.442 -10.002  1.00  0.00     0.208 A 
ATOM      3  C   UNL     1     -18.080 -32.621 -11.138  1.00  0.00     0.238 A 
ATOM      4  O   UNL     1     -18.843 -32.961 -12.082  1.00  0.00    -0.285 OA
ATOM      5  C   UNL     1     -17.273 -31.462 -11.224  1.00  0.00     0.111 A 
ATOM      6  C   UNL     1     -17.294 -30.536 -12.311  1.00  0.00     0.134 A 
ATOM      7  C   UNL     1     -16.358 -29.496 -12.351  1.00  0.00     0.093 A 
ATOM      8  C   UNL     1     -15.446 -29.308 -11.310  1.00  0.00     0.123 A 
ATOM      9  C   UNL     1     -15.456 -30.170 -10.216  1.00  0.00     0.094 A 
ATOM     10  C   UNL     1     -16.354 -31.240 -10.165  1.00  0.00     0.146 A 
ATOM     11  O   UNL     1     -16.323 -32.044  -9.110  1.00  0.00    -0.452 OA
ENDROOT
BRANCH   1  12
ATOM     12  C   UNL     1     -17.000 -33.902  -7.731  1.00  0.00     0.025 A 
ATOM     13  C   UNL     1     -18.139 -34.377  -7.059  1.00  0.00     0.016 A 
ATOM     14  C   UNL     1     -18.006 -35.112  -5.877  1.00  0.00     0.051 A 
ATOM     15  C   UNL     1     -16.737 -35.369  -5.344  1.00  0.00     0.157 A 
ATOM     16  C   UNL     1     -15.730 -34.146  -7.181  1.00  0.00     0.062 A 
ATOM     17  C   UNL     1     -15.597 -34.883  -5.995  1.00  0.00     0.158 A 
BRANCH  15  18
ATOM     18  O   UNL     1     -16.600 -36.103  -4.166  1.00  0.00    -0.504 OA
ATOM     19  H   UNL     1     -16.290 -35.669  -3.305  1.00  0.00     0.293 HD
ENDBRANCH  15  18
BRANCH  17  20
ATOM     20  O   UNL     1     -14.335 -35.135  -5.460  1.00  0.00    -0.504 OA
ATOM     21  H   UNL     1     -13.494 -35.047  -6.018  1.00  0.00     0.293 HD
ENDBRANCH  17  20
ENDBRANCH   1  12
BRANCH   2  22
ATOM     22  O   UNL     1     -18.781 -34.602  -9.907  1.00  0.00    -0.502 OA
ATOM     23  H   UNL     1     -19.308 -34.969 -10.689  1.00  0.00     0.293 HD
ENDBRANCH   2  22
BRANCH   6  24
ATOM     24  O   UNL     1     -18.224 -30.580 -13.354  1.00  0.00    -0.507 OA
ATOM     25  H   UNL     1     -18.802 -31.377 -13.577  1.00  0.00     0.293 HD
ENDBRANCH   6  24
BRANCH   8  26
ATOM     26  O   UNL     1     -14.528 -28.260 -11.350  1.00  0.00    -0.508 OA
ATOM     27  H   UNL     1     -14.536 -27.522 -10.657  1.00  0.00     0.293 HD
ENDBRANCH   8  26
TORSDOF 6
ENDMDL
MODEL 3
REMARK VINA RESULT:    -7.568      1.432      1.907
REMARK INTER + INTRA:          -9.080
REMARK INTER:                  -9.095
REMARK INTRA:                   0.015
REMARK UNBOUND:                 0.038
REMARK SMILES O=c1c(O)c(-c2ccc(O)c(O)c2)oc2cc(O)cc(O)c12
REMARK SMILES IDX 5 1 3 2 2 3 1 4 22 5 20 6 19 7 17 8 16 9 15 10 14 11 6 12
REMARK SMILES IDX 7 13 8 14 9 15 13 16 11 17 10 18 12 20 4 22 21 24 18 26
REMARK H PARENT 10 19 12 21 4 23 21 25 18 27
REMARK Flexibility Score: inf
ROOT
ATOM      1  C   UNL     1     -16.000 -32.539  -9.411  1.00  0.00     0.180 A 
ATOM      2  C   UNL     1     -16.856 -32.989 -10.431  1.00  0.00     0.208 A 
ATOM      3  C   UNL     1     -17.093 -32.159 -11.537  1.00  0.00     0.238 A 
ATOM      4  O   UNL     1     -17.818 -32.590 -12.472  1.00  0.00    -0.285 OA
ATOM      5  C   UNL     1     -16.485 -30.883 -11.604  1.00  0.00     0.111 A 
ATOM      6  C   UNL     1     -16.687 -29.942 -12.659  1.00  0.00     0.134 A 
ATOM      7  C   UNL     1     -15.932 -28.763 -12.687  1.00  0.00     0.093 A 
ATOM      8  C   UNL     1     -15.031 -28.461 -11.664  1.00  0.00     0.123 A 
ATOM      9  C   UNL     1     -14.871 -29.344 -10.599  1.00  0.00     0.094 A 
ATOM     10  C   UNL     1     -15.583 -30.546 -10.561  1.00  0.00     0.146 A 
ATOM     11  O   UNL     1     -15.393 -31.364  -9.534  1.00  0.00    -0.452 OA
ENDROOT
BRANCH   1  12
ATOM     12  C   UNL     1     -15.721 -33.346  -8.201  1.00  0.00     0.025 A 
ATOM     13  C   UNL     1     -16.757 -33.962  -7.478  1.00  0.00     0.016 A 
ATOM     14  C   UNL     1     -16.472 -34.700  -6.326  1.00  0.00     0.051 A 
ATOM     15  C   UNL     1     -15.153 -34.821  -5.873  1.00  0.00     0.157 A 
ATOM     16  C   UNL     1     -14.402 -33.453  -7.731  1.00  0.00     0.062 A 
ATOM     17  C   UNL     1     -14.115 -34.194  -6.574  1.00  0.00     0.158 A 
BRANCH  15  18
ATOM     18  O   UNL     1     -14.864 -35.557  -4.725  1.00  0.00    -0.504 OA
ATOM     19  H   UNL     1     -14.327 -35.161  -3.963  1.00  0.00     0.293 HD
ENDBRANCH  15  18
BRANCH  17  20
ATOM     20  O   UNL     1     -12.804 -34.310  -6.119  1.00  0.00    -0.504 OA
ATOM     21  H   UNL     1     -12.582 -34.295  -5.131  1.00  0.00     0.293 HD
ENDBRANCH  17  20
ENDBRANCH   1  12
BRANCH   2  22
ATOM     22  O   UNL     1     -17.430 -34.262 -10.355  1.00  0.00    -0.502 OA
ATOM     23  H   UNL     1     -17.076 -35.049 -10.884  1.00  0.00     0.293 HD
ENDBRANCH   2  22
BRANCH   6  24
ATOM     24  O   UNL     1     -17.627 -30.105 -13.680  1.00  0.00    -0.507 OA
ATOM     25  H   UNL     1     -18.618 -30.232 -13.535  1.00  0.00     0.293 HD
ENDBRANCH   6  24
BRANCH   8  26
ATOM     26  O   UNL     1     -14.295 -27.278 -11.692  1.00  0.00    -0.508 OA
ATOM     27  H   UNL     1     -14.383 -26.617 -12.454  1.00  0.00     0.293 HD
ENDBRANCH   8  26
TORSDOF 6
ENDMDL
MODEL 4
REMARK VINA RESULT:    -7.479      2.082      3.738
REMARK INTER + INTRA:          -8.972
REMARK INTER:                  -8.649
REMARK INTRA:                  -0.323
REMARK UNBOUND:                 0.038
REMARK SMILES O=c1c(O)c(-c2ccc(O)c(O)c2)oc2cc(O)cc(O)c12
REMARK SMILES IDX 5 1 3 2 2 3 1 4 22 5 20 6 19 7 17 8 16 9 15 10 14 11 6 12
REMARK SMILES IDX 7 13 8 14 9 15 13 16 11 17 10 18 12 20 4 22 21 24 18 26
REMARK H PARENT 10 19 12 21 4 23 21 25 18 27
REMARK Flexibility Score: inf
ROOT
ATOM      1  C   UNL     1     -15.598 -31.651  -9.461  1.00  0.00     0.180 A 
ATOM      2  C   UNL     1     -15.732 -30.296  -9.110  1.00  0.00     0.208 A 
ATOM      3  C   UNL     1     -16.347 -29.416 -10.013  1.00  0.00     0.238 A 
ATOM      4  O   UNL     1     -16.512 -28.216  -9.671  1.00  0.00    -0.285 OA
ATOM      5  C   UNL     1     -16.806 -29.897 -11.263  1.00  0.00     0.111 A 
ATOM      6  C   UNL     1     -17.408 -29.085 -12.272  1.00  0.00     0.134 A 
ATOM      7  C   UNL     1     -17.944 -29.690 -13.416  1.00  0.00     0.093 A 
ATOM      8  C   UNL     1     -17.840 -31.068 -13.618  1.00  0.00     0.123 A 
ATOM      9  C   UNL     1     -17.201 -31.861 -12.667  1.00  0.00     0.094 A 
ATOM     10  C   UNL     1     -16.689 -31.291 -11.498  1.00  0.00     0.146 A 
ATOM     11  O   UNL     1     -16.097 -32.084 -10.613  1.00  0.00    -0.452 OA
ENDROOT
BRANCH   1  12
ATOM     12  C   UNL     1     -14.938 -32.635  -8.572  1.00  0.00     0.025 A 
ATOM     13  C   UNL     1     -13.539 -32.776  -8.548  1.00  0.00     0.016 A 
ATOM     14  C   UNL     1     -12.941 -33.727  -7.717  1.00  0.00     0.051 A 
ATOM     15  C   UNL     1     -13.729 -34.559  -6.912  1.00  0.00     0.157 A 
ATOM     16  C   UNL     1     -15.725 -33.486  -7.778  1.00  0.00     0.062 A 
ATOM     17  C   UNL     1     -15.124 -34.441  -6.945  1.00  0.00     0.158 A 
BRANCH  15  18
ATOM     18  O   UNL     1     -13.135 -35.508  -6.081  1.00  0.00    -0.504 OA
ATOM     19  H   UNL     1     -13.689 -36.096  -5.470  1.00  0.00     0.293 HD
ENDBRANCH  15  18
BRANCH  17  20
ATOM     20  O   UNL     1     -15.907 -35.273  -6.148  1.00  0.00    -0.504 OA
ATOM     21  H   UNL     1     -16.743 -35.719  -6.506  1.00  0.00     0.293 HD
ENDBRANCH  17  20
ENDBRANCH   1  12
BRANCH   2  22
ATOM     22  O   UNL     1     -15.290 -29.848  -7.862  1.00  0.00    -0.502 OA
ATOM     23  H   UNL     1     -14.357 -30.034  -7.517  1.00  0.00     0.293 HD
ENDBRANCH   2  22
BRANCH   6  24
ATOM     24  O   UNL     1     -17.481 -27.691 -12.212  1.00  0.00    -0.507 OA
ATOM     25  H   UNL     1     -17.061 -27.124 -11.490  1.00  0.00     0.293 HD
ENDBRANCH   6  24
BRANCH   8  26
ATOM     26  O   UNL     1     -18.361 -31.660 -14.766  1.00  0.00    -0.508 OA
ATOM     27  H   UNL     1     -19.359 -31.783 -14.892  1.00  0.00     0.293 HD
ENDBRANCH   8  26
TORSDOF 6
ENDMDL
MODEL 5
REMARK VINA RESULT:    -7.443      1.910      3.495
REMARK INTER + INTRA:          -8.929
REMARK INTER:                  -8.671
REMARK INTRA:                  -0.257
REMARK UNBOUND:                 0.038
REMARK SMILES O=c1c(O)c(-c2ccc(O)c(O)c2)oc2cc(O)cc(O)c12
REMARK SMILES IDX 5 1 3 2 2 3 1 4 22 5 20 6 19 7 17 8 16 9 15 10 14 11 6 12
REMARK SMILES IDX 7 13 8 14 9 15 13 16 11 17 10 18 12 20 4 22 21 24 18 26
REMARK H PARENT 10 19 12 21 4 23 21 25 18 27
REMARK Flexibility Score: inf
ROOT
ATOM      1  C   UNL     1     -16.747 -31.782  -9.748  1.00  0.00     0.180 A 
ATOM      2  C   UNL     1     -16.420 -30.448  -9.445  1.00  0.00     0.208 A 
ATOM      3  C   UNL     1     -16.338 -29.514 -10.489  1.00  0.00     0.238 A 
ATOM      4  O   UNL     1     -16.098 -28.311 -10.207  1.00  0.00    -0.285 OA
ATOM      5  C   UNL     1     -16.567 -29.926 -11.824  1.00  0.00     0.111 A 
ATOM      6  C   UNL     1     -16.470 -29.073 -12.965  1.00  0.00     0.134 A 
ATOM      7  C   UNL     1     -16.846 -29.557 -14.223  1.00  0.00     0.093 A 
ATOM      8  C   UNL     1     -17.251 -30.883 -14.393  1.00  0.00     0.123 A 
ATOM      9  C   UNL     1     -17.292 -31.741 -13.296  1.00  0.00     0.094 A 
ATOM     10  C   UNL     1     -16.958 -31.276 -12.021  1.00  0.00     0.146 A 
ATOM     11  O   UNL     1     -17.020 -32.123 -11.001  1.00  0.00    -0.452 OA
ENDROOT
BRANCH   1  12
ATOM     12  C   UNL     1     -16.828 -32.829  -8.704  1.00  0.00     0.025 A 
ATOM     13  C   UNL     1     -18.066 -33.299  -8.233  1.00  0.00     0.016 A 
ATOM     14  C   UNL     1     -18.117 -34.272  -7.231  1.00  0.00     0.051 A 
ATOM     15  C   UNL     1     -16.935 -34.777  -6.675  1.00  0.00     0.157 A 
ATOM     16  C   UNL     1     -15.645 -33.324  -8.129  1.00  0.00     0.062 A 
ATOM     17  C   UNL     1     -15.696 -34.300  -7.123  1.00  0.00     0.158 A 
BRANCH  15  18
ATOM     18  O   UNL     1     -16.981 -35.748  -5.676  1.00  0.00    -0.504 OA
ATOM     19  H   UNL     1     -16.950 -36.737  -5.897  1.00  0.00     0.293 HD
ENDBRANCH  15  18
BRANCH  17  20
ATOM     20  O   UNL     1     -14.521 -34.800  -6.565  1.00  0.00    -0.504 OA
ATOM     21  H   UNL     1     -13.680 -34.237  -6.507  1.00  0.00     0.293 HD
ENDBRANCH  17  20
ENDBRANCH   1  12
BRANCH   2  22
ATOM     22  O   UNL     1     -16.219 -30.058  -8.118  1.00  0.00    -0.502 OA
ATOM     23  H   UNL     1     -15.395 -29.551  -7.820  1.00  0.00     0.293 HD
ENDBRANCH   2  22
BRANCH   6  24
ATOM     24  O   UNL     1     -15.990 -27.761 -12.919  1.00  0.00    -0.507 OA
ATOM     25  H   UNL     1     -15.247 -27.400 -13.498  1.00  0.00     0.293 HD
ENDBRANCH   6  24
BRANCH   8  26
ATOM     26  O   UNL     1     -17.608 -31.361 -15.652  1.00  0.00    -0.508 OA
ATOM     27  H   UNL     1     -17.219 -30.965 -16.499  1.00  0.00     0.293 HD
ENDBRANCH   8  26
TORSDOF 6
ENDMDL
MODEL 6
REMARK VINA RESULT:    -7.374      2.196      3.756
REMARK INTER + INTRA:          -8.845
REMARK INTER:                  -8.871
REMARK INTRA:                   0.025
REMARK UNBOUND:                 0.038
REMARK SMILES O=c1c(O)c(-c2ccc(O)c(O)c2)oc2cc(O)cc(O)c12
REMARK SMILES IDX 5 1 3 2 2 3 1 4 22 5 20 6 19 7 17 8 16 9 15 10 14 11 6 12
REMARK SMILES IDX 7 13 8 14 9 15 13 16 11 17 10 18 12 20 4 22 21 24 18 26
REMARK H PARENT 10 19 12 21 4 23 21 25 18 27
REMARK Flexibility Score: inf
ROOT
ATOM      1  C   UNL     1     -16.804 -32.668  -9.391  1.00  0.00     0.180 A 
ATOM      2  C   UNL     1     -15.617 -32.050  -8.958  1.00  0.00     0.208 A 
ATOM      3  C   UNL     1     -15.157 -30.911  -9.636  1.00  0.00     0.238 A 
ATOM      4  O   UNL     1     -14.123 -30.331  -9.210  1.00  0.00    -0.285 OA
ATOM      5  C   UNL     1     -15.877 -30.412 -10.747  1.00  0.00     0.111 A 
ATOM      6  C   UNL     1     -15.480 -29.288 -11.534  1.00  0.00     0.134 A 
ATOM      7  C   UNL     1     -16.338 -28.804 -12.529  1.00  0.00     0.093 A 
ATOM      8  C   UNL     1     -17.548 -29.444 -12.810  1.00  0.00     0.123 A 
ATOM      9  C   UNL     1     -17.916 -30.577 -12.089  1.00  0.00     0.094 A 
ATOM     10  C   UNL     1     -17.098 -31.062 -11.065  1.00  0.00     0.146 A 
ATOM     11  O   UNL     1     -17.492 -32.138 -10.395  1.00  0.00    -0.452 OA
ENDROOT
BRANCH   1  12
ATOM     12  C   UNL     1     -17.339 -33.887  -8.743  1.00  0.00     0.025 A 
ATOM     13  C   UNL     1     -17.718 -35.011  -9.498  1.00  0.00     0.016 A 
ATOM     14  C   UNL     1     -18.242 -36.141  -8.866  1.00  0.00     0.051 A 
ATOM     15  C   UNL     1     -18.409 -36.161  -7.476  1.00  0.00     0.157 A 
ATOM     16  C   UNL     1     -17.528 -33.904  -7.351  1.00  0.00     0.062 A 
ATOM     17  C   UNL     1     -18.055 -35.038  -6.716  1.00  0.00     0.158 A 
BRANCH  15  18
ATOM     18  O   UNL     1     -18.931 -37.287  -6.841  1.00  0.00    -0.504 OA
ATOM     19  H   UNL     1     -19.774 -37.237  -6.282  1.00  0.00     0.293 HD
ENDBRANCH  15  18
BRANCH  17  20
ATOM     20  O   UNL     1     -18.227 -35.057  -5.334  1.00  0.00    -0.504 OA
ATOM     21  H   UNL     1     -18.477 -34.221  -4.819  1.00  0.00     0.293 HD
ENDBRANCH  17  20
ENDBRANCH   1  12
BRANCH   2  22
ATOM     22  O   UNL     1     -14.932 -32.546  -7.845  1.00  0.00    -0.502 OA
ATOM     23  H   UNL     1     -15.411 -32.896  -7.024  1.00  0.00     0.293 HD
ENDBRANCH   2  22
BRANCH   6  24
ATOM     24  O   UNL     1     -14.253 -28.634 -11.395  1.00  0.00    -0.507 OA
ATOM     25  H   UNL     1     -13.917 -27.905 -12.007  1.00  0.00     0.293 HD
ENDBRANCH   6  24
BRANCH   8  26
ATOM     26  O   UNL     1     -18.388 -28.965 -13.813  1.00  0.00    -0.508 OA
ATOM     27  H   UNL     1     -18.388 -27.988 -14.083  1.00  0.00     0.293 HD
ENDBRANCH   8  26
TORSDOF 6
ENDMDL
MODEL 7
REMARK VINA RESULT:    -7.348      1.864      2.805
REMARK INTER + INTRA:          -8.815
REMARK INTER:                  -9.250
REMARK INTRA:                   0.435
REMARK UNBOUND:                 0.038
REMARK SMILES O=c1c(O)c(-c2ccc(O)c(O)c2)oc2cc(O)cc(O)c12
REMARK SMILES IDX 5 1 3 2 2 3 1 4 22 5 20 6 19 7 17 8 16 9 15 10 14 11 6 12
REMARK SMILES IDX 7 13 8 14 9 15 13 16 11 17 10 18 12 20 4 22 21 24 18 26
REMARK H PARENT 10 19 12 21 4 23 21 25 18 27
REMARK Flexibility Score: inf
ROOT
ATOM      1  C   UNL     1     -16.752 -35.031  -6.504  1.00  0.00     0.180 A 
ATOM      2  C   UNL     1     -17.706 -35.911  -7.046  1.00  0.00     0.208 A 
ATOM      3  C   UNL     1     -18.152 -35.705  -8.360  1.00  0.00     0.238 A 
ATOM      4  O   UNL     1     -18.966 -36.528  -8.858  1.00  0.00    -0.285 OA
ATOM      5  C   UNL     1     -17.654 -34.614  -9.112  1.00  0.00     0.111 A 
ATOM      6  C   UNL     1     -18.067 -34.287 -10.439  1.00  0.00     0.134 A 
ATOM      7  C   UNL     1     -17.412 -33.264 -11.134  1.00  0.00     0.093 A 
ATOM      8  C   UNL     1     -16.403 -32.512 -10.526  1.00  0.00     0.123 A 
ATOM      9  C   UNL     1     -16.034 -32.784  -9.211  1.00  0.00     0.094 A 
ATOM     10  C   UNL     1     -16.645 -33.823  -8.504  1.00  0.00     0.146 A 
ATOM     11  O   UNL     1     -16.256 -34.056  -7.256  1.00  0.00    -0.452 OA
ENDROOT
BRANCH   1  12
ATOM     12  C   UNL     1     -16.252 -35.168  -5.117  1.00  0.00     0.025 A 
ATOM     13  C   UNL     1     -16.487 -36.332  -4.366  1.00  0.00     0.016 A 
ATOM     14  C   UNL     1     -16.025 -36.429  -3.050  1.00  0.00     0.051 A 
ATOM     15  C   UNL     1     -15.336 -35.361  -2.463  1.00  0.00     0.157 A 
ATOM     16  C   UNL     1     -15.578 -34.091  -4.516  1.00  0.00     0.062 A 
ATOM     17  C   UNL     1     -15.114 -34.188  -3.196  1.00  0.00     0.158 A 
BRANCH  15  18
ATOM     18  O   UNL     1     -14.872 -35.454  -1.151  1.00  0.00    -0.504 OA
ATOM     19  H   UNL     1     -15.455 -35.193  -0.365  1.00  0.00     0.293 HD
ENDBRANCH  15  18
BRANCH  17  20
ATOM     20  O   UNL     1     -14.433 -33.124  -2.608  1.00  0.00    -0.504 OA
ATOM     21  H   UNL     1     -14.423 -32.990  -1.604  1.00  0.00     0.293 HD
ENDBRANCH  17  20
ENDBRANCH   1  12
BRANCH   2  22
ATOM     22  O   UNL     1     -18.169 -36.994  -6.294  1.00  0.00    -0.502 OA
ATOM     23  H   UNL     1     -18.207 -36.977  -5.282  1.00  0.00     0.293 HD
ENDBRANCH   2  22
BRANCH   6  24
ATOM     24  O   UNL     1     -19.125 -34.914 -11.103  1.00  0.00    -0.507 OA
ATOM     25  H   UNL     1     -19.495 -35.823 -10.867  1.00  0.00     0.293 HD
ENDBRANCH   6  24
BRANCH   8  26
ATOM     26  O   UNL     1     -15.767 -31.485 -11.219  1.00  0.00    -0.508 OA
ATOM     27  H   UNL     1     -14.928 -31.044 -10.861  1.00  0.00     0.293 HD
ENDBRANCH   8  26
TORSDOF 6
ENDMDL
MODEL 8
REMARK VINA RESULT:    -7.121      1.602      7.185
REMARK INTER + INTRA:          -8.541
REMARK INTER:                  -8.382
REMARK INTRA:                  -0.158
REMARK UNBOUND:                 0.038
REMARK SMILES O=c1c(O)c(-c2ccc(O)c(O)c2)oc2cc(O)cc(O)c12
REMARK SMILES IDX 5 1 3 2 2 3 1 4 22 5 20 6 19 7 17 8 16 9 15 10 14 11 6 12
REMARK SMILES IDX 7 13 8 14 9 15 13 16 11 17 10 18 12 20 4 22 21 24 18 26
REMARK H PARENT 10 19 12 21 4 23 21 25 18 27
REMARK Flexibility Score: inf
ROOT
ATOM      1  C   UNL     1     -16.206 -32.288  -9.390  1.00  0.00     0.180 A 
ATOM      2  C   UNL     1     -14.948 -32.333  -8.761  1.00  0.00     0.208 A 
ATOM      3  C   UNL     1     -14.765 -33.193  -7.668  1.00  0.00     0.238 A 
ATOM      4  O   UNL     1     -13.622 -33.269  -7.144  1.00  0.00    -0.285 OA
ATOM      5  C   UNL     1     -15.843 -33.985  -7.205  1.00  0.00     0.111 A 
ATOM      6  C   UNL     1     -15.780 -34.863  -6.080  1.00  0.00     0.134 A 
ATOM      7  C   UNL     1     -16.869 -35.695  -5.792  1.00  0.00     0.093 A 
ATOM      8  C   UNL     1     -18.041 -35.635  -6.549  1.00  0.00     0.123 A 
ATOM      9  C   UNL     1     -18.134 -34.740  -7.612  1.00  0.00     0.094 A 
ATOM     10  C   UNL     1     -17.051 -33.922  -7.946  1.00  0.00     0.146 A 
ATOM     11  O   UNL     1     -17.178 -33.091  -8.974  1.00  0.00    -0.452 OA
ENDROOT
BRANCH   1  12
ATOM     12  C   UNL     1     -16.484 -31.387 -10.532  1.00  0.00     0.025 A 
ATOM     13  C   UNL     1     -16.383 -29.991 -10.404  1.00  0.00     0.016 A 
ATOM     14  C   UNL     1     -16.673 -29.161 -11.490  1.00  0.00     0.051 A 
ATOM     15  C   UNL     1     -17.081 -29.710 -12.712  1.00  0.00     0.157 A 
ATOM     16  C   UNL     1     -16.914 -31.933 -11.753  1.00  0.00     0.062 A 
ATOM     17  C   UNL     1     -17.205 -31.100 -12.843  1.00  0.00     0.158 A 
BRANCH  15  18
ATOM     18  O   UNL     1     -17.371 -28.885 -13.798  1.00  0.00    -0.504 OA
ATOM     19  H   UNL     1     -16.751 -28.827 -14.597  1.00  0.00     0.293 HD
ENDBRANCH  15  18
BRANCH  17  20
ATOM     20  O   UNL     1     -17.617 -31.645 -14.057  1.00  0.00    -0.504 OA
ATOM     21  H   UNL     1     -18.473 -31.348 -14.510  1.00  0.00     0.293 HD
ENDBRANCH  17  20
ENDBRANCH   1  12
BRANCH   2  22
ATOM     22  O   UNL     1     -13.892 -31.558  -9.248  1.00  0.00    -0.502 OA
ATOM     23  H   UNL     1     -13.715 -30.616  -8.923  1.00  0.00     0.293 HD
ENDBRANCH   2  22
BRANCH   6  24
ATOM     24  O   UNL     1     -14.692 -34.933  -5.205  1.00  0.00    -0.507 OA
ATOM     25  H   UNL     1     -14.738 -34.750  -4.214  1.00  0.00     0.293 HD
ENDBRANCH   6  24
BRANCH   8  26
ATOM     26  O   UNL     1     -19.125 -36.457  -6.246  1.00  0.00    -0.508 OA
ATOM     27  H   UNL     1     -19.062 -37.465  -6.320  1.00  0.00     0.293 HD
ENDBRANCH   8  26
TORSDOF 6
ENDMDL
MODEL 9
REMARK VINA RESULT:    -7.083      1.883      7.525
REMARK INTER + INTRA:          -8.494
REMARK INTER:                  -8.340
REMARK INTRA:                  -0.154
REMARK UNBOUND:                 0.038
REMARK SMILES O=c1c(O)c(-c2ccc(O)c(O)c2)oc2cc(O)cc(O)c12
REMARK SMILES IDX 5 1 3 2 2 3 1 4 22 5 20 6 19 7 17 8 16 9 15 10 14 11 6 12
REMARK SMILES IDX 7 13 8 14 9 15 13 16 11 17 10 18 12 20 4 22 21 24 18 26
REMARK H PARENT 10 19 12 21 4 23 21 25 18 27
REMARK Flexibility Score: inf
ROOT
ATOM      1  C   UNL     1     -16.864 -31.641 -11.144  1.00  0.00     0.180 A 
ATOM      2  C   UNL     1     -15.780 -31.289 -10.320  1.00  0.00     0.208 A 
ATOM      3  C   UNL     1     -15.523 -32.052  -9.170  1.00  0.00     0.238 A 
ATOM      4  O   UNL     1     -14.519 -31.765  -8.466  1.00  0.00    -0.285 OA
ATOM      5  C   UNL     1     -16.361 -33.146  -8.848  1.00  0.00     0.111 A 
ATOM      6  C   UNL     1     -16.218 -33.963  -7.686  1.00  0.00     0.134 A 
ATOM      7  C   UNL     1     -17.024 -35.099  -7.536  1.00  0.00     0.093 A 
ATOM      8  C   UNL     1     -18.012 -35.409  -8.474  1.00  0.00     0.123 A 
ATOM      9  C   UNL     1     -18.199 -34.584  -9.581  1.00  0.00     0.094 A 
ATOM     10  C   UNL     1     -17.387 -33.465  -9.776  1.00  0.00     0.146 A 
ATOM     11  O   UNL     1     -17.592 -32.712 -10.850  1.00  0.00    -0.452 OA
ENDROOT
BRANCH   1  12
ATOM     12  C   UNL     1     -17.213 -30.870 -12.358  1.00  0.00     0.025 A 
ATOM     13  C   UNL     1     -17.576 -29.514 -12.285  1.00  0.00     0.016 A 
ATOM     14  C   UNL     1     -17.924 -28.813 -13.443  1.00  0.00     0.051 A 
ATOM     15  C   UNL     1     -17.930 -29.459 -14.686  1.00  0.00     0.157 A 
ATOM     16  C   UNL     1     -17.241 -31.519 -13.605  1.00  0.00     0.062 A 
ATOM     17  C   UNL     1     -17.590 -30.815 -14.767  1.00  0.00     0.158 A 
BRANCH  15  18
ATOM     18  O   UNL     1     -18.275 -28.763 -15.843  1.00  0.00    -0.504 OA
ATOM     19  H   UNL     1     -17.982 -27.805 -15.992  1.00  0.00     0.293 HD
ENDBRANCH  15  18
BRANCH  17  20
ATOM     20  O   UNL     1     -17.602 -31.458 -16.003  1.00  0.00    -0.504 OA
ATOM     21  H   UNL     1     -17.884 -30.977 -16.848  1.00  0.00     0.293 HD
ENDBRANCH  17  20
ENDBRANCH   1  12
BRANCH   2  22
ATOM     22  O   UNL     1     -14.952 -30.218 -10.668  1.00  0.00    -0.502 OA
ATOM     23  H   UNL     1     -14.031 -30.091 -10.267  1.00  0.00     0.293 HD
ENDBRANCH   2  22
BRANCH   6  24
ATOM     24  O   UNL     1     -15.326 -33.690  -6.646  1.00  0.00    -0.507 OA
ATOM     25  H   UNL     1     -15.441 -32.952  -5.967  1.00  0.00     0.293 HD
ENDBRANCH   6  24
BRANCH   8  26
ATOM     26  O   UNL     1     -18.820 -36.532  -8.309  1.00  0.00    -0.508 OA
ATOM     27  H   UNL     1     -18.475 -37.465  -8.501  1.00  0.00     0.293 HD
ENDBRANCH   8  26
TORSDOF 6
ENDMDL
