MODEL 1
REMARK VINA RESULT:    -4.827      0.000      0.000
REMARK INTER + INTRA:          -6.457
REMARK INTER:                  -6.238
REMARK INTRA:                  -0.219
REMARK UNBOUND:                -0.219
REMARK SMILES CCCCCCC(=O)[O-]
REMARK SMILES IDX 5 1 6 2 7 3 8 4 9 5 4 6 3 7 2 8 1 9
REMARK H PARENT
REMARK Flexibility Score: inf
ROOT
ATOM      1  C   UNL     1      -2.468   5.083   4.875  1.00  0.00     0.006 C 
ENDROOT
BRANCH   1   2
ATOM      2  C   UNL     1      -2.811   4.331   6.167  1.00  0.00     0.053 C 
BRANCH   2   3
ATOM      3  C   UNL     1      -2.227   2.954   6.144  1.00  0.00     0.041 C 
ATOM      4  O   UNL     1      -2.476   2.177   5.184  1.00  0.00    -0.550 OA
ATOM      5  O   UNL     1      -1.449   2.510   7.205  1.00  0.00    -0.550 OA
ENDBRANCH   2   3
ENDBRANCH   1   2
BRANCH   1   6
ATOM      6  C   UNL     1      -3.590   6.051   4.447  1.00  0.00     0.000 C 
BRANCH   6   7
ATOM      7  C   UNL     1      -3.121   7.506   4.282  1.00  0.00    -0.000 C 
BRANCH   7   8
ATOM      8  C   UNL     1      -3.763   8.460   5.297  1.00  0.00    -0.003 C 
ATOM      9  C   UNL     1      -4.521   7.689   6.373  1.00  0.00     0.004 C 
ENDBRANCH   7   8
ENDBRANCH   6   7
ENDBRANCH   1   6
TORSDOF 5
ENDMDL
MODEL 2
REMARK VINA RESULT:    -4.405      4.452      5.518
REMARK INTER + INTRA:          -5.911
REMARK INTER:                  -5.772
REMARK INTRA:                  -0.139
REMARK UNBOUND:                -0.219
REMARK SMILES CCCCCCC(=O)[O-]
REMARK SMILES IDX 5 1 6 2 7 3 8 4 9 5 4 6 3 7 2 8 1 9
REMARK H PARENT
REMARK Flexibility Score: inf
ROOT
ATOM      1  C   UNL     1      -5.774   6.330   7.601  1.00  0.00     0.006 C 
ENDROOT
BRANCH   1   2
ATOM      2  C   UNL     1      -6.381   7.243   8.674  1.00  0.00     0.053 C 
BRANCH   2   3
ATOM      3  C   UNL     1      -7.875   7.157   8.653  1.00  0.00     0.041 C 
ATOM      4  O   UNL     1      -8.564   7.948   9.350  1.00  0.00    -0.550 OA
ATOM      5  O   UNL     1      -8.504   6.171   7.904  1.00  0.00    -0.550 OA
ENDBRANCH   2   3
ENDBRANCH   1   2
BRANCH   1   6
ATOM      6  C   UNL     1      -4.780   7.080   6.690  1.00  0.00     0.000 C 
BRANCH   6   7
ATOM      7  C   UNL     1      -4.082   6.175   5.662  1.00  0.00    -0.000 C 
BRANCH   7   8
ATOM      8  C   UNL     1      -3.473   6.960   4.492  1.00  0.00    -0.003 C 
ATOM      9  C   UNL     1      -3.841   8.438   4.571  1.00  0.00     0.004 C 
ENDBRANCH   7   8
ENDBRANCH   6   7
ENDBRANCH   1   6
TORSDOF 5
ENDMDL
MODEL 3
REMARK VINA RESULT:    -4.242      2.352      3.600
REMARK INTER + INTRA:          -5.701
REMARK INTER:                  -5.476
REMARK INTRA:                  -0.225
REMARK UNBOUND:                -0.219
REMARK SMILES CCCCCCC(=O)[O-]
REMARK SMILES IDX 5 1 6 2 7 3 8 4 9 5 4 6 3 7 2 8 1 9
REMARK H PARENT
REMARK Flexibility Score: inf
ROOT
ATOM      1  C   UNL     1      -4.101   7.933   5.589  1.00  0.00     0.006 C 
ENDROOT
BRANCH   1   2
ATOM      2  C   UNL     1      -4.282   6.628   4.802  1.00  0.00     0.053 C 
BRANCH   2   3
ATOM      3  C   UNL     1      -3.010   5.840   4.793  1.00  0.00     0.041 C 
ATOM      4  O   UNL     1      -2.044   6.206   4.073  1.00  0.00    -0.550 OA
ATOM      5  O   UNL     1      -2.910   4.674   5.539  1.00  0.00    -0.550 OA
ENDBRANCH   2   3
ENDBRANCH   1   2
BRANCH   1   6
ATOM      6  C   UNL     1      -4.583   7.805   7.049  1.00  0.00     0.000 C 
BRANCH   6   7
ATOM      7  C   UNL     1      -5.561   6.640   7.277  1.00  0.00    -0.000 C 
BRANCH   7   8
ATOM      8  C   UNL     1      -6.294   6.731   8.621  1.00  0.00    -0.003 C 
ATOM      9  C   UNL     1      -5.825   7.940   9.424  1.00  0.00     0.004 C 
ENDBRANCH   7   8
ENDBRANCH   6   7
ENDBRANCH   1   6
TORSDOF 5
ENDMDL
MODEL 4
REMARK VINA RESULT:    -4.236      1.514      2.094
REMARK INTER + INTRA:          -5.693
REMARK INTER:                  -5.592
REMARK INTRA:                  -0.101
REMARK UNBOUND:                -0.219
REMARK SMILES CCCCCCC(=O)[O-]
REMARK SMILES IDX 5 1 6 2 7 3 8 4 9 5 4 6 3 7 2 8 1 9
REMARK H PARENT
REMARK Flexibility Score: inf
ROOT
ATOM      1  C   UNL     1      -2.782   4.019   6.423  1.00  0.00     0.006 C 
ENDROOT
BRANCH   1   2
ATOM      2  C   UNL     1      -1.754   2.884   6.512  1.00  0.00     0.053 C 
BRANCH   2   3
ATOM      3  C   UNL     1      -1.418   2.592   7.940  1.00  0.00     0.041 C 
ATOM      4  O   UNL     1      -2.303   2.685   8.831  1.00  0.00    -0.550 OA
ATOM      5  O   UNL     1      -0.115   2.267   8.296  1.00  0.00    -0.550 OA
ENDBRANCH   2   3
ENDBRANCH   1   2
BRANCH   1   6
ATOM      6  C   UNL     1      -2.500   4.971   5.242  1.00  0.00     0.000 C 
BRANCH   6   7
ATOM      7  C   UNL     1      -3.736   5.758   4.775  1.00  0.00    -0.000 C 
BRANCH   7   8
ATOM      8  C   UNL     1      -4.084   6.929   5.704  1.00  0.00    -0.003 C 
ATOM      9  C   UNL     1      -3.935   8.265   4.984  1.00  0.00     0.004 C 
ENDBRANCH   7   8
ENDBRANCH   6   7
ENDBRANCH   1   6
TORSDOF 5
ENDMDL
MODEL 5
REMARK VINA RESULT:    -4.140      3.173      5.019
REMARK INTER + INTRA:          -5.569
REMARK INTER:                  -5.449
REMARK INTRA:                  -0.120
REMARK UNBOUND:                -0.219
REMARK SMILES CCCCCCC(=O)[O-]
REMARK SMILES IDX 5 1 6 2 7 3 8 4 9 5 4 6 3 7 2 8 1 9
REMARK H PARENT
REMARK Flexibility Score: inf
ROOT
ATOM      1  C   UNL     1      -3.371   5.151   5.525  1.00  0.00     0.006 C 
ENDROOT
BRANCH   1   2
ATOM      2  C   UNL     1      -3.649   6.235   4.475  1.00  0.00     0.053 C 
BRANCH   2   3
ATOM      3  C   UNL     1      -4.077   7.507   5.136  1.00  0.00     0.041 C 
ATOM      4  O   UNL     1      -4.699   7.473   6.231  1.00  0.00    -0.550 OA
ATOM      5  O   UNL     1      -3.835   8.727   4.519  1.00  0.00    -0.550 OA
ENDBRANCH   2   3
ENDBRANCH   1   2
BRANCH   1   6
ATOM      6  C   UNL     1      -2.137   4.295   5.169  1.00  0.00     0.000 C 
BRANCH   6   7
ATOM      7  C   UNL     1      -2.018   3.008   6.001  1.00  0.00    -0.000 C 
BRANCH   7   8
ATOM      8  C   UNL     1      -2.099   3.264   7.512  1.00  0.00    -0.003 C 
ATOM      9  C   UNL     1      -0.991   2.524   8.255  1.00  0.00     0.004 C 
ENDBRANCH   7   8
ENDBRANCH   6   7
ENDBRANCH   1   6
TORSDOF 5
ENDMDL
MODEL 6
REMARK VINA RESULT:    -3.802     16.025     16.883
REMARK INTER + INTRA:          -5.132
REMARK INTER:                  -4.810
REMARK INTRA:                  -0.322
REMARK UNBOUND:                -0.219
REMARK SMILES CCCCCCC(=O)[O-]
REMARK SMILES IDX 5 1 6 2 7 3 8 4 9 5 4 6 3 7 2 8 1 9
REMARK H PARENT
REMARK Flexibility Score: inf
ROOT
ATOM      1  C   UNL     1       0.592  -5.672  -6.388  1.00  0.00     0.006 C 
ENDROOT
BRANCH   1   2
ATOM      2  C   UNL     1       1.891  -4.968  -6.799  1.00  0.00     0.053 C 
BRANCH   2   3
ATOM      3  C   UNL     1       2.080  -5.041  -8.281  1.00  0.00     0.041 C 
ATOM      4  O   UNL     1       2.419  -6.126  -8.824  1.00  0.00    -0.550 OA
ATOM      5  O   UNL     1       1.933  -3.899  -9.059  1.00  0.00    -0.550 OA
ENDBRANCH   2   3
ENDBRANCH   1   2
BRANCH   1   6
ATOM      6  C   UNL     1      -0.642  -5.092  -7.110  1.00  0.00     0.000 C 
BRANCH   6   7
ATOM      7  C   UNL     1      -0.900  -3.609  -6.796  1.00  0.00    -0.000 C 
BRANCH   7   8
ATOM      8  C   UNL     1      -1.413  -2.822  -8.009  1.00  0.00    -0.003 C 
ATOM      9  C   UNL     1      -0.626  -1.528  -8.197  1.00  0.00     0.004 C 
ENDBRANCH   7   8
ENDBRANCH   6   7
ENDBRANCH   1   6
TORSDOF 5
ENDMDL
MODEL 7
REMARK VINA RESULT:    -3.795      3.665      4.975
REMARK INTER + INTRA:          -5.124
REMARK INTER:                  -4.960
REMARK INTRA:                  -0.164
REMARK UNBOUND:                -0.219
REMARK SMILES CCCCCCC(=O)[O-]
REMARK SMILES IDX 5 1 6 2 7 3 8 4 9 5 4 6 3 7 2 8 1 9
REMARK H PARENT
REMARK Flexibility Score: inf
ROOT
ATOM      1  C   UNL     1      -5.004   7.678   7.121  1.00  0.00     0.006 C 
ENDROOT
BRANCH   1   2
ATOM      2  C   UNL     1      -4.569   6.468   6.285  1.00  0.00     0.053 C 
BRANCH   2   3
ATOM      3  C   UNL     1      -3.927   6.914   5.010  1.00  0.00     0.041 C 
ATOM      4  O   UNL     1      -3.567   8.113   4.868  1.00  0.00    -0.550 OA
ATOM      5  O   UNL     1      -3.773   6.020   3.958  1.00  0.00    -0.550 OA
ENDBRANCH   2   3
ENDBRANCH   1   2
BRANCH   1   6
ATOM      6  C   UNL     1      -5.743   7.262   8.411  1.00  0.00     0.000 C 
BRANCH   6   7
ATOM      7  C   UNL     1      -6.606   6.001   8.247  1.00  0.00    -0.000 C 
BRANCH   7   8
ATOM      8  C   UNL     1      -8.110   6.306   8.217  1.00  0.00    -0.003 C 
ATOM      9  C   UNL     1      -8.914   5.072   7.819  1.00  0.00     0.004 C 
ENDBRANCH   7   8
ENDBRANCH   6   7
ENDBRANCH   1   6
TORSDOF 5
ENDMDL
MODEL 8
REMARK VINA RESULT:    -3.775     16.324     17.454
REMARK INTER + INTRA:          -5.097
REMARK INTER:                  -4.801
REMARK INTRA:                  -0.295
REMARK UNBOUND:                -0.219
REMARK SMILES CCCCCCC(=O)[O-]
REMARK SMILES IDX 5 1 6 2 7 3 8 4 9 5 4 6 3 7 2 8 1 9
REMARK H PARENT
REMARK Flexibility Score: inf
ROOT
ATOM      1  C   UNL     1       1.975  -5.054  -6.859  1.00  0.00     0.006 C 
ENDROOT
BRANCH   1   2
ATOM      2  C   UNL     1       1.895  -4.701  -8.350  1.00  0.00     0.053 C 
BRANCH   2   3
ATOM      3  C   UNL     1       2.382  -5.842  -9.187  1.00  0.00     0.041 C 
ATOM      4  O   UNL     1       1.565  -6.529  -9.857  1.00  0.00    -0.550 OA
ATOM      5  O   UNL     1       3.728  -6.180  -9.187  1.00  0.00    -0.550 OA
ENDBRANCH   2   3
ENDBRANCH   1   2
BRANCH   1   6
ATOM      6  C   UNL     1       0.609  -4.924  -6.155  1.00  0.00     0.000 C 
BRANCH   6   7
ATOM      7  C   UNL     1      -0.560  -4.660  -7.119  1.00  0.00    -0.000 C 
BRANCH   7   8
ATOM      8  C   UNL     1      -1.281  -3.335  -6.834  1.00  0.00    -0.003 C 
ATOM      9  C   UNL     1      -0.986  -2.305  -7.920  1.00  0.00     0.004 C 
ENDBRANCH   7   8
ENDBRANCH   6   7
ENDBRANCH   1   6
TORSDOF 5
ENDMDL
MODEL 9
REMARK VINA RESULT:    -3.718     15.947     16.795
REMARK INTER + INTRA:          -5.024
REMARK INTER:                  -4.630
REMARK INTRA:                  -0.394
REMARK UNBOUND:                -0.219
REMARK SMILES CCCCCCC(=O)[O-]
REMARK SMILES IDX 5 1 6 2 7 3 8 4 9 5 4 6 3 7 2 8 1 9
REMARK H PARENT
REMARK Flexibility Score: inf
ROOT
ATOM      1  C   UNL     1      -1.036  -4.580  -7.037  1.00  0.00     0.006 C 
ENDROOT
BRANCH   1   2
ATOM      2  C   UNL     1       0.227  -4.380  -6.189  1.00  0.00     0.053 C 
BRANCH   2   3
ATOM      3  C   UNL     1       1.154  -5.544  -6.347  1.00  0.00     0.041 C 
ATOM      4  O   UNL     1       2.386  -5.352  -6.523  1.00  0.00    -0.550 OA
ATOM      5  O   UNL     1       0.651  -6.838  -6.350  1.00  0.00    -0.550 OA
ENDBRANCH   2   3
ENDBRANCH   1   2
BRANCH   1   6
ATOM      6  C   UNL     1      -0.911  -3.932  -8.432  1.00  0.00     0.000 C 
BRANCH   6   7
ATOM      7  C   UNL     1      -0.223  -2.557  -8.415  1.00  0.00    -0.000 C 
BRANCH   7   8
ATOM      8  C   UNL     1       1.032  -2.506  -9.296  1.00  0.00    -0.003 C 
ATOM      9  C   UNL     1       1.402  -3.895  -9.807  1.00  0.00     0.004 C 
ENDBRANCH   7   8
ENDBRANCH   6   7
ENDBRANCH   1   6
TORSDOF 5
ENDMDL
