MODEL 1
REMARK VINA RESULT:    -5.562      0.000      0.000
REMARK INTER + INTRA:         -15.221
REMARK INTER:                 -12.715
REMARK INTRA:                  -2.506
REMARK UNBOUND:                -2.506
REMARK SMILES CCCCCCCCCCCCCCCCCCCCCCCC(=O)[O-]
REMARK SMILES IDX 13 1 14 2 15 3 16 4 17 5 18 6 19 7 20 8 21 9 22 10 23 11
REMARK SMILES IDX 24 12 25 13 26 14 12 15 11 16 10 17 9 18 8 19 7 20 6 21 5 22
REMARK SMILES IDX 4 23 3 24 2 25 1 26
REMARK H PARENT
REMARK Flexibility Score: inf
ROOT
ATOM      1  C   UNL     1      47.850  -4.751  26.332  1.00  0.00     0.000 C 
ENDROOT
BRANCH   1   2
ATOM      2  C   UNL     1      46.959  -3.535  26.051  1.00  0.00     0.000 C 
BRANCH   2   3
ATOM      3  C   UNL     1      46.240  -3.072  27.328  1.00  0.00     0.000 C 
BRANCH   3   4
ATOM      4  C   UNL     1      46.211  -1.542  27.474  1.00  0.00     0.000 C 
BRANCH   4   5
ATOM      5  C   UNL     1      45.123  -1.062  28.450  1.00  0.00     0.000 C 
BRANCH   5   6
ATOM      6  C   UNL     1      44.217  -2.204  28.944  1.00  0.00     0.000 C 
BRANCH   6   7
ATOM      7  C   UNL     1      42.950  -1.756  29.696  1.00  0.00     0.000 C 
BRANCH   7   8
ATOM      8  C   UNL     1      42.982  -2.112  31.189  1.00  0.00     0.000 C 
BRANCH   8   9
ATOM      9  C   UNL     1      43.097  -0.850  32.053  1.00  0.00     0.000 C 
BRANCH   9  10
ATOM     10  C   UNL     1      43.199   0.409  31.177  1.00  0.00     0.006 C 
BRANCH  10  11
ATOM     11  C   UNL     1      42.787   1.678  31.933  1.00  0.00     0.053 C 
BRANCH  11  12
ATOM     12  C   UNL     1      41.957   2.588  31.081  1.00  0.00     0.041 C 
ATOM     13  O   UNL     1      42.433   3.677  30.665  1.00  0.00    -0.550 OA
ATOM     14  O   UNL     1      40.646   2.248  30.772  1.00  0.00    -0.550 OA
ENDBRANCH  11  12
ENDBRANCH  10  11
ENDBRANCH   9  10
ENDBRANCH   8   9
ENDBRANCH   7   8
ENDBRANCH   6   7
ENDBRANCH   5   6
ENDBRANCH   4   5
ENDBRANCH   3   4
ENDBRANCH   2   3
ENDBRANCH   1   2
BRANCH   1  15
ATOM     15  C   UNL     1      48.153  -5.521  25.039  1.00  0.00     0.000 C 
BRANCH  15  16
ATOM     16  C   UNL     1      48.088  -7.049  25.217  1.00  0.00     0.000 C 
BRANCH  16  17
ATOM     17  C   UNL     1      46.820  -7.575  25.914  1.00  0.00     0.000 C 
BRANCH  17  18
ATOM     18  C   UNL     1      45.552  -7.405  25.060  1.00  0.00    -0.000 C 
BRANCH  18  19
ATOM     19  C   UNL     1      44.569  -6.374  25.645  1.00  0.00    -0.000 C 
BRANCH  19  20
ATOM     20  C   UNL     1      44.543  -6.290  27.185  1.00  0.00    -0.000 C 
BRANCH  20  21
ATOM     21  C   UNL     1      43.293  -5.617  27.782  1.00  0.00    -0.000 C 
BRANCH  21  22
ATOM     22  C   UNL     1      42.247  -5.147  26.749  1.00  0.00    -0.000 C 
BRANCH  22  23
ATOM     23  C   UNL     1      41.150  -4.222  27.306  1.00  0.00    -0.000 C 
BRANCH  23  24
ATOM     24  C   UNL     1      39.777  -4.910  27.394  1.00  0.00    -0.000 C 
BRANCH  24  25
ATOM     25  C   UNL     1      38.639  -4.018  26.873  1.00  0.00    -0.003 C 
ATOM     26  C   UNL     1      38.352  -2.827  27.788  1.00  0.00     0.004 C 
ENDBRANCH  24  25
ENDBRANCH  23  24
ENDBRANCH  22  23
ENDBRANCH  21  22
ENDBRANCH  20  21
ENDBRANCH  19  20
ENDBRANCH  18  19
ENDBRANCH  17  18
ENDBRANCH  16  17
ENDBRANCH  15  16
ENDBRANCH   1  15
TORSDOF 22
ENDMDL
MODEL 2
REMARK VINA RESULT:    -5.329      3.063      6.892
REMARK INTER + INTRA:         -14.690
REMARK INTER:                 -12.139
REMARK INTRA:                  -2.550
REMARK UNBOUND:                -2.506
REMARK SMILES CCCCCCCCCCCCCCCCCCCCCCCC(=O)[O-]
REMARK SMILES IDX 13 1 14 2 15 3 16 4 17 5 18 6 19 7 20 8 21 9 22 10 23 11
REMARK SMILES IDX 24 12 25 13 26 14 12 15 11 16 10 17 9 18 8 19 7 20 6 21 5 22
REMARK SMILES IDX 4 23 3 24 2 25 1 26
REMARK H PARENT
REMARK Flexibility Score: inf
ROOT
ATOM      1  C   UNL     1      42.659  -1.341  30.156  1.00  0.00     0.000 C 
ENDROOT
BRANCH   1   2
ATOM      2  C   UNL     1      43.131  -0.354  31.230  1.00  0.00     0.000 C 
BRANCH   2   3
ATOM      3  C   UNL     1      42.784  -0.864  32.638  1.00  0.00     0.000 C 
BRANCH   3   4
ATOM      4  C   UNL     1      43.723  -1.985  33.113  1.00  0.00     0.000 C 
BRANCH   4   5
ATOM      5  C   UNL     1      43.018  -2.992  34.038  1.00  0.00     0.000 C 
BRANCH   5   6
ATOM      6  C   UNL     1      43.539  -4.431  33.863  1.00  0.00     0.000 C 
BRANCH   6   7
ATOM      7  C   UNL     1      42.813  -5.263  32.790  1.00  0.00     0.000 C 
BRANCH   7   8
ATOM      8  C   UNL     1      41.406  -4.737  32.473  1.00  0.00     0.000 C 
BRANCH   8   9
ATOM      9  C   UNL     1      41.232  -4.508  30.966  1.00  0.00     0.000 C 
BRANCH   9  10
ATOM     10  C   UNL     1      41.860  -5.653  30.159  1.00  0.00     0.006 C 
BRANCH  10  11
ATOM     11  C   UNL     1      42.578  -5.151  28.899  1.00  0.00     0.053 C 
BRANCH  11  12
ATOM     12  C   UNL     1      41.815  -5.488  27.655  1.00  0.00     0.041 C 
ATOM     13  O   UNL     1      42.232  -5.103  26.531  1.00  0.00    -0.550 OA
ATOM     14  O   UNL     1      40.625  -6.200  27.740  1.00  0.00    -0.550 OA
ENDBRANCH  11  12
ENDBRANCH  10  11
ENDBRANCH   9  10
ENDBRANCH   8   9
ENDBRANCH   7   8
ENDBRANCH   6   7
ENDBRANCH   5   6
ENDBRANCH   4   5
ENDBRANCH   3   4
ENDBRANCH   2   3
ENDBRANCH   1   2
BRANCH   1  15
ATOM     15  C   UNL     1      43.847  -1.883  29.348  1.00  0.00     0.000 C 
BRANCH  15  16
ATOM     16  C   UNL     1      44.766  -0.772  28.807  1.00  0.00     0.000 C 
BRANCH  16  17
ATOM     17  C   UNL     1      45.910  -1.252  27.895  1.00  0.00     0.000 C 
BRANCH  17  18
ATOM     18  C   UNL     1      45.919  -2.777  27.698  1.00  0.00    -0.000 C 
BRANCH  18  19
ATOM     19  C   UNL     1      46.871  -3.231  26.576  1.00  0.00    -0.000 C 
BRANCH  19  20
ATOM     20  C   UNL     1      47.029  -4.758  26.425  1.00  0.00    -0.000 C 
BRANCH  20  21
ATOM     21  C   UNL     1      45.728  -5.568  26.582  1.00  0.00    -0.000 C 
BRANCH  21  22
ATOM     22  C   UNL     1      45.902  -7.100  26.533  1.00  0.00    -0.000 C 
BRANCH  22  23
ATOM     23  C   UNL     1      46.729  -7.626  25.346  1.00  0.00    -0.000 C 
BRANCH  23  24
ATOM     24  C   UNL     1      46.003  -7.474  23.999  1.00  0.00    -0.000 C 
BRANCH  24  25
ATOM     25  C   UNL     1      46.967  -7.526  22.803  1.00  0.00    -0.003 C 
ATOM     26  C   UNL     1      48.408  -7.188  23.186  1.00  0.00     0.004 C 
ENDBRANCH  24  25
ENDBRANCH  23  24
ENDBRANCH  22  23
ENDBRANCH  21  22
ENDBRANCH  20  21
ENDBRANCH  19  20
ENDBRANCH  18  19
ENDBRANCH  17  18
ENDBRANCH  16  17
ENDBRANCH  15  16
ENDBRANCH   1  15
TORSDOF 22
ENDMDL
MODEL 3
REMARK VINA RESULT:    -5.295      1.906      5.260
REMARK INTER + INTRA:         -14.612
REMARK INTER:                 -12.267
REMARK INTRA:                  -2.345
REMARK UNBOUND:                -2.506
REMARK SMILES CCCCCCCCCCCCCCCCCCCCCCCC(=O)[O-]
REMARK SMILES IDX 13 1 14 2 15 3 16 4 17 5 18 6 19 7 20 8 21 9 22 10 23 11
REMARK SMILES IDX 24 12 25 13 26 14 12 15 11 16 10 17 9 18 8 19 7 20 6 21 5 22
REMARK SMILES IDX 4 23 3 24 2 25 1 26
REMARK H PARENT
REMARK Flexibility Score: inf
ROOT
ATOM      1  C   UNL     1      42.599  -5.110  26.856  1.00  0.00     0.000 C 
ENDROOT
BRANCH   1   2
ATOM      2  C   UNL     1      42.734  -5.198  28.381  1.00  0.00     0.000 C 
BRANCH   2   3
ATOM      3  C   UNL     1      42.364  -3.861  29.044  1.00  0.00     0.000 C 
BRANCH   3   4
ATOM      4  C   UNL     1      43.276  -2.705  28.600  1.00  0.00     0.000 C 
BRANCH   4   5
ATOM      5  C   UNL     1      43.709  -1.810  29.775  1.00  0.00     0.000 C 
BRANCH   5   6
ATOM      6  C   UNL     1      42.674  -1.778  30.915  1.00  0.00     0.000 C 
BRANCH   6   7
ATOM      7  C   UNL     1      43.182  -2.289  32.275  1.00  0.00     0.000 C 
BRANCH   7   8
ATOM      8  C   UNL     1      43.276  -1.181  33.335  1.00  0.00     0.000 C 
BRANCH   8   9
ATOM      9  C   UNL     1      42.752   0.151  32.785  1.00  0.00     0.000 C 
BRANCH   9  10
ATOM     10  C   UNL     1      43.831   1.242  32.864  1.00  0.00     0.006 C 
BRANCH  10  11
ATOM     11  C   UNL     1      43.360   2.570  32.258  1.00  0.00     0.053 C 
BRANCH  11  12
ATOM     12  C   UNL     1      43.602   2.623  30.780  1.00  0.00     0.041 C 
ATOM     13  O   UNL     1      42.963   3.435  30.061  1.00  0.00    -0.550 OA
ATOM     14  O   UNL     1      44.511   1.752  30.193  1.00  0.00    -0.550 OA
ENDBRANCH  11  12
ENDBRANCH  10  11
ENDBRANCH   9  10
ENDBRANCH   8   9
ENDBRANCH   7   8
ENDBRANCH   6   7
ENDBRANCH   5   6
ENDBRANCH   4   5
ENDBRANCH   3   4
ENDBRANCH   2   3
ENDBRANCH   1   2
BRANCH   1  15
ATOM     15  C   UNL     1      43.800  -5.767  26.160  1.00  0.00     0.000 C 
BRANCH  15  16
ATOM     16  C   UNL     1      44.705  -6.549  27.129  1.00  0.00     0.000 C 
BRANCH  16  17
ATOM     17  C   UNL     1      46.092  -5.928  27.377  1.00  0.00     0.000 C 
BRANCH  17  18
ATOM     18  C   UNL     1      46.148  -4.430  27.030  1.00  0.00    -0.000 C 
BRANCH  18  19
ATOM     19  C   UNL     1      47.490  -4.011  26.400  1.00  0.00    -0.000 C 
BRANCH  19  20
ATOM     20  C   UNL     1      47.990  -4.914  25.254  1.00  0.00    -0.000 C 
BRANCH  20  21
ATOM     21  C   UNL     1      49.428  -5.441  25.418  1.00  0.00    -0.000 C 
BRANCH  21  22
ATOM     22  C   UNL     1      49.563  -6.978  25.442  1.00  0.00    -0.000 C 
BRANCH  22  23
ATOM     23  C   UNL     1      48.547  -7.736  24.568  1.00  0.00    -0.000 C 
BRANCH  23  24
ATOM     24  C   UNL     1      48.791  -7.539  23.062  1.00  0.00    -0.000 C 
BRANCH  24  25
ATOM     25  C   UNL     1      47.482  -7.390  22.270  1.00  0.00    -0.003 C 
ATOM     26  C   UNL     1      46.238  -7.549  23.143  1.00  0.00     0.004 C 
ENDBRANCH  24  25
ENDBRANCH  23  24
ENDBRANCH  22  23
ENDBRANCH  21  22
ENDBRANCH  20  21
ENDBRANCH  19  20
ENDBRANCH  18  19
ENDBRANCH  17  18
ENDBRANCH  16  17
ENDBRANCH  15  16
ENDBRANCH   1  15
TORSDOF 22
ENDMDL
MODEL 4
REMARK VINA RESULT:    -5.171      3.027      3.650
REMARK INTER + INTRA:         -14.327
REMARK INTER:                 -11.403
REMARK INTRA:                  -2.924
REMARK UNBOUND:                -2.506
REMARK SMILES CCCCCCCCCCCCCCCCCCCCCCCC(=O)[O-]
REMARK SMILES IDX 13 1 14 2 15 3 16 4 17 5 18 6 19 7 20 8 21 9 22 10 23 11
REMARK SMILES IDX 24 12 25 13 26 14 12 15 11 16 10 17 9 18 8 19 7 20 6 21 5 22
REMARK SMILES IDX 4 23 3 24 2 25 1 26
REMARK H PARENT
REMARK Flexibility Score: inf
ROOT
ATOM      1  C   UNL     1      47.815  -4.746  26.342  1.00  0.00     0.000 C 
ENDROOT
BRANCH   1   2
ATOM      2  C   UNL     1      46.947  -3.515  26.056  1.00  0.00     0.000 C 
BRANCH   2   3
ATOM      3  C   UNL     1      46.237  -3.034  27.332  1.00  0.00     0.000 C 
BRANCH   3   4
ATOM      4  C   UNL     1      46.245  -1.503  27.476  1.00  0.00     0.000 C 
BRANCH   4   5
ATOM      5  C   UNL     1      45.173  -0.996  28.456  1.00  0.00     0.000 C 
BRANCH   5   6
ATOM      6  C   UNL     1      44.149  -2.081  28.836  1.00  0.00     0.000 C 
BRANCH   6   7
ATOM      7  C   UNL     1      43.089  -1.650  29.865  1.00  0.00     0.000 C 
BRANCH   7   8
ATOM      8  C   UNL     1      42.352  -2.837  30.502  1.00  0.00     0.000 C 
BRANCH   8   9
ATOM      9  C   UNL     1      43.033  -3.271  31.806  1.00  0.00     0.000 C 
BRANCH   9  10
ATOM     10  C   UNL     1      41.993  -3.692  32.855  1.00  0.00     0.006 C 
BRANCH  10  11
ATOM     11  C   UNL     1      41.232  -4.959  32.443  1.00  0.00     0.053 C 
BRANCH  11  12
ATOM     12  C   UNL     1      42.164  -6.091  32.135  1.00  0.00     0.041 C 
ATOM     13  O   UNL     1      42.909  -6.563  33.033  1.00  0.00    -0.550 OA
ATOM     14  O   UNL     1      42.232  -6.603  30.845  1.00  0.00    -0.550 OA
ENDBRANCH  11  12
ENDBRANCH  10  11
ENDBRANCH   9  10
ENDBRANCH   8   9
ENDBRANCH   7   8
ENDBRANCH   6   7
ENDBRANCH   5   6
ENDBRANCH   4   5
ENDBRANCH   3   4
ENDBRANCH   2   3
ENDBRANCH   1   2
BRANCH   1  15
ATOM     15  C   UNL     1      48.109  -5.523  25.051  1.00  0.00     0.000 C 
BRANCH  15  16
ATOM     16  C   UNL     1      48.073  -7.050  25.244  1.00  0.00     0.000 C 
BRANCH  16  17
ATOM     17  C   UNL     1      46.735  -7.617  25.753  1.00  0.00     0.000 C 
BRANCH  17  18
ATOM     18  C   UNL     1      45.558  -7.310  24.810  1.00  0.00    -0.000 C 
BRANCH  18  19
ATOM     19  C   UNL     1      44.393  -6.595  25.519  1.00  0.00    -0.000 C 
BRANCH  19  20
ATOM     20  C   UNL     1      44.613  -6.307  27.019  1.00  0.00    -0.000 C 
BRANCH  20  21
ATOM     21  C   UNL     1      43.439  -5.605  27.728  1.00  0.00    -0.000 C 
BRANCH  21  22
ATOM     22  C   UNL     1      42.322  -5.095  26.794  1.00  0.00    -0.000 C 
BRANCH  22  23
ATOM     23  C   UNL     1      41.407  -4.015  27.400  1.00  0.00    -0.000 C 
BRANCH  23  24
ATOM     24  C   UNL     1      40.059  -4.576  27.883  1.00  0.00    -0.000 C 
BRANCH  24  25
ATOM     25  C   UNL     1      38.906  -3.577  27.696  1.00  0.00    -0.003 C 
ATOM     26  C   UNL     1      38.914  -2.458  28.737  1.00  0.00     0.004 C 
ENDBRANCH  24  25
ENDBRANCH  23  24
ENDBRANCH  22  23
ENDBRANCH  21  22
ENDBRANCH  20  21
ENDBRANCH  19  20
ENDBRANCH  18  19
ENDBRANCH  17  18
ENDBRANCH  16  17
ENDBRANCH  15  16
ENDBRANCH   1  15
TORSDOF 22
ENDMDL
MODEL 5
REMARK VINA RESULT:    -5.168      3.161      7.363
REMARK INTER + INTRA:         -14.321
REMARK INTER:                 -11.857
REMARK INTRA:                  -2.464
REMARK UNBOUND:                -2.506
REMARK SMILES CCCCCCCCCCCCCCCCCCCCCCCC(=O)[O-]
REMARK SMILES IDX 13 1 14 2 15 3 16 4 17 5 18 6 19 7 20 8 21 9 22 10 23 11
REMARK SMILES IDX 24 12 25 13 26 14 12 15 11 16 10 17 9 18 8 19 7 20 6 21 5 22
REMARK SMILES IDX 4 23 3 24 2 25 1 26
REMARK H PARENT
REMARK Flexibility Score: inf
ROOT
ATOM      1  C   UNL     1      42.109  -1.852  30.840  1.00  0.00     0.000 C 
ENDROOT
BRANCH   1   2
ATOM      2  C   UNL     1      42.494  -1.402  32.254  1.00  0.00     0.000 C 
BRANCH   2   3
ATOM      3  C   UNL     1      43.400  -2.441  32.935  1.00  0.00     0.000 C 
BRANCH   3   4
ATOM      4  C   UNL     1      42.605  -3.554  33.638  1.00  0.00     0.000 C 
BRANCH   4   5
ATOM      5  C   UNL     1      43.438  -4.829  33.853  1.00  0.00     0.000 C 
BRANCH   5   6
ATOM      6  C   UNL     1      42.996  -5.992  32.946  1.00  0.00     0.000 C 
BRANCH   6   7
ATOM      7  C   UNL     1      41.899  -5.645  31.924  1.00  0.00     0.000 C 
BRANCH   7   8
ATOM      8  C   UNL     1      42.217  -6.147  30.508  1.00  0.00     0.000 C 
BRANCH   8   9
ATOM      9  C   UNL     1      40.937  -6.288  29.675  1.00  0.00     0.000 C 
BRANCH   9  10
ATOM     10  C   UNL     1      40.627  -4.987  28.918  1.00  0.00     0.006 C 
BRANCH  10  11
ATOM     11  C   UNL     1      40.847  -5.128  27.406  1.00  0.00     0.053 C 
BRANCH  11  12
ATOM     12  C   UNL     1      39.598  -4.833  26.634  1.00  0.00     0.041 C 
ATOM     13  O   UNL     1      39.135  -5.681  25.827  1.00  0.00    -0.550 OA
ATOM     14  O   UNL     1      38.964  -3.605  26.781  1.00  0.00    -0.550 OA
ENDBRANCH  11  12
ENDBRANCH  10  11
ENDBRANCH   9  10
ENDBRANCH   8   9
ENDBRANCH   7   8
ENDBRANCH   6   7
ENDBRANCH   5   6
ENDBRANCH   4   5
ENDBRANCH   3   4
ENDBRANCH   2   3
ENDBRANCH   1   2
BRANCH   1  15
ATOM     15  C   UNL     1      43.215  -2.718  30.219  1.00  0.00     0.000 C 
BRANCH  15  16
ATOM     16  C   UNL     1      44.027  -1.977  29.141  1.00  0.00     0.000 C 
BRANCH  16  17
ATOM     17  C   UNL     1      44.873  -2.878  28.222  1.00  0.00     0.000 C 
BRANCH  17  18
ATOM     18  C   UNL     1      44.400  -4.342  28.218  1.00  0.00    -0.000 C 
BRANCH  18  19
ATOM     19  C   UNL     1      45.382  -5.286  27.500  1.00  0.00    -0.000 C 
BRANCH  19  20
ATOM     20  C   UNL     1      44.781  -6.629  27.036  1.00  0.00    -0.000 C 
BRANCH  20  21
ATOM     21  C   UNL     1      45.794  -7.629  26.445  1.00  0.00    -0.000 C 
BRANCH  21  22
ATOM     22  C   UNL     1      46.534  -7.140  25.183  1.00  0.00    -0.000 C 
BRANCH  22  23
ATOM     23  C   UNL     1      48.058  -7.355  25.195  1.00  0.00    -0.000 C 
BRANCH  23  24
ATOM     24  C   UNL     1      48.717  -7.036  23.842  1.00  0.00    -0.000 C 
BRANCH  24  25
ATOM     25  C   UNL     1      48.024  -7.748  22.669  1.00  0.00    -0.003 C 
ATOM     26  C   UNL     1      48.912  -7.851  21.429  1.00  0.00     0.004 C 
ENDBRANCH  24  25
ENDBRANCH  23  24
ENDBRANCH  22  23
ENDBRANCH  21  22
ENDBRANCH  20  21
ENDBRANCH  19  20
ENDBRANCH  18  19
ENDBRANCH  17  18
ENDBRANCH  16  17
ENDBRANCH  15  16
ENDBRANCH   1  15
TORSDOF 22
ENDMDL
MODEL 6
REMARK VINA RESULT:    -5.152      1.984      4.959
REMARK INTER + INTRA:         -14.284
REMARK INTER:                 -12.209
REMARK INTRA:                  -2.074
REMARK UNBOUND:                -2.506
REMARK SMILES CCCCCCCCCCCCCCCCCCCCCCCC(=O)[O-]
REMARK SMILES IDX 13 1 14 2 15 3 16 4 17 5 18 6 19 7 20 8 21 9 22 10 23 11
REMARK SMILES IDX 24 12 25 13 26 14 12 15 11 16 10 17 9 18 8 19 7 20 6 21 5 22
REMARK SMILES IDX 4 23 3 24 2 25 1 26
REMARK H PARENT
REMARK Flexibility Score: inf
ROOT
ATOM      1  C   UNL     1      43.846  -5.512  28.097  1.00  0.00     0.000 C 
ENDROOT
BRANCH   1   2
ATOM      2  C   UNL     1      42.631  -4.594  27.920  1.00  0.00     0.000 C 
BRANCH   2   3
ATOM      3  C   UNL     1      42.940  -3.171  28.412  1.00  0.00     0.000 C 
BRANCH   3   4
ATOM      4  C   UNL     1      42.788  -3.022  29.935  1.00  0.00     0.000 C 
BRANCH   4   5
ATOM      5  C   UNL     1      43.322  -1.675  30.453  1.00  0.00     0.000 C 
BRANCH   5   6
ATOM      6  C   UNL     1      42.201  -0.721  30.906  1.00  0.00     0.000 C 
BRANCH   6   7
ATOM      7  C   UNL     1      42.025  -0.594  32.430  1.00  0.00     0.000 C 
BRANCH   7   8
ATOM      8  C   UNL     1      43.171  -1.239  33.222  1.00  0.00     0.000 C 
BRANCH   8   9
ATOM      9  C   UNL     1      43.708  -0.279  34.291  1.00  0.00     0.000 C 
BRANCH   9  10
ATOM     10  C   UNL     1      43.309   1.171  33.979  1.00  0.00     0.006 C 
BRANCH  10  11
ATOM     11  C   UNL     1      44.433   1.944  33.277  1.00  0.00     0.053 C 
BRANCH  11  12
ATOM     12  C   UNL     1      43.942   2.641  32.045  1.00  0.00     0.041 C 
ATOM     13  O   UNL     1      43.206   3.658  32.142  1.00  0.00    -0.550 OA
ATOM     14  O   UNL     1      44.271   2.147  30.789  1.00  0.00    -0.550 OA
ENDBRANCH  11  12
ENDBRANCH  10  11
ENDBRANCH   9  10
ENDBRANCH   8   9
ENDBRANCH   7   8
ENDBRANCH   6   7
ENDBRANCH   5   6
ENDBRANCH   4   5
ENDBRANCH   3   4
ENDBRANCH   2   3
ENDBRANCH   1   2
BRANCH   1  15
ATOM     15  C   UNL     1      44.344  -6.031  26.740  1.00  0.00     0.000 C 
BRANCH  15  16
ATOM     16  C   UNL     1      45.325  -7.211  26.869  1.00  0.00     0.000 C 
BRANCH  16  17
ATOM     17  C   UNL     1      45.483  -8.075  25.604  1.00  0.00     0.000 C 
BRANCH  17  18
ATOM     18  C   UNL     1      45.428  -7.251  24.306  1.00  0.00    -0.000 C 
BRANCH  18  19
ATOM     19  C   UNL     1      46.532  -7.636  23.304  1.00  0.00    -0.000 C 
BRANCH  19  20
ATOM     20  C   UNL     1      47.913  -7.003  23.572  1.00  0.00    -0.000 C 
BRANCH  20  21
ATOM     21  C   UNL     1      48.788  -7.751  24.596  1.00  0.00    -0.000 C 
BRANCH  21  22
ATOM     22  C   UNL     1      49.887  -6.899  25.263  1.00  0.00    -0.000 C 
BRANCH  22  23
ATOM     23  C   UNL     1      49.691  -5.376  25.151  1.00  0.00    -0.000 C 
BRANCH  23  24
ATOM     24  C   UNL     1      48.925  -4.783  26.345  1.00  0.00    -0.000 C 
BRANCH  24  25
ATOM     25  C   UNL     1      47.443  -4.528  26.024  1.00  0.00    -0.003 C 
ATOM     26  C   UNL     1      46.918  -3.229  26.635  1.00  0.00     0.004 C 
ENDBRANCH  24  25
ENDBRANCH  23  24
ENDBRANCH  22  23
ENDBRANCH  21  22
ENDBRANCH  20  21
ENDBRANCH  19  20
ENDBRANCH  18  19
ENDBRANCH  17  18
ENDBRANCH  16  17
ENDBRANCH  15  16
ENDBRANCH   1  15
TORSDOF 22
ENDMDL
MODEL 7
REMARK VINA RESULT:    -5.115      4.981      8.549
REMARK INTER + INTRA:         -14.199
REMARK INTER:                 -11.237
REMARK INTRA:                  -2.962
REMARK UNBOUND:                -2.506
REMARK SMILES CCCCCCCCCCCCCCCCCCCCCCCC(=O)[O-]
REMARK SMILES IDX 13 1 14 2 15 3 16 4 17 5 18 6 19 7 20 8 21 9 22 10 23 11
REMARK SMILES IDX 24 12 25 13 26 14 12 15 11 16 10 17 9 18 8 19 7 20 6 21 5 22
REMARK SMILES IDX 4 23 3 24 2 25 1 26
REMARK H PARENT
REMARK Flexibility Score: inf
ROOT
ATOM      1  C   UNL     1      38.824  -7.554  29.330  1.00  0.00     0.000 C 
ENDROOT
BRANCH   1   2
ATOM      2  C   UNL     1      40.258  -7.016  29.389  1.00  0.00     0.000 C 
BRANCH   2   3
ATOM      3  C   UNL     1      40.268  -5.511  29.702  1.00  0.00     0.000 C 
BRANCH   3   4
ATOM      4  C   UNL     1      41.576  -4.823  29.276  1.00  0.00     0.000 C 
BRANCH   4   5
ATOM      5  C   UNL     1      42.513  -5.765  28.499  1.00  0.00     0.000 C 
BRANCH   5   6
ATOM      6  C   UNL     1      42.738  -5.318  27.043  1.00  0.00     0.000 C 
BRANCH   6   7
ATOM      7  C   UNL     1      44.138  -5.617  26.476  1.00  0.00     0.000 C 
BRANCH   7   8
ATOM      8  C   UNL     1      44.808  -6.828  27.139  1.00  0.00     0.000 C 
BRANCH   8   9
ATOM      9  C   UNL     1      45.465  -7.735  26.091  1.00  0.00     0.000 C 
BRANCH   9  10
ATOM     10  C   UNL     1      46.150  -6.904  24.996  1.00  0.00     0.006 C 
BRANCH  10  11
ATOM     11  C   UNL     1      47.615  -7.310  24.790  1.00  0.00     0.053 C 
BRANCH  11  12
ATOM     12  C   UNL     1      48.308  -6.411  23.813  1.00  0.00     0.041 C 
ATOM     13  O   UNL     1      48.144  -6.572  22.575  1.00  0.00    -0.550 OA
ATOM     14  O   UNL     1      49.163  -5.415  24.269  1.00  0.00    -0.550 OA
ENDBRANCH  11  12
ENDBRANCH  10  11
ENDBRANCH   9  10
ENDBRANCH   8   9
ENDBRANCH   7   8
ENDBRANCH   6   7
ENDBRANCH   5   6
ENDBRANCH   4   5
ENDBRANCH   3   4
ENDBRANCH   2   3
ENDBRANCH   1   2
BRANCH   1  15
ATOM     15  C   UNL     1      38.798  -8.989  28.784  1.00  0.00     0.000 C 
BRANCH  15  16
ATOM     16  C   UNL     1      37.931  -9.137  27.519  1.00  0.00     0.000 C 
BRANCH  16  17
ATOM     17  C   UNL     1      36.411  -9.140  27.762  1.00  0.00     0.000 C 
BRANCH  17  18
ATOM     18  C   UNL     1      35.617  -8.518  26.600  1.00  0.00    -0.000 C 
BRANCH  18  19
ATOM     19  C   UNL     1      36.127  -7.119  26.208  1.00  0.00    -0.000 C 
BRANCH  19  20
ATOM     20  C   UNL     1      36.864  -7.043  24.855  1.00  0.00    -0.000 C 
BRANCH  20  21
ATOM     21  C   UNL     1      38.241  -6.353  24.898  1.00  0.00    -0.000 C 
BRANCH  21  22
ATOM     22  C   UNL     1      38.655  -5.806  26.280  1.00  0.00    -0.000 C 
BRANCH  22  23
ATOM     23  C   UNL     1      39.303  -4.410  26.262  1.00  0.00    -0.000 C 
BRANCH  23  24
ATOM     24  C   UNL     1      38.558  -3.394  27.144  1.00  0.00    -0.000 C 
BRANCH  24  25
ATOM     25  C   UNL     1      37.470  -4.052  28.007  1.00  0.00    -0.003 C 
ATOM     26  C   UNL     1      36.482  -3.042  28.590  1.00  0.00     0.004 C 
ENDBRANCH  24  25
ENDBRANCH  23  24
ENDBRANCH  22  23
ENDBRANCH  21  22
ENDBRANCH  20  21
ENDBRANCH  19  20
ENDBRANCH  18  19
ENDBRANCH  17  18
ENDBRANCH  16  17
ENDBRANCH  15  16
ENDBRANCH   1  15
TORSDOF 22
ENDMDL
MODEL 8
REMARK VINA RESULT:    -5.103      3.751      8.778
REMARK INTER + INTRA:         -14.172
REMARK INTER:                 -11.271
REMARK INTRA:                  -2.901
REMARK UNBOUND:                -2.506
REMARK SMILES CCCCCCCCCCCCCCCCCCCCCCCC(=O)[O-]
REMARK SMILES IDX 13 1 14 2 15 3 16 4 17 5 18 6 19 7 20 8 21 9 22 10 23 11
REMARK SMILES IDX 24 12 25 13 26 14 12 15 11 16 10 17 9 18 8 19 7 20 6 21 5 22
REMARK SMILES IDX 4 23 3 24 2 25 1 26
REMARK H PARENT
REMARK Flexibility Score: inf
ROOT
ATOM      1  C   UNL     1      38.937  -4.180  28.027  1.00  0.00     0.000 C 
ENDROOT
BRANCH   1   2
ATOM      2  C   UNL     1      39.920  -4.443  26.880  1.00  0.00     0.000 C 
BRANCH   2   3
ATOM      3  C   UNL     1      41.014  -5.434  27.309  1.00  0.00     0.000 C 
BRANCH   3   4
ATOM      4  C   UNL     1      42.402  -5.062  26.760  1.00  0.00     0.000 C 
BRANCH   4   5
ATOM      5  C   UNL     1      43.506  -5.167  27.827  1.00  0.00     0.000 C 
BRANCH   5   6
ATOM      6  C   UNL     1      44.722  -5.983  27.350  1.00  0.00     0.000 C 
BRANCH   6   7
ATOM      7  C   UNL     1      44.753  -6.290  25.842  1.00  0.00     0.000 C 
BRANCH   7   8
ATOM      8  C   UNL     1      45.511  -7.583  25.509  1.00  0.00     0.000 C 
BRANCH   8   9
ATOM      9  C   UNL     1      45.797  -7.680  24.005  1.00  0.00     0.000 C 
BRANCH   9  10
ATOM     10  C   UNL     1      47.232  -7.231  23.688  1.00  0.00     0.006 C 
BRANCH  10  11
ATOM     11  C   UNL     1      48.177  -7.417  24.882  1.00  0.00     0.053 C 
BRANCH  11  12
ATOM     12  C   UNL     1      48.799  -6.122  25.305  1.00  0.00     0.041 C 
ATOM     13  O   UNL     1      49.981  -6.097  25.737  1.00  0.00    -0.550 OA
ATOM     14  O   UNL     1      48.060  -4.946  25.253  1.00  0.00    -0.550 OA
ENDBRANCH  11  12
ENDBRANCH  10  11
ENDBRANCH   9  10
ENDBRANCH   8   9
ENDBRANCH   7   8
ENDBRANCH   6   7
ENDBRANCH   5   6
ENDBRANCH   4   5
ENDBRANCH   3   4
ENDBRANCH   2   3
ENDBRANCH   1   2
BRANCH   1  15
ATOM     15  C   UNL     1      38.722  -2.673  28.230  1.00  0.00     0.000 C 
BRANCH  15  16
ATOM     16  C   UNL     1      39.579  -2.089  29.369  1.00  0.00     0.000 C 
BRANCH  16  17
ATOM     17  C   UNL     1      40.193  -3.127  30.327  1.00  0.00     0.000 C 
BRANCH  17  18
ATOM     18  C   UNL     1      41.724  -3.217  30.210  1.00  0.00    -0.000 C 
BRANCH  18  19
ATOM     19  C   UNL     1      42.338  -2.033  29.440  1.00  0.00    -0.000 C 
BRANCH  19  20
ATOM     20  C   UNL     1      43.306  -1.151  30.254  1.00  0.00    -0.000 C 
BRANCH  20  21
ATOM     21  C   UNL     1      42.632  -0.081  31.135  1.00  0.00    -0.000 C 
BRANCH  21  22
ATOM     22  C   UNL     1      43.394   0.277  32.427  1.00  0.00    -0.000 C 
BRANCH  22  23
ATOM     23  C   UNL     1      42.754  -0.241  33.727  1.00  0.00    -0.000 C 
BRANCH  23  24
ATOM     24  C   UNL     1      41.774  -1.403  33.489  1.00  0.00    -0.000 C 
BRANCH  24  25
ATOM     25  C   UNL     1      42.275  -2.726  34.090  1.00  0.00    -0.003 C 
ATOM     26  C   UNL     1      43.592  -3.197  33.474  1.00  0.00     0.004 C 
ENDBRANCH  24  25
ENDBRANCH  23  24
ENDBRANCH  22  23
ENDBRANCH  21  22
ENDBRANCH  20  21
ENDBRANCH  19  20
ENDBRANCH  18  19
ENDBRANCH  17  18
ENDBRANCH  16  17
ENDBRANCH  15  16
ENDBRANCH   1  15
TORSDOF 22
ENDMDL
MODEL 9
REMARK VINA RESULT:    -5.060      4.620      9.392
REMARK INTER + INTRA:         -14.074
REMARK INTER:                 -11.679
REMARK INTRA:                  -2.395
REMARK UNBOUND:                -2.506
REMARK SMILES CCCCCCCCCCCCCCCCCCCCCCCC(=O)[O-]
REMARK SMILES IDX 13 1 14 2 15 3 16 4 17 5 18 6 19 7 20 8 21 9 22 10 23 11
REMARK SMILES IDX 24 12 25 13 26 14 12 15 11 16 10 17 9 18 8 19 7 20 6 21 5 22
REMARK SMILES IDX 4 23 3 24 2 25 1 26
REMARK H PARENT
REMARK Flexibility Score: inf
ROOT
ATOM      1  C   UNL     1      40.142  -2.896  28.998  1.00  0.00     0.000 C 
ENDROOT
BRANCH   1   2
ATOM      2  C   UNL     1      39.232  -3.862  28.230  1.00  0.00     0.000 C 
BRANCH   2   3
ATOM      3  C   UNL     1      39.721  -4.046  26.784  1.00  0.00     0.000 C 
BRANCH   3   4
ATOM      4  C   UNL     1      39.801  -5.524  26.366  1.00  0.00     0.000 C 
BRANCH   4   5
ATOM      5  C   UNL     1      39.357  -6.480  27.487  1.00  0.00     0.000 C 
BRANCH   5   6
ATOM      6  C   UNL     1      38.548  -7.680  26.963  1.00  0.00     0.000 C 
BRANCH   6   7
ATOM      7  C   UNL     1      37.935  -7.496  25.563  1.00  0.00     0.000 C 
BRANCH   7   8
ATOM      8  C   UNL     1      36.433  -7.179  25.602  1.00  0.00     0.000 C 
BRANCH   8   9
ATOM      9  C   UNL     1      35.845  -7.131  24.186  1.00  0.00     0.000 C 
BRANCH   9  10
ATOM     10  C   UNL     1      34.365  -7.542  24.191  1.00  0.00     0.006 C 
BRANCH  10  11
ATOM     11  C   UNL     1      33.434  -6.356  24.477  1.00  0.00     0.053 C 
BRANCH  11  12
ATOM     12  C   UNL     1      32.807  -6.456  25.833  1.00  0.00     0.041 C 
ATOM     13  O   UNL     1      31.700  -7.039  25.980  1.00  0.00    -0.550 OA
ATOM     14  O   UNL     1      33.430  -5.877  26.932  1.00  0.00    -0.550 OA
ENDBRANCH  11  12
ENDBRANCH  10  11
ENDBRANCH   9  10
ENDBRANCH   8   9
ENDBRANCH   7   8
ENDBRANCH   6   7
ENDBRANCH   5   6
ENDBRANCH   4   5
ENDBRANCH   3   4
ENDBRANCH   2   3
ENDBRANCH   1   2
BRANCH   1  15
ATOM     15  C   UNL     1      40.389  -3.396  30.429  1.00  0.00     0.000 C 
BRANCH  15  16
ATOM     16  C   UNL     1      40.888  -4.851  30.482  1.00  0.00     0.000 C 
BRANCH  16  17
ATOM     17  C   UNL     1      42.395  -5.039  30.228  1.00  0.00     0.000 C 
BRANCH  17  18
ATOM     18  C   UNL     1      42.693  -5.777  28.912  1.00  0.00    -0.000 C 
BRANCH  18  19
ATOM     19  C   UNL     1      43.266  -4.852  27.822  1.00  0.00    -0.000 C 
BRANCH  19  20
ATOM     20  C   UNL     1      44.799  -4.685  27.840  1.00  0.00    -0.000 C 
BRANCH  20  21
ATOM     21  C   UNL     1      45.524  -5.166  26.569  1.00  0.00    -0.000 C 
BRANCH  21  22
ATOM     22  C   UNL     1      45.006  -6.497  25.986  1.00  0.00    -0.000 C 
BRANCH  22  23
ATOM     23  C   UNL     1      46.100  -7.496  25.566  1.00  0.00    -0.000 C 
BRANCH  23  24
ATOM     24  C   UNL     1      46.505  -7.352  24.089  1.00  0.00    -0.000 C 
BRANCH  24  25
ATOM     25  C   UNL     1      48.029  -7.398  23.891  1.00  0.00    -0.003 C 
ATOM     26  C   UNL     1      48.798  -7.465  25.211  1.00  0.00     0.004 C 
ENDBRANCH  24  25
ENDBRANCH  23  24
ENDBRANCH  22  23
ENDBRANCH  21  22
ENDBRANCH  20  21
ENDBRANCH  19  20
ENDBRANCH  18  19
ENDBRANCH  17  18
ENDBRANCH  16  17
ENDBRANCH  15  16
ENDBRANCH   1  15
TORSDOF 22
ENDMDL
