MODEL 1
REMARK VINA RESULT:    -5.201      0.000      0.000
REMARK INTER + INTRA:          -5.201
REMARK INTER:                  -5.201
REMARK INTRA:                   0.000
REMARK UNBOUND:                 0.000
REMARK SMILES CC1=CC(=O)[C@H]2C[C@@H]1C2(C)C
REMARK SMILES IDX 1 1 2 2 3 3 4 4 5 5 6 6 7 7 8 8 9 9 10 10 11 11
REMARK H PARENT
REMARK Flexibility Score: inf
ROOT
ATOM      1  C   UNL     1     -18.401 -49.764  29.947  1.00  0.00     0.040 C 
ATOM      2  C   UNL     1     -19.300 -49.898  28.759  1.00  0.00    -0.066 C 
ATOM      3  C   UNL     1     -20.579 -50.348  28.885  1.00  0.00     0.047 C 
ATOM      4  C   UNL     1     -21.367 -50.467  27.616  1.00  0.00     0.159 C 
ATOM      5  O   UNL     1     -22.547 -50.908  27.597  1.00  0.00    -0.295 OA
ATOM      6  C   UNL     1     -20.640 -50.019  26.348  1.00  0.00     0.067 C 
ATOM      7  C   UNL     1     -19.983 -48.678  26.744  1.00  0.00     0.021 C 
ATOM      8  C   UNL     1     -18.831 -49.518  27.339  1.00  0.00     0.022 C 
ATOM      9  C   UNL     1     -19.218 -50.650  26.344  1.00  0.00    -0.019 C 
ATOM     10  C   UNL     1     -18.512 -50.500  24.974  1.00  0.00     0.012 C 
ATOM     11  C   UNL     1     -19.064 -52.125  26.812  1.00  0.00     0.012 C 
ENDROOT
TORSDOF 0
ENDMDL
MODEL 2
REMARK VINA RESULT:    -5.186      5.121      6.526
REMARK INTER + INTRA:          -5.186
REMARK INTER:                  -5.186
REMARK INTRA:                   0.000
REMARK UNBOUND:                 0.000
REMARK SMILES CC1=CC(=O)[C@H]2C[C@@H]1C2(C)C
REMARK SMILES IDX 1 1 2 2 3 3 4 4 5 5 6 6 7 7 8 8 9 9 10 10 11 11
REMARK H PARENT
REMARK Flexibility Score: inf
ROOT
ATOM      1  C   UNL     1     -26.259 -55.018  25.773  1.00  0.00     0.040 C 
ATOM      2  C   UNL     1     -24.771 -54.873  25.828  1.00  0.00    -0.066 C 
ATOM      3  C   UNL     1     -24.147 -54.391  26.938  1.00  0.00     0.047 C 
ATOM      4  C   UNL     1     -22.655 -54.265  26.857  1.00  0.00     0.159 C 
ATOM      5  O   UNL     1     -21.969 -53.796  27.803  1.00  0.00    -0.295 OA
ATOM      6  C   UNL     1     -22.028 -54.742  25.548  1.00  0.00     0.067 C 
ATOM      7  C   UNL     1     -22.720 -56.095  25.269  1.00  0.00     0.021 C 
ATOM      8  C   UNL     1     -23.871 -55.277  24.641  1.00  0.00     0.022 C 
ATOM      9  C   UNL     1     -22.840 -54.146  24.363  1.00  0.00    -0.019 C 
ATOM     10  C   UNL     1     -22.119 -54.325  23.004  1.00  0.00     0.012 C 
ATOM     11  C   UNL     1     -23.322 -52.671  24.467  1.00  0.00     0.012 C 
ENDROOT
TORSDOF 0
ENDMDL
MODEL 3
REMARK VINA RESULT:    -5.050      5.223      6.740
REMARK INTER + INTRA:          -5.050
REMARK INTER:                  -5.050
REMARK INTRA:                   0.000
REMARK UNBOUND:                 0.000
REMARK SMILES CC1=CC(=O)[C@H]2C[C@@H]1C2(C)C
REMARK SMILES IDX 1 1 2 2 3 3 4 4 5 5 6 6 7 7 8 8 9 9 10 10 11 11
REMARK H PARENT
REMARK Flexibility Score: inf
ROOT
ATOM      1  C   UNL     1     -26.132 -53.139  23.801  1.00  0.00     0.040 C 
ATOM      2  C   UNL     1     -24.939 -53.521  24.619  1.00  0.00    -0.066 C 
ATOM      3  C   UNL     1     -24.083 -52.581  25.107  1.00  0.00     0.047 C 
ATOM      4  C   UNL     1     -22.909 -53.093  25.885  1.00  0.00     0.159 C 
ATOM      5  O   UNL     1     -22.027 -52.327  26.353  1.00  0.00    -0.295 OA
ATOM      6  C   UNL     1     -22.857 -54.610  26.069  1.00  0.00     0.067 C 
ATOM      7  C   UNL     1     -24.298 -54.991  26.475  1.00  0.00     0.021 C 
ATOM      8  C   UNL     1     -24.629 -54.993  24.966  1.00  0.00     0.022 C 
ATOM      9  C   UNL     1     -23.126 -55.285  24.693  1.00  0.00    -0.019 C 
ATOM     10  C   UNL     1     -22.806 -56.801  24.708  1.00  0.00     0.012 C 
ATOM     11  C   UNL     1     -22.474 -54.663  23.426  1.00  0.00     0.012 C 
ENDROOT
TORSDOF 0
ENDMDL
MODEL 4
REMARK VINA RESULT:    -5.049      4.837      6.330
REMARK INTER + INTRA:          -5.049
REMARK INTER:                  -5.049
REMARK INTRA:                   0.000
REMARK UNBOUND:                 0.000
REMARK SMILES CC1=CC(=O)[C@H]2C[C@@H]1C2(C)C
REMARK SMILES IDX 1 1 2 2 3 3 4 4 5 5 6 6 7 7 8 8 9 9 10 10 11 11
REMARK H PARENT
REMARK Flexibility Score: inf
ROOT
ATOM      1  C   UNL     1     -21.323 -53.867  22.248  1.00  0.00     0.040 C 
ATOM      2  C   UNL     1     -21.842 -53.896  23.651  1.00  0.00    -0.066 C 
ATOM      3  C   UNL     1     -20.998 -53.923  24.719  1.00  0.00     0.047 C 
ATOM      4  C   UNL     1     -21.642 -53.983  26.071  1.00  0.00     0.159 C 
ATOM      5  O   UNL     1     -20.969 -54.051  27.133  1.00  0.00    -0.295 OA
ATOM      6  C   UNL     1     -23.170 -53.957  26.070  1.00  0.00     0.067 C 
ATOM      7  C   UNL     1     -23.528 -52.830  25.077  1.00  0.00     0.021 C 
ATOM      8  C   UNL     1     -23.355 -53.881  23.957  1.00  0.00     0.022 C 
ATOM      9  C   UNL     1     -23.682 -54.976  25.013  1.00  0.00    -0.019 C 
ATOM     10  C   UNL     1     -25.203 -55.241  25.137  1.00  0.00     0.012 C 
ATOM     11  C   UNL     1     -22.958 -56.347  24.897  1.00  0.00     0.012 C 
ENDROOT
TORSDOF 0
ENDMDL
MODEL 5
REMARK VINA RESULT:    -4.964      1.961      3.556
REMARK INTER + INTRA:          -4.964
REMARK INTER:                  -4.964
REMARK INTRA:                   0.000
REMARK UNBOUND:                 0.000
REMARK SMILES CC1=CC(=O)[C@H]2C[C@@H]1C2(C)C
REMARK SMILES IDX 1 1 2 2 3 3 4 4 5 5 6 6 7 7 8 8 9 9 10 10 11 11
REMARK H PARENT
REMARK Flexibility Score: inf
ROOT
ATOM      1  C   UNL     1     -19.073 -49.515  26.113  1.00  0.00     0.040 C 
ATOM      2  C   UNL     1     -19.026 -50.138  27.473  1.00  0.00    -0.066 C 
ATOM      3  C   UNL     1     -19.918 -49.792  28.441  1.00  0.00     0.047 C 
ATOM      4  C   UNL     1     -19.746 -50.464  29.771  1.00  0.00     0.159 C 
ATOM      5  O   UNL     1     -20.483 -50.200  30.757  1.00  0.00    -0.295 OA
ATOM      6  C   UNL     1     -18.614 -51.489  29.845  1.00  0.00     0.067 C 
ATOM      7  C   UNL     1     -18.776 -52.324  28.556  1.00  0.00     0.021 C 
ATOM      8  C   UNL     1     -17.979 -51.211  27.839  1.00  0.00     0.022 C 
ATOM      9  C   UNL     1     -17.338 -50.863  29.213  1.00  0.00    -0.019 C 
ATOM     10  C   UNL     1     -16.067 -51.701  29.501  1.00  0.00     0.012 C 
ATOM     11  C   UNL     1     -17.018 -49.373  29.519  1.00  0.00     0.012 C 
ENDROOT
TORSDOF 0
ENDMDL
MODEL 6
REMARK VINA RESULT:    -4.955      1.434      2.194
REMARK INTER + INTRA:          -4.955
REMARK INTER:                  -4.955
REMARK INTRA:                   0.000
REMARK UNBOUND:                 0.000
REMARK SMILES CC1=CC(=O)[C@H]2C[C@@H]1C2(C)C
REMARK SMILES IDX 1 1 2 2 3 3 4 4 5 5 6 6 7 7 8 8 9 9 10 10 11 11
REMARK H PARENT
REMARK Flexibility Score: inf
ROOT
ATOM      1  C   UNL     1     -16.829 -51.611  28.559  1.00  0.00     0.040 C 
ATOM      2  C   UNL     1     -18.207 -51.328  28.051  1.00  0.00    -0.066 C 
ATOM      3  C   UNL     1     -19.011 -52.326  27.590  1.00  0.00     0.047 C 
ATOM      4  C   UNL     1     -20.358 -51.911  27.080  1.00  0.00     0.159 C 
ATOM      5  O   UNL     1     -21.175 -52.735  26.593  1.00  0.00    -0.295 OA
ATOM      6  C   UNL     1     -20.668 -50.417  27.191  1.00  0.00     0.067 C 
ATOM      7  C   UNL     1     -20.218 -50.044  28.621  1.00  0.00     0.021 C 
ATOM      8  C   UNL     1     -18.793 -49.900  28.041  1.00  0.00     0.022 C 
ATOM      9  C   UNL     1     -19.446 -49.617  26.657  1.00  0.00    -0.019 C 
ATOM     10  C   UNL     1     -19.769 -48.116  26.453  1.00  0.00     0.012 C 
ATOM     11  C   UNL     1     -18.722 -50.137  25.383  1.00  0.00     0.012 C 
ENDROOT
TORSDOF 0
ENDMDL
MODEL 7
REMARK VINA RESULT:    -4.903      4.129      5.562
REMARK INTER + INTRA:          -4.903
REMARK INTER:                  -4.903
REMARK INTRA:                   0.000
REMARK UNBOUND:                 0.000
REMARK SMILES CC1=CC(=O)[C@H]2C[C@@H]1C2(C)C
REMARK SMILES IDX 1 1 2 2 3 3 4 4 5 5 6 6 7 7 8 8 9 9 10 10 11 11
REMARK H PARENT
REMARK Flexibility Score: inf
ROOT
ATOM      1  C   UNL     1     -20.087 -52.687  23.069  1.00  0.00     0.040 C 
ATOM      2  C   UNL     1     -21.242 -53.003  23.966  1.00  0.00    -0.066 C 
ATOM      3  C   UNL     1     -21.592 -52.176  24.989  1.00  0.00     0.047 C 
ATOM      4  C   UNL     1     -22.747 -52.619  25.834  1.00  0.00     0.159 C 
ATOM      5  O   UNL     1     -23.141 -51.960  26.832  1.00  0.00    -0.295 OA
ATOM      6  C   UNL     1     -23.412 -53.926  25.402  1.00  0.00     0.067 C 
ATOM      7  C   UNL     1     -23.565 -53.782  23.871  1.00  0.00     0.021 C 
ATOM      8  C   UNL     1     -22.102 -54.269  23.767  1.00  0.00     0.022 C 
ATOM      9  C   UNL     1     -22.301 -54.981  25.136  1.00  0.00    -0.019 C 
ATOM     10  C   UNL     1     -22.874 -56.412  24.979  1.00  0.00     0.012 C 
ATOM     11  C   UNL     1     -21.094 -55.045  26.113  1.00  0.00     0.012 C 
ENDROOT
TORSDOF 0
ENDMDL
MODEL 8
REMARK VINA RESULT:    -4.894      5.449      7.084
REMARK INTER + INTRA:          -4.894
REMARK INTER:                  -4.894
REMARK INTRA:                   0.000
REMARK UNBOUND:                 0.000
REMARK SMILES CC1=CC(=O)[C@H]2C[C@@H]1C2(C)C
REMARK SMILES IDX 1 1 2 2 3 3 4 4 5 5 6 6 7 7 8 8 9 9 10 10 11 11
REMARK H PARENT
REMARK Flexibility Score: inf
ROOT
ATOM      1  C   UNL     1     -22.969 -56.605  24.599  1.00  0.00     0.040 C 
ATOM      2  C   UNL     1     -23.602 -55.272  24.848  1.00  0.00    -0.066 C 
ATOM      3  C   UNL     1     -22.921 -54.113  24.630  1.00  0.00     0.047 C 
ATOM      4  C   UNL     1     -23.654 -52.844  24.947  1.00  0.00     0.159 C 
ATOM      5  O   UNL     1     -23.119 -51.711  24.825  1.00  0.00    -0.295 OA
ATOM      6  C   UNL     1     -25.093 -53.023  25.430  1.00  0.00     0.067 C 
ATOM      7  C   UNL     1     -25.694 -54.056  24.452  1.00  0.00     0.021 C 
ATOM      8  C   UNL     1     -25.057 -55.143  25.346  1.00  0.00     0.022 C 
ATOM      9  C   UNL     1     -25.114 -54.128  26.524  1.00  0.00    -0.019 C 
ATOM     10  C   UNL     1     -26.464 -54.181  27.283  1.00  0.00     0.012 C 
ATOM     11  C   UNL     1     -23.966 -54.153  27.572  1.00  0.00     0.012 C 
ENDROOT
TORSDOF 0
ENDMDL
MODEL 9
REMARK VINA RESULT:    -4.835      1.692      3.005
REMARK INTER + INTRA:          -4.835
REMARK INTER:                  -4.835
REMARK INTRA:                   0.000
REMARK UNBOUND:                 0.000
REMARK SMILES CC1=CC(=O)[C@H]2C[C@@H]1C2(C)C
REMARK SMILES IDX 1 1 2 2 3 3 4 4 5 5 6 6 7 7 8 8 9 9 10 10 11 11
REMARK H PARENT
REMARK Flexibility Score: inf
ROOT
ATOM      1  C   UNL     1     -22.563 -51.229  27.864  1.00  0.00     0.040 C 
ATOM      2  C   UNL     1     -21.085 -51.012  27.947  1.00  0.00    -0.066 C 
ATOM      3  C   UNL     1     -20.513 -50.444  29.045  1.00  0.00     0.047 C 
ATOM      4  C   UNL     1     -19.027 -50.253  28.994  1.00  0.00     0.159 C 
ATOM      5  O   UNL     1     -18.388 -49.704  29.929  1.00  0.00    -0.295 OA
ATOM      6  C   UNL     1     -18.344 -50.768  27.727  1.00  0.00     0.067 C 
ATOM      7  C   UNL     1     -18.966 -52.164  27.504  1.00  0.00     0.021 C 
ATOM      8  C   UNL     1     -20.136 -51.435  26.806  1.00  0.00     0.022 C 
ATOM      9  C   UNL     1     -19.151 -50.272  26.493  1.00  0.00    -0.019 C 
ATOM     10  C   UNL     1     -18.386 -50.488  25.163  1.00  0.00     0.012 C 
ATOM     11  C   UNL     1     -19.701 -48.818  26.506  1.00  0.00     0.012 C 
ENDROOT
TORSDOF 0
ENDMDL
