MODEL 1
REMARK VINA RESULT:    -5.753      0.000      0.000
REMARK INTER + INTRA:          -5.921
REMARK INTER:                  -5.921
REMARK INTRA:                   0.000
REMARK UNBOUND:                 0.000
REMARK SMILES Oc1ccc2[nH]ccc2c1
REMARK SMILES IDX 3 1 4 2 5 3 9 4 8 5 7 6 6 7 10 8 2 9 1 11
REMARK H PARENT 6 10 1 12
REMARK Flexibility Score: inf
ROOT
ATOM      1  C   UNL     1     133.843 132.157 136.548  1.00  0.00     0.048 A 
ATOM      2  C   UNL     1     134.791 133.176 136.754  1.00  0.00     0.030 A 
ATOM      3  C   UNL     1     134.573 134.066 137.804  1.00  0.00     0.046 A 
ATOM      4  C   UNL     1     133.476 133.964 138.617  1.00  0.00     0.003 A 
ATOM      5  C   UNL     1     133.555 134.980 139.544  1.00  0.00     0.028 A 
ATOM      6  C   UNL     1     134.727 135.663 139.236  1.00  0.00     0.083 A 
ATOM      7  N   UNL     1     135.345 135.100 138.171  1.00  0.00    -0.361 N 
ATOM      8  C   UNL     1     132.519 132.967 138.442  1.00  0.00     0.056 A 
ATOM      9  C   UNL     1     132.709 132.049 137.387  1.00  0.00     0.116 A 
ATOM     10  H   UNL     1     136.239 135.411 137.730  1.00  0.00     0.166 HD
ENDROOT
BRANCH   9  11
ATOM     11  O   UNL     1     131.785 131.031 137.162  1.00  0.00    -0.508 OA
ATOM     12  H   UNL     1     131.095 130.780 137.860  1.00  0.00     0.293 HD
ENDBRANCH   9  11
TORSDOF 1
ENDMDL
MODEL 2
REMARK VINA RESULT:    -5.662      2.508      3.588
REMARK INTER + INTRA:          -5.827
REMARK INTER:                  -5.827
REMARK INTRA:                   0.000
REMARK UNBOUND:                 0.000
REMARK SMILES Oc1ccc2[nH]ccc2c1
REMARK SMILES IDX 3 1 4 2 5 3 9 4 8 5 7 6 6 7 10 8 2 9 1 11
REMARK H PARENT 6 10 1 12
REMARK Flexibility Score: inf
ROOT
ATOM      1  C   UNL     1     135.404 134.501 137.742  1.00  0.00     0.048 A 
ATOM      2  C   UNL     1     135.150 133.371 136.942  1.00  0.00     0.030 A 
ATOM      3  C   UNL     1     133.939 132.705 137.122  1.00  0.00     0.046 A 
ATOM      4  C   UNL     1     133.017 133.124 138.043  1.00  0.00     0.003 A 
ATOM      5  C   UNL     1     131.944 132.263 137.973  1.00  0.00     0.028 A 
ATOM      6  C   UNL     1     132.281 131.342 136.986  1.00  0.00     0.083 A 
ATOM      7  N   UNL     1     133.502 131.616 136.469  1.00  0.00    -0.361 N 
ATOM      8  C   UNL     1     133.236 134.238 138.850  1.00  0.00     0.056 A 
ATOM      9  C   UNL     1     134.452 134.936 138.694  1.00  0.00     0.116 A 
ATOM     10  H   UNL     1     133.996 131.087 135.718  1.00  0.00     0.166 HD
ENDROOT
BRANCH   9  11
ATOM     11  O   UNL     1     134.728 136.057 139.474  1.00  0.00    -0.508 OA
ATOM     12  H   UNL     1     134.172 136.283 140.290  1.00  0.00     0.293 HD
ENDBRANCH   9  11
TORSDOF 1
ENDMDL
MODEL 3
REMARK VINA RESULT:    -5.407      2.531      3.978
REMARK INTER + INTRA:          -5.565
REMARK INTER:                  -5.565
REMARK INTRA:                   0.000
REMARK UNBOUND:                 0.000
REMARK SMILES Oc1ccc2[nH]ccc2c1
REMARK SMILES IDX 3 1 4 2 5 3 9 4 8 5 7 6 6 7 10 8 2 9 1 11
REMARK H PARENT 6 10 1 12
REMARK Flexibility Score: inf
ROOT
ATOM      1  C   UNL     1     134.428 134.734 138.888  1.00  0.00     0.048 A 
ATOM      2  C   UNL     1     133.124 134.209 138.958  1.00  0.00     0.030 A 
ATOM      3  C   UNL     1     132.817 133.118 138.148  1.00  0.00     0.046 A 
ATOM      4  C   UNL     1     133.743 132.563 137.306  1.00  0.00     0.003 A 
ATOM      5  C   UNL     1     133.132 131.514 136.655  1.00  0.00     0.028 A 
ATOM      6  C   UNL     1     131.831 131.488 137.149  1.00  0.00     0.083 A 
ATOM      7  N   UNL     1     131.644 132.470 138.062  1.00  0.00    -0.361 N 
ATOM      8  C   UNL     1     135.042 133.057 137.212  1.00  0.00     0.056 A 
ATOM      9  C   UNL     1     135.387 134.162 138.018  1.00  0.00     0.116 A 
ATOM     10  H   UNL     1     130.766 132.676 138.587  1.00  0.00     0.166 HD
ENDROOT
BRANCH   9  11
ATOM     11  O   UNL     1     136.671 134.701 137.967  1.00  0.00    -0.508 OA
ATOM     12  H   UNL     1     137.233 134.645 137.126  1.00  0.00     0.293 HD
ENDBRANCH   9  11
TORSDOF 1
ENDMDL
MODEL 4
REMARK VINA RESULT:    -4.760      1.205      2.034
REMARK INTER + INTRA:          -4.899
REMARK INTER:                  -4.899
REMARK INTRA:                   0.000
REMARK UNBOUND:                 0.000
REMARK SMILES Oc1ccc2[nH]ccc2c1
REMARK SMILES IDX 3 1 4 2 5 3 9 4 8 5 7 6 6 7 10 8 2 9 1 11
REMARK H PARENT 6 10 1 12
REMARK Flexibility Score: inf
ROOT
ATOM      1  C   UNL     1     132.509 132.113 137.507  1.00  0.00     0.048 A 
ATOM      2  C   UNL     1     132.475 132.939 138.645  1.00  0.00     0.030 A 
ATOM      3  C   UNL     1     133.547 133.804 138.854  1.00  0.00     0.046 A 
ATOM      4  C   UNL     1     134.607 133.859 137.989  1.00  0.00     0.003 A 
ATOM      5  C   UNL     1     135.486 134.802 138.474  1.00  0.00     0.028 A 
ATOM      6  C   UNL     1     134.897 135.283 139.639  1.00  0.00     0.083 A 
ATOM      7  N   UNL     1     133.712 134.670 139.867  1.00  0.00    -0.361 N 
ATOM      8  C   UNL     1     134.673 133.055 136.854  1.00  0.00     0.056 A 
ATOM      9  C   UNL     1     133.604 132.167 136.612  1.00  0.00     0.116 A 
ATOM     10  H   UNL     1     133.064 134.839 140.667  1.00  0.00     0.166 HD
ENDROOT
BRANCH   9  11
ATOM     11  O   UNL     1     133.614 131.337 135.492  1.00  0.00    -0.508 OA
ATOM     12  H   UNL     1     134.443 130.818 135.228  1.00  0.00     0.293 HD
ENDBRANCH   9  11
TORSDOF 1
ENDMDL
MODEL 5
REMARK VINA RESULT:    -4.348      1.266      1.772
REMARK INTER + INTRA:          -4.475
REMARK INTER:                  -4.475
REMARK INTRA:                   0.000
REMARK UNBOUND:                 0.000
REMARK SMILES Oc1ccc2[nH]ccc2c1
REMARK SMILES IDX 3 1 4 2 5 3 9 4 8 5 7 6 6 7 10 8 2 9 1 11
REMARK H PARENT 6 10 1 12
REMARK Flexibility Score: inf
ROOT
ATOM      1  C   UNL     1     132.020 133.241 137.306  1.00  0.00     0.048 A 
ATOM      2  C   UNL     1     132.234 134.471 137.955  1.00  0.00     0.030 A 
ATOM      3  C   UNL     1     133.449 134.657 138.613  1.00  0.00     0.046 A 
ATOM      4  C   UNL     1     134.411 133.683 138.636  1.00  0.00     0.003 A 
ATOM      5  C   UNL     1     135.477 134.174 139.358  1.00  0.00     0.028 A 
ATOM      6  C   UNL     1     135.094 135.454 139.746  1.00  0.00     0.083 A 
ATOM      7  N   UNL     1     133.853 135.744 139.288  1.00  0.00    -0.361 N 
ATOM      8  C   UNL     1     134.232 132.455 138.003  1.00  0.00     0.056 A 
ATOM      9  C   UNL     1     133.013 132.234 137.328  1.00  0.00     0.116 A 
ATOM     10  H   UNL     1     133.325 136.632 139.433  1.00  0.00     0.166 HD
ENDROOT
BRANCH   9  11
ATOM     11  O   UNL     1     132.775 131.024 136.678  1.00  0.00    -0.508 OA
ATOM     12  H   UNL     1     132.813 130.951 135.668  1.00  0.00     0.293 HD
ENDBRANCH   9  11
TORSDOF 1
ENDMDL
MODEL 6
REMARK VINA RESULT:    -4.161      2.136      3.433
REMARK INTER + INTRA:          -4.283
REMARK INTER:                  -4.283
REMARK INTRA:                   0.000
REMARK UNBOUND:                 0.000
REMARK SMILES Oc1ccc2[nH]ccc2c1
REMARK SMILES IDX 3 1 4 2 5 3 9 4 8 5 7 6 6 7 10 8 2 9 1 11
REMARK H PARENT 6 10 1 12
REMARK Flexibility Score: inf
ROOT
ATOM      1  C   UNL     1     135.448 134.747 139.410  1.00  0.00     0.048 A 
ATOM      2  C   UNL     1     136.277 134.431 138.317  1.00  0.00     0.030 A 
ATOM      3  C   UNL     1     135.704 133.763 137.237  1.00  0.00     0.046 A 
ATOM      4  C   UNL     1     134.378 133.419 137.225  1.00  0.00     0.003 A 
ATOM      5  C   UNL     1     134.130 132.780 136.030  1.00  0.00     0.028 A 
ATOM      6  C   UNL     1     135.351 132.770 135.362  1.00  0.00     0.083 A 
ATOM      7  N   UNL     1     136.309 133.372 136.105  1.00  0.00    -0.361 N 
ATOM      8  C   UNL     1     133.530 133.717 138.289  1.00  0.00     0.056 A 
ATOM      9  C   UNL     1     134.079 134.392 139.399  1.00  0.00     0.116 A 
ATOM     10  H   UNL     1     137.312 133.502 135.845  1.00  0.00     0.166 HD
ENDROOT
BRANCH   9  11
ATOM     11  O   UNL     1     133.280 134.716 140.494  1.00  0.00    -0.508 OA
ATOM     12  H   UNL     1     132.575 134.076 140.841  1.00  0.00     0.293 HD
ENDBRANCH   9  11
TORSDOF 1
ENDMDL
MODEL 7
REMARK VINA RESULT:    -4.134      2.389      3.674
REMARK INTER + INTRA:          -4.255
REMARK INTER:                  -4.255
REMARK INTRA:                   0.000
REMARK UNBOUND:                 0.000
REMARK SMILES Oc1ccc2[nH]ccc2c1
REMARK SMILES IDX 3 1 4 2 5 3 9 4 8 5 7 6 6 7 10 8 2 9 1 11
REMARK H PARENT 6 10 1 12
REMARK Flexibility Score: inf
ROOT
ATOM      1  C   UNL     1     132.996 133.506 138.908  1.00  0.00     0.048 A 
ATOM      2  C   UNL     1     132.909 132.776 137.708  1.00  0.00     0.030 A 
ATOM      3  C   UNL     1     133.978 132.855 136.818  1.00  0.00     0.046 A 
ATOM      4  C   UNL     1     135.084 133.615 137.088  1.00  0.00     0.003 A 
ATOM      5  C   UNL     1     135.947 133.481 136.022  1.00  0.00     0.028 A 
ATOM      6  C   UNL     1     135.300 132.623 135.137  1.00  0.00     0.083 A 
ATOM      7  N   UNL     1     134.097 132.243 135.629  1.00  0.00    -0.361 N 
ATOM      8  C   UNL     1     135.204 134.350 138.265  1.00  0.00     0.056 A 
ATOM      9  C   UNL     1     134.139 134.292 139.189  1.00  0.00     0.116 A 
ATOM     10  H   UNL     1     133.408 131.606 135.172  1.00  0.00     0.166 HD
ENDROOT
BRANCH   9  11
ATOM     11  O   UNL     1     134.200 135.007 140.383  1.00  0.00    -0.508 OA
ATOM     12  H   UNL     1     134.573 135.948 140.416  1.00  0.00     0.293 HD
ENDBRANCH   9  11
TORSDOF 1
ENDMDL
MODEL 8
REMARK VINA RESULT:    -3.901      1.841      2.376
REMARK INTER + INTRA:          -4.015
REMARK INTER:                  -4.015
REMARK INTRA:                   0.000
REMARK UNBOUND:                 0.000
REMARK SMILES Oc1ccc2[nH]ccc2c1
REMARK SMILES IDX 3 1 4 2 5 3 9 4 8 5 7 6 6 7 10 8 2 9 1 11
REMARK H PARENT 6 10 1 12
REMARK Flexibility Score: inf
ROOT
ATOM      1  C   UNL     1     136.365 133.518 136.597  1.00  0.00     0.048 A 
ATOM      2  C   UNL     1     136.364 134.055 137.898  1.00  0.00     0.030 A 
ATOM      3  C   UNL     1     135.140 134.172 138.553  1.00  0.00     0.046 A 
ATOM      4  C   UNL     1     133.968 133.781 137.964  1.00  0.00     0.003 A 
ATOM      5  C   UNL     1     132.953 134.025 138.863  1.00  0.00     0.028 A 
ATOM      6  C   UNL     1     133.580 134.565 139.981  1.00  0.00     0.083 A 
ATOM      7  N   UNL     1     134.917 134.654 139.787  1.00  0.00    -0.361 N 
ATOM      8  C   UNL     1     133.932 133.245 136.679  1.00  0.00     0.056 A 
ATOM      9  C   UNL     1     135.155 133.113 135.986  1.00  0.00     0.116 A 
ATOM     10  H   UNL     1     135.625 135.021 140.461  1.00  0.00     0.166 HD
ENDROOT
BRANCH   9  11
ATOM     11  O   UNL     1     135.183 132.585 134.697  1.00  0.00    -0.508 OA
ATOM     12  H   UNL     1     134.454 131.964 134.366  1.00  0.00     0.293 HD
ENDBRANCH   9  11
TORSDOF 1
ENDMDL
MODEL 9
REMARK VINA RESULT:    -3.674      2.699      3.538
REMARK INTER + INTRA:          -3.782
REMARK INTER:                  -3.782
REMARK INTRA:                   0.000
REMARK UNBOUND:                 0.000
REMARK SMILES Oc1ccc2[nH]ccc2c1
REMARK SMILES IDX 3 1 4 2 5 3 9 4 8 5 7 6 6 7 10 8 2 9 1 11
REMARK H PARENT 6 10 1 12
REMARK Flexibility Score: inf
ROOT
ATOM      1  C   UNL     1     136.240 133.683 137.043  1.00  0.00     0.048 A 
ATOM      2  C   UNL     1     135.200 133.073 136.317  1.00  0.00     0.030 A 
ATOM      3  C   UNL     1     133.995 132.840 136.977  1.00  0.00     0.046 A 
ATOM      4  C   UNL     1     133.814 133.188 138.289  1.00  0.00     0.003 A 
ATOM      5  C   UNL     1     132.531 132.829 138.637  1.00  0.00     0.028 A 
ATOM      6  C   UNL     1     131.986 132.267 137.486  1.00  0.00     0.083 A 
ATOM      7  N   UNL     1     132.885 132.276 136.475  1.00  0.00    -0.361 N 
ATOM      8  C   UNL     1     134.822 133.793 139.036  1.00  0.00     0.056 A 
ATOM      9  C   UNL     1     136.056 134.043 138.398  1.00  0.00     0.116 A 
ATOM     10  H   UNL     1     132.740 131.917 135.505  1.00  0.00     0.166 HD
ENDROOT
BRANCH   9  11
ATOM     11  O   UNL     1     137.102 134.644 139.095  1.00  0.00    -0.508 OA
ATOM     12  H   UNL     1     138.030 134.238 139.108  1.00  0.00     0.293 HD
ENDBRANCH   9  11
TORSDOF 1
ENDMDL
