MODEL 1
REMARK VINA RESULT:     1.780      0.000      0.000
REMARK INTER + INTRA:           2.405
REMARK INTER:                   2.769
REMARK INTRA:                  -0.364
REMARK UNBOUND:                -0.364
REMARK SMILES COc1cc(CNC(=O)CCCCC=CC(C)C)ccc1O
REMARK SMILES IDX 11 1 12 2 13 3 14 4 15 5 16 6 17 7 18 8 10 9 8 10 9 11 7 12
REMARK SMILES IDX 6 14 5 15 4 16 19 17 3 18 20 19 21 20 2 21 1 22 22 23
REMARK H PARENT 7 13 22 24
REMARK Flexibility Score: inf
ROOT
ATOM      1  C   UNL     1       7.404  -6.653 -12.307  1.00  0.00     0.010 C 
ENDROOT
BRANCH   1   2
ATOM      2  C   UNL     1       7.688  -5.228 -11.802  1.00  0.00     0.005 C 
BRANCH   2   3
ATOM      3  C   UNL     1       6.993  -4.935 -10.467  1.00  0.00     0.027 C 
BRANCH   3   4
ATOM      4  C   UNL     1       6.275  -6.157  -9.941  1.00  0.00    -0.031 C 
ATOM      5  C   UNL     1       4.946  -6.367 -10.005  1.00  0.00    -0.028 C 
BRANCH   5   6
ATOM      6  C   UNL     1       3.937  -5.377 -10.552  1.00  0.00     0.005 C 
ATOM      7  C   UNL     1       2.992  -4.913  -9.436  1.00  0.00     0.012 C 
ATOM      8  C   UNL     1       3.138  -6.015 -11.692  1.00  0.00     0.012 C 
ENDBRANCH   5   6
ENDBRANCH   3   4
ENDBRANCH   2   3
ENDBRANCH   1   2
BRANCH   1   9
ATOM      9  C   UNL     1       7.570  -6.778 -13.827  1.00  0.00     0.100 C 
BRANCH   9  10
ATOM     10  C   UNL     1       6.701  -5.800 -14.563  1.00  0.00     0.220 C 
ATOM     11  O   UNL     1       7.235  -4.944 -15.319  1.00  0.00    -0.275 OA
ATOM     12  N   UNL     1       5.279  -5.815 -14.375  1.00  0.00    -0.352 N 
ATOM     13  H   UNL     1       4.859  -6.503 -13.710  1.00  0.00     0.163 HD
BRANCH  12  14
ATOM     14  C   UNL     1       4.390  -4.875 -15.054  1.00  0.00     0.151 C 
BRANCH  14  15
ATOM     15  C   UNL     1       4.043  -5.380 -16.428  1.00  0.00    -0.025 A 
ATOM     16  C   UNL     1       4.872  -6.323 -17.058  1.00  0.00     0.056 A 
ATOM     17  C   UNL     1       2.906  -4.906 -17.097  1.00  0.00     0.009 A 
ATOM     18  C   UNL     1       4.568  -6.794 -18.351  1.00  0.00     0.160 A 
ATOM     19  C   UNL     1       2.597  -5.371 -18.376  1.00  0.00     0.050 A 
ATOM     20  C   UNL     1       3.420  -6.310 -19.006  1.00  0.00     0.157 A 
BRANCH  18  21
ATOM     21  O   UNL     1       5.378  -7.735 -19.008  1.00  0.00    -0.493 OA
ATOM     22  C   UNL     1       6.203  -7.446 -20.133  1.00  0.00     0.278 C 
ENDBRANCH  18  21
BRANCH  20  23
ATOM     23  O   UNL     1       3.082  -6.751 -20.285  1.00  0.00    -0.504 OA
ATOM     24  H   UNL     1       3.251  -6.190 -21.112  1.00  0.00     0.293 HD
ENDBRANCH  20  23
ENDBRANCH  14  15
ENDBRANCH  12  14
ENDBRANCH   9  10
ENDBRANCH   1   9
TORSDOF 10
ENDMDL
MODEL 2
REMARK VINA RESULT:     2.639      2.218      4.238
REMARK INTER + INTRA:           3.740
REMARK INTER:                   2.551
REMARK INTRA:                   1.190
REMARK UNBOUND:                -0.364
REMARK SMILES COc1cc(CNC(=O)CCCCC=CC(C)C)ccc1O
REMARK SMILES IDX 11 1 12 2 13 3 14 4 15 5 16 6 17 7 18 8 10 9 8 10 9 11 7 12
REMARK SMILES IDX 6 14 5 15 4 16 19 17 3 18 20 19 21 20 2 21 1 22 22 23
REMARK H PARENT 7 13 22 24
REMARK Flexibility Score: inf
ROOT
ATOM      1  C   UNL     1       4.266  -5.053  -9.769  1.00  0.00     0.010 C 
ENDROOT
BRANCH   1   2
ATOM      2  C   UNL     1       4.867  -6.367 -10.297  1.00  0.00     0.005 C 
BRANCH   2   3
ATOM      3  C   UNL     1       6.274  -6.172 -10.876  1.00  0.00     0.027 C 
BRANCH   3   4
ATOM      4  C   UNL     1       6.542  -7.137 -12.007  1.00  0.00    -0.031 C 
ATOM      5  C   UNL     1       7.453  -6.960 -12.984  1.00  0.00    -0.028 C 
BRANCH   5   6
ATOM      6  C   UNL     1       8.312  -5.724 -13.153  1.00  0.00     0.005 C 
ATOM      7  C   UNL     1       8.281  -4.878 -11.874  1.00  0.00     0.012 C 
ATOM      8  C   UNL     1       7.821  -4.898 -14.346  1.00  0.00     0.012 C 
ENDBRANCH   5   6
ENDBRANCH   3   4
ENDBRANCH   2   3
ENDBRANCH   1   2
BRANCH   1   9
ATOM      9  C   UNL     1       2.744  -5.135  -9.597  1.00  0.00     0.100 C 
BRANCH   9  10
ATOM     10  C   UNL     1       2.034  -5.115 -10.920  1.00  0.00     0.220 C 
ATOM     11  O   UNL     1       0.793  -5.332 -10.959  1.00  0.00    -0.275 OA
ATOM     12  N   UNL     1       2.769  -4.889 -12.130  1.00  0.00    -0.352 N 
ATOM     13  H   UNL     1       3.805  -4.755 -12.081  1.00  0.00     0.163 HD
BRANCH  12  14
ATOM     14  C   UNL     1       2.130  -4.877 -13.444  1.00  0.00     0.151 C 
BRANCH  14  15
ATOM     15  C   UNL     1       3.118  -5.261 -14.512  1.00  0.00    -0.025 A 
ATOM     16  C   UNL     1       2.778  -5.116 -15.867  1.00  0.00     0.056 A 
ATOM     17  C   UNL     1       4.374  -5.780 -14.169  1.00  0.00     0.009 A 
ATOM     18  C   UNL     1       3.687  -5.484 -16.878  1.00  0.00     0.160 A 
ATOM     19  C   UNL     1       5.280  -6.144 -15.165  1.00  0.00     0.050 A 
ATOM     20  C   UNL     1       4.945  -6.000 -16.515  1.00  0.00     0.157 A 
BRANCH  18  21
ATOM     21  O   UNL     1       3.376  -5.352 -18.242  1.00  0.00    -0.493 OA
ATOM     22  C   UNL     1       3.218  -6.443 -19.144  1.00  0.00     0.278 C 
ENDBRANCH  18  21
BRANCH  20  23
ATOM     23  O   UNL     1       5.875  -6.377 -17.484  1.00  0.00    -0.504 OA
ATOM     24  H   UNL     1       6.620  -7.036 -17.291  1.00  0.00     0.293 HD
ENDBRANCH  20  23
ENDBRANCH  14  15
ENDBRANCH  12  14
ENDBRANCH   9  10
ENDBRANCH   1   9
TORSDOF 10
ENDMDL
