MODEL 1
REMARK VINA RESULT:    -4.728      0.000      0.000
REMARK INTER + INTRA:          -4.728
REMARK INTER:                  -4.728
REMARK INTRA:                   0.000
REMARK UNBOUND:                 0.000
REMARK SMILES C=C1c2ccccc2-c2ccccc21
REMARK SMILES IDX 1 1 2 2 3 3 4 4 5 5 6 6 7 7 8 8 9 9 10 10 11 11 12 12 13 13
REMARK SMILES IDX 14 14
REMARK H PARENT
REMARK Flexibility Score: inf
ROOT
ATOM      1  C   UNL     1       5.889 111.498 180.893  1.00  0.00     0.018 C 
ATOM      2  C   UNL     1       4.922 111.447 181.809  1.00  0.00    -0.017 C 
ATOM      3  C   UNL     1       4.628 112.441 182.849  1.00  0.00    -0.010 A 
ATOM      4  C   UNL     1       5.262 113.652 183.142  1.00  0.00     0.009 A 
ATOM      5  C   UNL     1       4.769 114.421 184.210  1.00  0.00     0.001 A 
ATOM      6  C   UNL     1       3.662 113.975 184.962  1.00  0.00     0.001 A 
ATOM      7  C   UNL     1       3.038 112.755 184.654  1.00  0.00     0.009 A 
ATOM      8  C   UNL     1       3.543 112.006 183.591  1.00  0.00    -0.010 A 
ATOM      9  C   UNL     1       3.101 110.723 183.055  1.00  0.00    -0.010 A 
ATOM     10  C   UNL     1       2.055 109.894 183.459  1.00  0.00     0.009 A 
ATOM     11  C   UNL     1       1.848 108.696 182.756  1.00  0.00     0.001 A 
ATOM     12  C   UNL     1       2.681 108.350 181.672  1.00  0.00     0.001 A 
ATOM     13  C   UNL     1       3.731 109.199 181.281  1.00  0.00     0.009 A 
ATOM     14  C   UNL     1       3.923 110.387 181.991  1.00  0.00    -0.010 A 
ENDROOT
TORSDOF 0
ENDMDL
MODEL 2
REMARK VINA RESULT:    -4.726      0.077      4.268
REMARK INTER + INTRA:          -4.726
REMARK INTER:                  -4.726
REMARK INTRA:                   0.000
REMARK UNBOUND:                 0.000
REMARK SMILES C=C1c2ccccc2-c2ccccc21
REMARK SMILES IDX 1 1 2 2 3 3 4 4 5 5 6 6 7 7 8 8 9 9 10 10 11 11 12 12 13 13
REMARK SMILES IDX 14 14
REMARK H PARENT
REMARK Flexibility Score: inf
ROOT
ATOM      1  C   UNL     1       5.839 111.484 180.825  1.00  0.00     0.018 C 
ATOM      2  C   UNL     1       4.896 111.455 181.766  1.00  0.00    -0.017 C 
ATOM      3  C   UNL     1       3.896 110.402 181.992  1.00  0.00    -0.010 A 
ATOM      4  C   UNL     1       3.679 109.204 181.305  1.00  0.00     0.009 A 
ATOM      5  C   UNL     1       2.636 108.367 181.738  1.00  0.00     0.001 A 
ATOM      6  C   UNL     1       1.834 108.735 182.838  1.00  0.00     0.001 A 
ATOM      7  C   UNL     1       2.066 109.943 183.516  1.00  0.00     0.009 A 
ATOM      8  C   UNL     1       3.105 110.760 183.071  1.00  0.00    -0.010 A 
ATOM      9  C   UNL     1       3.567 112.048 183.575  1.00  0.00    -0.010 A 
ATOM     10  C   UNL     1       3.095 112.817 184.640  1.00  0.00     0.009 A 
ATOM     11  C   UNL     1       3.734 114.037 184.912  1.00  0.00     0.001 A 
ATOM     12  C   UNL     1       4.823 114.466 184.124  1.00  0.00     0.001 A 
ATOM     13  C   UNL     1       5.283 113.677 183.055  1.00  0.00     0.009 A 
ATOM     14  C   UNL     1       4.636 112.465 182.798  1.00  0.00    -0.010 A 
ENDROOT
TORSDOF 0
ENDMDL
MODEL 3
REMARK VINA RESULT:    -4.680      2.725      3.614
REMARK INTER + INTRA:          -4.680
REMARK INTER:                  -4.680
REMARK INTRA:                   0.000
REMARK UNBOUND:                 0.000
REMARK SMILES C=C1c2ccccc2-c2ccccc21
REMARK SMILES IDX 1 1 2 2 3 3 4 4 5 5 6 6 7 7 8 8 9 9 10 10 11 11 12 12 13 13
REMARK SMILES IDX 14 14
REMARK H PARENT
REMARK Flexibility Score: inf
ROOT
ATOM      1  C   UNL     1       6.498 106.247 183.503  1.00  0.00     0.018 C 
ATOM      2  C   UNL     1       5.811 107.354 183.223  1.00  0.00    -0.017 C 
ATOM      3  C   UNL     1       6.008 108.693 183.796  1.00  0.00    -0.010 A 
ATOM      4  C   UNL     1       6.928 109.137 184.749  1.00  0.00     0.009 A 
ATOM      5  C   UNL     1       6.897 110.491 185.125  1.00  0.00     0.001 A 
ATOM      6  C   UNL     1       5.957 111.372 184.549  1.00  0.00     0.001 A 
ATOM      7  C   UNL     1       5.039 110.907 183.593  1.00  0.00     0.009 A 
ATOM      8  C   UNL     1       5.086 109.560 183.234  1.00  0.00    -0.010 A 
ATOM      9  C   UNL     1       4.269 108.814 182.284  1.00  0.00    -0.010 A 
ATOM     10  C   UNL     1       3.216 109.243 181.475  1.00  0.00     0.009 A 
ATOM     11  C   UNL     1       2.594 108.300 180.640  1.00  0.00     0.001 A 
ATOM     12  C   UNL     1       3.030 106.959 180.627  1.00  0.00     0.001 A 
ATOM     13  C   UNL     1       4.092 106.546 181.450  1.00  0.00     0.009 A 
ATOM     14  C   UNL     1       4.699 107.497 182.275  1.00  0.00    -0.010 A 
ENDROOT
TORSDOF 0
ENDMDL
MODEL 4
REMARK VINA RESULT:    -4.672      2.739      5.367
REMARK INTER + INTRA:          -4.672
REMARK INTER:                  -4.672
REMARK INTRA:                   0.000
REMARK UNBOUND:                 0.000
REMARK SMILES C=C1c2ccccc2-c2ccccc21
REMARK SMILES IDX 1 1 2 2 3 3 4 4 5 5 6 6 7 7 8 8 9 9 10 10 11 11 12 12 13 13
REMARK SMILES IDX 14 14
REMARK H PARENT
REMARK Flexibility Score: inf
ROOT
ATOM      1  C   UNL     1       6.524 106.254 183.542  1.00  0.00     0.018 C 
ATOM      2  C   UNL     1       5.838 107.360 183.252  1.00  0.00    -0.017 C 
ATOM      3  C   UNL     1       4.724 107.493 182.305  1.00  0.00    -0.010 A 
ATOM      4  C   UNL     1       4.116 106.535 181.489  1.00  0.00     0.009 A 
ATOM      5  C   UNL     1       3.053 106.940 180.663  1.00  0.00     0.001 A 
ATOM      6  C   UNL     1       2.618 108.282 180.665  1.00  0.00     0.001 A 
ATOM      7  C   UNL     1       3.242 109.232 181.490  1.00  0.00     0.009 A 
ATOM      8  C   UNL     1       4.295 108.810 182.302  1.00  0.00    -0.010 A 
ATOM      9  C   UNL     1       5.113 109.565 183.244  1.00  0.00    -0.010 A 
ATOM     10  C   UNL     1       5.066 110.916 183.591  1.00  0.00     0.009 A 
ATOM     11  C   UNL     1       5.985 111.388 184.543  1.00  0.00     0.001 A 
ATOM     12  C   UNL     1       6.926 110.513 185.125  1.00  0.00     0.001 A 
ATOM     13  C   UNL     1       6.957 109.156 184.761  1.00  0.00     0.009 A 
ATOM     14  C   UNL     1       6.035 108.702 183.814  1.00  0.00    -0.010 A 
ENDROOT
TORSDOF 0
ENDMDL
MODEL 5
REMARK VINA RESULT:    -4.670      3.623      6.008
REMARK INTER + INTRA:          -4.670
REMARK INTER:                  -4.670
REMARK INTRA:                   0.000
REMARK UNBOUND:                 0.000
REMARK SMILES C=C1c2ccccc2-c2ccccc21
REMARK SMILES IDX 1 1 2 2 3 3 4 4 5 5 6 6 7 7 8 8 9 9 10 10 11 11 12 12 13 13
REMARK SMILES IDX 14 14
REMARK H PARENT
REMARK Flexibility Score: inf
ROOT
ATOM      1  C   UNL     1       0.354 108.252 179.451  1.00  0.00     0.018 C 
ATOM      2  C   UNL     1       1.465 107.582 179.758  1.00  0.00    -0.017 C 
ATOM      3  C   UNL     1       2.361 107.819 180.897  1.00  0.00    -0.010 A 
ATOM      4  C   UNL     1       2.289 108.772 181.916  1.00  0.00     0.009 A 
ATOM      5  C   UNL     1       3.296 108.778 182.897  1.00  0.00     0.001 A 
ATOM      6  C   UNL     1       4.350 107.841 182.845  1.00  0.00     0.001 A 
ATOM      7  C   UNL     1       4.407 106.891 181.812  1.00  0.00     0.009 A 
ATOM      8  C   UNL     1       3.398 106.902 180.849  1.00  0.00    -0.010 A 
ATOM      9  C   UNL     1       3.204 106.046 179.684  1.00  0.00    -0.010 A 
ATOM     10  C   UNL     1       3.976 104.983 179.213  1.00  0.00     0.009 A 
ATOM     11  C   UNL     1       3.553 104.322 178.048  1.00  0.00     0.001 A 
ATOM     12  C   UNL     1       2.380 104.729 177.380  1.00  0.00     0.001 A 
ATOM     13  C   UNL     1       1.617 105.802 177.870  1.00  0.00     0.009 A 
ATOM     14  C   UNL     1       2.051 106.450 179.030  1.00  0.00    -0.010 A 
ENDROOT
TORSDOF 0
ENDMDL
MODEL 6
REMARK VINA RESULT:    -4.607      2.934      5.928
REMARK INTER + INTRA:          -4.607
REMARK INTER:                  -4.607
REMARK INTRA:                   0.000
REMARK UNBOUND:                 0.000
REMARK SMILES C=C1c2ccccc2-c2ccccc21
REMARK SMILES IDX 1 1 2 2 3 3 4 4 5 5 6 6 7 7 8 8 9 9 10 10 11 11 12 12 13 13
REMARK SMILES IDX 14 14
REMARK H PARENT
REMARK Flexibility Score: inf
ROOT
ATOM      1  C   UNL     1       2.875 109.994 182.877  1.00  0.00     0.018 C 
ATOM      2  C   UNL     1       3.407 108.871 182.396  1.00  0.00    -0.017 C 
ATOM      3  C   UNL     1       2.869 108.017 181.328  1.00  0.00    -0.010 A 
ATOM      4  C   UNL     1       1.704 108.153 180.568  1.00  0.00     0.009 A 
ATOM      5  C   UNL     1       1.424 107.176 179.597  1.00  0.00     0.001 A 
ATOM      6  C   UNL     1       2.303 106.090 179.401  1.00  0.00     0.001 A 
ATOM      7  C   UNL     1       3.468 105.969 180.176  1.00  0.00     0.009 A 
ATOM      8  C   UNL     1       3.728 106.949 181.134  1.00  0.00    -0.010 A 
ATOM      9  C   UNL     1       4.844 107.077 182.065  1.00  0.00    -0.010 A 
ATOM     10  C   UNL     1       5.956 106.255 182.252  1.00  0.00     0.009 A 
ATOM     11  C   UNL     1       6.892 106.620 183.233  1.00  0.00     0.001 A 
ATOM     12  C   UNL     1       6.704 107.786 184.003  1.00  0.00     0.001 A 
ATOM     13  C   UNL     1       5.577 108.600 183.800  1.00  0.00     0.009 A 
ATOM     14  C   UNL     1       4.655 108.224 182.820  1.00  0.00    -0.010 A 
ENDROOT
TORSDOF 0
ENDMDL
MODEL 7
REMARK VINA RESULT:    -4.604      2.934      5.016
REMARK INTER + INTRA:          -4.604
REMARK INTER:                  -4.604
REMARK INTRA:                   0.000
REMARK UNBOUND:                 0.000
REMARK SMILES C=C1c2ccccc2-c2ccccc21
REMARK SMILES IDX 1 1 2 2 3 3 4 4 5 5 6 6 7 7 8 8 9 9 10 10 11 11 12 12 13 13
REMARK SMILES IDX 14 14
REMARK H PARENT
REMARK Flexibility Score: inf
ROOT
ATOM      1  C   UNL     1       2.857 110.000 182.895  1.00  0.00     0.018 C 
ATOM      2  C   UNL     1       3.387 108.879 182.407  1.00  0.00    -0.017 C 
ATOM      3  C   UNL     1       4.640 108.233 182.821  1.00  0.00    -0.010 A 
ATOM      4  C   UNL     1       5.568 108.611 183.795  1.00  0.00     0.009 A 
ATOM      5  C   UNL     1       6.699 107.799 183.989  1.00  0.00     0.001 A 
ATOM      6  C   UNL     1       6.884 106.634 183.216  1.00  0.00     0.001 A 
ATOM      7  C   UNL     1       5.941 106.270 182.240  1.00  0.00     0.009 A 
ATOM      8  C   UNL     1       4.826 107.090 182.063  1.00  0.00    -0.010 A 
ATOM      9  C   UNL     1       3.704 106.959 181.140  1.00  0.00    -0.010 A 
ATOM     10  C   UNL     1       3.439 105.980 180.182  1.00  0.00     0.009 A 
ATOM     11  C   UNL     1       2.267 106.100 179.417  1.00  0.00     0.001 A 
ATOM     12  C   UNL     1       1.388 107.184 179.621  1.00  0.00     0.001 A 
ATOM     13  C   UNL     1       1.673 108.160 180.591  1.00  0.00     0.009 A 
ATOM     14  C   UNL     1       2.843 108.026 181.343  1.00  0.00    -0.010 A 
ENDROOT
TORSDOF 0
ENDMDL
MODEL 8
REMARK VINA RESULT:    -4.428      4.608      6.510
REMARK INTER + INTRA:          -4.428
REMARK INTER:                  -4.428
REMARK INTRA:                   0.000
REMARK UNBOUND:                 0.000
REMARK SMILES C=C1c2ccccc2-c2ccccc21
REMARK SMILES IDX 1 1 2 2 3 3 4 4 5 5 6 6 7 7 8 8 9 9 10 10 11 11 12 12 13 13
REMARK SMILES IDX 14 14
REMARK H PARENT
REMARK Flexibility Score: inf
ROOT
ATOM      1  C   UNL     1       4.361 104.389 178.003  1.00  0.00     0.018 C 
ATOM      2  C   UNL     1       3.699 105.291 178.729  1.00  0.00    -0.017 C 
ATOM      3  C   UNL     1       4.171 105.980 179.937  1.00  0.00    -0.010 A 
ATOM      4  C   UNL     1       5.387 105.875 180.617  1.00  0.00     0.009 A 
ATOM      5  C   UNL     1       5.579 106.662 181.766  1.00  0.00     0.001 A 
ATOM      6  C   UNL     1       4.564 107.533 182.214  1.00  0.00     0.001 A 
ATOM      7  C   UNL     1       3.347 107.625 181.518  1.00  0.00     0.009 A 
ATOM      8  C   UNL     1       3.176 106.836 180.380  1.00  0.00    -0.010 A 
ATOM      9  C   UNL     1       2.037 106.729 179.476  1.00  0.00    -0.010 A 
ATOM     10  C   UNL     1       0.806 107.385 179.502  1.00  0.00     0.009 A 
ATOM     11  C   UNL     1      -0.125 107.089 178.493  1.00  0.00     0.001 A 
ATOM     12  C   UNL     1       0.186 106.152 177.486  1.00  0.00     0.001 A 
ATOM     13  C   UNL     1       1.431 105.501 177.478  1.00  0.00     0.009 A 
ATOM     14  C   UNL     1       2.346 105.807 178.489  1.00  0.00    -0.010 A 
ENDROOT
TORSDOF 0
ENDMDL
