MODEL 1
REMARK VINA RESULT:    -3.840      0.000      0.000
REMARK INTER + INTRA:          -5.820
REMARK INTER:                  -5.861
REMARK INTRA:                   0.041
REMARK UNBOUND:                 0.041
REMARK SMILES CC1=CCC[C@@H](C)C(=O)C[C@H](C(C)C)C(=O)C1
REMARK SMILES IDX 8 1 9 2 6 3 7 4 5 5 4 6 3 7 2 8 1 9 10 11 11 12 15 13 16 14
REMARK SMILES IDX 17 15 12 17 13 18 14 19
REMARK H PARENT
REMARK Flexibility Score: 70.00
ROOT
ATOM      1  C   UNL     1       9.023  34.954 -11.969  1.00  0.00     0.136 C 
ATOM      2  O   UNL     1       8.212  35.853 -11.791  1.00  0.00    -0.299 OA
ENDROOT
BRANCH   1   3
ATOM      3  C   UNL     1       9.139  33.835 -10.954  1.00  0.00     0.053 C 
ATOM      4  C   UNL     1       7.954  33.927  -9.986  1.00  0.00     0.016 C 
BRANCH   3   5
ATOM      5  C   UNL     1      10.473  33.875 -10.169  1.00  0.00     0.015 C 
BRANCH   5   6
ATOM      6  C   UNL     1      11.255  32.551 -10.184  1.00  0.00     0.028 C 
BRANCH   6   7
ATOM      7  C   UNL     1      10.763  31.595 -11.245  1.00  0.00    -0.028 C 
ATOM      8  C   UNL     1      11.238  31.498 -12.509  1.00  0.00    -0.070 CG0
ATOM      9  C   UNL     1      10.510  30.581 -13.461  1.00  0.00     0.039 C 
ATOM     10  G   UNL     1      12.393  32.333 -13.033  1.00  0.00     0.000 G0
ENDBRANCH   6   7
ENDBRANCH   5   6
ENDBRANCH   3   5
ENDBRANCH   1   3
BRANCH   1  11
ATOM     11  C   UNL     1       9.787  34.902 -13.272  1.00  0.00     0.087 C 
BRANCH  11  12
ATOM     12  C   UNL     1      11.325  34.785 -13.071  1.00  0.00     0.066 C 
BRANCH  12  13
ATOM     13  C   UNL     1      11.886  33.558 -13.791  1.00  0.00     0.140 C 
ATOM     14  O   UNL     1      11.950  33.532 -15.012  1.00  0.00    -0.299 OA
BRANCH  13  15
ATOM     15  C   UNL     1      12.377  32.350 -13.032  1.00  0.00     0.106 CG0
ATOM     16  G   UNL     1      11.236  31.483 -12.526  1.00  0.00     0.000 G0
ENDBRANCH  13  15
ENDBRANCH  12  13
BRANCH  12  17
ATOM     17  C   UNL     1      12.085  36.098 -13.459  1.00  0.00    -0.006 C 
ATOM     18  C   UNL     1      11.447  36.842 -14.647  1.00  0.00     0.008 C 
ATOM     19  C   UNL     1      12.245  37.047 -12.260  1.00  0.00     0.008 C 
ENDBRANCH  12  17
ENDBRANCH  11  12
ENDBRANCH   1  11
TORSDOF 1
ENDMDL
MODEL 2
REMARK VINA RESULT:    -3.801     15.444     16.847
REMARK INTER + INTRA:          -5.761
REMARK INTER:                  -6.141
REMARK INTRA:                   0.380
REMARK UNBOUND:                 0.041
REMARK SMILES CC1=CCC[C@@H](C)C(=O)C[C@H](C(C)C)C(=O)C1
REMARK SMILES IDX 8 1 9 2 6 3 7 4 5 5 4 6 3 7 2 8 1 9 10 11 11 12 15 13 16 14
REMARK SMILES IDX 17 15 12 17 13 18 14 19
REMARK H PARENT
REMARK Flexibility Score: 70.00
ROOT
ATOM      1  C   UNL     1      -1.242  32.007 -25.649  1.00  0.00     0.136 C 
ATOM      2  O   UNL     1      -2.256  31.674 -26.248  1.00  0.00    -0.299 OA
ENDROOT
BRANCH   1   3
ATOM      3  C   UNL     1      -0.191  32.839 -26.355  1.00  0.00     0.053 C 
ATOM      4  C   UNL     1      -0.847  33.549 -27.545  1.00  0.00     0.016 C 
BRANCH   3   5
ATOM      5  C   UNL     1       1.015  31.996 -26.838  1.00  0.00     0.015 C 
BRANCH   5   6
ATOM      6  C   UNL     1       2.286  32.170 -25.990  1.00  0.00     0.028 C 
BRANCH   6   7
ATOM      7  C   UNL     1       2.850  30.855 -25.508  1.00  0.00    -0.028 C 
ATOM      8  C   UNL     1       2.589  30.268 -24.316  1.00  0.00    -0.070 CG0
ATOM      9  C   UNL     1       3.370  29.027 -23.961  1.00  0.00     0.039 C 
ATOM     10  G   UNL     1       1.631  30.851 -23.290  1.00  0.00     0.000 G0
ENDBRANCH   6   7
ENDBRANCH   5   6
ENDBRANCH   3   5
ENDBRANCH   1   3
BRANCH   1  11
ATOM     11  C   UNL     1      -1.129  31.705 -24.172  1.00  0.00     0.087 C 
BRANCH  11  12
ATOM     12  C   UNL     1      -0.878  30.199 -23.878  1.00  0.00     0.066 C 
BRANCH  12  13
ATOM     13  C   UNL     1       0.401  29.999 -23.063  1.00  0.00     0.140 C 
ATOM     14  O   UNL     1       0.460  29.127 -22.206  1.00  0.00    -0.299 OA
BRANCH  13  15
ATOM     15  C   UNL     1       1.623  30.857 -23.282  1.00  0.00     0.106 CG0
ATOM     16  G   UNL     1       2.575  30.257 -24.302  1.00  0.00     0.000 G0
ENDBRANCH  13  15
ENDBRANCH  12  13
BRANCH  12  17
ATOM     17  C   UNL     1      -2.114  29.499 -23.219  1.00  0.00    -0.006 C 
ATOM     18  C   UNL     1      -2.353  29.933 -21.761  1.00  0.00     0.008 C 
ATOM     19  C   UNL     1      -3.394  29.691 -24.048  1.00  0.00     0.008 C 
ENDBRANCH  12  17
ENDBRANCH  11  12
ENDBRANCH   1  11
TORSDOF 1
ENDMDL
MODEL 3
REMARK VINA RESULT:    -3.685     15.638     16.885
REMARK INTER + INTRA:          -5.584
REMARK INTER:                  -6.003
REMARK INTRA:                   0.420
REMARK UNBOUND:                 0.041
REMARK SMILES CC1=CCC[C@@H](C)C(=O)C[C@H](C(C)C)C(=O)C1
REMARK SMILES IDX 8 1 9 2 6 3 7 4 5 5 4 6 3 7 2 8 1 9 10 11 11 12 15 13 16 14
REMARK SMILES IDX 17 15 12 17 13 18 14 19
REMARK H PARENT
REMARK Flexibility Score: 70.00
ROOT
ATOM      1  C   UNL     1      -0.233  30.245 -23.458  1.00  0.00     0.136 C 
ATOM      2  O   UNL     1       0.093  29.145 -23.031  1.00  0.00    -0.299 OA
ENDROOT
BRANCH   1   3
ATOM      3  C   UNL     1      -1.691  30.654 -23.445  1.00  0.00     0.053 C 
ATOM      4  C   UNL     1      -2.538  29.438 -23.052  1.00  0.00     0.016 C 
BRANCH   3   5
ATOM      5  C   UNL     1      -2.167  31.216 -24.808  1.00  0.00     0.015 C 
BRANCH   5   6
ATOM      6  C   UNL     1      -1.461  32.514 -25.236  1.00  0.00     0.028 C 
BRANCH   6   7
ATOM      7  C   UNL     1      -1.087  32.519 -26.699  1.00  0.00    -0.028 C 
ATOM      8  C   UNL     1       0.168  32.615 -27.198  1.00  0.00    -0.070 CG0
ATOM      9  C   UNL     1       0.317  32.753 -28.694  1.00  0.00     0.039 C 
ATOM     10  G   UNL     1       1.409  32.691 -26.326  1.00  0.00     0.000 G0
ENDBRANCH   6   7
ENDBRANCH   5   6
ENDBRANCH   3   5
ENDBRANCH   1   3
BRANCH   1  11
ATOM     11  C   UNL     1       0.846  31.227 -23.853  1.00  0.00     0.087 C 
BRANCH  11  12
ATOM     12  C   UNL     1       1.942  30.596 -24.758  1.00  0.00     0.066 C 
BRANCH  12  13
ATOM     13  C   UNL     1       2.045  31.329 -26.096  1.00  0.00     0.140 C 
ATOM     14  O   UNL     1       2.650  30.825 -27.033  1.00  0.00    -0.299 OA
BRANCH  13  15
ATOM     15  C   UNL     1       1.414  32.683 -26.309  1.00  0.00     0.106 CG0
ATOM     16  G   UNL     1       0.188  32.615 -27.203  1.00  0.00     0.000 G0
ENDBRANCH  13  15
ENDBRANCH  12  13
BRANCH  12  17
ATOM     17  C   UNL     1       3.327  30.483 -24.037  1.00  0.00    -0.006 C 
ATOM     18  C   UNL     1       3.357  31.175 -22.662  1.00  0.00     0.008 C 
ATOM     19  C   UNL     1       3.791  29.022 -23.908  1.00  0.00     0.008 C 
ENDBRANCH  12  17
ENDBRANCH  11  12
ENDBRANCH   1  11
TORSDOF 1
ENDMDL
MODEL 4
REMARK VINA RESULT:    -3.652      1.645      4.111
REMARK INTER + INTRA:          -5.533
REMARK INTER:                  -5.646
REMARK INTRA:                   0.113
REMARK UNBOUND:                 0.041
REMARK SMILES CC1=CCC[C@@H](C)C(=O)C[C@H](C(C)C)C(=O)C1
REMARK SMILES IDX 8 1 9 2 6 3 7 4 5 5 4 6 3 7 2 8 1 9 10 11 11 12 15 13 16 14
REMARK SMILES IDX 17 15 12 17 13 18 14 19
REMARK H PARENT
REMARK Flexibility Score: 70.00
ROOT
ATOM      1  C   UNL     1      10.122  36.389 -13.514  1.00  0.00     0.136 C 
ATOM      2  O   UNL     1       9.037  36.234 -14.060  1.00  0.00    -0.299 OA
ENDROOT
BRANCH   1   3
ATOM      3  C   UNL     1      11.027  37.523 -13.951  1.00  0.00     0.053 C 
ATOM      4  C   UNL     1      10.155  38.710 -14.376  1.00  0.00     0.016 C 
BRANCH   3   5
ATOM      5  C   UNL     1      11.977  37.119 -15.106  1.00  0.00     0.015 C 
BRANCH   5   6
ATOM      6  C   UNL     1      13.007  36.041 -14.729  1.00  0.00     0.028 C 
BRANCH   6   7
ATOM      7  C   UNL     1      12.779  34.737 -15.455  1.00  0.00    -0.028 C 
ATOM      8  C   UNL     1      12.416  33.564 -14.885  1.00  0.00    -0.070 CG0
ATOM      9  C   UNL     1      12.385  32.338 -15.766  1.00  0.00     0.039 C 
ATOM     10  G   UNL     1      12.139  33.407 -13.400  1.00  0.00     0.000 G0
ENDBRANCH   6   7
ENDBRANCH   5   6
ENDBRANCH   3   5
ENDBRANCH   1   3
BRANCH   1  11
ATOM     11  C   UNL     1      10.469  35.535 -12.316  1.00  0.00     0.087 C 
BRANCH  11  12
ATOM     12  C   UNL     1       9.800  34.132 -12.356  1.00  0.00     0.066 C 
BRANCH  12  13
ATOM     13  C   UNL     1      10.680  33.119 -13.091  1.00  0.00     0.140 C 
ATOM     14  O   UNL     1      10.219  32.045 -13.452  1.00  0.00    -0.299 OA
BRANCH  13  15
ATOM     15  C   UNL     1      12.130  33.403 -13.395  1.00  0.00     0.106 CG0
ATOM     16  G   UNL     1      12.386  33.573 -14.883  1.00  0.00     0.000 G0
ENDBRANCH  13  15
ENDBRANCH  12  13
BRANCH  12  17
ATOM     17  C   UNL     1       9.376  33.626 -10.936  1.00  0.00    -0.006 C 
ATOM     18  C   UNL     1      10.563  33.465  -9.968  1.00  0.00     0.008 C 
ATOM     19  C   UNL     1       8.292  34.517 -10.307  1.00  0.00     0.008 C 
ENDBRANCH  12  17
ENDBRANCH  11  12
ENDBRANCH   1  11
TORSDOF 1
ENDMDL
MODEL 5
REMARK VINA RESULT:    -3.413      1.895      4.115
REMARK INTER + INTRA:          -5.169
REMARK INTER:                  -5.198
REMARK INTRA:                   0.029
REMARK UNBOUND:                 0.041
REMARK SMILES CC1=CCC[C@@H](C)C(=O)C[C@H](C(C)C)C(=O)C1
REMARK SMILES IDX 8 1 9 2 6 3 7 4 5 5 4 6 3 7 2 8 1 9 10 11 11 12 15 13 16 14
REMARK SMILES IDX 17 15 12 17 13 18 14 19
REMARK H PARENT
REMARK Flexibility Score: 70.00
ROOT
ATOM      1  C   UNL     1       9.345  34.272 -11.284  1.00  0.00     0.136 C 
ATOM      2  O   UNL     1       8.428  34.649 -10.566  1.00  0.00    -0.299 OA
ENDROOT
BRANCH   1   3
ATOM      3  C   UNL     1       9.777  35.123 -12.460  1.00  0.00     0.053 C 
ATOM      4  C   UNL     1       8.666  36.134 -12.767  1.00  0.00     0.016 C 
BRANCH   3   5
ATOM      5  C   UNL     1      10.095  34.283 -13.722  1.00  0.00     0.015 C 
BRANCH   5   6
ATOM      6  C   UNL     1      11.593  34.012 -13.938  1.00  0.00     0.028 C 
BRANCH   6   7
ATOM      7  C   UNL     1      11.855  32.694 -14.626  1.00  0.00    -0.028 C 
ATOM      8  C   UNL     1      11.936  31.485 -14.023  1.00  0.00    -0.070 CG0
ATOM      9  C   UNL     1      12.354  30.307 -14.870  1.00  0.00     0.039 C 
ATOM     10  G   UNL     1      11.727  31.280 -12.532  1.00  0.00     0.000 G0
ENDBRANCH   6   7
ENDBRANCH   5   6
ENDBRANCH   3   5
ENDBRANCH   1   3
BRANCH   1  11
ATOM     11  C   UNL     1      10.123  33.037 -10.892  1.00  0.00     0.087 C 
BRANCH  11  12
ATOM     12  C   UNL     1       9.415  31.716 -11.306  1.00  0.00     0.066 C 
BRANCH  12  13
ATOM     13  C   UNL     1      10.321  30.854 -12.186  1.00  0.00     0.140 C 
ATOM     14  O   UNL     1       9.916  29.792 -12.640  1.00  0.00    -0.299 OA
BRANCH  13  15
ATOM     15  C   UNL     1      11.731  31.274 -12.525  1.00  0.00     0.106 CG0
ATOM     16  G   UNL     1      11.932  31.472 -14.017  1.00  0.00     0.000 G0
ENDBRANCH  13  15
ENDBRANCH  12  13
BRANCH  12  17
ATOM     17  C   UNL     1       8.856  30.921 -10.078  1.00  0.00    -0.006 C 
ATOM     18  C   UNL     1       9.820  30.898  -8.877  1.00  0.00     0.008 C 
ATOM     19  C   UNL     1       7.474  31.435  -9.641  1.00  0.00     0.008 C 
ENDBRANCH  12  17
ENDBRANCH  11  12
ENDBRANCH   1  11
TORSDOF 1
ENDMDL
MODEL 6
REMARK VINA RESULT:    -3.359      1.924      4.316
REMARK INTER + INTRA:          -5.085
REMARK INTER:                  -5.133
REMARK INTRA:                   0.048
REMARK UNBOUND:                 0.041
REMARK SMILES CC1=CCC[C@@H](C)C(=O)C[C@H](C(C)C)C(=O)C1
REMARK SMILES IDX 8 1 9 2 6 3 7 4 5 5 4 6 3 7 2 8 1 9 10 11 11 12 15 13 16 14
REMARK SMILES IDX 17 15 12 17 13 18 14 19
REMARK H PARENT
REMARK Flexibility Score: 70.00
ROOT
ATOM      1  C   UNL     1       9.348  32.646 -10.402  1.00  0.00     0.136 C 
ATOM      2  O   UNL     1       8.381  32.052  -9.943  1.00  0.00    -0.299 OA
ENDROOT
BRANCH   1   3
ATOM      3  C   UNL     1       9.565  34.106 -10.059  1.00  0.00     0.053 C 
ATOM      4  C   UNL     1       8.280  34.881 -10.377  1.00  0.00     0.016 C 
BRANCH   3   5
ATOM      5  C   UNL     1      10.763  34.727 -10.818  1.00  0.00     0.015 C 
BRANCH   5   6
ATOM      6  C   UNL     1      10.368  35.543 -12.060  1.00  0.00     0.028 C 
BRANCH   6   7
ATOM      7  C   UNL     1      11.278  35.289 -13.239  1.00  0.00    -0.028 C 
ATOM      8  C   UNL     1      11.141  34.296 -14.148  1.00  0.00    -0.070 CG0
ATOM      9  C   UNL     1      12.242  34.123 -15.166  1.00  0.00     0.039 C 
ATOM     10  G   UNL     1       9.996  33.298 -14.129  1.00  0.00     0.000 G0
ENDBRANCH   6   7
ENDBRANCH   5   6
ENDBRANCH   3   5
ENDBRANCH   1   3
BRANCH   1  11
ATOM     11  C   UNL     1      10.383  31.870 -11.183  1.00  0.00     0.087 C 
BRANCH  11  12
ATOM     12  C   UNL     1       9.814  31.233 -12.482  1.00  0.00     0.066 C 
BRANCH  12  13
ATOM     13  C   UNL     1      10.396  31.902 -13.728  1.00  0.00     0.140 C 
ATOM     14  O   UNL     1      11.217  31.314 -14.420  1.00  0.00    -0.299 OA
BRANCH  13  15
ATOM     15  C   UNL     1       9.985  33.292 -14.147  1.00  0.00     0.106 CG0
ATOM     16  G   UNL     1      11.150  34.267 -14.134  1.00  0.00     0.000 G0
ENDBRANCH  13  15
ENDBRANCH  12  13
BRANCH  12  17
ATOM     17  C   UNL     1       9.981  29.677 -12.513  1.00  0.00    -0.006 C 
ATOM     18  C   UNL     1      10.335  29.074 -11.141  1.00  0.00     0.008 C 
ATOM     19  C   UNL     1       8.744  28.976 -13.100  1.00  0.00     0.008 C 
ENDBRANCH  12  17
ENDBRANCH  11  12
ENDBRANCH   1  11
TORSDOF 1
ENDMDL
MODEL 7
REMARK VINA RESULT:    -3.336      2.335      4.552
REMARK INTER + INTRA:          -5.050
REMARK INTER:                  -5.303
REMARK INTRA:                   0.253
REMARK UNBOUND:                 0.041
REMARK SMILES CC1=CCC[C@@H](C)C(=O)C[C@H](C(C)C)C(=O)C1
REMARK SMILES IDX 8 1 9 2 6 3 7 4 5 5 4 6 3 7 2 8 1 9 10 11 11 12 15 13 16 14
REMARK SMILES IDX 17 15 12 17 13 18 14 19
REMARK H PARENT
REMARK Flexibility Score: 70.00
ROOT
ATOM      1  C   UNL     1      10.845  32.858 -10.169  1.00  0.00     0.136 C 
ATOM      2  O   UNL     1      12.048  32.679 -10.304  1.00  0.00    -0.299 OA
ENDROOT
BRANCH   1   3
ATOM      3  C   UNL     1      10.253  34.224 -10.447  1.00  0.00     0.053 C 
ATOM      4  C   UNL     1       8.727  34.128 -10.341  1.00  0.00     0.016 C 
BRANCH   3   5
ATOM      5  C   UNL     1      10.656  34.779 -11.837  1.00  0.00     0.015 C 
BRANCH   5   6
ATOM      6  C   UNL     1      10.144  33.943 -13.022  1.00  0.00     0.028 C 
BRANCH   6   7
ATOM      7  C   UNL     1      11.258  33.253 -13.773  1.00  0.00    -0.028 C 
ATOM      8  C   UNL     1      11.350  31.924 -14.012  1.00  0.00    -0.070 CG0
ATOM      9  C   UNL     1      12.619  31.415 -14.653  1.00  0.00     0.039 C 
ATOM     10  G   UNL     1      10.293  30.922 -13.581  1.00  0.00     0.000 G0
ENDBRANCH   6   7
ENDBRANCH   5   6
ENDBRANCH   3   5
ENDBRANCH   1   3
BRANCH   1  11
ATOM     11  C   UNL     1       9.956  31.672  -9.871  1.00  0.00     0.087 C 
BRANCH  11  12
ATOM     12  C   UNL     1       9.296  31.072 -11.145  1.00  0.00     0.066 C 
BRANCH  12  13
ATOM     13  C   UNL     1      10.350  30.559 -12.126  1.00  0.00     0.140 C 
ATOM     14  O   UNL     1      11.270  29.853 -11.734  1.00  0.00    -0.299 OA
BRANCH  13  15
ATOM     15  C   UNL     1      10.298  30.899 -13.595  1.00  0.00     0.106 CG0
ATOM     16  G   UNL     1      11.354  31.916 -13.992  1.00  0.00     0.000 G0
ENDBRANCH  13  15
ENDBRANCH  12  13
BRANCH  12  17
ATOM     17  C   UNL     1       8.220  29.985 -10.810  1.00  0.00    -0.006 C 
ATOM     18  C   UNL     1       7.748  29.195 -12.046  1.00  0.00     0.008 C 
ATOM     19  C   UNL     1       8.699  29.020  -9.713  1.00  0.00     0.008 C 
ENDBRANCH  12  17
ENDBRANCH  11  12
ENDBRANCH   1  11
TORSDOF 1
ENDMDL
MODEL 8
REMARK VINA RESULT:    -3.215      1.781      3.949
REMARK INTER + INTRA:          -4.866
REMARK INTER:                  -4.572
REMARK INTRA:                  -0.295
REMARK UNBOUND:                 0.041
REMARK SMILES CC1=CCC[C@@H](C)C(=O)C[C@H](C(C)C)C(=O)C1
REMARK SMILES IDX 8 1 9 2 6 3 7 4 5 5 4 6 3 7 2 8 1 9 10 11 11 12 15 13 16 14
REMARK SMILES IDX 17 15 12 17 13 18 14 19
REMARK H PARENT
REMARK Flexibility Score: 70.00
ROOT
ATOM      1  C   UNL     1      11.461  32.622 -13.961  1.00  0.00     0.136 C 
ATOM      2  O   UNL     1      11.105  33.133 -15.015  1.00  0.00    -0.299 OA
ENDROOT
BRANCH   1   3
ATOM      3  C   UNL     1      11.782  31.142 -13.915  1.00  0.00     0.053 C 
ATOM      4  C   UNL     1      12.171  30.680 -15.324  1.00  0.00     0.016 C 
BRANCH   3   5
ATOM      5  C   UNL     1      10.601  30.291 -13.383  1.00  0.00     0.015 C 
BRANCH   5   6
ATOM      6  C   UNL     1      10.826  29.711 -11.976  1.00  0.00     0.028 C 
BRANCH   6   7
ATOM      7  C   UNL     1       9.723  30.077 -11.011  1.00  0.00    -0.028 C 
ATOM      8  C   UNL     1       9.719  31.143 -10.177  1.00  0.00    -0.070 CG0
ATOM      9  C   UNL     1       8.588  31.250  -9.183  1.00  0.00     0.039 C 
ATOM     10  G   UNL     1      10.839  32.169 -10.128  1.00  0.00     0.000 G0
ENDBRANCH   6   7
ENDBRANCH   5   6
ENDBRANCH   3   5
ENDBRANCH   1   3
BRANCH   1  11
ATOM     11  C   UNL     1      11.716  33.510 -12.765  1.00  0.00     0.087 C 
BRANCH  11  12
ATOM     12  C   UNL     1      10.410  33.951 -12.046  1.00  0.00     0.066 C 
BRANCH  12  13
ATOM     13  C   UNL     1      10.428  33.551 -10.570  1.00  0.00     0.140 C 
ATOM     14  O   UNL     1      10.089  34.351  -9.708  1.00  0.00    -0.299 OA
BRANCH  13  15
ATOM     15  C   UNL     1      10.857  32.174 -10.127  1.00  0.00     0.106 CG0
ATOM     16  G   UNL     1       9.721  31.167 -10.189  1.00  0.00     0.000 G0
ENDBRANCH  13  15
ENDBRANCH  12  13
BRANCH  12  17
ATOM     17  C   UNL     1      10.098  35.473 -12.243  1.00  0.00    -0.006 C 
ATOM     18  C   UNL     1      11.337  36.304 -12.626  1.00  0.00     0.008 C 
ATOM     19  C   UNL     1       8.968  35.702 -13.260  1.00  0.00     0.008 C 
ENDBRANCH  12  17
ENDBRANCH  11  12
ENDBRANCH   1  11
TORSDOF 1
ENDMDL
MODEL 9
REMARK VINA RESULT:    -3.082      2.038      4.128
REMARK INTER + INTRA:          -4.662
REMARK INTER:                  -4.889
REMARK INTRA:                   0.226
REMARK UNBOUND:                 0.041
REMARK SMILES CC1=CCC[C@@H](C)C(=O)C[C@H](C(C)C)C(=O)C1
REMARK SMILES IDX 8 1 9 2 6 3 7 4 5 5 4 6 3 7 2 8 1 9 10 11 11 12 15 13 16 14
REMARK SMILES IDX 17 15 12 17 13 18 14 19
REMARK H PARENT
REMARK Flexibility Score: 70.00
ROOT
ATOM      1  C   UNL     1       9.393  31.065 -11.265  1.00  0.00     0.136 C 
ATOM      2  O   UNL     1       8.565  30.360 -11.826  1.00  0.00    -0.299 OA
ENDROOT
BRANCH   1   3
ATOM      3  C   UNL     1       8.989  31.881 -10.055  1.00  0.00     0.053 C 
ATOM      4  C   UNL     1       7.616  31.396  -9.572  1.00  0.00     0.016 C 
BRANCH   3   5
ATOM      5  C   UNL     1       8.943  33.402 -10.347  1.00  0.00     0.015 C 
BRANCH   5   6
ATOM      6  C   UNL     1      10.292  34.119 -10.169  1.00  0.00     0.028 C 
BRANCH   6   7
ATOM      7  C   UNL     1      10.564  35.130 -11.258  1.00  0.00    -0.028 C 
ATOM      8  C   UNL     1      11.342  34.933 -12.348  1.00  0.00    -0.070 CG0
ATOM      9  C   UNL     1      11.606  36.119 -13.242  1.00  0.00     0.039 C 
ATOM     10  G   UNL     1      12.033  33.615 -12.654  1.00  0.00     0.000 G0
ENDBRANCH   6   7
ENDBRANCH   5   6
ENDBRANCH   3   5
ENDBRANCH   1   3
BRANCH   1  11
ATOM     11  C   UNL     1      10.838  30.991 -11.704  1.00  0.00     0.087 C 
BRANCH  11  12
ATOM     12  C   UNL     1      11.022  31.226 -13.230  1.00  0.00     0.066 C 
BRANCH  12  13
ATOM     13  C   UNL     1      11.204  32.712 -13.543  1.00  0.00     0.140 C 
ATOM     14  O   UNL     1      10.674  33.207 -14.529  1.00  0.00    -0.299 OA
BRANCH  13  15
ATOM     15  C   UNL     1      12.034  33.612 -12.661  1.00  0.00     0.106 CG0
ATOM     16  G   UNL     1      11.340  34.930 -12.363  1.00  0.00     0.000 G0
ENDBRANCH  13  15
ENDBRANCH  12  13
BRANCH  12  17
ATOM     17  C   UNL     1      12.165  30.349 -13.842  1.00  0.00    -0.006 C 
ATOM     18  C   UNL     1      12.203  28.917 -13.275  1.00  0.00     0.008 C 
ATOM     19  C   UNL     1      12.102  30.311 -15.378  1.00  0.00     0.008 C 
ENDBRANCH  12  17
ENDBRANCH  11  12
ENDBRANCH   1  11
TORSDOF 1
ENDMDL
