MODEL 1
REMARK VINA RESULT:    -4.219      0.000      0.000
REMARK INTER + INTRA:         -10.080
REMARK INTER:                  -7.795
REMARK INTRA:                  -2.285
REMARK UNBOUND:                -2.285
REMARK SMILES CCCCCCCCCCCCCCCCO
REMARK SMILES IDX 9 1 8 2 7 3 6 4 5 5 4 6 3 7 2 8 1 9 10 10 11 11 12 12 13 13
REMARK SMILES IDX 14 14 15 15 16 16 17 17
REMARK H PARENT 17 18
REMARK Flexibility Score: inf
ROOT
ATOM      1  C   UNL     1       4.469  13.365  13.029  1.00  0.00     0.000 C 
ENDROOT
BRANCH   1   2
ATOM      2  C   UNL     1       4.465  12.792  14.457  1.00  0.00    -0.000 C 
BRANCH   2   3
ATOM      3  C   UNL     1       5.533  13.440  15.355  1.00  0.00    -0.000 C 
BRANCH   3   4
ATOM      4  C   UNL     1       6.412  14.449  14.596  1.00  0.00    -0.000 C 
BRANCH   4   5
ATOM      5  C   UNL     1       7.913  14.217  14.830  1.00  0.00    -0.000 C 
BRANCH   5   6
ATOM      6  C   UNL     1       8.432  12.950  14.130  1.00  0.00    -0.000 C 
BRANCH   6   7
ATOM      7  C   UNL     1       8.029  12.899  12.641  1.00  0.00    -0.000 C 
BRANCH   7   8
ATOM      8  C   UNL     1       7.763  11.475  12.124  1.00  0.00    -0.003 C 
ATOM      9  C   UNL     1       7.038  10.595  13.140  1.00  0.00     0.004 C 
ENDBRANCH   7   8
ENDBRANCH   6   7
ENDBRANCH   5   6
ENDBRANCH   4   5
ENDBRANCH   3   4
ENDBRANCH   2   3
ENDBRANCH   1   2
BRANCH   1  10
ATOM     10  C   UNL     1       3.632  12.521  12.053  1.00  0.00     0.000 C 
BRANCH  10  11
ATOM     11  C   UNL     1       4.391  12.191  10.756  1.00  0.00     0.000 C 
BRANCH  11  12
ATOM     12  C   UNL     1       4.172  10.739  10.300  1.00  0.00     0.000 C 
BRANCH  12  13
ATOM     13  C   UNL     1       3.761   9.809  11.454  1.00  0.00     0.000 C 
BRANCH  13  14
ATOM     14  C   UNL     1       3.943   8.319  11.114  1.00  0.00     0.002 C 
BRANCH  14  15
ATOM     15  C   UNL     1       5.338   7.750  11.432  1.00  0.00     0.028 C 
BRANCH  15  16
ATOM     16  C   UNL     1       6.200   7.541  10.180  1.00  0.00     0.156 C 
BRANCH  16  17
ATOM     17  O   UNL     1       7.397   8.260  10.295  1.00  0.00    -0.396 OA
ATOM     18  H   UNL     1       7.586   8.646   9.400  1.00  0.00     0.210 HD
ENDBRANCH  16  17
ENDBRANCH  15  16
ENDBRANCH  14  15
ENDBRANCH  13  14
ENDBRANCH  12  13
ENDBRANCH  11  12
ENDBRANCH  10  11
ENDBRANCH   1  10
TORSDOF 15
ENDMDL
MODEL 2
REMARK VINA RESULT:    -4.192      2.914      6.209
REMARK INTER + INTRA:         -10.031
REMARK INTER:                  -7.817
REMARK INTRA:                  -2.214
REMARK UNBOUND:                -2.285
REMARK SMILES CCCCCCCCCCCCCCCCO
REMARK SMILES IDX 9 1 8 2 7 3 6 4 5 5 4 6 3 7 2 8 1 9 10 10 11 11 12 12 13 13
REMARK SMILES IDX 14 14 15 15 16 16 17 17
REMARK H PARENT 17 18
REMARK Flexibility Score: inf
ROOT
ATOM      1  C   UNL     1       7.297  10.324  12.257  1.00  0.00     0.000 C 
ENDROOT
BRANCH   1   2
ATOM      2  C   UNL     1       6.490  10.104  10.965  1.00  0.00    -0.000 C 
BRANCH   2   3
ATOM      3  C   UNL     1       6.118  11.424  10.271  1.00  0.00    -0.000 C 
BRANCH   3   4
ATOM      4  C   UNL     1       4.605  11.705  10.303  1.00  0.00    -0.000 C 
BRANCH   4   5
ATOM      5  C   UNL     1       4.177  12.484  11.557  1.00  0.00    -0.000 C 
BRANCH   5   6
ATOM      6  C   UNL     1       3.218  11.681  12.454  1.00  0.00    -0.000 C 
BRANCH   6   7
ATOM      7  C   UNL     1       3.956  10.974  13.610  1.00  0.00    -0.000 C 
BRANCH   7   8
ATOM      8  C   UNL     1       3.702   9.457  13.665  1.00  0.00    -0.003 C 
ATOM      9  C   UNL     1       3.274   8.873  12.320  1.00  0.00     0.004 C 
ENDBRANCH   7   8
ENDBRANCH   6   7
ENDBRANCH   5   6
ENDBRANCH   4   5
ENDBRANCH   3   4
ENDBRANCH   2   3
ENDBRANCH   1   2
BRANCH   1  10
ATOM     10  C   UNL     1       7.691  11.796  12.463  1.00  0.00     0.000 C 
BRANCH  10  11
ATOM     11  C   UNL     1       7.629  12.222  13.940  1.00  0.00     0.000 C 
BRANCH  11  12
ATOM     12  C   UNL     1       8.068  13.681  14.150  1.00  0.00     0.000 C 
BRANCH  12  13
ATOM     13  C   UNL     1       6.945  14.562  14.723  1.00  0.00     0.000 C 
BRANCH  13  14
ATOM     14  C   UNL     1       5.571  13.868  14.703  1.00  0.00     0.002 C 
BRANCH  14  15
ATOM     15  C   UNL     1       4.953  13.620  16.091  1.00  0.00     0.028 C 
BRANCH  15  16
ATOM     16  C   UNL     1       5.584  14.482  17.192  1.00  0.00     0.156 C 
BRANCH  16  17
ATOM     17  O   UNL     1       4.644  15.398  17.684  1.00  0.00    -0.396 OA
ATOM     18  H   UNL     1       4.121  14.922  18.381  1.00  0.00     0.210 HD
ENDBRANCH  16  17
ENDBRANCH  15  16
ENDBRANCH  14  15
ENDBRANCH  13  14
ENDBRANCH  12  13
ENDBRANCH  11  12
ENDBRANCH  10  11
ENDBRANCH   1  10
TORSDOF 15
ENDMDL
MODEL 3
REMARK VINA RESULT:    -4.178      1.584      4.679
REMARK INTER + INTRA:         -10.005
REMARK INTER:                  -7.610
REMARK INTRA:                  -2.395
REMARK UNBOUND:                -2.285
REMARK SMILES CCCCCCCCCCCCCCCCO
REMARK SMILES IDX 9 1 8 2 7 3 6 4 5 5 4 6 3 7 2 8 1 9 10 10 11 11 12 12 13 13
REMARK SMILES IDX 14 14 15 15 16 16 17 17
REMARK H PARENT 17 18
REMARK Flexibility Score: inf
ROOT
ATOM      1  C   UNL     1       3.317  12.090  12.732  1.00  0.00     0.000 C 
ENDROOT
BRANCH   1   2
ATOM      2  C   UNL     1       4.044  12.636  11.490  1.00  0.00    -0.000 C 
BRANCH   2   3
ATOM      3  C   UNL     1       4.506  11.520  10.539  1.00  0.00    -0.000 C 
BRANCH   3   4
ATOM      4  C   UNL     1       3.788  10.185  10.798  1.00  0.00    -0.000 C 
BRANCH   4   5
ATOM      5  C   UNL     1       4.655   8.968  10.438  1.00  0.00    -0.000 C 
BRANCH   5   6
ATOM      6  C   UNL     1       5.180   8.226  11.678  1.00  0.00    -0.000 C 
BRANCH   6   7
ATOM      7  C   UNL     1       4.383   8.582  12.951  1.00  0.00    -0.000 C 
BRANCH   7   8
ATOM      8  C   UNL     1       5.264   9.079  14.110  1.00  0.00    -0.003 C 
ATOM      9  C   UNL     1       4.977   8.365  15.429  1.00  0.00     0.004 C 
ENDBRANCH   7   8
ENDBRANCH   6   7
ENDBRANCH   5   6
ENDBRANCH   4   5
ENDBRANCH   3   4
ENDBRANCH   2   3
ENDBRANCH   1   2
BRANCH   1  10
ATOM     10  C   UNL     1       4.008  12.493  14.044  1.00  0.00     0.000 C 
BRANCH  10  11
ATOM     11  C   UNL     1       5.364  13.181  13.810  1.00  0.00     0.000 C 
BRANCH  11  12
ATOM     12  C   UNL     1       6.538  12.387  14.408  1.00  0.00     0.000 C 
BRANCH  12  13
ATOM     13  C   UNL     1       7.860  12.628  13.660  1.00  0.00     0.000 C 
BRANCH  13  14
ATOM     14  C   UNL     1       7.777  12.268  12.166  1.00  0.00     0.002 C 
BRANCH  14  15
ATOM     15  C   UNL     1       7.857  10.761  11.859  1.00  0.00     0.028 C 
BRANCH  15  16
ATOM     16  C   UNL     1       8.443  10.461  10.473  1.00  0.00     0.156 C 
BRANCH  16  17
ATOM     17  O   UNL     1       8.939   9.151  10.434  1.00  0.00    -0.396 OA
ATOM     18  H   UNL     1       8.380   8.654   9.781  1.00  0.00     0.210 HD
ENDBRANCH  16  17
ENDBRANCH  15  16
ENDBRANCH  14  15
ENDBRANCH  13  14
ENDBRANCH  12  13
ENDBRANCH  11  12
ENDBRANCH  10  11
ENDBRANCH   1  10
TORSDOF 15
ENDMDL
MODEL 4
REMARK VINA RESULT:    -4.139      2.491      5.272
REMARK INTER + INTRA:          -9.934
REMARK INTER:                  -7.795
REMARK INTRA:                  -2.139
REMARK UNBOUND:                -2.285
REMARK SMILES CCCCCCCCCCCCCCCCO
REMARK SMILES IDX 9 1 8 2 7 3 6 4 5 5 4 6 3 7 2 8 1 9 10 10 11 11 12 12 13 13
REMARK SMILES IDX 14 14 15 15 16 16 17 17
REMARK H PARENT 17 18
REMARK Flexibility Score: inf
ROOT
ATOM      1  C   UNL     1       4.843  10.596  10.626  1.00  0.00     0.000 C 
ENDROOT
BRANCH   1   2
ATOM      2  C   UNL     1       4.590  12.113  10.686  1.00  0.00    -0.000 C 
BRANCH   2   3
ATOM      3  C   UNL     1       3.671  12.511  11.853  1.00  0.00    -0.000 C 
BRANCH   3   4
ATOM      4  C   UNL     1       4.448  13.078  13.053  1.00  0.00    -0.000 C 
BRANCH   4   5
ATOM      5  C   UNL     1       4.157  12.317  14.357  1.00  0.00    -0.000 C 
BRANCH   5   6
ATOM      6  C   UNL     1       4.933  12.882  15.559  1.00  0.00    -0.000 C 
BRANCH   6   7
ATOM      7  C   UNL     1       5.872  11.833  16.191  1.00  0.00    -0.000 C 
BRANCH   7   8
ATOM      8  C   UNL     1       5.822  10.463  15.494  1.00  0.00    -0.003 C 
ATOM      9  C   UNL     1       6.880   9.490  16.011  1.00  0.00     0.004 C 
ENDBRANCH   7   8
ENDBRANCH   6   7
ENDBRANCH   5   6
ENDBRANCH   4   5
ENDBRANCH   3   4
ENDBRANCH   2   3
ENDBRANCH   1   2
BRANCH   1  10
ATOM     10  C   UNL     1       6.314  10.254  10.342  1.00  0.00     0.000 C 
BRANCH  10  11
ATOM     11  C   UNL     1       7.185  10.291  11.610  1.00  0.00     0.000 C 
BRANCH  11  12
ATOM     12  C   UNL     1       7.904  11.639  11.790  1.00  0.00     0.000 C 
BRANCH  12  13
ATOM     13  C   UNL     1       8.025  12.055  13.266  1.00  0.00     0.000 C 
BRANCH  13  14
ATOM     14  C   UNL     1       8.177  13.576  13.447  1.00  0.00     0.002 C 
BRANCH  14  15
ATOM     15  C   UNL     1       8.533  14.023  14.877  1.00  0.00     0.028 C 
BRANCH  15  16
ATOM     16  C   UNL     1       7.789  15.292  15.311  1.00  0.00     0.156 C 
BRANCH  16  17
ATOM     17  O   UNL     1       6.775  15.594  14.393  1.00  0.00    -0.396 OA
ATOM     18  H   UNL     1       6.847  16.564  14.196  1.00  0.00     0.210 HD
ENDBRANCH  16  17
ENDBRANCH  15  16
ENDBRANCH  14  15
ENDBRANCH  13  14
ENDBRANCH  12  13
ENDBRANCH  11  12
ENDBRANCH  10  11
ENDBRANCH   1  10
TORSDOF 15
ENDMDL
MODEL 5
REMARK VINA RESULT:    -4.128      2.542      5.204
REMARK INTER + INTRA:          -9.913
REMARK INTER:                  -7.234
REMARK INTRA:                  -2.679
REMARK UNBOUND:                -2.285
REMARK SMILES CCCCCCCCCCCCCCCCO
REMARK SMILES IDX 9 1 8 2 7 3 6 4 5 5 4 6 3 7 2 8 1 9 10 10 11 11 12 12 13 13
REMARK SMILES IDX 14 14 15 15 16 16 17 17
REMARK H PARENT 17 18
REMARK Flexibility Score: inf
ROOT
ATOM      1  C   UNL     1       4.767  11.711  10.607  1.00  0.00     0.000 C 
ENDROOT
BRANCH   1   2
ATOM      2  C   UNL     1       6.152  11.144  10.964  1.00  0.00    -0.000 C 
BRANCH   2   3
ATOM      3  C   UNL     1       6.933  12.057  11.925  1.00  0.00    -0.000 C 
BRANCH   3   4
ATOM      4  C   UNL     1       7.369  11.331  13.209  1.00  0.00    -0.000 C 
BRANCH   4   5
ATOM      5  C   UNL     1       6.781   9.915  13.316  1.00  0.00    -0.000 C 
BRANCH   5   6
ATOM      6  C   UNL     1       6.604   9.455  14.773  1.00  0.00    -0.000 C 
BRANCH   6   7
ATOM      7  C   UNL     1       5.170   8.963  15.059  1.00  0.00    -0.000 C 
BRANCH   7   8
ATOM      8  C   UNL     1       4.454   8.400  13.819  1.00  0.00    -0.003 C 
ATOM      9  C   UNL     1       2.939   8.312  13.991  1.00  0.00     0.004 C 
ENDBRANCH   7   8
ENDBRANCH   6   7
ENDBRANCH   5   6
ENDBRANCH   4   5
ENDBRANCH   3   4
ENDBRANCH   2   3
ENDBRANCH   1   2
BRANCH   1  10
ATOM     10  C   UNL     1       3.674  11.262  11.591  1.00  0.00     0.000 C 
BRANCH  10  11
ATOM     11  C   UNL     1       3.243  12.386  12.549  1.00  0.00     0.000 C 
BRANCH  11  12
ATOM     12  C   UNL     1       3.695  12.130  13.996  1.00  0.00     0.000 C 
BRANCH  12  13
ATOM     13  C   UNL     1       4.585  13.257  14.549  1.00  0.00     0.000 C 
BRANCH  13  14
ATOM     14  C   UNL     1       5.269  12.881  15.876  1.00  0.00     0.002 C 
BRANCH  14  15
ATOM     15  C   UNL     1       6.651  13.524  16.094  1.00  0.00     0.028 C 
BRANCH  15  16
ATOM     16  C   UNL     1       6.745  14.950  15.535  1.00  0.00     0.156 C 
BRANCH  16  17
ATOM     17  O   UNL     1       7.564  14.968  14.399  1.00  0.00    -0.396 OA
ATOM     18  H   UNL     1       8.011  15.855  14.383  1.00  0.00     0.210 HD
ENDBRANCH  16  17
ENDBRANCH  15  16
ENDBRANCH  14  15
ENDBRANCH  13  14
ENDBRANCH  12  13
ENDBRANCH  11  12
ENDBRANCH  10  11
ENDBRANCH   1  10
TORSDOF 15
ENDMDL
MODEL 6
REMARK VINA RESULT:    -4.086      1.150      2.421
REMARK INTER + INTRA:          -9.834
REMARK INTER:                  -7.703
REMARK INTRA:                  -2.131
REMARK UNBOUND:                -2.285
REMARK SMILES CCCCCCCCCCCCCCCCO
REMARK SMILES IDX 9 1 8 2 7 3 6 4 5 5 4 6 3 7 2 8 1 9 10 10 11 11 12 12 13 13
REMARK SMILES IDX 14 14 15 15 16 16 17 17
REMARK H PARENT 17 18
REMARK Flexibility Score: inf
ROOT
ATOM      1  C   UNL     1       5.372  13.942  13.747  1.00  0.00     0.000 C 
ENDROOT
BRANCH   1   2
ATOM      2  C   UNL     1       6.348  14.476  14.812  1.00  0.00    -0.000 C 
BRANCH   2   3
ATOM      3  C   UNL     1       7.813  14.423  14.348  1.00  0.00    -0.000 C 
BRANCH   3   4
ATOM      4  C   UNL     1       8.319  12.984  14.146  1.00  0.00    -0.000 C 
BRANCH   4   5
ATOM      5  C   UNL     1       8.093  12.475  12.713  1.00  0.00    -0.000 C 
BRANCH   5   6
ATOM      6  C   UNL     1       7.593  11.021  12.672  1.00  0.00    -0.000 C 
BRANCH   6   7
ATOM      7  C   UNL     1       7.080  10.543  14.047  1.00  0.00    -0.000 C 
BRANCH   7   8
ATOM      8  C   UNL     1       6.344   9.193  13.993  1.00  0.00    -0.003 C 
ATOM      9  C   UNL     1       5.309   9.030  15.104  1.00  0.00     0.004 C 
ENDBRANCH   7   8
ENDBRANCH   6   7
ENDBRANCH   5   6
ENDBRANCH   4   5
ENDBRANCH   3   4
ENDBRANCH   2   3
ENDBRANCH   1   2
BRANCH   1  10
ATOM     10  C   UNL     1       4.449  12.840  14.293  1.00  0.00     0.000 C 
BRANCH  10  11
ATOM     11  C   UNL     1       3.770  12.032  13.174  1.00  0.00     0.000 C 
BRANCH  11  12
ATOM     12  C   UNL     1       3.766  12.778  11.829  1.00  0.00     0.000 C 
BRANCH  12  13
ATOM     13  C   UNL     1       4.402  11.958  10.693  1.00  0.00     0.000 C 
BRANCH  13  14
ATOM     14  C   UNL     1       4.410  10.445  10.980  1.00  0.00     0.002 C 
BRANCH  14  15
ATOM     15  C   UNL     1       5.422   9.637  10.148  1.00  0.00     0.028 C 
BRANCH  15  16
ATOM     16  C   UNL     1       5.644   8.218  10.688  1.00  0.00     0.156 C 
BRANCH  16  17
ATOM     17  O   UNL     1       6.940   7.783  10.380  1.00  0.00    -0.396 OA
ATOM     18  H   UNL     1       7.284   7.316  11.186  1.00  0.00     0.210 HD
ENDBRANCH  16  17
ENDBRANCH  15  16
ENDBRANCH  14  15
ENDBRANCH  13  14
ENDBRANCH  12  13
ENDBRANCH  11  12
ENDBRANCH  10  11
ENDBRANCH   1  10
TORSDOF 15
ENDMDL
MODEL 7
REMARK VINA RESULT:    -4.077      3.080      5.903
REMARK INTER + INTRA:          -9.818
REMARK INTER:                  -7.416
REMARK INTRA:                  -2.402
REMARK UNBOUND:                -2.285
REMARK SMILES CCCCCCCCCCCCCCCCO
REMARK SMILES IDX 9 1 8 2 7 3 6 4 5 5 4 6 3 7 2 8 1 9 10 10 11 11 12 12 13 13
REMARK SMILES IDX 14 14 15 15 16 16 17 17
REMARK H PARENT 17 18
REMARK Flexibility Score: inf
ROOT
ATOM      1  C   UNL     1       3.244  11.971  12.500  1.00  0.00     0.000 C 
ENDROOT
BRANCH   1   2
ATOM      2  C   UNL     1       4.337  12.628  11.638  1.00  0.00    -0.000 C 
BRANCH   2   3
ATOM      3  C   UNL     1       4.714  11.777  10.414  1.00  0.00    -0.000 C 
BRANCH   3   4
ATOM      4  C   UNL     1       5.926  10.867  10.675  1.00  0.00    -0.000 C 
BRANCH   4   5
ATOM      5  C   UNL     1       6.803  11.369  11.834  1.00  0.00    -0.000 C 
BRANCH   5   6
ATOM      6  C   UNL     1       6.935  10.336  12.966  1.00  0.00    -0.000 C 
BRANCH   6   7
ATOM      7  C   UNL     1       5.968   9.148  12.787  1.00  0.00    -0.000 C 
BRANCH   7   8
ATOM      8  C   UNL     1       5.425   8.592  14.115  1.00  0.00    -0.003 C 
ATOM      9  C   UNL     1       6.061   9.243  15.342  1.00  0.00     0.004 C 
ENDBRANCH   7   8
ENDBRANCH   6   7
ENDBRANCH   5   6
ENDBRANCH   4   5
ENDBRANCH   3   4
ENDBRANCH   2   3
ENDBRANCH   1   2
BRANCH   1  10
ATOM     10  C   UNL     1       3.629  11.901  13.987  1.00  0.00     0.000 C 
BRANCH  10  11
ATOM     11  C   UNL     1       4.480  13.102  14.434  1.00  0.00     0.000 C 
BRANCH  11  12
ATOM     12  C   UNL     1       5.182  12.857  15.780  1.00  0.00     0.000 C 
BRANCH  12  13
ATOM     13  C   UNL     1       6.715  12.853  15.658  1.00  0.00     0.000 C 
BRANCH  13  14
ATOM     14  C   UNL     1       7.249  14.004  14.787  1.00  0.00     0.002 C 
BRANCH  14  15
ATOM     15  C   UNL     1       7.324  15.369  15.495  1.00  0.00     0.028 C 
BRANCH  15  16
ATOM     16  C   UNL     1       7.850  15.270  16.933  1.00  0.00     0.156 C 
BRANCH  16  17
ATOM     17  O   UNL     1       7.226  16.230  17.741  1.00  0.00    -0.396 OA
ATOM     18  H   UNL     1       7.351  15.936  18.681  1.00  0.00     0.210 HD
ENDBRANCH  16  17
ENDBRANCH  15  16
ENDBRANCH  14  15
ENDBRANCH  13  14
ENDBRANCH  12  13
ENDBRANCH  11  12
ENDBRANCH  10  11
ENDBRANCH   1  10
TORSDOF 15
ENDMDL
MODEL 8
REMARK VINA RESULT:    -4.034      2.915      6.296
REMARK INTER + INTRA:          -9.739
REMARK INTER:                  -7.567
REMARK INTRA:                  -2.172
REMARK UNBOUND:                -2.285
REMARK SMILES CCCCCCCCCCCCCCCCO
REMARK SMILES IDX 9 1 8 2 7 3 6 4 5 5 4 6 3 7 2 8 1 9 10 10 11 11 12 12 13 13
REMARK SMILES IDX 14 14 15 15 16 16 17 17
REMARK H PARENT 17 18
REMARK Flexibility Score: inf
ROOT
ATOM      1  C   UNL     1       5.491   8.007  13.625  1.00  0.00     0.000 C 
ENDROOT
BRANCH   1   2
ATOM      2  C   UNL     1       5.034   7.753  12.177  1.00  0.00    -0.000 C 
BRANCH   2   3
ATOM      3  C   UNL     1       3.851   8.646  11.768  1.00  0.00    -0.000 C 
BRANCH   3   4
ATOM      4  C   UNL     1       4.070   9.333  10.409  1.00  0.00    -0.000 C 
BRANCH   4   5
ATOM      5  C   UNL     1       5.514   9.826  10.223  1.00  0.00    -0.000 C 
BRANCH   5   6
ATOM      6  C   UNL     1       5.688  11.307  10.601  1.00  0.00    -0.000 C 
BRANCH   6   7
ATOM      7  C   UNL     1       4.349  12.074  10.584  1.00  0.00    -0.000 C 
BRANCH   7   8
ATOM      8  C   UNL     1       4.072  12.857  11.879  1.00  0.00    -0.003 C 
ATOM      9  C   UNL     1       3.194  12.090  12.866  1.00  0.00     0.004 C 
ENDBRANCH   7   8
ENDBRANCH   6   7
ENDBRANCH   5   6
ENDBRANCH   4   5
ENDBRANCH   3   4
ENDBRANCH   2   3
ENDBRANCH   1   2
BRANCH   1  10
ATOM     10  C   UNL     1       5.479   9.499  13.994  1.00  0.00     0.000 C 
BRANCH  10  11
ATOM     11  C   UNL     1       6.876  10.026  14.367  1.00  0.00     0.000 C 
BRANCH  11  12
ATOM     12  C   UNL     1       7.110  11.466  13.883  1.00  0.00     0.000 C 
BRANCH  12  13
ATOM     13  C   UNL     1       7.132  12.485  15.036  1.00  0.00     0.000 C 
BRANCH  13  14
ATOM     14  C   UNL     1       6.009  13.532  14.930  1.00  0.00     0.002 C 
BRANCH  14  15
ATOM     15  C   UNL     1       5.022  13.543  16.112  1.00  0.00     0.028 C 
BRANCH  15  16
ATOM     16  C   UNL     1       5.535  14.345  17.314  1.00  0.00     0.156 C 
BRANCH  16  17
ATOM     17  O   UNL     1       4.617  15.350  17.649  1.00  0.00    -0.396 OA
ATOM     18  H   UNL     1       4.932  16.182  17.208  1.00  0.00     0.210 HD
ENDBRANCH  16  17
ENDBRANCH  15  16
ENDBRANCH  14  15
ENDBRANCH  13  14
ENDBRANCH  12  13
ENDBRANCH  11  12
ENDBRANCH  10  11
ENDBRANCH   1  10
TORSDOF 15
ENDMDL
MODEL 9
REMARK VINA RESULT:    -4.017      3.216      6.214
REMARK INTER + INTRA:          -9.707
REMARK INTER:                  -7.236
REMARK INTRA:                  -2.471
REMARK UNBOUND:                -2.285
REMARK SMILES CCCCCCCCCCCCCCCCO
REMARK SMILES IDX 9 1 8 2 7 3 6 4 5 5 4 6 3 7 2 8 1 9 10 10 11 11 12 12 13 13
REMARK SMILES IDX 14 14 15 15 16 16 17 17
REMARK H PARENT 17 18
REMARK Flexibility Score: inf
ROOT
ATOM      1  C   UNL     1       5.621   9.236  12.308  1.00  0.00     0.000 C 
ENDROOT
BRANCH   1   2
ATOM      2  C   UNL     1       6.697  10.244  11.865  1.00  0.00    -0.000 C 
BRANCH   2   3
ATOM      3  C   UNL     1       6.170  11.251  10.829  1.00  0.00    -0.000 C 
BRANCH   3   4
ATOM      4  C   UNL     1       4.634  11.271  10.749  1.00  0.00    -0.000 C 
BRANCH   4   5
ATOM      5  C   UNL     1       4.024  12.522  11.402  1.00  0.00    -0.000 C 
BRANCH   5   6
ATOM      6  C   UNL     1       3.478  12.247  12.813  1.00  0.00    -0.000 C 
BRANCH   6   7
ATOM      7  C   UNL     1       4.454  12.708  13.916  1.00  0.00    -0.000 C 
BRANCH   7   8
ATOM      8  C   UNL     1       5.365  13.870  13.484  1.00  0.00    -0.003 C 
ATOM      9  C   UNL     1       6.852  13.535  13.591  1.00  0.00     0.004 C 
ENDBRANCH   7   8
ENDBRANCH   6   7
ENDBRANCH   5   6
ENDBRANCH   4   5
ENDBRANCH   3   4
ENDBRANCH   2   3
ENDBRANCH   1   2
BRANCH   1  10
ATOM     10  C   UNL     1       5.603   9.024  13.830  1.00  0.00     0.000 C 
BRANCH  10  11
ATOM     11  C   UNL     1       6.722   9.800  14.548  1.00  0.00     0.000 C 
BRANCH  11  12
ATOM     12  C   UNL     1       6.283  10.326  15.925  1.00  0.00     0.000 C 
BRANCH  12  13
ATOM     13  C   UNL     1       7.379  11.150  16.623  1.00  0.00     0.000 C 
BRANCH  13  14
ATOM     14  C   UNL     1       6.813  12.152  17.645  1.00  0.00     0.002 C 
BRANCH  14  15
ATOM     15  C   UNL     1       6.787  13.616  17.166  1.00  0.00     0.028 C 
BRANCH  15  16
ATOM     16  C   UNL     1       5.432  14.297  17.394  1.00  0.00     0.156 C 
BRANCH  16  17
ATOM     17  O   UNL     1       5.605  15.484  18.119  1.00  0.00    -0.396 OA
ATOM     18  H   UNL     1       4.749  15.657  18.591  1.00  0.00     0.210 HD
ENDBRANCH  16  17
ENDBRANCH  15  16
ENDBRANCH  14  15
ENDBRANCH  13  14
ENDBRANCH  12  13
ENDBRANCH  11  12
ENDBRANCH  10  11
ENDBRANCH   1  10
TORSDOF 15
ENDMDL
