MODEL 1
REMARK VINA RESULT:    -5.118      0.000      0.000
REMARK INTER + INTRA:          -5.118
REMARK INTER:                  -5.118
REMARK INTRA:                   0.000
REMARK UNBOUND:                 0.000
REMARK SMILES CC1=CC(=O)[C@@H]2C[C@H]1C2(C)C
REMARK SMILES IDX 1 1 2 2 3 3 4 4 5 5 6 6 7 7 8 8 9 9 10 10 11 11
REMARK H PARENT
REMARK Flexibility Score: inf
ROOT
ATOM      1  C   UNL     1       4.093  18.874  -5.447  1.00  0.00     0.040 C 
ATOM      2  C   UNL     1       3.208  19.043  -6.640  1.00  0.00    -0.066 C 
ATOM      3  C   UNL     1       2.037  18.357  -6.758  1.00  0.00     0.047 C 
ATOM      4  C   UNL     1       1.224  18.638  -7.986  1.00  0.00     0.159 C 
ATOM      5  O   UNL     1       0.107  18.096  -8.190  1.00  0.00    -0.295 OA
ATOM      6  C   UNL     1       1.847  19.628  -8.971  1.00  0.00     0.067 C 
ATOM      7  C   UNL     1       3.318  19.170  -9.088  1.00  0.00     0.021 C 
ATOM      8  C   UNL     1       3.583  19.987  -7.803  1.00  0.00     0.022 C 
ATOM      9  C   UNL     1       2.354  20.864  -8.175  1.00  0.00    -0.019 C 
ATOM     10  C   UNL     1       1.467  21.415  -7.023  1.00  0.00     0.012 C 
ATOM     11  C   UNL     1       2.732  22.047  -9.103  1.00  0.00     0.012 C 
ENDROOT
TORSDOF 0
ENDMDL
MODEL 2
REMARK VINA RESULT:    -5.065      6.116      7.397
REMARK INTER + INTRA:          -5.065
REMARK INTER:                  -5.065
REMARK INTRA:                   0.000
REMARK UNBOUND:                 0.000
REMARK SMILES CC1=CC(=O)[C@@H]2C[C@H]1C2(C)C
REMARK SMILES IDX 1 1 2 2 3 3 4 4 5 5 6 6 7 7 8 8 9 9 10 10 11 11
REMARK H PARENT
REMARK Flexibility Score: inf
ROOT
ATOM      1  C   UNL     1       4.057  16.300  -8.128  1.00  0.00     0.040 C 
ATOM      2  C   UNL     1       4.645  14.960  -7.822  1.00  0.00    -0.066 C 
ATOM      3  C   UNL     1       5.262  14.711  -6.633  1.00  0.00     0.047 C 
ATOM      4  C   UNL     1       5.783  13.320  -6.433  1.00  0.00     0.159 C 
ATOM      5  O   UNL     1       6.337  12.957  -5.363  1.00  0.00    -0.295 OA
ATOM      6  C   UNL     1       5.592  12.374  -7.619  1.00  0.00     0.067 C 
ATOM      7  C   UNL     1       6.028  13.210  -8.843  1.00  0.00     0.021 C 
ATOM      8  C   UNL     1       4.599  13.800  -8.839  1.00  0.00     0.022 C 
ATOM      9  C   UNL     1       4.126  12.502  -8.124  1.00  0.00    -0.019 C 
ATOM     10  C   UNL     1       2.990  12.615  -7.069  1.00  0.00     0.012 C 
ATOM     11  C   UNL     1       3.748  11.380  -9.125  1.00  0.00     0.012 C 
ENDROOT
TORSDOF 0
ENDMDL
MODEL 3
REMARK VINA RESULT:    -4.924      2.080      3.491
REMARK INTER + INTRA:          -4.924
REMARK INTER:                  -4.924
REMARK INTRA:                   0.000
REMARK UNBOUND:                 0.000
REMARK SMILES CC1=CC(=O)[C@@H]2C[C@H]1C2(C)C
REMARK SMILES IDX 1 1 2 2 3 3 4 4 5 5 6 6 7 7 8 8 9 9 10 10 11 11
REMARK H PARENT
REMARK Flexibility Score: inf
ROOT
ATOM      1  C   UNL     1       1.729  21.261  -7.254  1.00  0.00     0.040 C 
ATOM      2  C   UNL     1       2.469  19.968  -7.124  1.00  0.00    -0.066 C 
ATOM      3  C   UNL     1       3.139  19.647  -5.982  1.00  0.00     0.047 C 
ATOM      4  C   UNL     1       3.815  18.309  -5.963  1.00  0.00     0.159 C 
ATOM      5  O   UNL     1       4.432  17.882  -4.953  1.00  0.00    -0.295 OA
ATOM      6  C   UNL     1       3.700  17.500  -7.255  1.00  0.00     0.067 C 
ATOM      7  C   UNL     1       4.010  18.523  -8.371  1.00  0.00     0.021 C 
ATOM      8  C   UNL     1       2.526  18.943  -8.277  1.00  0.00     0.022 C 
ATOM      9  C   UNL     1       2.217  17.523  -7.723  1.00  0.00    -0.019 C 
ATOM     10  C   UNL     1       1.101  17.378  -6.650  1.00  0.00     0.012 C 
ATOM     11  C   UNL     1       1.939  16.497  -8.852  1.00  0.00     0.012 C 
ENDROOT
TORSDOF 0
ENDMDL
MODEL 4
REMARK VINA RESULT:    -4.794      1.882      2.753
REMARK INTER + INTRA:          -4.794
REMARK INTER:                  -4.794
REMARK INTRA:                   0.000
REMARK UNBOUND:                 0.000
REMARK SMILES CC1=CC(=O)[C@@H]2C[C@H]1C2(C)C
REMARK SMILES IDX 1 1 2 2 3 3 4 4 5 5 6 6 7 7 8 8 9 9 10 10 11 11
REMARK H PARENT
REMARK Flexibility Score: inf
ROOT
ATOM      1  C   UNL     1       1.522  16.462  -5.355  1.00  0.00     0.040 C 
ATOM      2  C   UNL     1       2.337  17.362  -6.228  1.00  0.00    -0.066 C 
ATOM      3  C   UNL     1       3.089  16.868  -7.250  1.00  0.00     0.047 C 
ATOM      4  C   UNL     1       3.836  17.875  -8.072  1.00  0.00     0.159 C 
ATOM      5  O   UNL     1       4.534  17.546  -9.066  1.00  0.00    -0.295 OA
ATOM      6  C   UNL     1       3.689  19.328  -7.619  1.00  0.00     0.067 C 
ATOM      7  C   UNL     1       3.878  19.266  -6.086  1.00  0.00     0.021 C 
ATOM      8  C   UNL     1       2.381  18.889  -6.005  1.00  0.00     0.022 C 
ATOM      9  C   UNL     1       2.183  19.617  -7.366  1.00  0.00    -0.019 C 
ATOM     10  C   UNL     1       1.141  19.038  -8.365  1.00  0.00     0.012 C 
ATOM     11  C   UNL     1       1.895  21.130  -7.189  1.00  0.00     0.012 C 
ENDROOT
TORSDOF 0
ENDMDL
MODEL 5
REMARK VINA RESULT:    -4.781      2.851      4.116
REMARK INTER + INTRA:          -4.781
REMARK INTER:                  -4.781
REMARK INTRA:                   0.000
REMARK UNBOUND:                 0.000
REMARK SMILES CC1=CC(=O)[C@@H]2C[C@H]1C2(C)C
REMARK SMILES IDX 1 1 2 2 3 3 4 4 5 5 6 6 7 7 8 8 9 9 10 10 11 11
REMARK H PARENT
REMARK Flexibility Score: inf
ROOT
ATOM      1  C   UNL     1       2.788  14.622  -8.551  1.00  0.00     0.040 C 
ATOM      2  C   UNL     1       2.880  15.666  -7.484  1.00  0.00    -0.066 C 
ATOM      3  C   UNL     1       3.833  15.605  -6.513  1.00  0.00     0.047 C 
ATOM      4  C   UNL     1       3.841  16.727  -5.519  1.00  0.00     0.159 C 
ATOM      5  O   UNL     1       4.696  16.804  -4.598  1.00  0.00    -0.295 OA
ATOM      6  C   UNL     1       2.739  17.772  -5.703  1.00  0.00     0.067 C 
ATOM      7  C   UNL     1       1.461  16.935  -5.937  1.00  0.00     0.021 C 
ATOM      8  C   UNL     1       1.893  16.851  -7.418  1.00  0.00     0.022 C 
ATOM      9  C   UNL     1       2.684  18.173  -7.204  1.00  0.00    -0.019 C 
ATOM     10  C   UNL     1       4.026  18.360  -7.969  1.00  0.00     0.012 C 
ATOM     11  C   UNL     1       1.810  19.430  -7.447  1.00  0.00     0.012 C 
ENDROOT
TORSDOF 0
ENDMDL
MODEL 6
REMARK VINA RESULT:    -4.670      2.246      3.944
REMARK INTER + INTRA:          -4.670
REMARK INTER:                  -4.670
REMARK INTRA:                   0.000
REMARK UNBOUND:                 0.000
REMARK SMILES CC1=CC(=O)[C@@H]2C[C@H]1C2(C)C
REMARK SMILES IDX 1 1 2 2 3 3 4 4 5 5 6 6 7 7 8 8 9 9 10 10 11 11
REMARK H PARENT
REMARK Flexibility Score: inf
ROOT
ATOM      1  C   UNL     1       3.183  20.402  -8.255  1.00  0.00     0.040 C 
ATOM      2  C   UNL     1       3.106  18.917  -8.105  1.00  0.00    -0.066 C 
ATOM      3  C   UNL     1       4.076  18.103  -8.607  1.00  0.00     0.047 C 
ATOM      4  C   UNL     1       3.900  16.633  -8.364  1.00  0.00     0.159 C 
ATOM      5  O   UNL     1       4.748  15.784  -8.744  1.00  0.00    -0.295 OA
ATOM      6  C   UNL     1       2.622  16.242  -7.623  1.00  0.00     0.067 C 
ATOM      7  C   UNL     1       1.514  17.063  -8.320  1.00  0.00     0.021 C 
ATOM      8  C   UNL     1       1.920  18.232  -7.394  1.00  0.00     0.022 C 
ATOM      9  C   UNL     1       2.459  17.174  -6.389  1.00  0.00    -0.019 C 
ATOM     10  C   UNL     1       3.726  17.526  -5.558  1.00  0.00     0.012 C 
ATOM     11  C   UNL     1       1.363  16.674  -5.413  1.00  0.00     0.012 C 
ENDROOT
TORSDOF 0
ENDMDL
MODEL 7
REMARK VINA RESULT:    -4.599      5.813      7.112
REMARK INTER + INTRA:          -4.599
REMARK INTER:                  -4.599
REMARK INTRA:                   0.000
REMARK UNBOUND:                 0.000
REMARK SMILES CC1=CC(=O)[C@@H]2C[C@H]1C2(C)C
REMARK SMILES IDX 1 1 2 2 3 3 4 4 5 5 6 6 7 7 8 8 9 9 10 10 11 11
REMARK H PARENT
REMARK Flexibility Score: inf
ROOT
ATOM      1  C   UNL     1       2.257  11.078  -7.945  1.00  0.00     0.040 C 
ATOM      2  C   UNL     1       2.985  12.346  -7.635  1.00  0.00    -0.066 C 
ATOM      3  C   UNL     1       2.899  12.930  -6.407  1.00  0.00     0.047 C 
ATOM      4  C   UNL     1       3.701  14.181  -6.210  1.00  0.00     0.159 C 
ATOM      5  O   UNL     1       3.735  14.791  -5.110  1.00  0.00    -0.295 OA
ATOM      6  C   UNL     1       4.474  14.662  -7.438  1.00  0.00     0.067 C 
ATOM      7  C   UNL     1       3.454  14.554  -8.593  1.00  0.00     0.021 C 
ATOM      8  C   UNL     1       3.853  13.065  -8.690  1.00  0.00     0.022 C 
ATOM      9  C   UNL     1       5.222  13.449  -8.059  1.00  0.00    -0.019 C 
ATOM     10  C   UNL     1       5.902  12.431  -7.100  1.00  0.00     0.012 C 
ATOM     11  C   UNL     1       6.262  13.880  -9.125  1.00  0.00     0.012 C 
ENDROOT
TORSDOF 0
ENDMDL
MODEL 8
REMARK VINA RESULT:    -4.597      2.498      3.939
REMARK INTER + INTRA:          -4.597
REMARK INTER:                  -4.597
REMARK INTRA:                   0.000
REMARK UNBOUND:                 0.000
REMARK SMILES CC1=CC(=O)[C@@H]2C[C@H]1C2(C)C
REMARK SMILES IDX 1 1 2 2 3 3 4 4 5 5 6 6 7 7 8 8 9 9 10 10 11 11
REMARK H PARENT
REMARK Flexibility Score: inf
ROOT
ATOM      1  C   UNL     1       0.554  17.123  -9.075  1.00  0.00     0.040 C 
ATOM      2  C   UNL     1       1.741  17.017  -8.172  1.00  0.00    -0.066 C 
ATOM      3  C   UNL     1       2.741  16.126  -8.418  1.00  0.00     0.047 C 
ATOM      4  C   UNL     1       3.892  16.138  -7.457  1.00  0.00     0.159 C 
ATOM      5  O   UNL     1       4.893  15.390  -7.599  1.00  0.00    -0.295 OA
ATOM      6  C   UNL     1       3.763  17.124  -6.295  1.00  0.00     0.067 C 
ATOM      7  C   UNL     1       2.316  16.925  -5.790  1.00  0.00     0.021 C 
ATOM      8  C   UNL     1       1.884  17.896  -6.911  1.00  0.00     0.022 C 
ATOM      9  C   UNL     1       3.316  18.501  -6.862  1.00  0.00    -0.019 C 
ATOM     10  C   UNL     1       3.953  18.994  -8.192  1.00  0.00     0.012 C 
ATOM     11  C   UNL     1       3.441  19.638  -5.815  1.00  0.00     0.012 C 
ENDROOT
TORSDOF 0
ENDMDL
MODEL 9
REMARK VINA RESULT:    -4.562      2.476      3.270
REMARK INTER + INTRA:          -4.562
REMARK INTER:                  -4.562
REMARK INTRA:                   0.000
REMARK UNBOUND:                 0.000
REMARK SMILES CC1=CC(=O)[C@@H]2C[C@H]1C2(C)C
REMARK SMILES IDX 1 1 2 2 3 3 4 4 5 5 6 6 7 7 8 8 9 9 10 10 11 11
REMARK H PARENT
REMARK Flexibility Score: inf
ROOT
ATOM      1  C   UNL     1       5.265  14.950  -6.547  1.00  0.00     0.040 C 
ATOM      2  C   UNL     1       4.051  15.818  -6.637  1.00  0.00    -0.066 C 
ATOM      3  C   UNL     1       3.039  15.716  -5.731  1.00  0.00     0.047 C 
ATOM      4  C   UNL     1       1.891  16.664  -5.911  1.00  0.00     0.159 C 
ATOM      5  O   UNL     1       0.915  16.694  -5.116  1.00  0.00    -0.295 OA
ATOM      6  C   UNL     1       1.990  17.589  -7.123  1.00  0.00     0.067 C 
ATOM      7  C   UNL     1       2.430  16.658  -8.275  1.00  0.00     0.021 C 
ATOM      8  C   UNL     1       3.875  16.856  -7.766  1.00  0.00     0.022 C 
ATOM      9  C   UNL     1       3.415  18.211  -7.156  1.00  0.00    -0.019 C 
ATOM     10  C   UNL     1       4.052  18.668  -5.814  1.00  0.00     0.012 C 
ATOM     11  C   UNL     1       3.524  19.381  -8.168  1.00  0.00     0.012 C 
ENDROOT
TORSDOF 0
ENDMDL
