MODEL 1
REMARK VINA RESULT:    -4.987      0.000      0.000
REMARK INTER + INTRA:         -13.420
REMARK INTER:                 -11.401
REMARK INTRA:                  -2.020
REMARK UNBOUND:                -2.020
REMARK SMILES CCCCCCCCCCCCCCCCCCCCCCCC(=O)[O-]
REMARK SMILES IDX 13 1 14 2 15 3 16 4 17 5 18 6 19 7 20 8 21 9 22 10 23 11
REMARK SMILES IDX 24 12 25 13 26 14 12 15 11 16 10 17 9 18 8 19 7 20 6 21 5 22
REMARK SMILES IDX 4 23 3 24 2 25 1 26
REMARK H PARENT
REMARK Flexibility Score: inf
ROOT
ATOM      1  C   UNL     1       9.241   1.977  -7.571  1.00  0.00     0.000 C 
ENDROOT
BRANCH   1   2
ATOM      2  C   UNL     1       8.459   3.149  -8.203  1.00  0.00     0.000 C 
BRANCH   2   3
ATOM      3  C   UNL     1       7.741   2.829  -9.525  1.00  0.00     0.000 C 
BRANCH   3   4
ATOM      4  C   UNL     1       6.250   3.212  -9.506  1.00  0.00     0.000 C 
BRANCH   4   5
ATOM      5  C   UNL     1       5.975   4.411  -8.582  1.00  0.00     0.000 C 
BRANCH   5   6
ATOM      6  C   UNL     1       5.103   5.482  -9.264  1.00  0.00     0.000 C 
BRANCH   6   7
ATOM      7  C   UNL     1       5.895   6.760  -9.614  1.00  0.00     0.000 C 
BRANCH   7   8
ATOM      8  C   UNL     1       5.937   7.806  -8.483  1.00  0.00     0.000 C 
BRANCH   8   9
ATOM      9  C   UNL     1       7.339   8.125  -7.939  1.00  0.00     0.000 C 
BRANCH   9  10
ATOM     10  C   UNL     1       7.427   8.007  -6.407  1.00  0.00     0.006 C 
BRANCH  10  11
ATOM     11  C   UNL     1       6.117   7.502  -5.788  1.00  0.00     0.053 C 
BRANCH  11  12
ATOM     12  C   UNL     1       5.997   7.887  -4.345  1.00  0.00     0.041 C 
ATOM     13  O   UNL     1       5.247   7.232  -3.574  1.00  0.00    -0.550 OA
ATOM     14  O   UNL     1       6.720   8.968  -3.850  1.00  0.00    -0.550 OA
ENDBRANCH  11  12
ENDBRANCH  10  11
ENDBRANCH   9  10
ENDBRANCH   8   9
ENDBRANCH   7   8
ENDBRANCH   6   7
ENDBRANCH   5   6
ENDBRANCH   4   5
ENDBRANCH   3   4
ENDBRANCH   2   3
ENDBRANCH   1   2
BRANCH   1  15
ATOM     15  C   UNL     1       8.497   0.626  -7.519  1.00  0.00     0.000 C 
BRANCH  15  16
ATOM     16  C   UNL     1       7.134   0.666  -6.793  1.00  0.00     0.000 C 
BRANCH  16  17
ATOM     17  C   UNL     1       5.996  -0.038  -7.559  1.00  0.00     0.000 C 
BRANCH  17  18
ATOM     18  C   UNL     1       6.450  -0.886  -8.759  1.00  0.00    -0.000 C 
BRANCH  18  19
ATOM     19  C   UNL     1       5.381  -1.843  -9.323  1.00  0.00    -0.000 C 
BRANCH  19  20
ATOM     20  C   UNL     1       4.252  -2.176  -8.323  1.00  0.00    -0.000 C 
BRANCH  20  21
ATOM     21  C   UNL     1       3.062  -2.882  -8.998  1.00  0.00    -0.000 C 
BRANCH  21  22
ATOM     22  C   UNL     1       2.765  -4.258  -8.382  1.00  0.00    -0.000 C 
BRANCH  22  23
ATOM     23  C   UNL     1       3.334  -4.401  -6.960  1.00  0.00    -0.000 C 
BRANCH  23  24
ATOM     24  C   UNL     1       4.015  -5.761  -6.725  1.00  0.00    -0.000 C 
BRANCH  24  25
ATOM     25  C   UNL     1       4.274  -6.071  -5.235  1.00  0.00    -0.003 C 
ATOM     26  C   UNL     1       5.736  -6.429  -4.961  1.00  0.00     0.004 C 
ENDBRANCH  24  25
ENDBRANCH  23  24
ENDBRANCH  22  23
ENDBRANCH  21  22
ENDBRANCH  20  21
ENDBRANCH  19  20
ENDBRANCH  18  19
ENDBRANCH  17  18
ENDBRANCH  16  17
ENDBRANCH  15  16
ENDBRANCH   1  15
TORSDOF 22
ENDMDL
MODEL 2
REMARK VINA RESULT:    -4.893      0.966      2.603
REMARK INTER + INTRA:         -13.206
REMARK INTER:                 -11.394
REMARK INTRA:                  -1.812
REMARK UNBOUND:                -2.020
REMARK SMILES CCCCCCCCCCCCCCCCCCCCCCCC(=O)[O-]
REMARK SMILES IDX 13 1 14 2 15 3 16 4 17 5 18 6 19 7 20 8 21 9 22 10 23 11
REMARK SMILES IDX 24 12 25 13 26 14 12 15 11 16 10 17 9 18 8 19 7 20 6 21 5 22
REMARK SMILES IDX 4 23 3 24 2 25 1 26
REMARK H PARENT
REMARK Flexibility Score: inf
ROOT
ATOM      1  C   UNL     1       6.851  -0.485  -9.119  1.00  0.00     0.000 C 
ENDROOT
BRANCH   1   2
ATOM      2  C   UNL     1       6.877   0.054  -7.673  1.00  0.00     0.000 C 
BRANCH   2   3
ATOM      3  C   UNL     1       6.369   1.495  -7.496  1.00  0.00     0.000 C 
BRANCH   3   4
ATOM      4  C   UNL     1       7.198   2.525  -8.286  1.00  0.00     0.000 C 
BRANCH   4   5
ATOM      5  C   UNL     1       6.331   3.323  -9.276  1.00  0.00     0.000 C 
BRANCH   5   6
ATOM      6  C   UNL     1       5.625   4.514  -8.601  1.00  0.00     0.000 C 
BRANCH   6   7
ATOM      7  C   UNL     1       5.915   5.856  -9.307  1.00  0.00     0.000 C 
BRANCH   7   8
ATOM      8  C   UNL     1       5.768   7.092  -8.398  1.00  0.00     0.000 C 
BRANCH   8   9
ATOM      9  C   UNL     1       7.067   7.872  -8.139  1.00  0.00     0.000 C 
BRANCH   9  10
ATOM     10  C   UNL     1       7.302   8.165  -6.647  1.00  0.00     0.006 C 
BRANCH  10  11
ATOM     11  C   UNL     1       6.075   7.827  -5.789  1.00  0.00     0.053 C 
BRANCH  11  12
ATOM     12  C   UNL     1       6.368   7.946  -4.325  1.00  0.00     0.041 C 
ATOM     13  O   UNL     1       7.255   8.741  -3.918  1.00  0.00    -0.550 OA
ATOM     14  O   UNL     1       5.655   7.180  -3.408  1.00  0.00    -0.550 OA
ENDBRANCH  11  12
ENDBRANCH  10  11
ENDBRANCH   9  10
ENDBRANCH   8   9
ENDBRANCH   7   8
ENDBRANCH   6   7
ENDBRANCH   5   6
ENDBRANCH   4   5
ENDBRANCH   3   4
ENDBRANCH   2   3
ENDBRANCH   1   2
BRANCH   1  15
ATOM     15  C   UNL     1       5.896  -1.670  -9.376  1.00  0.00     0.000 C 
BRANCH  15  16
ATOM     16  C   UNL     1       4.776  -1.838  -8.326  1.00  0.00     0.000 C 
BRANCH  16  17
ATOM     17  C   UNL     1       3.542  -2.604  -8.842  1.00  0.00     0.000 C 
BRANCH  17  18
ATOM     18  C   UNL     1       2.368  -2.685  -7.851  1.00  0.00    -0.000 C 
BRANCH  18  19
ATOM     19  C   UNL     1       1.506  -3.958  -7.964  1.00  0.00    -0.000 C 
BRANCH  19  20
ATOM     20  C   UNL     1       2.035  -4.981  -8.994  1.00  0.00    -0.000 C 
BRANCH  20  21
ATOM     21  C   UNL     1       2.620  -6.237  -8.324  1.00  0.00    -0.000 C 
BRANCH  21  22
ATOM     22  C   UNL     1       4.144  -6.152  -8.141  1.00  0.00    -0.000 C 
BRANCH  22  23
ATOM     23  C   UNL     1       4.540  -5.568  -6.774  1.00  0.00    -0.000 C 
BRANCH  23  24
ATOM     24  C   UNL     1       3.681  -6.116  -5.621  1.00  0.00    -0.000 C 
BRANCH  24  25
ATOM     25  C   UNL     1       4.443  -7.090  -4.695  1.00  0.00    -0.003 C 
ATOM     26  C   UNL     1       5.920  -6.719  -4.551  1.00  0.00     0.004 C 
ENDBRANCH  24  25
ENDBRANCH  23  24
ENDBRANCH  22  23
ENDBRANCH  21  22
ENDBRANCH  20  21
ENDBRANCH  19  20
ENDBRANCH  18  19
ENDBRANCH  17  18
ENDBRANCH  16  17
ENDBRANCH  15  16
ENDBRANCH   1  15
TORSDOF 22
ENDMDL
MODEL 3
REMARK VINA RESULT:    -4.886      2.240      6.127
REMARK INTER + INTRA:         -13.189
REMARK INTER:                 -10.497
REMARK INTRA:                  -2.693
REMARK UNBOUND:                -2.020
REMARK SMILES CCCCCCCCCCCCCCCCCCCCCCCC(=O)[O-]
REMARK SMILES IDX 13 1 14 2 15 3 16 4 17 5 18 6 19 7 20 8 21 9 22 10 23 11
REMARK SMILES IDX 24 12 25 13 26 14 12 15 11 16 10 17 9 18 8 19 7 20 6 21 5 22
REMARK SMILES IDX 4 23 3 24 2 25 1 26
REMARK H PARENT
REMARK Flexibility Score: inf
ROOT
ATOM      1  C   UNL     1       3.304  -3.287  -7.165  1.00  0.00     0.000 C 
ENDROOT
BRANCH   1   2
ATOM      2  C   UNL     1       3.816  -2.554  -8.424  1.00  0.00     0.000 C 
BRANCH   2   3
ATOM      3  C   UNL     1       4.820  -3.341  -9.285  1.00  0.00     0.000 C 
BRANCH   3   4
ATOM      4  C   UNL     1       6.146  -2.589  -9.499  1.00  0.00     0.000 C 
BRANCH   4   5
ATOM      5  C   UNL     1       6.005  -1.083  -9.219  1.00  0.00     0.000 C 
BRANCH   5   6
ATOM      6  C   UNL     1       7.165  -0.539  -8.364  1.00  0.00     0.000 C 
BRANCH   6   7
ATOM      7  C   UNL     1       6.679   0.316  -7.174  1.00  0.00     0.000 C 
BRANCH   7   8
ATOM      8  C   UNL     1       6.381   1.785  -7.533  1.00  0.00     0.000 C 
BRANCH   8   9
ATOM      9  C   UNL     1       7.330   2.412  -8.567  1.00  0.00     0.000 C 
BRANCH   9  10
ATOM     10  C   UNL     1       6.662   3.523  -9.396  1.00  0.00     0.006 C 
BRANCH  10  11
ATOM     11  C   UNL     1       5.617   4.302  -8.586  1.00  0.00     0.053 C 
BRANCH  11  12
ATOM     12  C   UNL     1       6.045   5.715  -8.335  1.00  0.00     0.041 C 
ATOM     13  O   UNL     1       5.193   6.642  -8.313  1.00  0.00    -0.550 OA
ATOM     14  O   UNL     1       7.388   6.008  -8.119  1.00  0.00    -0.550 OA
ENDBRANCH  11  12
ENDBRANCH  10  11
ENDBRANCH   9  10
ENDBRANCH   8   9
ENDBRANCH   7   8
ENDBRANCH   6   7
ENDBRANCH   5   6
ENDBRANCH   4   5
ENDBRANCH   3   4
ENDBRANCH   2   3
ENDBRANCH   1   2
BRANCH   1  15
ATOM     15  C   UNL     1       2.295  -4.427  -7.416  1.00  0.00     0.000 C 
BRANCH  15  16
ATOM     16  C   UNL     1       2.739  -5.811  -6.892  1.00  0.00     0.000 C 
BRANCH  16  17
ATOM     17  C   UNL     1       3.843  -5.750  -5.818  1.00  0.00     0.000 C 
BRANCH  17  18
ATOM     18  C   UNL     1       3.698  -6.776  -4.681  1.00  0.00    -0.000 C 
BRANCH  18  19
ATOM     19  C   UNL     1       5.025  -7.246  -4.054  1.00  0.00    -0.000 C 
BRANCH  19  20
ATOM     20  C   UNL     1       6.267  -6.499  -4.589  1.00  0.00    -0.000 C 
BRANCH  20  21
ATOM     21  C   UNL     1       7.218  -7.427  -5.366  1.00  0.00    -0.000 C 
BRANCH  21  22
ATOM     22  C   UNL     1       7.045  -7.309  -6.888  1.00  0.00    -0.000 C 
BRANCH  22  23
ATOM     23  C   UNL     1       6.513  -8.605  -7.523  1.00  0.00    -0.000 C 
BRANCH  23  24
ATOM     24  C   UNL     1       5.128  -8.426  -8.169  1.00  0.00    -0.000 C 
BRANCH  24  25
ATOM     25  C   UNL     1       3.997  -9.157  -7.412  1.00  0.00    -0.003 C 
ATOM     26  C   UNL     1       4.535 -10.125  -6.357  1.00  0.00     0.004 C 
ENDBRANCH  24  25
ENDBRANCH  23  24
ENDBRANCH  22  23
ENDBRANCH  21  22
ENDBRANCH  20  21
ENDBRANCH  19  20
ENDBRANCH  18  19
ENDBRANCH  17  18
ENDBRANCH  16  17
ENDBRANCH  15  16
ENDBRANCH   1  15
TORSDOF 22
ENDMDL
MODEL 4
REMARK VINA RESULT:    -4.797      6.036     11.560
REMARK INTER + INTRA:         -12.986
REMARK INTER:                  -9.346
REMARK INTRA:                  -3.640
REMARK UNBOUND:                -2.020
REMARK SMILES CCCCCCCCCCCCCCCCCCCCCCCC(=O)[O-]
REMARK SMILES IDX 13 1 14 2 15 3 16 4 17 5 18 6 19 7 20 8 21 9 22 10 23 11
REMARK SMILES IDX 24 12 25 13 26 14 12 15 11 16 10 17 9 18 8 19 7 20 6 21 5 22
REMARK SMILES IDX 4 23 3 24 2 25 1 26
REMARK H PARENT
REMARK Flexibility Score: inf
ROOT
ATOM      1  C   UNL     1       4.169  -5.824  -6.998  1.00  0.00     0.000 C 
ENDROOT
BRANCH   1   2
ATOM      2  C   UNL     1       4.166  -6.067  -5.473  1.00  0.00     0.000 C 
BRANCH   2   3
ATOM      3  C   UNL     1       5.547  -6.303  -4.839  1.00  0.00     0.000 C 
BRANCH   3   4
ATOM      4  C   UNL     1       5.587  -7.548  -3.933  1.00  0.00     0.000 C 
BRANCH   4   5
ATOM      5  C   UNL     1       4.501  -8.570  -4.312  1.00  0.00     0.000 C 
BRANCH   5   6
ATOM      6  C   UNL     1       5.044  -9.681  -5.231  1.00  0.00     0.000 C 
BRANCH   6   7
ATOM      7  C   UNL     1       4.400  -9.663  -6.633  1.00  0.00     0.000 C 
BRANCH   7   8
ATOM      8  C   UNL     1       5.386  -9.356  -7.777  1.00  0.00     0.000 C 
BRANCH   8   9
ATOM      9  C   UNL     1       6.804  -8.963  -7.330  1.00  0.00     0.000 C 
BRANCH   9  10
ATOM     10  C   UNL     1       7.185  -7.530  -7.742  1.00  0.00     0.006 C 
BRANCH  10  11
ATOM     11  C   UNL     1       8.667  -7.226  -7.483  1.00  0.00     0.053 C 
BRANCH  11  12
ATOM     12  C   UNL     1       9.153  -7.859  -6.216  1.00  0.00     0.041 C 
ATOM     13  O   UNL     1       8.913  -7.318  -5.104  1.00  0.00    -0.550 OA
ATOM     14  O   UNL     1       9.867  -9.052  -6.263  1.00  0.00    -0.550 OA
ENDBRANCH  11  12
ENDBRANCH  10  11
ENDBRANCH   9  10
ENDBRANCH   8   9
ENDBRANCH   7   8
ENDBRANCH   6   7
ENDBRANCH   5   6
ENDBRANCH   4   5
ENDBRANCH   3   4
ENDBRANCH   2   3
ENDBRANCH   1   2
BRANCH   1  15
ATOM     15  C   UNL     1       3.004  -6.464  -7.782  1.00  0.00     0.000 C 
BRANCH  15  16
ATOM     16  C   UNL     1       2.770  -5.874  -9.190  1.00  0.00     0.000 C 
BRANCH  16  17
ATOM     17  C   UNL     1       1.484  -5.036  -9.313  1.00  0.00     0.000 C 
BRANCH  17  18
ATOM     18  C   UNL     1       1.695  -3.513  -9.262  1.00  0.00    -0.000 C 
BRANCH  18  19
ATOM     19  C   UNL     1       2.184  -2.968  -7.906  1.00  0.00    -0.000 C 
BRANCH  19  20
ATOM     20  C   UNL     1       3.606  -2.367  -7.951  1.00  0.00    -0.000 C 
BRANCH  20  21
ATOM     21  C   UNL     1       4.245  -2.478  -9.347  1.00  0.00    -0.000 C 
BRANCH  21  22
ATOM     22  C   UNL     1       5.573  -3.252  -9.329  1.00  0.00    -0.000 C 
BRANCH  22  23
ATOM     23  C   UNL     1       6.773  -2.369  -9.710  1.00  0.00    -0.000 C 
BRANCH  23  24
ATOM     24  C   UNL     1       6.509  -0.871  -9.476  1.00  0.00    -0.000 C 
BRANCH  24  25
ATOM     25  C   UNL     1       7.215  -0.311  -8.222  1.00  0.00    -0.003 C 
ATOM     26  C   UNL     1       6.250   0.430  -7.295  1.00  0.00     0.004 C 
ENDBRANCH  24  25
ENDBRANCH  23  24
ENDBRANCH  22  23
ENDBRANCH  21  22
ENDBRANCH  20  21
ENDBRANCH  19  20
ENDBRANCH  18  19
ENDBRANCH  17  18
ENDBRANCH  16  17
ENDBRANCH  15  16
ENDBRANCH   1  15
TORSDOF 22
ENDMDL
MODEL 5
REMARK VINA RESULT:    -4.697      2.130      5.993
REMARK INTER + INTRA:         -12.757
REMARK INTER:                 -10.535
REMARK INTRA:                  -2.221
REMARK UNBOUND:                -2.020
REMARK SMILES CCCCCCCCCCCCCCCCCCCCCCCC(=O)[O-]
REMARK SMILES IDX 13 1 14 2 15 3 16 4 17 5 18 6 19 7 20 8 21 9 22 10 23 11
REMARK SMILES IDX 24 12 25 13 26 14 12 15 11 16 10 17 9 18 8 19 7 20 6 21 5 22
REMARK SMILES IDX 4 23 3 24 2 25 1 26
REMARK H PARENT
REMARK Flexibility Score: inf
ROOT
ATOM      1  C   UNL     1       1.969  -3.141  -7.599  1.00  0.00     0.000 C 
ENDROOT
BRANCH   1   2
ATOM      2  C   UNL     1       3.487  -2.870  -7.522  1.00  0.00     0.000 C 
BRANCH   2   3
ATOM      3  C   UNL     1       4.085  -2.111  -8.720  1.00  0.00     0.000 C 
BRANCH   3   4
ATOM      4  C   UNL     1       5.238  -2.874  -9.397  1.00  0.00     0.000 C 
BRANCH   4   5
ATOM      5  C   UNL     1       6.537  -2.050  -9.422  1.00  0.00     0.000 C 
BRANCH   5   6
ATOM      6  C   UNL     1       6.296  -0.574  -9.052  1.00  0.00     0.000 C 
BRANCH   6   7
ATOM      7  C   UNL     1       6.878  -0.203  -7.671  1.00  0.00     0.000 C 
BRANCH   7   8
ATOM      8  C   UNL     1       6.745   1.290  -7.311  1.00  0.00     0.000 C 
BRANCH   8   9
ATOM      9  C   UNL     1       6.837   2.261  -8.500  1.00  0.00     0.000 C 
BRANCH   9  10
ATOM     10  C   UNL     1       6.051   3.563  -8.270  1.00  0.00     0.006 C 
BRANCH  10  11
ATOM     11  C   UNL     1       6.630   4.739  -9.070  1.00  0.00     0.053 C 
BRANCH  11  12
ATOM     12  C   UNL     1       6.771   5.970  -8.229  1.00  0.00     0.041 C 
ATOM     13  O   UNL     1       7.807   6.681  -8.314  1.00  0.00    -0.550 OA
ATOM     14  O   UNL     1       5.754   6.336  -7.354  1.00  0.00    -0.550 OA
ENDBRANCH  11  12
ENDBRANCH  10  11
ENDBRANCH   9  10
ENDBRANCH   8   9
ENDBRANCH   7   8
ENDBRANCH   6   7
ENDBRANCH   5   6
ENDBRANCH   4   5
ENDBRANCH   3   4
ENDBRANCH   2   3
ENDBRANCH   1   2
BRANCH   1  15
ATOM     15  C   UNL     1       1.385  -3.289  -9.020  1.00  0.00     0.000 C 
BRANCH  15  16
ATOM     16  C   UNL     1       1.149  -4.746  -9.474  1.00  0.00     0.000 C 
BRANCH  16  17
ATOM     17  C   UNL     1       2.444  -5.538  -9.738  1.00  0.00     0.000 C 
BRANCH  17  18
ATOM     18  C   UNL     1       2.336  -7.054  -9.500  1.00  0.00    -0.000 C 
BRANCH  18  19
ATOM     19  C   UNL     1       3.004  -7.559  -8.205  1.00  0.00    -0.000 C 
BRANCH  19  20
ATOM     20  C   UNL     1       3.741  -6.458  -7.412  1.00  0.00    -0.000 C 
BRANCH  20  21
ATOM     21  C   UNL     1       3.151  -6.255  -6.005  1.00  0.00    -0.000 C 
BRANCH  21  22
ATOM     22  C   UNL     1       4.226  -6.267  -4.907  1.00  0.00    -0.000 C 
BRANCH  22  23
ATOM     23  C   UNL     1       4.416  -7.660  -4.284  1.00  0.00    -0.000 C 
BRANCH  23  24
ATOM     24  C   UNL     1       5.885  -8.119  -4.288  1.00  0.00    -0.000 C 
BRANCH  24  25
ATOM     25  C   UNL     1       6.841  -7.117  -4.972  1.00  0.00    -0.003 C 
ATOM     26  C   UNL     1       8.304  -7.547  -4.868  1.00  0.00     0.004 C 
ENDBRANCH  24  25
ENDBRANCH  23  24
ENDBRANCH  22  23
ENDBRANCH  21  22
ENDBRANCH  20  21
ENDBRANCH  19  20
ENDBRANCH  18  19
ENDBRANCH  17  18
ENDBRANCH  16  17
ENDBRANCH  15  16
ENDBRANCH   1  15
TORSDOF 22
ENDMDL
MODEL 6
REMARK VINA RESULT:    -4.668      5.679     11.302
REMARK INTER + INTRA:         -12.693
REMARK INTER:                  -9.218
REMARK INTRA:                  -3.475
REMARK UNBOUND:                -2.020
REMARK SMILES CCCCCCCCCCCCCCCCCCCCCCCC(=O)[O-]
REMARK SMILES IDX 13 1 14 2 15 3 16 4 17 5 18 6 19 7 20 8 21 9 22 10 23 11
REMARK SMILES IDX 24 12 25 13 26 14 12 15 11 16 10 17 9 18 8 19 7 20 6 21 5 22
REMARK SMILES IDX 4 23 3 24 2 25 1 26
REMARK H PARENT
REMARK Flexibility Score: inf
ROOT
ATOM      1  C   UNL     1       3.988  -5.543  -6.644  1.00  0.00     0.000 C 
ENDROOT
BRANCH   1   2
ATOM      2  C   UNL     1       4.245  -6.041  -5.205  1.00  0.00     0.000 C 
BRANCH   2   3
ATOM      3  C   UNL     1       5.703  -6.415  -4.885  1.00  0.00     0.000 C 
BRANCH   3   4
ATOM      4  C   UNL     1       5.834  -7.794  -4.212  1.00  0.00     0.000 C 
BRANCH   4   5
ATOM      5  C   UNL     1       4.621  -8.694  -4.503  1.00  0.00     0.000 C 
BRANCH   5   6
ATOM      6  C   UNL     1       4.963  -9.828  -5.488  1.00  0.00     0.000 C 
BRANCH   6   7
ATOM      7  C   UNL     1       4.128  -9.763  -6.785  1.00  0.00     0.000 C 
BRANCH   7   8
ATOM      8  C   UNL     1       4.953  -9.463  -8.052  1.00  0.00     0.000 C 
BRANCH   8   9
ATOM      9  C   UNL     1       6.085  -8.440  -7.869  1.00  0.00     0.000 C 
BRANCH   9  10
ATOM     10  C   UNL     1       6.712  -7.996  -9.203  1.00  0.00     0.006 C 
BRANCH  10  11
ATOM     11  C   UNL     1       7.968  -7.138  -8.997  1.00  0.00     0.053 C 
BRANCH  11  12
ATOM     12  C   UNL     1       7.719  -5.697  -9.320  1.00  0.00     0.041 C 
ATOM     13  O   UNL     1       8.678  -4.941  -9.627  1.00  0.00    -0.550 OA
ATOM     14  O   UNL     1       6.424  -5.190  -9.288  1.00  0.00    -0.550 OA
ENDBRANCH  11  12
ENDBRANCH  10  11
ENDBRANCH   9  10
ENDBRANCH   8   9
ENDBRANCH   7   8
ENDBRANCH   6   7
ENDBRANCH   5   6
ENDBRANCH   4   5
ENDBRANCH   3   4
ENDBRANCH   2   3
ENDBRANCH   1   2
BRANCH   1  15
ATOM     15  C   UNL     1       3.003  -6.387  -7.480  1.00  0.00     0.000 C 
BRANCH  15  16
ATOM     16  C   UNL     1       3.054  -6.123  -9.001  1.00  0.00     0.000 C 
BRANCH  16  17
ATOM     17  C   UNL     1       1.681  -5.816  -9.629  1.00  0.00     0.000 C 
BRANCH  17  18
ATOM     18  C   UNL     1       1.323  -4.322  -9.708  1.00  0.00    -0.000 C 
BRANCH  18  19
ATOM     19  C   UNL     1       1.027  -3.650  -8.352  1.00  0.00    -0.000 C 
BRANCH  19  20
ATOM     20  C   UNL     1       2.074  -2.591  -7.939  1.00  0.00    -0.000 C 
BRANCH  20  21
ATOM     21  C   UNL     1       3.218  -2.468  -8.961  1.00  0.00    -0.000 C 
BRANCH  21  22
ATOM     22  C   UNL     1       4.577  -2.199  -8.297  1.00  0.00    -0.000 C 
BRANCH  22  23
ATOM     23  C   UNL     1       5.662  -1.809  -9.315  1.00  0.00    -0.000 C 
BRANCH  23  24
ATOM     24  C   UNL     1       6.490  -0.592  -8.865  1.00  0.00    -0.000 C 
BRANCH  24  25
ATOM     25  C   UNL     1       6.022   0.008  -7.521  1.00  0.00    -0.003 C 
ATOM     26  C   UNL     1       7.155   0.714  -6.775  1.00  0.00     0.004 C 
ENDBRANCH  24  25
ENDBRANCH  23  24
ENDBRANCH  22  23
ENDBRANCH  21  22
ENDBRANCH  20  21
ENDBRANCH  19  20
ENDBRANCH  18  19
ENDBRANCH  17  18
ENDBRANCH  16  17
ENDBRANCH  15  16
ENDBRANCH   1  15
TORSDOF 22
ENDMDL
MODEL 7
REMARK VINA RESULT:    -4.651      5.733     11.187
REMARK INTER + INTRA:         -12.652
REMARK INTER:                  -9.330
REMARK INTRA:                  -3.322
REMARK UNBOUND:                -2.020
REMARK SMILES CCCCCCCCCCCCCCCCCCCCCCCC(=O)[O-]
REMARK SMILES IDX 13 1 14 2 15 3 16 4 17 5 18 6 19 7 20 8 21 9 22 10 23 11
REMARK SMILES IDX 24 12 25 13 26 14 12 15 11 16 10 17 9 18 8 19 7 20 6 21 5 22
REMARK SMILES IDX 4 23 3 24 2 25 1 26
REMARK H PARENT
REMARK Flexibility Score: inf
ROOT
ATOM      1  C   UNL     1       1.069  -3.770  -8.080  1.00  0.00     0.000 C 
ENDROOT
BRANCH   1   2
ATOM      2  C   UNL     1       1.124  -4.067  -9.594  1.00  0.00     0.000 C 
BRANCH   2   3
ATOM      3  C   UNL     1       1.332  -5.544  -9.971  1.00  0.00     0.000 C 
BRANCH   3   4
ATOM      4  C   UNL     1       2.819  -5.936 -10.060  1.00  0.00     0.000 C 
BRANCH   4   5
ATOM      5  C   UNL     1       3.127  -7.209  -9.253  1.00  0.00     0.000 C 
BRANCH   5   6
ATOM      6  C   UNL     1       3.080  -6.960  -7.734  1.00  0.00     0.000 C 
BRANCH   6   7
ATOM      7  C   UNL     1       4.202  -6.018  -7.249  1.00  0.00     0.000 C 
BRANCH   7   8
ATOM      8  C   UNL     1       4.198  -5.761  -5.730  1.00  0.00     0.000 C 
BRANCH   8   9
ATOM      9  C   UNL     1       5.349  -6.420  -4.952  1.00  0.00     0.000 C 
BRANCH   9  10
ATOM     10  C   UNL     1       4.885  -7.601  -4.081  1.00  0.00     0.006 C 
BRANCH  10  11
ATOM     11  C   UNL     1       4.647  -8.872  -4.908  1.00  0.00     0.053 C 
BRANCH  11  12
ATOM     12  C   UNL     1       5.833  -9.217  -5.755  1.00  0.00     0.041 C 
ATOM     13  O   UNL     1       5.724  -9.263  -7.009  1.00  0.00    -0.550 OA
ATOM     14  O   UNL     1       7.061  -9.483  -5.158  1.00  0.00    -0.550 OA
ENDBRANCH  11  12
ENDBRANCH  10  11
ENDBRANCH   9  10
ENDBRANCH   8   9
ENDBRANCH   7   8
ENDBRANCH   6   7
ENDBRANCH   5   6
ENDBRANCH   4   5
ENDBRANCH   3   4
ENDBRANCH   2   3
ENDBRANCH   1   2
BRANCH   1  15
ATOM     15  C   UNL     1       2.263  -2.978  -7.508  1.00  0.00     0.000 C 
BRANCH  15  16
ATOM     16  C   UNL     1       3.135  -2.267  -8.567  1.00  0.00     0.000 C 
BRANCH  16  17
ATOM     17  C   UNL     1       4.651  -2.433  -8.343  1.00  0.00     0.000 C 
BRANCH  17  18
ATOM     18  C   UNL     1       5.378  -3.258  -9.419  1.00  0.00    -0.000 C 
BRANCH  18  19
ATOM     19  C   UNL     1       6.808  -2.786  -9.746  1.00  0.00    -0.000 C 
BRANCH  19  20
ATOM     20  C   UNL     1       7.009  -1.261  -9.612  1.00  0.00    -0.000 C 
BRANCH  20  21
ATOM     21  C   UNL     1       8.204  -0.904  -8.710  1.00  0.00    -0.000 C 
BRANCH  21  22
ATOM     22  C   UNL     1       7.805  -0.009  -7.527  1.00  0.00    -0.000 C 
BRANCH  22  23
ATOM     23  C   UNL     1       6.387   0.568  -7.678  1.00  0.00    -0.000 C 
BRANCH  23  24
ATOM     24  C   UNL     1       6.377   2.105  -7.762  1.00  0.00    -0.000 C 
BRANCH  24  25
ATOM     25  C   UNL     1       7.698   2.702  -8.294  1.00  0.00    -0.003 C 
ATOM     26  C   UNL     1       7.733   2.762  -9.822  1.00  0.00     0.004 C 
ENDBRANCH  24  25
ENDBRANCH  23  24
ENDBRANCH  22  23
ENDBRANCH  21  22
ENDBRANCH  20  21
ENDBRANCH  19  20
ENDBRANCH  18  19
ENDBRANCH  17  18
ENDBRANCH  16  17
ENDBRANCH  15  16
ENDBRANCH   1  15
TORSDOF 22
ENDMDL
MODEL 8
REMARK VINA RESULT:    -4.647      6.132     11.534
REMARK INTER + INTRA:         -12.644
REMARK INTER:                  -9.713
REMARK INTRA:                  -2.932
REMARK UNBOUND:                -2.020
REMARK SMILES CCCCCCCCCCCCCCCCCCCCCCCC(=O)[O-]
REMARK SMILES IDX 13 1 14 2 15 3 16 4 17 5 18 6 19 7 20 8 21 9 22 10 23 11
REMARK SMILES IDX 24 12 25 13 26 14 12 15 11 16 10 17 9 18 8 19 7 20 6 21 5 22
REMARK SMILES IDX 4 23 3 24 2 25 1 26
REMARK H PARENT
REMARK Flexibility Score: inf
ROOT
ATOM      1  C   UNL     1       3.327  -6.459  -5.648  1.00  0.00     0.000 C 
ENDROOT
BRANCH   1   2
ATOM      2  C   UNL     1       4.332  -7.002  -4.609  1.00  0.00     0.000 C 
BRANCH   2   3
ATOM      3  C   UNL     1       5.736  -6.375  -4.656  1.00  0.00     0.000 C 
BRANCH   3   4
ATOM      4  C   UNL     1       6.858  -7.424  -4.766  1.00  0.00     0.000 C 
BRANCH   4   5
ATOM      5  C   UNL     1       7.632  -7.303  -6.090  1.00  0.00     0.000 C 
BRANCH   5   6
ATOM      6  C   UNL     1       6.816  -7.822  -7.289  1.00  0.00     0.000 C 
BRANCH   6   7
ATOM      7  C   UNL     1       6.439  -6.702  -8.283  1.00  0.00     0.000 C 
BRANCH   7   8
ATOM      8  C   UNL     1       5.204  -7.017  -9.149  1.00  0.00     0.000 C 
BRANCH   8   9
ATOM      9  C   UNL     1       4.327  -8.174  -8.643  1.00  0.00     0.000 C 
BRANCH   9  10
ATOM     10  C   UNL     1       3.620  -8.931  -9.782  1.00  0.00     0.006 C 
BRANCH  10  11
ATOM     11  C   UNL     1       2.209  -9.388  -9.386  1.00  0.00     0.053 C 
BRANCH  11  12
ATOM     12  C   UNL     1       1.170  -8.375  -9.758  1.00  0.00     0.041 C 
ATOM     13  O   UNL     1      -0.035  -8.718  -9.883  1.00  0.00    -0.550 OA
ATOM     14  O   UNL     1       1.534  -7.047  -9.963  1.00  0.00    -0.550 OA
ENDBRANCH  11  12
ENDBRANCH  10  11
ENDBRANCH   9  10
ENDBRANCH   8   9
ENDBRANCH   7   8
ENDBRANCH   6   7
ENDBRANCH   5   6
ENDBRANCH   4   5
ENDBRANCH   3   4
ENDBRANCH   2   3
ENDBRANCH   1   2
BRANCH   1  15
ATOM     15  C   UNL     1       3.738  -5.153  -6.360  1.00  0.00     0.000 C 
BRANCH  15  16
ATOM     16  C   UNL     1       2.620  -4.493  -7.196  1.00  0.00     0.000 C 
BRANCH  16  17
ATOM     17  C   UNL     1       2.837  -2.990  -7.457  1.00  0.00     0.000 C 
BRANCH  17  18
ATOM     18  C   UNL     1       3.114  -2.620  -8.924  1.00  0.00    -0.000 C 
BRANCH  18  19
ATOM     19  C   UNL     1       4.041  -3.594  -9.678  1.00  0.00    -0.000 C 
BRANCH  19  20
ATOM     20  C   UNL     1       5.511  -3.125  -9.753  1.00  0.00    -0.000 C 
BRANCH  20  21
ATOM     21  C   UNL     1       5.640  -1.592  -9.697  1.00  0.00    -0.000 C 
BRANCH  21  22
ATOM     22  C   UNL     1       6.608  -1.120  -8.601  1.00  0.00    -0.000 C 
BRANCH  22  23
ATOM     23  C   UNL     1       5.970  -0.086  -7.658  1.00  0.00    -0.000 C 
BRANCH  23  24
ATOM     24  C   UNL     1       7.012   0.811  -6.966  1.00  0.00    -0.000 C 
BRANCH  24  25
ATOM     25  C   UNL     1       8.462   0.301  -7.120  1.00  0.00    -0.003 C 
ATOM     26  C   UNL     1       9.079  -0.108  -5.782  1.00  0.00     0.004 C 
ENDBRANCH  24  25
ENDBRANCH  23  24
ENDBRANCH  22  23
ENDBRANCH  21  22
ENDBRANCH  20  21
ENDBRANCH  19  20
ENDBRANCH  18  19
ENDBRANCH  17  18
ENDBRANCH  16  17
ENDBRANCH  15  16
ENDBRANCH   1  15
TORSDOF 22
ENDMDL
MODEL 9
REMARK VINA RESULT:    -4.571      4.466      7.821
REMARK INTER + INTRA:         -12.469
REMARK INTER:                  -8.701
REMARK INTRA:                  -3.769
REMARK UNBOUND:                -2.020
REMARK SMILES CCCCCCCCCCCCCCCCCCCCCCCC(=O)[O-]
REMARK SMILES IDX 13 1 14 2 15 3 16 4 17 5 18 6 19 7 20 8 21 9 22 10 23 11
REMARK SMILES IDX 24 12 25 13 26 14 12 15 11 16 10 17 9 18 8 19 7 20 6 21 5 22
REMARK SMILES IDX 4 23 3 24 2 25 1 26
REMARK H PARENT
REMARK Flexibility Score: inf
ROOT
ATOM      1  C   UNL     1       3.748  -6.759  -5.106  1.00  0.00     0.000 C 
ENDROOT
BRANCH   1   2
ATOM      2  C   UNL     1       4.020  -5.634  -6.128  1.00  0.00     0.000 C 
BRANCH   2   3
ATOM      3  C   UNL     1       2.771  -5.019  -6.782  1.00  0.00     0.000 C 
BRANCH   3   4
ATOM      4  C   UNL     1       2.967  -3.545  -7.182  1.00  0.00     0.000 C 
BRANCH   4   5
ATOM      5  C   UNL     1       2.296  -3.219  -8.527  1.00  0.00     0.000 C 
BRANCH   5   6
ATOM      6  C   UNL     1       3.298  -2.667  -9.558  1.00  0.00     0.000 C 
BRANCH   6   7
ATOM      7  C   UNL     1       4.707  -2.455  -8.965  1.00  0.00     0.000 C 
BRANCH   7   8
ATOM      8  C   UNL     1       5.678  -1.703  -9.898  1.00  0.00     0.000 C 
BRANCH   8   9
ATOM      9  C   UNL     1       7.149  -2.137  -9.798  1.00  0.00     0.000 C 
BRANCH   9  10
ATOM     10  C   UNL     1       7.996  -1.187  -8.933  1.00  0.00     0.006 C 
BRANCH  10  11
ATOM     11  C   UNL     1       7.504   0.265  -9.014  1.00  0.00     0.053 C 
BRANCH  11  12
ATOM     12  C   UNL     1       7.270   0.851  -7.656  1.00  0.00     0.041 C 
ATOM     13  O   UNL     1       8.199   1.455  -7.057  1.00  0.00    -0.550 OA
ATOM     14  O   UNL     1       6.022   0.736  -7.053  1.00  0.00    -0.550 OA
ENDBRANCH  11  12
ENDBRANCH  10  11
ENDBRANCH   9  10
ENDBRANCH   8   9
ENDBRANCH   7   8
ENDBRANCH   6   7
ENDBRANCH   5   6
ENDBRANCH   4   5
ENDBRANCH   3   4
ENDBRANCH   2   3
ENDBRANCH   1   2
BRANCH   1  15
ATOM     15  C   UNL     1       4.868  -7.016  -4.077  1.00  0.00     0.000 C 
BRANCH  15  16
ATOM     16  C   UNL     1       6.008  -7.931  -4.575  1.00  0.00     0.000 C 
BRANCH  16  17
ATOM     17  C   UNL     1       7.332  -7.191  -4.849  1.00  0.00     0.000 C 
BRANCH  17  18
ATOM     18  C   UNL     1       7.967  -7.484  -6.219  1.00  0.00    -0.000 C 
BRANCH  18  19
ATOM     19  C   UNL     1       6.964  -7.696  -7.370  1.00  0.00    -0.000 C 
BRANCH  19  20
ATOM     20  C   UNL     1       6.806  -6.469  -8.294  1.00  0.00    -0.000 C 
BRANCH  20  21
ATOM     21  C   UNL     1       6.060  -6.809  -9.597  1.00  0.00    -0.000 C 
BRANCH  21  22
ATOM     22  C   UNL     1       4.836  -5.909  -9.829  1.00  0.00    -0.000 C 
BRANCH  22  23
ATOM     23  C   UNL     1       3.531  -6.713  -9.961  1.00  0.00    -0.000 C 
BRANCH  23  24
ATOM     24  C   UNL     1       3.697  -8.188  -9.556  1.00  0.00    -0.000 C 
BRANCH  24  25
ATOM     25  C   UNL     1       3.010  -8.541  -8.219  1.00  0.00    -0.003 C 
ATOM     26  C   UNL     1       3.766  -9.621  -7.444  1.00  0.00     0.004 C 
ENDBRANCH  24  25
ENDBRANCH  23  24
ENDBRANCH  22  23
ENDBRANCH  21  22
ENDBRANCH  20  21
ENDBRANCH  19  20
ENDBRANCH  18  19
ENDBRANCH  17  18
ENDBRANCH  16  17
ENDBRANCH  15  16
ENDBRANCH   1  15
TORSDOF 22
ENDMDL
