MODEL 1
REMARK VINA RESULT:    -3.836      0.000      0.000
REMARK INTER + INTRA:          -4.618
REMARK INTER:                  -4.509
REMARK INTRA:                  -0.109
REMARK UNBOUND:                -0.109
REMARK SMILES O=C([O-])CCC(=O)[O-]
REMARK SMILES IDX 4 1 2 2 1 3 3 4 5 5 6 6 7 7 8 8
REMARK H PARENT
REMARK Flexibility Score: inf
ROOT
ATOM      1  C   UNL     1      29.391  56.759  -5.271  1.00  0.00     0.059 C 
ENDROOT
BRANCH   1   2
ATOM      2  C   UNL     1      28.888  56.787  -6.682  1.00  0.00     0.042 C 
ATOM      3  O   UNL     1      28.330  55.772  -7.176  1.00  0.00    -0.550 OA
ATOM      4  O   UNL     1      29.073  57.920  -7.465  1.00  0.00    -0.550 OA
ENDBRANCH   1   2
BRANCH   1   5
ATOM      5  C   UNL     1      30.835  57.265  -5.177  1.00  0.00     0.059 C 
BRANCH   5   6
ATOM      6  C   UNL     1      30.906  58.610  -4.518  1.00  0.00     0.042 C 
ATOM      7  O   UNL     1      31.113  59.644  -5.205  1.00  0.00    -0.550 OA
ATOM      8  O   UNL     1      30.703  58.724  -3.148  1.00  0.00    -0.550 OA
ENDBRANCH   5   6
ENDBRANCH   1   5
TORSDOF 3
ENDMDL
MODEL 2
REMARK VINA RESULT:    -3.754      2.322      3.075
REMARK INTER + INTRA:          -4.521
REMARK INTER:                  -4.485
REMARK INTRA:                  -0.036
REMARK UNBOUND:                -0.109
REMARK SMILES O=C([O-])CCC(=O)[O-]
REMARK SMILES IDX 4 1 2 2 1 3 3 4 5 5 6 6 7 7 8 8
REMARK H PARENT
REMARK Flexibility Score: inf
ROOT
ATOM      1  C   UNL     1      29.374  58.753  -7.616  1.00  0.00     0.059 C 
ENDROOT
BRANCH   1   2
ATOM      2  C   UNL     1      28.704  59.178  -8.887  1.00  0.00     0.042 C 
ATOM      3  O   UNL     1      27.873  58.418  -9.450  1.00  0.00    -0.550 OA
ATOM      4  O   UNL     1      29.030  60.396  -9.472  1.00  0.00    -0.550 OA
ENDBRANCH   1   2
BRANCH   1   5
ATOM      5  C   UNL     1      28.959  57.336  -7.206  1.00  0.00     0.059 C 
BRANCH   5   6
ATOM      6  C   UNL     1      29.481  56.981  -5.846  1.00  0.00     0.042 C 
ATOM      7  O   UNL     1      30.626  57.361  -5.486  1.00  0.00    -0.550 OA
ATOM      8  O   UNL     1      28.684  56.264  -4.962  1.00  0.00    -0.550 OA
ENDBRANCH   5   6
ENDBRANCH   1   5
TORSDOF 3
ENDMDL
MODEL 3
REMARK VINA RESULT:    -3.681     16.258     17.294
REMARK INTER + INTRA:          -4.436
REMARK INTER:                  -4.404
REMARK INTRA:                  -0.031
REMARK UNBOUND:                -0.109
REMARK SMILES O=C([O-])CCC(=O)[O-]
REMARK SMILES IDX 4 1 2 2 1 3 3 4 5 5 6 6 7 7 8 8
REMARK H PARENT
REMARK Flexibility Score: inf
ROOT
ATOM      1  C   UNL     1      37.748  65.935   6.714  1.00  0.00     0.059 C 
ENDROOT
BRANCH   1   2
ATOM      2  C   UNL     1      37.570  66.973   5.648  1.00  0.00     0.042 C 
ATOM      3  O   UNL     1      36.903  68.015   5.883  1.00  0.00    -0.550 OA
ATOM      4  O   UNL     1      38.108  66.770   4.383  1.00  0.00    -0.550 OA
ENDBRANCH   1   2
BRANCH   1   5
ATOM      5  C   UNL     1      39.024  65.114   6.495  1.00  0.00     0.059 C 
BRANCH   5   6
ATOM      6  C   UNL     1      39.673  64.746   7.795  1.00  0.00     0.042 C 
ATOM      7  O   UNL     1      40.915  64.883   7.945  1.00  0.00    -0.550 OA
ATOM      8  O   UNL     1      38.898  64.290   8.854  1.00  0.00    -0.550 OA
ENDBRANCH   5   6
ENDBRANCH   1   5
TORSDOF 3
ENDMDL
MODEL 4
REMARK VINA RESULT:    -3.660     16.279     17.091
REMARK INTER + INTRA:          -4.410
REMARK INTER:                  -4.381
REMARK INTRA:                  -0.030
REMARK UNBOUND:                -0.109
REMARK SMILES O=C([O-])CCC(=O)[O-]
REMARK SMILES IDX 4 1 2 2 1 3 3 4 5 5 6 6 7 7 8 8
REMARK H PARENT
REMARK Flexibility Score: inf
ROOT
ATOM      1  C   UNL     1      39.034  65.329   6.502  1.00  0.00     0.059 C 
ENDROOT
BRANCH   1   2
ATOM      2  C   UNL     1      39.145  64.224   7.508  1.00  0.00     0.042 C 
ATOM      3  O   UNL     1      38.986  64.465   8.734  1.00  0.00    -0.550 OA
ATOM      4  O   UNL     1      39.463  62.936   7.095  1.00  0.00    -0.550 OA
ENDBRANCH   1   2
BRANCH   1   5
ATOM      5  C   UNL     1      37.644  65.973   6.521  1.00  0.00     0.059 C 
BRANCH   5   6
ATOM      6  C   UNL     1      37.541  67.090   5.527  1.00  0.00     0.042 C 
ATOM      7  O   UNL     1      36.937  68.153   5.828  1.00  0.00    -0.550 OA
ATOM      8  O   UNL     1      38.146  66.972   4.283  1.00  0.00    -0.550 OA
ENDBRANCH   5   6
ENDBRANCH   1   5
TORSDOF 3
ENDMDL
MODEL 5
REMARK VINA RESULT:    -3.502      1.385      4.123
REMARK INTER + INTRA:          -4.225
REMARK INTER:                  -4.126
REMARK INTRA:                  -0.098
REMARK UNBOUND:                -0.109
REMARK SMILES O=C([O-])CCC(=O)[O-]
REMARK SMILES IDX 4 1 2 2 1 3 3 4 5 5 6 6 7 7 8 8
REMARK H PARENT
REMARK Flexibility Score: inf
ROOT
ATOM      1  C   UNL     1      31.025  58.980  -4.716  1.00  0.00     0.059 C 
ENDROOT
BRANCH   1   2
ATOM      2  C   UNL     1      30.991  59.067  -3.221  1.00  0.00     0.042 C 
ATOM      3  O   UNL     1      30.064  58.512  -2.575  1.00  0.00    -0.550 OA
ATOM      4  O   UNL     1      31.961  59.797  -2.545  1.00  0.00    -0.550 OA
ENDBRANCH   1   2
BRANCH   1   5
ATOM      5  C   UNL     1      30.954  57.527  -5.199  1.00  0.00     0.059 C 
BRANCH   5   6
ATOM      6  C   UNL     1      29.635  57.224  -5.843  1.00  0.00     0.042 C 
ATOM      7  O   UNL     1      28.838  56.412  -5.305  1.00  0.00    -0.550 OA
ATOM      8  O   UNL     1      29.270  57.870  -7.018  1.00  0.00    -0.550 OA
ENDBRANCH   5   6
ENDBRANCH   1   5
TORSDOF 3
ENDMDL
MODEL 6
REMARK VINA RESULT:    -3.495      1.397      2.078
REMARK INTER + INTRA:          -4.217
REMARK INTER:                  -4.120
REMARK INTRA:                  -0.097
REMARK UNBOUND:                -0.109
REMARK SMILES O=C([O-])CCC(=O)[O-]
REMARK SMILES IDX 4 1 2 2 1 3 3 4 5 5 6 6 7 7 8 8
REMARK H PARENT
REMARK Flexibility Score: inf
ROOT
ATOM      1  C   UNL     1      30.967  57.581  -5.266  1.00  0.00     0.059 C 
ENDROOT
BRANCH   1   2
ATOM      2  C   UNL     1      29.636  57.226  -5.855  1.00  0.00     0.042 C 
ATOM      3  O   UNL     1      29.272  57.733  -6.949  1.00  0.00    -0.550 OA
ATOM      4  O   UNL     1      28.781  56.368  -5.176  1.00  0.00    -0.550 OA
ENDBRANCH   1   2
BRANCH   1   5
ATOM      5  C   UNL     1      30.989  59.025  -4.751  1.00  0.00     0.059 C 
BRANCH   5   6
ATOM      6  C   UNL     1      30.964  59.076  -3.254  1.00  0.00     0.042 C 
ATOM      7  O   UNL     1      30.143  58.373  -2.608  1.00  0.00    -0.550 OA
ATOM      8  O   UNL     1      31.874  59.872  -2.570  1.00  0.00    -0.550 OA
ENDBRANCH   5   6
ENDBRANCH   1   5
TORSDOF 3
ENDMDL
MODEL 7
REMARK VINA RESULT:    -3.448     16.845     17.703
REMARK INTER + INTRA:          -4.161
REMARK INTER:                  -4.047
REMARK INTRA:                  -0.115
REMARK UNBOUND:                -0.109
REMARK SMILES O=C([O-])CCC(=O)[O-]
REMARK SMILES IDX 4 1 2 2 1 3 3 4 5 5 6 6 7 7 8 8
REMARK H PARENT
REMARK Flexibility Score: inf
ROOT
ATOM      1  C   UNL     1      40.658  62.715   8.419  1.00  0.00     0.059 C 
ENDROOT
BRANCH   1   2
ATOM      2  C   UNL     1      40.058  61.393   8.050  1.00  0.00     0.042 C 
ATOM      3  O   UNL     1      40.277  60.377   8.763  1.00  0.00    -0.550 OA
ATOM      4  O   UNL     1      39.292  61.273   6.898  1.00  0.00    -0.550 OA
ENDBRANCH   1   2
BRANCH   1   5
ATOM      5  C   UNL     1      39.585  63.721   8.849  1.00  0.00     0.059 C 
BRANCH   5   6
ATOM      6  C   UNL     1      39.308  64.726   7.772  1.00  0.00     0.042 C 
ATOM      7  O   UNL     1      38.346  65.530   7.885  1.00  0.00    -0.550 OA
ATOM      8  O   UNL     1      40.140  64.801   6.661  1.00  0.00    -0.550 OA
ENDBRANCH   5   6
ENDBRANCH   1   5
TORSDOF 3
ENDMDL
MODEL 8
REMARK VINA RESULT:    -3.420     16.728     17.725
REMARK INTER + INTRA:          -4.129
REMARK INTER:                  -4.011
REMARK INTRA:                  -0.118
REMARK UNBOUND:                -0.109
REMARK SMILES O=C([O-])CCC(=O)[O-]
REMARK SMILES IDX 4 1 2 2 1 3 3 4 5 5 6 6 7 7 8 8
REMARK H PARENT
REMARK Flexibility Score: inf
ROOT
ATOM      1  C   UNL     1      39.424  63.716   8.748  1.00  0.00     0.059 C 
ENDROOT
BRANCH   1   2
ATOM      2  C   UNL     1      39.226  64.760   7.692  1.00  0.00     0.042 C 
ATOM      3  O   UNL     1      38.278  65.584   7.784  1.00  0.00    -0.550 OA
ATOM      4  O   UNL     1      40.066  64.798   6.585  1.00  0.00    -0.550 OA
ENDBRANCH   1   2
BRANCH   1   5
ATOM      5  C   UNL     1      40.538  62.735   8.370  1.00  0.00     0.059 C 
BRANCH   5   6
ATOM      6  C   UNL     1      39.984  61.407   7.948  1.00  0.00     0.042 C 
ATOM      7  O   UNL     1      40.148  60.392   8.673  1.00  0.00    -0.550 OA
ATOM      8  O   UNL     1      39.251  61.302   6.772  1.00  0.00    -0.550 OA
ENDBRANCH   5   6
ENDBRANCH   1   5
TORSDOF 3
ENDMDL
MODEL 9
REMARK VINA RESULT:    -3.254     17.091     18.197
REMARK INTER + INTRA:          -3.933
REMARK INTER:                  -3.898
REMARK INTRA:                  -0.036
REMARK UNBOUND:                -0.109
REMARK SMILES O=C([O-])CCC(=O)[O-]
REMARK SMILES IDX 4 1 2 2 1 3 3 4 5 5 6 6 7 7 8 8
REMARK H PARENT
REMARK Flexibility Score: inf
ROOT
ATOM      1  C   UNL     1      39.736  62.085   8.052  1.00  0.00     0.059 C 
ENDROOT
BRANCH   1   2
ATOM      2  C   UNL     1      39.974  63.439   8.647  1.00  0.00     0.042 C 
ATOM      3  O   UNL     1      39.012  64.105   9.112  1.00  0.00    -0.550 OA
ATOM      4  O   UNL     1      41.254  63.981   8.653  1.00  0.00    -0.550 OA
ENDBRANCH   1   2
BRANCH   1   5
ATOM      5  C   UNL     1      40.828  61.089   8.457  1.00  0.00     0.059 C 
BRANCH   5   6
ATOM      6  C   UNL     1      40.369  59.672   8.295  1.00  0.00     0.042 C 
ATOM      7  O   UNL     1      39.185  59.424   7.947  1.00  0.00    -0.550 OA
ATOM      8  O   UNL     1      41.263  58.625   8.489  1.00  0.00    -0.550 OA
ENDBRANCH   5   6
ENDBRANCH   1   5
TORSDOF 3
ENDMDL
