MODEL 1
REMARK VINA RESULT:    -3.182      0.000      0.000
REMARK INTER + INTRA:          -4.179
REMARK INTER:                  -3.926
REMARK INTRA:                  -0.254
REMARK UNBOUND:                -0.254
REMARK SMILES CCCCCC(=O)[O-]
REMARK SMILES IDX 4 1 5 2 6 3 7 4 8 5 3 6 2 7 1 8
REMARK H PARENT
REMARK Flexibility Score: inf
ROOT
ATOM      1  C   UNL     1      18.248 127.389  63.863  1.00  0.00     0.006 C 
ENDROOT
BRANCH   1   2
ATOM      2  C   UNL     1      18.499 128.834  63.411  1.00  0.00     0.053 C 
BRANCH   2   3
ATOM      3  C   UNL     1      18.897 128.868  61.969  1.00  0.00     0.041 C 
ATOM      4  O   UNL     1      20.008 128.400  61.606  1.00  0.00    -0.550 OA
ATOM      5  O   UNL     1      18.061 129.463  61.032  1.00  0.00    -0.550 OA
ENDBRANCH   2   3
ENDBRANCH   1   2
BRANCH   1   6
ATOM      6  C   UNL     1      17.106 126.717  63.084  1.00  0.00     0.000 C 
BRANCH   6   7
ATOM      7  C   UNL     1      17.432 125.267  62.692  1.00  0.00    -0.003 C 
ATOM      8  C   UNL     1      18.932 124.999  62.780  1.00  0.00     0.004 C 
ENDBRANCH   6   7
ENDBRANCH   1   6
TORSDOF 4
ENDMDL
MODEL 2
REMARK VINA RESULT:    -3.096      0.847      1.287
REMARK INTER + INTRA:          -4.073
REMARK INTER:                  -3.912
REMARK INTRA:                  -0.161
REMARK UNBOUND:                -0.254
REMARK SMILES CCCCCC(=O)[O-]
REMARK SMILES IDX 4 1 5 2 6 3 7 4 8 5 3 6 2 7 1 8
REMARK H PARENT
REMARK Flexibility Score: inf
ROOT
ATOM      1  C   UNL     1      17.005 126.909  63.129  1.00  0.00     0.006 C 
ENDROOT
BRANCH   1   2
ATOM      2  C   UNL     1      18.167 127.714  63.727  1.00  0.00     0.053 C 
BRANCH   2   3
ATOM      3  C   UNL     1      18.668 128.718  62.737  1.00  0.00     0.041 C 
ATOM      4  O   UNL     1      19.588 128.412  61.934  1.00  0.00    -0.550 OA
ATOM      5  O   UNL     1      18.155 130.009  62.736  1.00  0.00    -0.550 OA
ENDBRANCH   2   3
ENDBRANCH   1   2
BRANCH   1   6
ATOM      6  C   UNL     1      17.408 125.471  62.766  1.00  0.00     0.000 C 
BRANCH   6   7
ATOM      7  C   UNL     1      18.840 125.129  63.207  1.00  0.00    -0.003 C 
ATOM      8  C   UNL     1      19.516 124.200  62.202  1.00  0.00     0.004 C 
ENDBRANCH   6   7
ENDBRANCH   1   6
TORSDOF 4
ENDMDL
MODEL 3
REMARK VINA RESULT:    -3.053      0.513      1.236
REMARK INTER + INTRA:          -4.020
REMARK INTER:                  -3.864
REMARK INTRA:                  -0.156
REMARK UNBOUND:                -0.254
REMARK SMILES CCCCCC(=O)[O-]
REMARK SMILES IDX 4 1 5 2 6 3 7 4 8 5 3 6 2 7 1 8
REMARK H PARENT
REMARK Flexibility Score: inf
ROOT
ATOM      1  C   UNL     1      18.424 127.490  63.359  1.00  0.00     0.006 C 
ENDROOT
BRANCH   1   2
ATOM      2  C   UNL     1      18.291 128.887  62.740  1.00  0.00     0.053 C 
BRANCH   2   3
ATOM      3  C   UNL     1      19.170 129.010  61.535  1.00  0.00     0.041 C 
ATOM      4  O   UNL     1      18.805 129.706  60.551  1.00  0.00    -0.550 OA
ATOM      5  O   UNL     1      20.371 128.313  61.477  1.00  0.00    -0.550 OA
ENDBRANCH   2   3
ENDBRANCH   1   2
BRANCH   1   6
ATOM      6  C   UNL     1      17.154 126.642  63.181  1.00  0.00     0.000 C 
BRANCH   6   7
ATOM      7  C   UNL     1      17.458 125.215  62.699  1.00  0.00    -0.003 C 
ATOM      8  C   UNL     1      18.957 124.930  62.740  1.00  0.00     0.004 C 
ENDBRANCH   6   7
ENDBRANCH   1   6
TORSDOF 4
ENDMDL
MODEL 4
REMARK VINA RESULT:    -2.959      1.357      1.886
REMARK INTER + INTRA:          -3.904
REMARK INTER:                  -3.758
REMARK INTRA:                  -0.146
REMARK UNBOUND:                -0.254
REMARK SMILES CCCCCC(=O)[O-]
REMARK SMILES IDX 4 1 5 2 6 3 7 4 8 5 3 6 2 7 1 8
REMARK H PARENT
REMARK Flexibility Score: inf
ROOT
ATOM      1  C   UNL     1      17.039 126.859  62.774  1.00  0.00     0.006 C 
ENDROOT
BRANCH   1   2
ATOM      2  C   UNL     1      17.600 127.596  63.996  1.00  0.00     0.053 C 
BRANCH   2   3
ATOM      3  C   UNL     1      18.468 128.736  63.565  1.00  0.00     0.041 C 
ATOM      4  O   UNL     1      18.604 129.745  64.306  1.00  0.00    -0.550 OA
ATOM      5  O   UNL     1      19.088 128.707  62.322  1.00  0.00    -0.550 OA
ENDBRANCH   2   3
ENDBRANCH   1   2
BRANCH   1   6
ATOM      6  C   UNL     1      17.423 125.371  62.753  1.00  0.00     0.000 C 
BRANCH   6   7
ATOM      7  C   UNL     1      18.869 125.127  63.211  1.00  0.00    -0.003 C 
ATOM      8  C   UNL     1      19.614 124.234  62.224  1.00  0.00     0.004 C 
ENDBRANCH   6   7
ENDBRANCH   1   6
TORSDOF 4
ENDMDL
MODEL 5
REMARK VINA RESULT:    -2.892      8.467      9.276
REMARK INTER + INTRA:          -3.822
REMARK INTER:                  -3.601
REMARK INTRA:                  -0.221
REMARK UNBOUND:                -0.254
REMARK SMILES CCCCCC(=O)[O-]
REMARK SMILES IDX 4 1 5 2 6 3 7 4 8 5 3 6 2 7 1 8
REMARK H PARENT
REMARK Flexibility Score: inf
ROOT
ATOM      1  C   UNL     1      15.050 128.568  53.629  1.00  0.00     0.006 C 
ENDROOT
BRANCH   1   2
ATOM      2  C   UNL     1      16.209 127.695  53.131  1.00  0.00     0.053 C 
BRANCH   2   3
ATOM      3  C   UNL     1      17.186 128.519  52.352  1.00  0.00     0.041 C 
ATOM      4  O   UNL     1      18.007 129.263  52.950  1.00  0.00    -0.550 OA
ATOM      5  O   UNL     1      17.155 128.504  50.963  1.00  0.00    -0.550 OA
ENDBRANCH   2   3
ENDBRANCH   1   2
BRANCH   1   6
ATOM      6  C   UNL     1      15.105 128.816  55.145  1.00  0.00     0.000 C 
BRANCH   6   7
ATOM      7  C   UNL     1      16.117 127.903  55.856  1.00  0.00    -0.003 C 
ATOM      8  C   UNL     1      17.123 128.722  56.660  1.00  0.00     0.004 C 
ENDBRANCH   6   7
ENDBRANCH   1   6
TORSDOF 4
ENDMDL
MODEL 6
REMARK VINA RESULT:    -2.821      2.390      3.937
REMARK INTER + INTRA:          -3.734
REMARK INTER:                  -3.627
REMARK INTRA:                  -0.107
REMARK UNBOUND:                -0.254
REMARK SMILES CCCCCC(=O)[O-]
REMARK SMILES IDX 4 1 5 2 6 3 7 4 8 5 3 6 2 7 1 8
REMARK H PARENT
REMARK Flexibility Score: inf
ROOT
ATOM      1  C   UNL     1      17.332 127.791  62.695  1.00  0.00     0.006 C 
ENDROOT
BRANCH   1   2
ATOM      2  C   UNL     1      18.378 126.874  63.341  1.00  0.00     0.053 C 
BRANCH   2   3
ATOM      3  C   UNL     1      18.188 125.462  62.884  1.00  0.00     0.041 C 
ATOM      4  O   UNL     1      17.044 125.051  62.555  1.00  0.00    -0.550 OA
ATOM      5  O   UNL     1      19.265 124.585  62.871  1.00  0.00    -0.550 OA
ENDBRANCH   2   3
ENDBRANCH   1   2
BRANCH   1   6
ATOM      6  C   UNL     1      17.922 129.136  62.242  1.00  0.00     0.000 C 
BRANCH   6   7
ATOM      7  C   UNL     1      19.261 128.976  61.505  1.00  0.00    -0.003 C 
ATOM      8  C   UNL     1      19.271 129.776  60.206  1.00  0.00     0.004 C 
ENDBRANCH   6   7
ENDBRANCH   1   6
TORSDOF 4
ENDMDL
MODEL 7
REMARK VINA RESULT:    -2.800      2.748      4.060
REMARK INTER + INTRA:          -3.708
REMARK INTER:                  -3.574
REMARK INTRA:                  -0.134
REMARK UNBOUND:                -0.254
REMARK SMILES CCCCCC(=O)[O-]
REMARK SMILES IDX 4 1 5 2 6 3 7 4 8 5 3 6 2 7 1 8
REMARK H PARENT
REMARK Flexibility Score: inf
ROOT
ATOM      1  C   UNL     1      18.496 127.782  63.083  1.00  0.00     0.006 C 
ENDROOT
BRANCH   1   2
ATOM      2  C   UNL     1      17.107 127.153  62.909  1.00  0.00     0.053 C 
BRANCH   2   3
ATOM      3  C   UNL     1      17.193 125.663  63.015  1.00  0.00     0.041 C 
ATOM      4  O   UNL     1      16.209 124.999  63.436  1.00  0.00    -0.550 OA
ATOM      5  O   UNL     1      18.378 125.010  62.698  1.00  0.00    -0.550 OA
ENDBRANCH   2   3
ENDBRANCH   1   2
BRANCH   1   6
ATOM      6  C   UNL     1      18.523 128.861  64.177  1.00  0.00     0.000 C 
BRANCH   6   7
ATOM      7  C   UNL     1      18.140 128.309  65.560  1.00  0.00    -0.003 C 
ATOM      8  C   UNL     1      17.288 129.310  66.333  1.00  0.00     0.004 C 
ENDBRANCH   6   7
ENDBRANCH   1   6
TORSDOF 4
ENDMDL
MODEL 8
REMARK VINA RESULT:    -2.763      6.576      7.231
REMARK INTER + INTRA:          -3.663
REMARK INTER:                  -3.470
REMARK INTRA:                  -0.193
REMARK UNBOUND:                -0.254
REMARK SMILES CCCCCC(=O)[O-]
REMARK SMILES IDX 4 1 5 2 6 3 7 4 8 5 3 6 2 7 1 8
REMARK H PARENT
REMARK Flexibility Score: inf
ROOT
ATOM      1  C   UNL     1      17.472 129.544  56.199  1.00  0.00     0.006 C 
ENDROOT
BRANCH   1   2
ATOM      2  C   UNL     1      18.845 129.660  56.873  1.00  0.00     0.053 C 
BRANCH   2   3
ATOM      3  C   UNL     1      19.932 129.662  55.845  1.00  0.00     0.041 C 
ATOM      4  O   UNL     1      20.451 128.578  55.469  1.00  0.00    -0.550 OA
ATOM      5  O   UNL     1      20.408 130.865  55.338  1.00  0.00    -0.550 OA
ENDBRANCH   2   3
ENDBRANCH   1   2
BRANCH   1   6
ATOM      6  C   UNL     1      16.751 128.232  56.549  1.00  0.00     0.000 C 
BRANCH   6   7
ATOM      7  C   UNL     1      16.225 127.498  55.306  1.00  0.00    -0.003 C 
ATOM      8  C   UNL     1      17.037 127.864  54.067  1.00  0.00     0.004 C 
ENDBRANCH   6   7
ENDBRANCH   1   6
TORSDOF 4
ENDMDL
MODEL 9
REMARK VINA RESULT:    -2.703      7.477      8.258
REMARK INTER + INTRA:          -3.588
REMARK INTER:                  -3.326
REMARK INTRA:                  -0.263
REMARK UNBOUND:                -0.254
REMARK SMILES CCCCCC(=O)[O-]
REMARK SMILES IDX 4 1 5 2 6 3 7 4 8 5 3 6 2 7 1 8
REMARK H PARENT
REMARK Flexibility Score: inf
ROOT
ATOM      1  C   UNL     1      16.651 127.806  55.709  1.00  0.00     0.006 C 
ENDROOT
BRANCH   1   2
ATOM      2  C   UNL     1      17.432 128.956  56.356  1.00  0.00     0.053 C 
BRANCH   2   3
ATOM      3  C   UNL     1      18.550 129.395  55.462  1.00  0.00     0.041 C 
ATOM      4  O   UNL     1      19.396 128.559  55.049  1.00  0.00    -0.550 OA
ATOM      5  O   UNL     1      18.686 130.736  55.127  1.00  0.00    -0.550 OA
ENDBRANCH   2   3
ENDBRANCH   1   2
BRANCH   1   6
ATOM      6  C   UNL     1      15.867 128.250  54.464  1.00  0.00     0.000 C 
BRANCH   6   7
ATOM      7  C   UNL     1      16.327 127.529  53.187  1.00  0.00    -0.003 C 
ATOM      8  C   UNL     1      16.993 128.501  52.218  1.00  0.00     0.004 C 
ENDBRANCH   6   7
ENDBRANCH   1   6
TORSDOF 4
ENDMDL
