MODEL 1
REMARK VINA RESULT:    -3.505      0.000      0.000
REMARK INTER + INTRA:          -6.903
REMARK INTER:                  -5.553
REMARK INTRA:                  -1.349
REMARK UNBOUND:                -1.349
REMARK SMILES CCCCCCCCCCCC(=O)[O-]
REMARK SMILES IDX 7 1 8 2 9 3 10 4 11 5 12 6 13 7 14 8 6 9 5 10 4 11 3 12 2 13
REMARK SMILES IDX 1 14
REMARK H PARENT
REMARK Flexibility Score: inf
ROOT
ATOM      1  C   UNL     1       7.950   3.792  51.783  1.00  0.00     0.000 C 
ENDROOT
BRANCH   1   2
ATOM      2  C   UNL     1       7.017   5.007  51.679  1.00  0.00     0.000 C 
BRANCH   2   3
ATOM      3  C   UNL     1       7.599   6.068  50.737  1.00  0.00     0.000 C 
BRANCH   3   4
ATOM      4  C   UNL     1       6.761   6.188  49.458  1.00  0.00     0.006 C 
BRANCH   4   5
ATOM      5  C   UNL     1       7.652   6.156  48.212  1.00  0.00     0.053 C 
BRANCH   5   6
ATOM      6  C   UNL     1       8.022   7.544  47.797  1.00  0.00     0.041 C 
ATOM      7  O   UNL     1       7.152   8.454  47.783  1.00  0.00    -0.550 OA
ATOM      8  O   UNL     1       9.338   7.845  47.473  1.00  0.00    -0.550 OA
ENDBRANCH   5   6
ENDBRANCH   4   5
ENDBRANCH   3   4
ENDBRANCH   2   3
ENDBRANCH   1   2
BRANCH   1   9
ATOM      9  C   UNL     1       7.233   2.468  51.474  1.00  0.00     0.000 C 
BRANCH   9  10
ATOM     10  C   UNL     1       5.706   2.632  51.375  1.00  0.00    -0.000 C 
BRANCH  10  11
ATOM     11  C   UNL     1       5.137   2.103  50.049  1.00  0.00    -0.000 C 
BRANCH  11  12
ATOM     12  C   UNL     1       4.782   3.232  49.067  1.00  0.00    -0.000 C 
BRANCH  12  13
ATOM     13  C   UNL     1       5.554   3.126  47.743  1.00  0.00    -0.003 C 
ATOM     14  C   UNL     1       6.704   2.121  47.805  1.00  0.00     0.004 C 
ENDBRANCH  12  13
ENDBRANCH  11  12
ENDBRANCH  10  11
ENDBRANCH   9  10
ENDBRANCH   1   9
TORSDOF 10
ENDMDL
MODEL 2
REMARK VINA RESULT:    -3.444      1.334      2.830
REMARK INTER + INTRA:          -6.807
REMARK INTER:                  -5.511
REMARK INTRA:                  -1.296
REMARK UNBOUND:                -1.349
REMARK SMILES CCCCCCCCCCCC(=O)[O-]
REMARK SMILES IDX 7 1 8 2 9 3 10 4 11 5 12 6 13 7 14 8 6 9 5 10 4 11 3 12 2 13
REMARK SMILES IDX 1 14
REMARK H PARENT
REMARK Flexibility Score: inf
ROOT
ATOM      1  C   UNL     1       5.020   3.645  49.008  1.00  0.00     0.000 C 
ENDROOT
BRANCH   1   2
ATOM      2  C   UNL     1       5.415   4.524  50.203  1.00  0.00     0.000 C 
BRANCH   2   3
ATOM      3  C   UNL     1       6.937   4.548  50.388  1.00  0.00     0.000 C 
BRANCH   3   4
ATOM      4  C   UNL     1       7.461   5.987  50.464  1.00  0.00     0.006 C 
BRANCH   4   5
ATOM      5  C   UNL     1       6.526   6.952  49.729  1.00  0.00     0.053 C 
BRANCH   5   6
ATOM      6  C   UNL     1       7.122   7.364  48.421  1.00  0.00     0.041 C 
ATOM      7  O   UNL     1       6.740   8.422  47.855  1.00  0.00    -0.550 OA
ATOM      8  O   UNL     1       8.135   6.606  47.850  1.00  0.00    -0.550 OA
ENDBRANCH   5   6
ENDBRANCH   4   5
ENDBRANCH   3   4
ENDBRANCH   2   3
ENDBRANCH   1   2
BRANCH   1   9
ATOM      9  C   UNL     1       6.124   3.562  47.943  1.00  0.00     0.000 C 
BRANCH   9  10
ATOM     10  C   UNL     1       6.403   2.117  47.490  1.00  0.00    -0.000 C 
BRANCH  10  11
ATOM     11  C   UNL     1       6.996   1.249  48.611  1.00  0.00    -0.000 C 
BRANCH  11  12
ATOM     12  C   UNL     1       6.046   0.123  49.051  1.00  0.00    -0.000 C 
BRANCH  12  13
ATOM     13  C   UNL     1       5.447   0.369  50.444  1.00  0.00    -0.003 C 
ATOM     14  C   UNL     1       6.454   0.967  51.426  1.00  0.00     0.004 C 
ENDBRANCH  12  13
ENDBRANCH  11  12
ENDBRANCH  10  11
ENDBRANCH   9  10
ENDBRANCH   1   9
TORSDOF 10
ENDMDL
MODEL 3
REMARK VINA RESULT:    -3.433      4.440      6.289
REMARK INTER + INTRA:          -6.790
REMARK INTER:                  -5.176
REMARK INTRA:                  -1.614
REMARK UNBOUND:                -1.349
REMARK SMILES CCCCCCCCCCCC(=O)[O-]
REMARK SMILES IDX 7 1 8 2 9 3 10 4 11 5 12 6 13 7 14 8 6 9 5 10 4 11 3 12 2 13
REMARK SMILES IDX 1 14
REMARK H PARENT
REMARK Flexibility Score: inf
ROOT
ATOM      1  C   UNL     1       6.756   1.107  49.080  1.00  0.00     0.000 C 
ENDROOT
BRANCH   1   2
ATOM      2  C   UNL     1       5.477   0.369  49.504  1.00  0.00     0.000 C 
BRANCH   2   3
ATOM      3  C   UNL     1       5.154   0.634  50.979  1.00  0.00     0.000 C 
BRANCH   3   4
ATOM      4  C   UNL     1       3.893   1.496  51.121  1.00  0.00     0.006 C 
BRANCH   4   5
ATOM      5  C   UNL     1       3.054   1.457  49.841  1.00  0.00     0.053 C 
BRANCH   5   6
ATOM      6  C   UNL     1       1.718   0.840  50.109  1.00  0.00     0.041 C 
ATOM      7  O   UNL     1       1.167   0.118  49.238  1.00  0.00    -0.550 OA
ATOM      8  O   UNL     1       1.104   1.023  51.341  1.00  0.00    -0.550 OA
ENDBRANCH   5   6
ENDBRANCH   4   5
ENDBRANCH   3   4
ENDBRANCH   2   3
ENDBRANCH   1   2
BRANCH   1   9
ATOM      9  C   UNL     1       6.601   1.833  47.735  1.00  0.00     0.000 C 
BRANCH   9  10
ATOM     10  C   UNL     1       5.743   3.106  47.845  1.00  0.00    -0.000 C 
BRANCH  10  11
ATOM     11  C   UNL     1       6.399   4.191  48.713  1.00  0.00    -0.000 C 
BRANCH  11  12
ATOM     12  C   UNL     1       5.494   4.649  49.869  1.00  0.00    -0.000 C 
BRANCH  12  13
ATOM     13  C   UNL     1       6.070   4.288  51.247  1.00  0.00    -0.003 C 
ATOM     14  C   UNL     1       7.564   3.966  51.200  1.00  0.00     0.004 C 
ENDBRANCH  12  13
ENDBRANCH  11  12
ENDBRANCH  10  11
ENDBRANCH   9  10
ENDBRANCH   1   9
TORSDOF 10
ENDMDL
MODEL 4
REMARK VINA RESULT:    -3.419      1.070      2.209
REMARK INTER + INTRA:          -6.767
REMARK INTER:                  -5.705
REMARK INTRA:                  -1.062
REMARK UNBOUND:                -1.349
REMARK SMILES CCCCCCCCCCCC(=O)[O-]
REMARK SMILES IDX 7 1 8 2 9 3 10 4 11 5 12 6 13 7 14 8 6 9 5 10 4 11 3 12 2 13
REMARK SMILES IDX 1 14
REMARK H PARENT
REMARK Flexibility Score: inf
ROOT
ATOM      1  C   UNL     1       5.128   3.798  51.281  1.00  0.00     0.000 C 
ENDROOT
BRANCH   1   2
ATOM      2  C   UNL     1       6.291   4.737  51.636  1.00  0.00     0.000 C 
BRANCH   2   3
ATOM      3  C   UNL     1       7.313   4.800  50.495  1.00  0.00     0.000 C 
BRANCH   3   4
ATOM      4  C   UNL     1       7.440   6.228  49.947  1.00  0.00     0.006 C 
BRANCH   4   5
ATOM      5  C   UNL     1       7.443   6.230  48.416  1.00  0.00     0.053 C 
BRANCH   5   6
ATOM      6  C   UNL     1       7.771   7.593  47.895  1.00  0.00     0.041 C 
ATOM      7  O   UNL     1       8.943   7.864  47.523  1.00  0.00    -0.550 OA
ATOM      8  O   UNL     1       6.772   8.549  47.774  1.00  0.00    -0.550 OA
ENDBRANCH   5   6
ENDBRANCH   4   5
ENDBRANCH   3   4
ENDBRANCH   2   3
ENDBRANCH   1   2
BRANCH   1   9
ATOM      9  C   UNL     1       4.459   4.164  49.947  1.00  0.00     0.000 C 
BRANCH   9  10
ATOM     10  C   UNL     1       4.473   3.000  48.939  1.00  0.00    -0.000 C 
BRANCH  10  11
ATOM     11  C   UNL     1       5.493   3.207  47.808  1.00  0.00    -0.000 C 
BRANCH  11  12
ATOM     12  C   UNL     1       6.500   2.050  47.703  1.00  0.00    -0.000 C 
BRANCH  12  13
ATOM     13  C   UNL     1       6.721   1.336  49.045  1.00  0.00    -0.003 C 
ATOM     14  C   UNL     1       6.016  -0.019  49.119  1.00  0.00     0.004 C 
ENDBRANCH  12  13
ENDBRANCH  11  12
ENDBRANCH  10  11
ENDBRANCH   9  10
ENDBRANCH   1   9
TORSDOF 10
ENDMDL
MODEL 5
REMARK VINA RESULT:    -3.417      1.064      3.210
REMARK INTER + INTRA:          -6.764
REMARK INTER:                  -5.456
REMARK INTRA:                  -1.308
REMARK UNBOUND:                -1.349
REMARK SMILES CCCCCCCCCCCC(=O)[O-]
REMARK SMILES IDX 7 1 8 2 9 3 10 4 11 5 12 6 13 7 14 8 6 9 5 10 4 11 3 12 2 13
REMARK SMILES IDX 1 14
REMARK H PARENT
REMARK Flexibility Score: inf
ROOT
ATOM      1  C   UNL     1       6.459   2.140  47.503  1.00  0.00     0.000 C 
ENDROOT
BRANCH   1   2
ATOM      2  C   UNL     1       5.806   3.414  48.058  1.00  0.00     0.000 C 
BRANCH   2   3
ATOM      3  C   UNL     1       6.851   4.512  48.286  1.00  0.00     0.000 C 
BRANCH   3   4
ATOM      4  C   UNL     1       6.441   5.433  49.442  1.00  0.00     0.006 C 
BRANCH   4   5
ATOM      5  C   UNL     1       7.550   6.438  49.764  1.00  0.00     0.053 C 
BRANCH   5   6
ATOM      6  C   UNL     1       7.804   7.332  48.592  1.00  0.00     0.041 C 
ATOM      7  O   UNL     1       8.921   7.315  48.012  1.00  0.00    -0.550 OA
ATOM      8  O   UNL     1       6.790   8.148  48.109  1.00  0.00    -0.550 OA
ENDBRANCH   5   6
ENDBRANCH   4   5
ENDBRANCH   3   4
ENDBRANCH   2   3
ENDBRANCH   1   2
BRANCH   1   9
ATOM      9  C   UNL     1       6.655   1.059  48.577  1.00  0.00     0.000 C 
BRANCH   9  10
ATOM     10  C   UNL     1       5.587   1.124  49.683  1.00  0.00    -0.000 C 
BRANCH  10  11
ATOM     11  C   UNL     1       6.195   1.199  51.092  1.00  0.00    -0.000 C 
BRANCH  11  12
ATOM     12  C   UNL     1       7.375   2.181  51.175  1.00  0.00    -0.000 C 
BRANCH  12  13
ATOM     13  C   UNL     1       7.149   3.289  52.215  1.00  0.00    -0.003 C 
ATOM     14  C   UNL     1       5.678   3.447  52.603  1.00  0.00     0.004 C 
ENDBRANCH  12  13
ENDBRANCH  11  12
ENDBRANCH  10  11
ENDBRANCH   9  10
ENDBRANCH   1   9
TORSDOF 10
ENDMDL
MODEL 6
REMARK VINA RESULT:    -3.415      2.263      3.777
REMARK INTER + INTRA:          -6.760
REMARK INTER:                  -5.495
REMARK INTRA:                  -1.266
REMARK UNBOUND:                -1.349
REMARK SMILES CCCCCCCCCCCC(=O)[O-]
REMARK SMILES IDX 7 1 8 2 9 3 10 4 11 5 12 6 13 7 14 8 6 9 5 10 4 11 3 12 2 13
REMARK SMILES IDX 1 14
REMARK H PARENT
REMARK Flexibility Score: inf
ROOT
ATOM      1  C   UNL     1       6.081   0.226  49.137  1.00  0.00     0.000 C 
ENDROOT
BRANCH   1   2
ATOM      2  C   UNL     1       7.051   1.290  48.602  1.00  0.00     0.000 C 
BRANCH   2   3
ATOM      3  C   UNL     1       6.382   2.152  47.525  1.00  0.00     0.000 C 
BRANCH   3   4
ATOM      4  C   UNL     1       5.794   3.433  48.130  1.00  0.00     0.006 C 
BRANCH   4   5
ATOM      5  C   UNL     1       6.526   3.817  49.420  1.00  0.00     0.053 C 
BRANCH   5   6
ATOM      6  C   UNL     1       7.063   5.210  49.321  1.00  0.00     0.041 C 
ATOM      7  O   UNL     1       7.253   5.891  50.362  1.00  0.00    -0.550 OA
ATOM      8  O   UNL     1       7.399   5.738  48.082  1.00  0.00    -0.550 OA
ENDBRANCH   5   6
ENDBRANCH   4   5
ENDBRANCH   3   4
ENDBRANCH   2   3
ENDBRANCH   1   2
BRANCH   1   9
ATOM      9  C   UNL     1       6.017   0.202  50.672  1.00  0.00     0.000 C 
BRANCH   9  10
ATOM     10  C   UNL     1       4.652   0.662  51.214  1.00  0.00    -0.000 C 
BRANCH  10  11
ATOM     11  C   UNL     1       3.495   0.344  50.254  1.00  0.00    -0.000 C 
BRANCH  11  12
ATOM     12  C   UNL     1       2.472   1.488  50.162  1.00  0.00    -0.000 C 
BRANCH  12  13
ATOM     13  C   UNL     1       3.088   2.857  50.489  1.00  0.00    -0.003 C 
ATOM     14  C   UNL     1       2.264   3.653  51.502  1.00  0.00     0.004 C 
ENDBRANCH  12  13
ENDBRANCH  11  12
ENDBRANCH  10  11
ENDBRANCH   9  10
ENDBRANCH   1   9
TORSDOF 10
ENDMDL
MODEL 7
REMARK VINA RESULT:    -3.413      2.999      4.308
REMARK INTER + INTRA:          -6.758
REMARK INTER:                  -5.231
REMARK INTRA:                  -1.527
REMARK UNBOUND:                -1.349
REMARK SMILES CCCCCCCCCCCC(=O)[O-]
REMARK SMILES IDX 7 1 8 2 9 3 10 4 11 5 12 6 13 7 14 8 6 9 5 10 4 11 3 12 2 13
REMARK SMILES IDX 1 14
REMARK H PARENT
REMARK Flexibility Score: inf
ROOT
ATOM      1  C   UNL     1       6.367   2.133  47.593  1.00  0.00     0.000 C 
ENDROOT
BRANCH   1   2
ATOM      2  C   UNL     1       5.731   3.393  48.197  1.00  0.00     0.000 C 
BRANCH   2   3
ATOM      3  C   UNL     1       6.766   4.515  48.342  1.00  0.00     0.000 C 
BRANCH   3   4
ATOM      4  C   UNL     1       6.812   5.040  49.783  1.00  0.00     0.006 C 
BRANCH   4   5
ATOM      5  C   UNL     1       5.996   4.145  50.720  1.00  0.00     0.053 C 
BRANCH   5   6
ATOM      6  C   UNL     1       6.854   3.632  51.833  1.00  0.00     0.041 C 
ATOM      7  O   UNL     1       6.334   3.279  52.924  1.00  0.00    -0.550 OA
ATOM      8  O   UNL     1       8.224   3.499  51.649  1.00  0.00    -0.550 OA
ENDBRANCH   5   6
ENDBRANCH   4   5
ENDBRANCH   3   4
ENDBRANCH   2   3
ENDBRANCH   1   2
BRANCH   1   9
ATOM      9  C   UNL     1       6.980   1.211  48.658  1.00  0.00     0.000 C 
BRANCH   9  10
ATOM     10  C   UNL     1       5.966   0.200  49.222  1.00  0.00    -0.000 C 
BRANCH  10  11
ATOM     11  C   UNL     1       5.920   0.198  50.758  1.00  0.00    -0.000 C 
BRANCH  11  12
ATOM     12  C   UNL     1       4.562   0.664  51.309  1.00  0.00    -0.000 C 
BRANCH  12  13
ATOM     13  C   UNL     1       3.486   0.762  50.218  1.00  0.00    -0.003 C 
ATOM     14  C   UNL     1       2.845   2.148  50.138  1.00  0.00     0.004 C 
ENDBRANCH  12  13
ENDBRANCH  11  12
ENDBRANCH  10  11
ENDBRANCH   9  10
ENDBRANCH   1   9
TORSDOF 10
ENDMDL
MODEL 8
REMARK VINA RESULT:    -3.404      4.808      6.450
REMARK INTER + INTRA:          -6.743
REMARK INTER:                  -5.231
REMARK INTRA:                  -1.512
REMARK UNBOUND:                -1.349
REMARK SMILES CCCCCCCCCCCC(=O)[O-]
REMARK SMILES IDX 7 1 8 2 9 3 10 4 11 5 12 6 13 7 14 8 6 9 5 10 4 11 3 12 2 13
REMARK SMILES IDX 1 14
REMARK H PARENT
REMARK Flexibility Score: inf
ROOT
ATOM      1  C   UNL     1       4.342   4.108  50.019  1.00  0.00     0.000 C 
ENDROOT
BRANCH   1   2
ATOM      2  C   UNL     1       4.055   3.645  51.455  1.00  0.00     0.000 C 
BRANCH   2   3
ATOM      3  C   UNL     1       3.527   2.206  51.474  1.00  0.00     0.000 C 
BRANCH   3   4
ATOM      4  C   UNL     1       2.996   1.796  50.095  1.00  0.00     0.006 C 
BRANCH   4   5
ATOM      5  C   UNL     1       2.706   0.293  50.043  1.00  0.00     0.053 C 
BRANCH   5   6
ATOM      6  C   UNL     1       1.231   0.044  50.030  1.00  0.00     0.041 C 
ATOM      7  O   UNL     1       0.672  -0.400  48.993  1.00  0.00    -0.550 OA
ATOM      8  O   UNL     1       0.480   0.258  51.179  1.00  0.00    -0.550 OA
ENDBRANCH   5   6
ENDBRANCH   4   5
ENDBRANCH   3   4
ENDBRANCH   2   3
ENDBRANCH   1   2
BRANCH   1   9
ATOM      9  C   UNL     1       5.757   4.682  49.854  1.00  0.00     0.000 C 
BRANCH   9  10
ATOM     10  C   UNL     1       6.411   4.271  48.522  1.00  0.00    -0.000 C 
BRANCH  10  11
ATOM     11  C   UNL     1       5.732   3.051  47.880  1.00  0.00    -0.000 C 
BRANCH  11  12
ATOM     12  C   UNL     1       6.664   1.831  47.800  1.00  0.00    -0.000 C 
BRANCH  12  13
ATOM     13  C   UNL     1       6.305   0.747  48.827  1.00  0.00    -0.003 C 
ATOM     14  C   UNL     1       6.825   1.062  50.230  1.00  0.00     0.004 C 
ENDBRANCH  12  13
ENDBRANCH  11  12
ENDBRANCH  10  11
ENDBRANCH   9  10
ENDBRANCH   1   9
TORSDOF 10
ENDMDL
MODEL 9
REMARK VINA RESULT:    -3.363      4.754      6.319
REMARK INTER + INTRA:          -6.678
REMARK INTER:                  -5.125
REMARK INTRA:                  -1.553
REMARK UNBOUND:                -1.349
REMARK SMILES CCCCCCCCCCCC(=O)[O-]
REMARK SMILES IDX 7 1 8 2 9 3 10 4 11 5 12 6 13 7 14 8 6 9 5 10 4 11 3 12 2 13
REMARK SMILES IDX 1 14
REMARK H PARENT
REMARK Flexibility Score: inf
ROOT
ATOM      1  C   UNL     1       5.985   3.300  48.408  1.00  0.00     0.000 C 
ENDROOT
BRANCH   1   2
ATOM      2  C   UNL     1       4.472   3.239  48.664  1.00  0.00     0.000 C 
BRANCH   2   3
ATOM      3  C   UNL     1       4.148   3.576  50.124  1.00  0.00     0.000 C 
BRANCH   3   4
ATOM      4  C   UNL     1       2.964   2.742  50.632  1.00  0.00     0.006 C 
BRANCH   4   5
ATOM      5  C   UNL     1       2.891   1.394  49.909  1.00  0.00     0.053 C 
BRANCH   5   6
ATOM      6  C   UNL     1       1.563   0.747  50.141  1.00  0.00     0.041 C 
ATOM      7  O   UNL     1       1.099  -0.067  49.300  1.00  0.00    -0.550 OA
ATOM      8  O   UNL     1       0.858   1.007  51.309  1.00  0.00    -0.550 OA
ENDBRANCH   5   6
ENDBRANCH   4   5
ENDBRANCH   3   4
ENDBRANCH   2   3
ENDBRANCH   1   2
BRANCH   1   9
ATOM      9  C   UNL     1       6.514   2.051  47.688  1.00  0.00     0.000 C 
BRANCH   9  10
ATOM     10  C   UNL     1       6.504   0.801  48.587  1.00  0.00    -0.000 C 
BRANCH  10  11
ATOM     11  C   UNL     1       7.062   1.077  49.992  1.00  0.00    -0.000 C 
BRANCH  11  12
ATOM     12  C   UNL     1       6.245   0.389  51.098  1.00  0.00    -0.000 C 
BRANCH  12  13
ATOM     13  C   UNL     1       6.204   1.209  52.397  1.00  0.00    -0.003 C 
ATOM     14  C   UNL     1       6.965   2.530  52.289  1.00  0.00     0.004 C 
ENDBRANCH  12  13
ENDBRANCH  11  12
ENDBRANCH  10  11
ENDBRANCH   9  10
ENDBRANCH   1   9
TORSDOF 10
ENDMDL
