MODEL 1
REMARK VINA RESULT:    -3.263      0.000      0.000
REMARK INTER + INTRA:          -5.055
REMARK INTER:                  -4.980
REMARK INTRA:                  -0.075
REMARK UNBOUND:                -0.075
REMARK SMILES CC1=CCC[C@@H](C)C(=O)C[C@H](C(C)C)C(=O)C1
REMARK SMILES IDX 8 1 9 2 6 3 7 4 5 5 4 6 3 7 2 8 1 9 10 11 11 12 15 13 16 14
REMARK SMILES IDX 17 15 12 17 13 18 14 19
REMARK H PARENT
REMARK Flexibility Score: 70.00
ROOT
ATOM      1  C   UNL     1      -6.492  68.507  24.534  1.00  0.00     0.136 C 
ATOM      2  O   UNL     1      -7.702  68.462  24.712  1.00  0.00    -0.299 OA
ENDROOT
BRANCH   1   3
ATOM      3  C   UNL     1      -5.685  67.220  24.417  1.00  0.00     0.053 C 
ATOM      4  C   UNL     1      -6.563  65.968  24.569  1.00  0.00     0.016 C 
BRANCH   3   5
ATOM      5  C   UNL     1      -4.494  67.190  25.399  1.00  0.00     0.015 C 
BRANCH   5   6
ATOM      6  C   UNL     1      -4.922  67.283  26.877  1.00  0.00     0.028 C 
BRANCH   6   7
ATOM      7  C   UNL     1      -3.834  67.812  27.777  1.00  0.00    -0.028 C 
ATOM      8  C   UNL     1      -3.787  69.050  28.332  1.00  0.00    -0.070 CG0
ATOM      9  C   UNL     1      -2.668  69.325  29.307  1.00  0.00     0.039 C 
ATOM     10  G   UNL     1      -4.736  70.193  27.979  1.00  0.00     0.000 G0
ENDBRANCH   6   7
ENDBRANCH   5   6
ENDBRANCH   3   5
ENDBRANCH   1   3
BRANCH   1  11
ATOM     11  C   UNL     1      -5.821  69.855  24.414  1.00  0.00     0.087 C 
BRANCH  11  12
ATOM     12  C   UNL     1      -5.955  70.719  25.699  1.00  0.00     0.066 C 
BRANCH  12  13
ATOM     13  C   UNL     1      -4.685  70.671  26.542  1.00  0.00     0.140 C 
ATOM     14  O   UNL     1      -3.607  70.873  26.001  1.00  0.00    -0.299 OA
BRANCH  13  15
ATOM     15  C   UNL     1      -4.718  70.228  27.987  1.00  0.00     0.106 CG0
ATOM     16  G   UNL     1      -3.802  69.054  28.321  1.00  0.00     0.000 G0
ENDBRANCH  13  15
ENDBRANCH  12  13
BRANCH  12  17
ATOM     17  C   UNL     1      -6.352  72.199  25.387  1.00  0.00    -0.006 C 
ATOM     18  C   UNL     1      -5.861  72.661  24.002  1.00  0.00     0.008 C 
ATOM     19  C   UNL     1      -7.878  72.394  25.460  1.00  0.00     0.008 C 
ENDBRANCH  12  17
ENDBRANCH  11  12
ENDBRANCH   1  11
TORSDOF 1
ENDMDL
MODEL 2
REMARK VINA RESULT:    -3.180      7.561      9.194
REMARK INTER + INTRA:          -4.928
REMARK INTER:                  -5.027
REMARK INTRA:                   0.098
REMARK UNBOUND:                -0.075
REMARK SMILES CC1=CCC[C@@H](C)C(=O)C[C@H](C(C)C)C(=O)C1
REMARK SMILES IDX 8 1 9 2 6 3 7 4 5 5 4 6 3 7 2 8 1 9 10 11 11 12 15 13 16 14
REMARK SMILES IDX 17 15 12 17 13 18 14 19
REMARK H PARENT
REMARK Flexibility Score: 70.00
ROOT
ATOM      1  C   UNL     1     -11.985  72.560  30.085  1.00  0.00     0.136 C 
ATOM      2  O   UNL     1     -11.918  71.445  29.588  1.00  0.00    -0.299 OA
ENDROOT
BRANCH   1   3
ATOM      3  C   UNL     1     -12.041  73.795  29.195  1.00  0.00     0.053 C 
ATOM      4  C   UNL     1     -13.342  73.866  28.379  1.00  0.00     0.016 C 
BRANCH   3   5
ATOM      5  C   UNL     1     -10.802  73.908  28.281  1.00  0.00     0.015 C 
BRANCH   5   6
ATOM      6  C   UNL     1      -9.718  74.852  28.839  1.00  0.00     0.028 C 
BRANCH   6   7
ATOM      7  C   UNL     1     -10.146  75.570  30.093  1.00  0.00    -0.028 C 
ATOM      8  C   UNL     1      -9.708  75.313  31.352  1.00  0.00    -0.070 CG0
ATOM      9  C   UNL     1     -10.173  76.243  32.446  1.00  0.00     0.039 C 
ATOM     10  G   UNL     1      -8.845  74.115  31.740  1.00  0.00     0.000 G0
ENDBRANCH   6   7
ENDBRANCH   5   6
ENDBRANCH   3   5
ENDBRANCH   1   3
BRANCH   1  11
ATOM     11  C   UNL     1     -12.032  72.687  31.589  1.00  0.00     0.087 C 
BRANCH  11  12
ATOM     12  C   UNL     1     -10.698  72.286  32.277  1.00  0.00     0.066 C 
BRANCH  12  13
ATOM     13  C   UNL     1      -9.490  72.766  31.479  1.00  0.00     0.140 C 
ATOM     14  O   UNL     1      -8.947  71.991  30.702  1.00  0.00    -0.299 OA
BRANCH  13  15
ATOM     15  C   UNL     1      -8.858  74.113  31.743  1.00  0.00     0.106 CG0
ATOM     16  G   UNL     1      -9.719  75.314  31.360  1.00  0.00     0.000 G0
ENDBRANCH  13  15
ENDBRANCH  12  13
BRANCH  12  17
ATOM     17  C   UNL     1     -10.611  72.786  33.756  1.00  0.00    -0.006 C 
ATOM     18  C   UNL     1     -11.953  73.345  34.268  1.00  0.00     0.008 C 
ATOM     19  C   UNL     1     -10.154  71.658  34.700  1.00  0.00     0.008 C 
ENDBRANCH  12  17
ENDBRANCH  11  12
ENDBRANCH   1  11
TORSDOF 1
ENDMDL
MODEL 3
REMARK VINA RESULT:    -3.150      2.144      4.232
REMARK INTER + INTRA:          -4.882
REMARK INTER:                  -4.788
REMARK INTRA:                  -0.094
REMARK UNBOUND:                -0.075
REMARK SMILES CC1=CCC[C@@H](C)C(=O)C[C@H](C(C)C)C(=O)C1
REMARK SMILES IDX 8 1 9 2 6 3 7 4 5 5 4 6 3 7 2 8 1 9 10 11 11 12 15 13 16 14
REMARK SMILES IDX 17 15 12 17 13 18 14 19
REMARK H PARENT
REMARK Flexibility Score: 70.00
ROOT
ATOM      1  C   UNL     1      -4.664  69.439  26.642  1.00  0.00     0.136 C 
ATOM      2  O   UNL     1      -3.591  70.019  26.541  1.00  0.00    -0.299 OA
ENDROOT
BRANCH   1   3
ATOM      3  C   UNL     1      -4.760  68.130  27.413  1.00  0.00     0.053 C 
ATOM      4  C   UNL     1      -3.632  67.980  28.447  1.00  0.00     0.016 C 
BRANCH   3   5
ATOM      5  C   UNL     1      -4.823  66.906  26.474  1.00  0.00     0.015 C 
BRANCH   5   6
ATOM      6  C   UNL     1      -6.260  66.409  26.218  1.00  0.00     0.028 C 
BRANCH   6   7
ATOM      7  C   UNL     1      -6.509  66.031  24.780  1.00  0.00    -0.028 C 
ATOM      8  C   UNL     1      -6.832  66.883  23.773  1.00  0.00    -0.070 CG0
ATOM      9  C   UNL     1      -6.909  66.305  22.381  1.00  0.00     0.039 C 
ATOM     10  G   UNL     1      -7.191  68.354  23.967  1.00  0.00     0.000 G0
ENDBRANCH   6   7
ENDBRANCH   5   6
ENDBRANCH   3   5
ENDBRANCH   1   3
BRANCH   1  11
ATOM     11  C   UNL     1      -5.888  70.056  26.007  1.00  0.00     0.087 C 
BRANCH  11  12
ATOM     12  C   UNL     1      -5.666  70.463  24.525  1.00  0.00     0.066 C 
BRANCH  12  13
ATOM     13  C   UNL     1      -6.128  69.369  23.567  1.00  0.00     0.140 C 
ATOM     14  O   UNL     1      -5.729  69.386  22.411  1.00  0.00    -0.299 OA
BRANCH  13  15
ATOM     15  C   UNL     1      -7.184  68.366  23.972  1.00  0.00     0.106 CG0
ATOM     16  G   UNL     1      -6.803  66.905  23.748  1.00  0.00     0.000 G0
ENDBRANCH  13  15
ENDBRANCH  12  13
BRANCH  12  17
ATOM     17  C   UNL     1      -6.346  71.826  24.169  1.00  0.00    -0.006 C 
ATOM     18  C   UNL     1      -7.129  72.420  25.355  1.00  0.00     0.008 C 
ATOM     19  C   UNL     1      -5.306  72.860  23.697  1.00  0.00     0.008 C 
ENDBRANCH  12  17
ENDBRANCH  11  12
ENDBRANCH   1  11
TORSDOF 1
ENDMDL
MODEL 4
REMARK VINA RESULT:    -3.117      7.528      9.441
REMARK INTER + INTRA:          -4.831
REMARK INTER:                  -4.715
REMARK INTRA:                  -0.116
REMARK UNBOUND:                -0.075
REMARK SMILES CC1=CCC[C@@H](C)C(=O)C[C@H](C(C)C)C(=O)C1
REMARK SMILES IDX 8 1 9 2 6 3 7 4 5 5 4 6 3 7 2 8 1 9 10 11 11 12 15 13 16 14
REMARK SMILES IDX 17 15 12 17 13 18 14 19
REMARK H PARENT
REMARK Flexibility Score: 70.00
ROOT
ATOM      1  C   UNL     1      -6.151  67.170  33.538  1.00  0.00     0.136 C 
ATOM      2  O   UNL     1      -6.775  66.120  33.616  1.00  0.00    -0.299 OA
ENDROOT
BRANCH   1   3
ATOM      3  C   UNL     1      -5.011  67.313  32.539  1.00  0.00     0.053 C 
ATOM      4  C   UNL     1      -4.962  66.145  31.541  1.00  0.00     0.016 C 
BRANCH   3   5
ATOM      5  C   UNL     1      -3.648  67.508  33.238  1.00  0.00     0.015 C 
BRANCH   5   6
ATOM      6  C   UNL     1      -3.266  68.989  33.426  1.00  0.00     0.028 C 
BRANCH   6   7
ATOM      7  C   UNL     1      -2.554  69.257  34.728  1.00  0.00    -0.028 C 
ATOM      8  C   UNL     1      -3.143  69.489  35.929  1.00  0.00    -0.070 CG0
ATOM      9  C   UNL     1      -2.235  69.605  37.129  1.00  0.00     0.039 C 
ATOM     10  G   UNL     1      -4.640  69.712  36.129  1.00  0.00     0.000 G0
ENDBRANCH   6   7
ENDBRANCH   5   6
ENDBRANCH   3   5
ENDBRANCH   1   3
BRANCH   1  11
ATOM     11  C   UNL     1      -6.545  68.320  34.434  1.00  0.00     0.087 C 
BRANCH  11  12
ATOM     12  C   UNL     1      -6.573  67.939  35.940  1.00  0.00     0.066 C 
BRANCH  12  13
ATOM     13  C   UNL     1      -5.401  68.554  36.696  1.00  0.00     0.140 C 
ATOM     14  O   UNL     1      -5.162  68.171  37.834  1.00  0.00    -0.299 OA
BRANCH  13  15
ATOM     15  C   UNL     1      -4.632  69.728  36.134  1.00  0.00     0.106 CG0
ATOM     16  G   UNL     1      -3.140  69.481  35.928  1.00  0.00     0.000 G0
ENDBRANCH  13  15
ENDBRANCH  12  13
BRANCH  12  17
ATOM     17  C   UNL     1      -7.926  68.312  36.628  1.00  0.00    -0.006 C 
ATOM     18  C   UNL     1      -8.648  69.472  35.916  1.00  0.00     0.008 C 
ATOM     19  C   UNL     1      -8.876  67.101  36.684  1.00  0.00     0.008 C 
ENDBRANCH  12  17
ENDBRANCH  11  12
ENDBRANCH   1  11
TORSDOF 1
ENDMDL
MODEL 5
REMARK VINA RESULT:    -3.070      1.706      4.132
REMARK INTER + INTRA:          -4.759
REMARK INTER:                  -4.610
REMARK INTRA:                  -0.149
REMARK UNBOUND:                -0.075
REMARK SMILES CC1=CCC[C@@H](C)C(=O)C[C@H](C(C)C)C(=O)C1
REMARK SMILES IDX 8 1 9 2 6 3 7 4 5 5 4 6 3 7 2 8 1 9 10 11 11 12 15 13 16 14
REMARK SMILES IDX 17 15 12 17 13 18 14 19
REMARK H PARENT
REMARK Flexibility Score: 70.00
ROOT
ATOM      1  C   UNL     1      -6.252  69.367  24.899  1.00  0.00     0.136 C 
ATOM      2  O   UNL     1      -6.390  69.556  23.698  1.00  0.00    -0.299 OA
ENDROOT
BRANCH   1   3
ATOM      3  C   UNL     1      -5.937  70.531  25.829  1.00  0.00     0.053 C 
ATOM      4  C   UNL     1      -5.943  71.880  25.093  1.00  0.00     0.016 C 
BRANCH   3   5
ATOM      5  C   UNL     1      -4.615  70.318  26.597  1.00  0.00     0.015 C 
BRANCH   5   6
ATOM      6  C   UNL     1      -4.825  69.920  28.072  1.00  0.00     0.028 C 
BRANCH   6   7
ATOM      7  C   UNL     1      -3.791  68.944  28.575  1.00  0.00    -0.028 C 
ATOM      8  C   UNL     1      -3.736  67.619  28.287  1.00  0.00    -0.070 CG0
ATOM      9  C   UNL     1      -2.538  66.854  28.795  1.00  0.00     0.039 C 
ATOM     10  G   UNL     1      -4.831  66.845  27.556  1.00  0.00     0.000 G0
ENDBRANCH   6   7
ENDBRANCH   5   6
ENDBRANCH   3   5
ENDBRANCH   1   3
BRANCH   1  11
ATOM     11  C   UNL     1      -6.419  67.966  25.440  1.00  0.00     0.087 C 
BRANCH  11  12
ATOM     12  C   UNL     1      -5.304  66.993  24.967  1.00  0.00     0.066 C 
BRANCH  12  13
ATOM     13  C   UNL     1      -4.516  66.428  26.144  1.00  0.00     0.140 C 
ATOM     14  O   UNL     1      -3.696  65.543  25.939  1.00  0.00    -0.299 OA
BRANCH  13  15
ATOM     15  C   UNL     1      -4.837  66.824  27.567  1.00  0.00     0.106 CG0
ATOM     16  G   UNL     1      -3.748  67.627  28.274  1.00  0.00     0.000 G0
ENDBRANCH  13  15
ENDBRANCH  12  13
BRANCH  12  17
ATOM     17  C   UNL     1      -5.858  65.837  24.072  1.00  0.00    -0.006 C 
ATOM     18  C   UNL     1      -7.291  66.110  23.577  1.00  0.00     0.008 C 
ATOM     19  C   UNL     1      -4.952  65.594  22.851  1.00  0.00     0.008 C 
ENDBRANCH  12  17
ENDBRANCH  11  12
ENDBRANCH   1  11
TORSDOF 1
ENDMDL
MODEL 6
REMARK VINA RESULT:    -3.026      2.096      4.824
REMARK INTER + INTRA:          -4.692
REMARK INTER:                  -4.347
REMARK INTRA:                  -0.345
REMARK UNBOUND:                -0.075
REMARK SMILES CC1=CCC[C@@H](C)C(=O)C[C@H](C(C)C)C(=O)C1
REMARK SMILES IDX 8 1 9 2 6 3 7 4 5 5 4 6 3 7 2 8 1 9 10 11 11 12 15 13 16 14
REMARK SMILES IDX 17 15 12 17 13 18 14 19
REMARK H PARENT
REMARK Flexibility Score: 70.00
ROOT
ATOM      1  C   UNL     1      -3.933  70.963  25.443  1.00  0.00     0.136 C 
ATOM      2  O   UNL     1      -3.057  71.764  25.742  1.00  0.00    -0.299 OA
ENDROOT
BRANCH   1   3
ATOM      3  C   UNL     1      -5.231  71.446  24.809  1.00  0.00     0.053 C 
ATOM      4  C   UNL     1      -6.394  71.469  25.814  1.00  0.00     0.016 C 
BRANCH   3   5
ATOM      5  C   UNL     1      -5.598  70.634  23.548  1.00  0.00     0.015 C 
BRANCH   5   6
ATOM      6  C   UNL     1      -6.784  69.673  23.767  1.00  0.00     0.028 C 
BRANCH   6   7
ATOM      7  C   UNL     1      -6.478  68.253  23.366  1.00  0.00    -0.028 C 
ATOM      8  C   UNL     1      -6.406  67.184  24.199  1.00  0.00    -0.070 CG0
ATOM      9  C   UNL     1      -6.213  65.828  23.565  1.00  0.00     0.039 C 
ATOM     10  G   UNL     1      -6.432  67.272  25.723  1.00  0.00     0.000 G0
ENDBRANCH   6   7
ENDBRANCH   5   6
ENDBRANCH   3   5
ENDBRANCH   1   3
BRANCH   1  11
ATOM     11  C   UNL     1      -3.694  69.493  25.694  1.00  0.00     0.087 C 
BRANCH  11  12
ATOM     12  C   UNL     1      -4.628  68.902  26.786  1.00  0.00     0.066 C 
BRANCH  12  13
ATOM     13  C   UNL     1      -5.102  67.499  26.419  1.00  0.00     0.140 C 
ATOM     14  O   UNL     1      -4.333  66.558  26.559  1.00  0.00    -0.299 OA
BRANCH  13  15
ATOM     15  C   UNL     1      -6.435  67.272  25.744  1.00  0.00     0.106 CG0
ATOM     16  G   UNL     1      -6.379  67.190  24.220  1.00  0.00     0.000 G0
ENDBRANCH  13  15
ENDBRANCH  12  13
BRANCH  12  17
ATOM     17  C   UNL     1      -3.970  68.905  28.204  1.00  0.00    -0.006 C 
ATOM     18  C   UNL     1      -2.448  69.131  28.147  1.00  0.00     0.008 C 
ATOM     19  C   UNL     1      -4.595  69.986  29.106  1.00  0.00     0.008 C 
ENDBRANCH  12  17
ENDBRANCH  11  12
ENDBRANCH   1  11
TORSDOF 1
ENDMDL
MODEL 7
REMARK VINA RESULT:    -3.025      2.297      5.031
REMARK INTER + INTRA:          -4.692
REMARK INTER:                  -4.848
REMARK INTRA:                   0.156
REMARK UNBOUND:                -0.075
REMARK SMILES CC1=CCC[C@@H](C)C(=O)C[C@H](C(C)C)C(=O)C1
REMARK SMILES IDX 8 1 9 2 6 3 7 4 5 5 4 6 3 7 2 8 1 9 10 11 11 12 15 13 16 14
REMARK SMILES IDX 17 15 12 17 13 18 14 19
REMARK H PARENT
REMARK Flexibility Score: 70.00
ROOT
ATOM      1  C   UNL     1      -6.890  71.336  25.144  1.00  0.00     0.136 C 
ATOM      2  O   UNL     1      -7.485  70.339  24.758  1.00  0.00    -0.299 OA
ENDROOT
BRANCH   1   3
ATOM      3  C   UNL     1      -7.158  72.689  24.497  1.00  0.00     0.053 C 
ATOM      4  C   UNL     1      -8.659  72.944  24.285  1.00  0.00     0.016 C 
BRANCH   3   5
ATOM      5  C   UNL     1      -6.369  72.870  23.182  1.00  0.00     0.015 C 
BRANCH   5   6
ATOM      6  C   UNL     1      -4.842  72.917  23.390  1.00  0.00     0.028 C 
BRANCH   6   7
ATOM      7  C   UNL     1      -4.097  71.922  22.537  1.00  0.00    -0.028 C 
ATOM      8  C   UNL     1      -3.552  70.754  22.962  1.00  0.00    -0.070 CG0
ATOM      9  C   UNL     1      -2.962  69.846  21.910  1.00  0.00     0.039 C 
ATOM     10  G   UNL     1      -3.429  70.339  24.426  1.00  0.00     0.000 G0
ENDBRANCH   6   7
ENDBRANCH   5   6
ENDBRANCH   3   5
ENDBRANCH   1   3
BRANCH   1  11
ATOM     11  C   UNL     1      -5.905  71.204  26.281  1.00  0.00     0.087 C 
BRANCH  11  12
ATOM     12  C   UNL     1      -5.197  69.821  26.316  1.00  0.00     0.066 C 
BRANCH  12  13
ATOM     13  C   UNL     1      -4.540  69.493  24.979  1.00  0.00     0.140 C 
ATOM     14  O   UNL     1      -4.852  68.460  24.403  1.00  0.00    -0.299 OA
BRANCH  13  15
ATOM     15  C   UNL     1      -3.407  70.332  24.434  1.00  0.00     0.106 CG0
ATOM     16  G   UNL     1      -3.563  70.754  22.975  1.00  0.00     0.000 G0
ENDBRANCH  13  15
ENDBRANCH  12  13
BRANCH  12  17
ATOM     17  C   UNL     1      -4.158  69.709  27.479  1.00  0.00    -0.006 C 
ATOM     18  C   UNL     1      -4.762  70.083  28.846  1.00  0.00     0.008 C 
ATOM     19  C   UNL     1      -3.575  68.286  27.571  1.00  0.00     0.008 C 
ENDBRANCH  12  17
ENDBRANCH  11  12
ENDBRANCH   1  11
TORSDOF 1
ENDMDL
MODEL 8
REMARK VINA RESULT:    -2.999      8.061     10.305
REMARK INTER + INTRA:          -4.652
REMARK INTER:                  -4.319
REMARK INTRA:                  -0.333
REMARK UNBOUND:                -0.075
REMARK SMILES CC1=CCC[C@@H](C)C(=O)C[C@H](C(C)C)C(=O)C1
REMARK SMILES IDX 8 1 9 2 6 3 7 4 5 5 4 6 3 7 2 8 1 9 10 11 11 12 15 13 16 14
REMARK SMILES IDX 17 15 12 17 13 18 14 19
REMARK H PARENT
REMARK Flexibility Score: 70.00
ROOT
ATOM      1  C   UNL     1      -6.878  66.874  35.701  1.00  0.00     0.136 C 
ATOM      2  O   UNL     1      -7.474  66.196  34.875  1.00  0.00    -0.299 OA
ENDROOT
BRANCH   1   3
ATOM      3  C   UNL     1      -7.649  67.628  36.777  1.00  0.00     0.053 C 
ATOM      4  C   UNL     1      -8.508  68.760  36.190  1.00  0.00     0.016 C 
BRANCH   3   5
ATOM      5  C   UNL     1      -6.723  68.151  37.896  1.00  0.00     0.015 C 
BRANCH   5   6
ATOM      6  C   UNL     1      -6.316  69.627  37.708  1.00  0.00     0.028 C 
BRANCH   6   7
ATOM      7  C   UNL     1      -4.932  69.930  38.224  1.00  0.00    -0.028 C 
ATOM      8  C   UNL     1      -3.851  70.255  37.470  1.00  0.00    -0.070 CG0
ATOM      9  C   UNL     1      -2.592  70.646  38.206  1.00  0.00     0.039 C 
ATOM     10  G   UNL     1      -3.804  70.177  35.946  1.00  0.00     0.000 G0
ENDBRANCH   6   7
ENDBRANCH   5   6
ENDBRANCH   3   5
ENDBRANCH   1   3
BRANCH   1  11
ATOM     11  C   UNL     1      -5.369  66.931  35.647  1.00  0.00     0.087 C 
BRANCH  11  12
ATOM     12  C   UNL     1      -4.835  68.060  34.723  1.00  0.00     0.066 C 
BRANCH  12  13
ATOM     13  C   UNL     1      -3.650  68.786  35.352  1.00  0.00     0.140 C 
ATOM     14  O   UNL     1      -2.596  68.183  35.500  1.00  0.00    -0.299 OA
BRANCH  13  15
ATOM     15  C   UNL     1      -3.798  70.173  35.934  1.00  0.00     0.106 CG0
ATOM     16  G   UNL     1      -3.848  70.230  37.458  1.00  0.00     0.000 G0
ENDBRANCH  13  15
ENDBRANCH  12  13
BRANCH  12  17
ATOM     17  C   UNL     1      -4.465  67.541  33.295  1.00  0.00    -0.006 C 
ATOM     18  C   UNL     1      -4.247  66.017  33.260  1.00  0.00     0.008 C 
ATOM     19  C   UNL     1      -5.555  67.907  32.269  1.00  0.00     0.008 C 
ENDBRANCH  12  17
ENDBRANCH  11  12
ENDBRANCH   1  11
TORSDOF 1
ENDMDL
MODEL 9
REMARK VINA RESULT:    -2.738      8.443     10.423
REMARK INTER + INTRA:          -4.253
REMARK INTER:                  -4.321
REMARK INTRA:                   0.068
REMARK UNBOUND:                -0.075
REMARK SMILES CC1=CCC[C@@H](C)C(=O)C[C@H](C(C)C)C(=O)C1
REMARK SMILES IDX 8 1 9 2 6 3 7 4 5 5 4 6 3 7 2 8 1 9 10 11 11 12 15 13 16 14
REMARK SMILES IDX 17 15 12 17 13 18 14 19
REMARK H PARENT
REMARK Flexibility Score: 70.00
ROOT
ATOM      1  C   UNL     1      -7.040  68.700  35.585  1.00  0.00     0.136 C 
ATOM      2  O   UNL     1      -6.061  69.320  35.976  1.00  0.00    -0.299 OA
ENDROOT
BRANCH   1   3
ATOM      3  C   UNL     1      -8.387  68.880  36.271  1.00  0.00     0.053 C 
ATOM      4  C   UNL     1      -8.800  70.358  36.363  1.00  0.00     0.016 C 
BRANCH   3   5
ATOM      5  C   UNL     1      -8.428  68.202  37.658  1.00  0.00     0.015 C 
BRANCH   5   6
ATOM      6  C   UNL     1      -8.250  66.672  37.592  1.00  0.00     0.028 C 
BRANCH   6   7
ATOM      7  C   UNL     1      -6.896  66.212  38.071  1.00  0.00    -0.028 C 
ATOM      8  C   UNL     1      -5.894  65.729  37.292  1.00  0.00    -0.070 CG0
ATOM      9  C   UNL     1      -4.574  65.448  37.967  1.00  0.00     0.039 C 
ATOM     10  G   UNL     1      -6.038  65.385  35.812  1.00  0.00     0.000 G0
ENDBRANCH   6   7
ENDBRANCH   5   6
ENDBRANCH   3   5
ENDBRANCH   1   3
BRANCH   1  11
ATOM     11  C   UNL     1      -6.892  67.773  34.401  1.00  0.00     0.087 C 
BRANCH  11  12
ATOM     12  C   UNL     1      -5.419  67.360  34.131  1.00  0.00     0.066 C 
BRANCH  12  13
ATOM     13  C   UNL     1      -5.041  66.096  34.896  1.00  0.00     0.140 C 
ATOM     14  O   UNL     1      -3.959  65.569  34.673  1.00  0.00    -0.299 OA
BRANCH  13  15
ATOM     15  C   UNL     1      -6.032  65.399  35.800  1.00  0.00     0.106 CG0
ATOM     16  G   UNL     1      -5.886  65.722  37.285  1.00  0.00     0.000 G0
ENDBRANCH  13  15
ENDBRANCH  12  13
BRANCH  12  17
ATOM     17  C   UNL     1      -5.114  67.191  32.607  1.00  0.00    -0.006 C 
ATOM     18  C   UNL     1      -6.107  67.964  31.718  1.00  0.00     0.008 C 
ATOM     19  C   UNL     1      -3.685  67.656  32.269  1.00  0.00     0.008 C 
ENDBRANCH  12  17
ENDBRANCH  11  12
ENDBRANCH   1  11
TORSDOF 1
ENDMDL
