MODEL 1
REMARK VINA RESULT:    -1.472      0.000      0.000
REMARK INTER + INTRA:          -1.472
REMARK INTER:                  -1.472
REMARK INTRA:                   0.000
REMARK UNBOUND:                 0.000
REMARK SMILES CC(=O)[O-]
REMARK SMILES IDX 1 1 2 2 3 3 4 4
REMARK H PARENT
REMARK Flexibility Score: inf
ROOT
ATOM      1  C   UNL     1     168.699 167.847 141.311  1.00  0.00     0.063 C 
ATOM      2  C   UNL     1     170.178 167.666 141.358  1.00  0.00     0.038 C 
ATOM      3  O   UNL     1     170.749 166.912 140.527  1.00  0.00    -0.550 OA
ATOM      4  O   UNL     1     170.936 168.371 142.284  1.00  0.00    -0.550 OA
ENDROOT
TORSDOF 0
ENDMDL
MODEL 2
REMARK VINA RESULT:    -1.471     18.206     18.326
REMARK INTER + INTRA:          -1.471
REMARK INTER:                  -1.471
REMARK INTRA:                   0.000
REMARK UNBOUND:                 0.000
REMARK SMILES CC(=O)[O-]
REMARK SMILES IDX 1 1 2 2 3 3 4 4
REMARK H PARENT
REMARK Flexibility Score: inf
ROOT
ATOM      1  C   UNL     1     172.381 154.233 151.501  1.00  0.00     0.063 C 
ATOM      2  C   UNL     1     172.774 152.812 151.720  1.00  0.00     0.038 C 
ATOM      3  O   UNL     1     172.838 152.017 150.745  1.00  0.00    -0.550 OA
ATOM      4  O   UNL     1     173.124 152.374 152.990  1.00  0.00    -0.550 OA
ENDROOT
TORSDOF 0
ENDMDL
MODEL 3
REMARK VINA RESULT:    -1.451     21.864     21.965
REMARK INTER + INTRA:          -1.451
REMARK INTER:                  -1.451
REMARK INTRA:                   0.000
REMARK UNBOUND:                 0.000
REMARK SMILES CC(=O)[O-]
REMARK SMILES IDX 1 1 2 2 3 3 4 4
REMARK H PARENT
REMARK Flexibility Score: inf
ROOT
ATOM      1  C   UNL     1     170.761 150.877 155.615  1.00  0.00     0.063 C 
ATOM      2  C   UNL     1     171.682 151.759 156.388  1.00  0.00     0.038 C 
ATOM      3  O   UNL     1     172.922 151.542 156.375  1.00  0.00    -0.550 OA
ATOM      4  O   UNL     1     171.180 152.854 157.079  1.00  0.00    -0.550 OA
ENDROOT
TORSDOF 0
ENDMDL
MODEL 4
REMARK VINA RESULT:    -1.438      8.554      8.754
REMARK INTER + INTRA:          -1.438
REMARK INTER:                  -1.438
REMARK INTRA:                   0.000
REMARK UNBOUND:                 0.000
REMARK SMILES CC(=O)[O-]
REMARK SMILES IDX 1 1 2 2 3 3 4 4
REMARK H PARENT
REMARK Flexibility Score: inf
ROOT
ATOM      1  C   UNL     1     171.755 159.225 144.965  1.00  0.00     0.063 C 
ATOM      2  C   UNL     1     171.848 160.517 145.702  1.00  0.00     0.038 C 
ATOM      3  O   UNL     1     171.168 160.698 146.746  1.00  0.00    -0.550 OA
ATOM      4  O   UNL     1     172.725 161.503 145.271  1.00  0.00    -0.550 OA
ENDROOT
TORSDOF 0
ENDMDL
MODEL 5
REMARK VINA RESULT:    -1.428      8.486      8.644
REMARK INTER + INTRA:          -1.428
REMARK INTER:                  -1.428
REMARK INTRA:                   0.000
REMARK UNBOUND:                 0.000
REMARK SMILES CC(=O)[O-]
REMARK SMILES IDX 1 1 2 2 3 3 4 4
REMARK H PARENT
REMARK Flexibility Score: inf
ROOT
ATOM      1  C   UNL     1     170.780 160.770 146.682  1.00  0.00     0.063 C 
ATOM      2  C   UNL     1     171.860 160.451 145.705  1.00  0.00     0.038 C 
ATOM      3  O   UNL     1     171.970 159.284 145.245  1.00  0.00    -0.550 OA
ATOM      4  O   UNL     1     172.711 161.452 145.257  1.00  0.00    -0.550 OA
ENDROOT
TORSDOF 0
ENDMDL
MODEL 6
REMARK VINA RESULT:    -1.398     15.834     16.203
REMARK INTER + INTRA:          -1.398
REMARK INTER:                  -1.398
REMARK INTRA:                   0.000
REMARK UNBOUND:                 0.000
REMARK SMILES CC(=O)[O-]
REMARK SMILES IDX 1 1 2 2 3 3 4 4
REMARK H PARENT
REMARK Flexibility Score: inf
ROOT
ATOM      1  C   UNL     1     155.484 169.631 138.041  1.00  0.00     0.063 C 
ATOM      2  C   UNL     1     154.365 170.159 138.873  1.00  0.00     0.038 C 
ATOM      3  O   UNL     1     153.180 170.091 138.453  1.00  0.00    -0.550 OA
ATOM      4  O   UNL     1     154.621 170.676 140.135  1.00  0.00    -0.550 OA
ENDROOT
TORSDOF 0
ENDMDL
MODEL 7
REMARK VINA RESULT:    -1.390      9.424      9.770
REMARK INTER + INTRA:          -1.390
REMARK INTER:                  -1.390
REMARK INTRA:                   0.000
REMARK UNBOUND:                 0.000
REMARK SMILES CC(=O)[O-]
REMARK SMILES IDX 1 1 2 2 3 3 4 4
REMARK H PARENT
REMARK Flexibility Score: inf
ROOT
ATOM      1  C   UNL     1     164.841 168.779 149.522  1.00  0.00     0.063 C 
ATOM      2  C   UNL     1     165.339 170.174 149.355  1.00  0.00     0.038 C 
ATOM      3  O   UNL     1     164.523 171.125 149.227  1.00  0.00    -0.550 OA
ATOM      4  O   UNL     1     166.702 170.436 149.395  1.00  0.00    -0.550 OA
ENDROOT
TORSDOF 0
ENDMDL
MODEL 8
REMARK VINA RESULT:    -1.386     15.688     15.767
REMARK INTER + INTRA:          -1.386
REMARK INTER:                  -1.386
REMARK INTRA:                   0.000
REMARK UNBOUND:                 0.000
REMARK SMILES CC(=O)[O-]
REMARK SMILES IDX 1 1 2 2 3 3 4 4
REMARK H PARENT
REMARK Flexibility Score: inf
ROOT
ATOM      1  C   UNL     1     171.179 157.185 152.054  1.00  0.00     0.063 C 
ATOM      2  C   UNL     1     171.668 155.847 151.616  1.00  0.00     0.038 C 
ATOM      3  O   UNL     1     171.001 155.171 150.790  1.00  0.00    -0.550 OA
ATOM      4  O   UNL     1     172.886 155.366 152.077  1.00  0.00    -0.550 OA
ENDROOT
TORSDOF 0
ENDMDL
MODEL 9
REMARK VINA RESULT:    -1.371     15.922     16.088
REMARK INTER + INTRA:          -1.371
REMARK INTER:                  -1.371
REMARK INTRA:                   0.000
REMARK UNBOUND:                 0.000
REMARK SMILES CC(=O)[O-]
REMARK SMILES IDX 1 1 2 2 3 3 4 4
REMARK H PARENT
REMARK Flexibility Score: inf
ROOT
ATOM      1  C   UNL     1     171.713 155.321 151.437  1.00  0.00     0.063 C 
ATOM      2  C   UNL     1     172.033 156.354 152.463  1.00  0.00     0.038 C 
ATOM      3  O   UNL     1     171.624 157.536 152.318  1.00  0.00    -0.550 OA
ATOM      4  O   UNL     1     172.736 156.004 153.608  1.00  0.00    -0.550 OA
ENDROOT
TORSDOF 0
ENDMDL
