MODEL 1
REMARK VINA RESULT:    -6.793      0.000      0.000
REMARK INTER + INTRA:         -11.360
REMARK INTER:                 -10.366
REMARK INTRA:                  -0.994
REMARK UNBOUND:                -0.994
REMARK SMILES CC(=O)CCC=C(C)CCC=C(C)CCC=C(C)C
REMARK SMILES IDX 10 1 11 2 12 3 13 4 14 5 15 6 16 7 18 8 17 9 19 10 9 11 7 12
REMARK SMILES IDX 6 13 8 14 5 15 4 16 2 17 3 18 1 19
REMARK H PARENT
REMARK Flexibility Score: inf
ROOT
ATOM      1  C   UNL     1      11.556  29.382  72.902  1.00  0.00     0.032 C 
ENDROOT
BRANCH   1   2
ATOM      2  C   UNL     1      11.173  30.257  74.067  1.00  0.00    -0.028 C 
ATOM      3  C   UNL     1      11.288  31.605  74.091  1.00  0.00    -0.077 C 
ATOM      4  C   UNL     1      10.923  32.331  75.362  1.00  0.00     0.039 C 
BRANCH   3   5
ATOM      5  C   UNL     1      11.731  32.417  72.885  1.00  0.00     0.034 C 
BRANCH   5   6
ATOM      6  C   UNL     1      10.738  33.544  72.564  1.00  0.00     0.032 C 
BRANCH   6   7
ATOM      7  C   UNL     1      11.340  34.908  72.813  1.00  0.00    -0.028 C 
ATOM      8  C   UNL     1       9.713  36.086  71.314  1.00  0.00     0.039 C 
ATOM      9  C   UNL     1      10.917  36.051  72.226  1.00  0.00    -0.080 C 
ATOM     10  C   UNL     1      11.657  37.329  72.528  1.00  0.00     0.039 C 
ENDBRANCH   6   7
ENDBRANCH   5   6
ENDBRANCH   3   5
ENDBRANCH   1   2
BRANCH   1  11
ATOM     11  C   UNL     1      12.042  28.013  73.389  1.00  0.00     0.034 C 
BRANCH  11  12
ATOM     12  C   UNL     1      10.868  27.144  73.784  1.00  0.00    -0.077 C 
ATOM     13  C   UNL     1       9.851  26.981  72.908  1.00  0.00    -0.028 C 
ATOM     14  C   UNL     1      10.869  26.482  75.142  1.00  0.00     0.039 C 
BRANCH  13  15
ATOM     15  C   UNL     1       8.667  26.070  73.133  1.00  0.00     0.035 C 
BRANCH  15  16
ATOM     16  C   UNL     1       8.730  24.837  72.223  1.00  0.00     0.079 C 
BRANCH  16  17
ATOM     17  C   UNL     1       9.399  23.675  72.913  1.00  0.00     0.130 C 
ATOM     18  O   UNL     1      10.612  23.548  72.839  1.00  0.00    -0.300 OA
ATOM     19  C   UNL     1       8.604  22.662  73.682  1.00  0.00     0.087 C 
ENDBRANCH  16  17
ENDBRANCH  15  16
ENDBRANCH  13  15
ENDBRANCH  11  12
ENDBRANCH   1  11
TORSDOF 9
ENDMDL
MODEL 2
REMARK VINA RESULT:    -6.788      2.330      4.581
REMARK INTER + INTRA:         -11.353
REMARK INTER:                 -10.278
REMARK INTRA:                  -1.075
REMARK UNBOUND:                -0.994
REMARK SMILES CC(=O)CCC=C(C)CCC=C(C)CCC=C(C)C
REMARK SMILES IDX 10 1 11 2 12 3 13 4 14 5 15 6 16 7 18 8 17 9 19 10 9 11 7 12
REMARK SMILES IDX 6 13 8 14 5 15 4 16 2 17 3 18 1 19
REMARK H PARENT
REMARK Flexibility Score: inf
ROOT
ATOM      1  C   UNL     1      11.528  33.905  73.163  1.00  0.00     0.032 C 
ENDROOT
BRANCH   1   2
ATOM      2  C   UNL     1      10.677  34.454  72.046  1.00  0.00    -0.028 C 
ATOM      3  C   UNL     1      10.238  35.732  71.967  1.00  0.00    -0.077 C 
ATOM      4  C   UNL     1       9.337  36.108  70.818  1.00  0.00     0.039 C 
BRANCH   3   5
ATOM      5  C   UNL     1      10.646  36.808  72.960  1.00  0.00     0.034 C 
BRANCH   5   6
ATOM      6  C   UNL     1      12.006  37.425  72.603  1.00  0.00     0.032 C 
BRANCH   6   7
ATOM      7  C   UNL     1      11.865  38.559  71.615  1.00  0.00    -0.028 C 
ATOM      8  C   UNL     1      12.724  40.285  73.216  1.00  0.00     0.039 C 
ATOM      9  C   UNL     1      12.143  39.855  71.890  1.00  0.00    -0.080 C 
ATOM     10  C   UNL     1      11.894  40.885  70.819  1.00  0.00     0.039 C 
ENDBRANCH   6   7
ENDBRANCH   5   6
ENDBRANCH   3   5
ENDBRANCH   1   2
BRANCH   1  11
ATOM     11  C   UNL     1      11.912  32.449  72.884  1.00  0.00     0.034 C 
BRANCH  11  12
ATOM     12  C   UNL     1      10.879  31.508  73.463  1.00  0.00    -0.077 C 
ATOM     13  C   UNL     1      10.264  30.626  72.643  1.00  0.00    -0.028 C 
ATOM     14  C   UNL     1      10.569  31.578  74.940  1.00  0.00     0.039 C 
BRANCH  13  15
ATOM     15  C   UNL     1       9.286  29.571  73.102  1.00  0.00     0.035 C 
BRANCH  15  16
ATOM     16  C   UNL     1       9.840  28.159  72.872  1.00  0.00     0.079 C 
BRANCH  16  17
ATOM     17  C   UNL     1      10.736  27.726  74.005  1.00  0.00     0.130 C 
ATOM     18  O   UNL     1      10.240  27.380  75.067  1.00  0.00    -0.300 OA
ATOM     19  C   UNL     1      12.230  27.720  73.861  1.00  0.00     0.087 C 
ENDBRANCH  16  17
ENDBRANCH  15  16
ENDBRANCH  13  15
ENDBRANCH  11  12
ENDBRANCH   1  11
TORSDOF 9
ENDMDL
MODEL 3
REMARK VINA RESULT:    -6.741      3.154      9.232
REMARK INTER + INTRA:         -11.281
REMARK INTER:                 -10.496
REMARK INTRA:                  -0.785
REMARK UNBOUND:                -0.994
REMARK SMILES CC(=O)CCC=C(C)CCC=C(C)CCC=C(C)C
REMARK SMILES IDX 10 1 11 2 12 3 13 4 14 5 15 6 16 7 18 8 17 9 19 10 9 11 7 12
REMARK SMILES IDX 6 13 8 14 5 15 4 16 2 17 3 18 1 19
REMARK H PARENT
REMARK Flexibility Score: inf
ROOT
ATOM      1  C   UNL     1      10.587  29.800  72.897  1.00  0.00     0.032 C 
ENDROOT
BRANCH   1   2
ATOM      2  C   UNL     1      11.824  28.970  73.127  1.00  0.00    -0.028 C 
ATOM      3  C   UNL     1      11.854  27.799  73.804  1.00  0.00    -0.077 C 
ATOM      4  C   UNL     1      13.187  27.123  74.005  1.00  0.00     0.039 C 
BRANCH   3   5
ATOM      5  C   UNL     1      10.601  27.121  74.334  1.00  0.00     0.034 C 
BRANCH   5   6
ATOM      6  C   UNL     1      10.025  26.121  73.319  1.00  0.00     0.032 C 
BRANCH   6   7
ATOM      7  C   UNL     1       9.732  24.783  73.956  1.00  0.00    -0.028 C 
ATOM      8  C   UNL     1       8.134  24.086  72.156  1.00  0.00     0.039 C 
ATOM      9  C   UNL     1       8.853  23.877  73.467  1.00  0.00    -0.080 C 
ATOM     10  C   UNL     1       8.621  22.609  74.248  1.00  0.00     0.039 C 
ENDBRANCH   6   7
ENDBRANCH   5   6
ENDBRANCH   3   5
ENDBRANCH   1   2
BRANCH   1  11
ATOM     11  C   UNL     1      10.166  30.513  74.186  1.00  0.00     0.034 C 
BRANCH  11  12
ATOM     12  C   UNL     1      10.827  31.870  74.281  1.00  0.00    -0.077 C 
ATOM     13  C   UNL     1      11.038  32.576  73.147  1.00  0.00    -0.028 C 
ATOM     14  C   UNL     1      11.226  32.399  75.639  1.00  0.00     0.039 C 
BRANCH  13  15
ATOM     15  C   UNL     1      11.600  33.977  73.104  1.00  0.00     0.035 C 
BRANCH  15  16
ATOM     16  C   UNL     1      10.741  34.896  72.226  1.00  0.00     0.079 C 
BRANCH  16  17
ATOM     17  C   UNL     1      10.886  36.342  72.631  1.00  0.00     0.130 C 
ATOM     18  O   UNL     1      10.430  36.715  73.703  1.00  0.00    -0.300 OA
ATOM     19  C   UNL     1      11.571  37.337  71.742  1.00  0.00     0.087 C 
ENDBRANCH  16  17
ENDBRANCH  15  16
ENDBRANCH  13  15
ENDBRANCH  11  12
ENDBRANCH   1  11
TORSDOF 9
ENDMDL
MODEL 4
REMARK VINA RESULT:    -6.666      4.357     10.091
REMARK INTER + INTRA:         -11.167
REMARK INTER:                 -10.442
REMARK INTRA:                  -0.725
REMARK UNBOUND:                -0.994
REMARK SMILES CC(=O)CCC=C(C)CCC=C(C)CCC=C(C)C
REMARK SMILES IDX 10 1 11 2 12 3 13 4 14 5 15 6 16 7 18 8 17 9 19 10 9 11 7 12
REMARK SMILES IDX 6 13 8 14 5 15 4 16 2 17 3 18 1 19
REMARK H PARENT
REMARK Flexibility Score: inf
ROOT
ATOM      1  C   UNL     1      10.794  32.749  72.495  1.00  0.00     0.032 C 
ENDROOT
BRANCH   1   2
ATOM      2  C   UNL     1      11.623  31.534  72.165  1.00  0.00    -0.028 C 
ATOM      3  C   UNL     1      11.141  30.273  72.073  1.00  0.00    -0.077 C 
ATOM      4  C   UNL     1      12.114  29.154  71.800  1.00  0.00     0.039 C 
BRANCH   3   5
ATOM      5  C   UNL     1       9.662  29.944  72.193  1.00  0.00     0.034 C 
BRANCH   5   6
ATOM      6  C   UNL     1       9.236  29.770  73.658  1.00  0.00     0.032 C 
BRANCH   6   7
ATOM      7  C   UNL     1      10.094  28.753  74.374  1.00  0.00    -0.028 C 
ATOM      8  C   UNL     1       8.949  26.791  73.317  1.00  0.00     0.039 C 
ATOM      9  C   UNL     1       9.948  27.412  74.263  1.00  0.00    -0.080 C 
ATOM     10  C   UNL     1      10.842  26.523  75.088  1.00  0.00     0.039 C 
ENDBRANCH   6   7
ENDBRANCH   5   6
ENDBRANCH   3   5
ENDBRANCH   1   2
BRANCH   1  11
ATOM     11  C   UNL     1      11.692  33.921  72.904  1.00  0.00     0.034 C 
BRANCH  11  12
ATOM     12  C   UNL     1      11.033  35.238  72.560  1.00  0.00    -0.077 C 
ATOM     13  C   UNL     1      11.616  36.388  72.969  1.00  0.00    -0.028 C 
ATOM     14  C   UNL     1       9.748  35.231  71.766  1.00  0.00     0.039 C 
BRANCH  13  15
ATOM     15  C   UNL     1      11.119  37.770  72.617  1.00  0.00     0.035 C 
BRANCH  15  16
ATOM     16  C   UNL     1      11.986  38.415  71.528  1.00  0.00     0.079 C 
BRANCH  16  17
ATOM     17  C   UNL     1      12.256  39.868  71.825  1.00  0.00     0.130 C 
ATOM     18  O   UNL     1      12.131  40.698  70.936  1.00  0.00    -0.300 OA
ATOM     19  C   UNL     1      12.685  40.319  73.190  1.00  0.00     0.087 C 
ENDBRANCH  16  17
ENDBRANCH  15  16
ENDBRANCH  13  15
ENDBRANCH  11  12
ENDBRANCH   1  11
TORSDOF 9
ENDMDL
MODEL 5
REMARK VINA RESULT:    -6.555      1.916      4.364
REMARK INTER + INTRA:         -10.998
REMARK INTER:                  -9.844
REMARK INTRA:                  -1.154
REMARK UNBOUND:                -0.994
REMARK SMILES CC(=O)CCC=C(C)CCC=C(C)CCC=C(C)C
REMARK SMILES IDX 10 1 11 2 12 3 13 4 14 5 15 6 16 7 18 8 17 9 19 10 9 11 7 12
REMARK SMILES IDX 6 13 8 14 5 15 4 16 2 17 3 18 1 19
REMARK H PARENT
REMARK Flexibility Score: inf
ROOT
ATOM      1  C   UNL     1      12.103  33.297  73.176  1.00  0.00     0.032 C 
ENDROOT
BRANCH   1   2
ATOM      2  C   UNL     1      12.034  34.802  73.204  1.00  0.00    -0.028 C 
ATOM      3  C   UNL     1      11.182  35.550  72.465  1.00  0.00    -0.077 C 
ATOM      4  C   UNL     1      11.285  37.052  72.557  1.00  0.00     0.039 C 
BRANCH   3   5
ATOM      5  C   UNL     1      10.105  34.942  71.582  1.00  0.00     0.034 C 
BRANCH   5   6
ATOM      6  C   UNL     1       9.182  36.019  70.990  1.00  0.00     0.032 C 
BRANCH   6   7
ATOM      7  C   UNL     1       8.751  35.676  69.583  1.00  0.00    -0.028 C 
ATOM      8  C   UNL     1       9.731  37.760  68.595  1.00  0.00     0.039 C 
ATOM      9  C   UNL     1       8.953  36.468  68.505  1.00  0.00    -0.080 C 
ATOM     10  C   UNL     1       8.411  36.018  67.173  1.00  0.00     0.039 C 
ENDBRANCH   6   7
ENDBRANCH   5   6
ENDBRANCH   3   5
ENDBRANCH   1   2
BRANCH   1  11
ATOM     11  C   UNL     1      11.304  32.697  74.338  1.00  0.00     0.034 C 
BRANCH  11  12
ATOM     12  C   UNL     1      10.771  31.331  73.965  1.00  0.00    -0.077 C 
ATOM     13  C   UNL     1      11.482  30.563  73.110  1.00  0.00    -0.028 C 
ATOM     14  C   UNL     1       9.465  30.864  74.564  1.00  0.00     0.039 C 
BRANCH  13  15
ATOM     15  C   UNL     1      11.118  29.148  72.726  1.00  0.00     0.035 C 
BRANCH  15  16
ATOM     16  C   UNL     1      11.790  28.128  73.654  1.00  0.00     0.079 C 
BRANCH  16  17
ATOM     17  C   UNL     1      10.779  27.196  74.275  1.00  0.00     0.130 C 
ATOM     18  O   UNL     1      11.133  26.420  75.150  1.00  0.00    -0.300 OA
ATOM     19  C   UNL     1       9.344  27.196  73.834  1.00  0.00     0.087 C 
ENDBRANCH  16  17
ENDBRANCH  15  16
ENDBRANCH  13  15
ENDBRANCH  11  12
ENDBRANCH   1  11
TORSDOF 9
ENDMDL
MODEL 6
REMARK VINA RESULT:    -6.466      1.209      2.915
REMARK INTER + INTRA:         -10.862
REMARK INTER:                 -10.024
REMARK INTRA:                  -0.838
REMARK UNBOUND:                -0.994
REMARK SMILES CC(=O)CCC=C(C)CCC=C(C)CCC=C(C)C
REMARK SMILES IDX 10 1 11 2 12 3 13 4 14 5 15 6 16 7 18 8 17 9 19 10 9 11 7 12
REMARK SMILES IDX 6 13 8 14 5 15 4 16 2 17 3 18 1 19
REMARK H PARENT
REMARK Flexibility Score: inf
ROOT
ATOM      1  C   UNL     1      11.775  32.018  72.653  1.00  0.00     0.032 C 
ENDROOT
BRANCH   1   2
ATOM      2  C   UNL     1      10.826  32.782  71.766  1.00  0.00    -0.028 C 
ATOM      3  C   UNL     1      10.558  34.104  71.878  1.00  0.00    -0.077 C 
ATOM      4  C   UNL     1       9.531  34.706  70.953  1.00  0.00     0.039 C 
BRANCH   3   5
ATOM      5  C   UNL     1      11.276  35.010  72.865  1.00  0.00     0.034 C 
BRANCH   5   6
ATOM      6  C   UNL     1      10.519  36.329  73.079  1.00  0.00     0.032 C 
BRANCH   6   7
ATOM      7  C   UNL     1      11.409  37.529  72.855  1.00  0.00    -0.028 C 
ATOM      8  C   UNL     1      10.577  37.924  70.525  1.00  0.00     0.039 C 
ATOM      9  C   UNL     1      11.477  38.228  71.698  1.00  0.00    -0.080 C 
ATOM     10  C   UNL     1      12.460  39.367  71.606  1.00  0.00     0.039 C 
ENDBRANCH   6   7
ENDBRANCH   5   6
ENDBRANCH   3   5
ENDBRANCH   1   2
BRANCH   1  11
ATOM     11  C   UNL     1      11.009  31.273  73.751  1.00  0.00     0.034 C 
BRANCH  11  12
ATOM     12  C   UNL     1      11.125  29.778  73.557  1.00  0.00    -0.077 C 
ATOM     13  C   UNL     1      10.434  28.956  74.379  1.00  0.00    -0.028 C 
ATOM     14  C   UNL     1      12.003  29.248  72.448  1.00  0.00     0.039 C 
BRANCH  13  15
ATOM     15  C   UNL     1      10.384  27.453  74.240  1.00  0.00     0.035 C 
BRANCH  15  16
ATOM     16  C   UNL     1       9.278  27.019  73.269  1.00  0.00     0.079 C 
BRANCH  16  17
ATOM     17  C   UNL     1       9.384  25.553  72.930  1.00  0.00     0.130 C 
ATOM     18  O   UNL     1      10.401  24.940  73.222  1.00  0.00    -0.300 OA
ATOM     19  C   UNL     1       8.270  24.830  72.233  1.00  0.00     0.087 C 
ENDBRANCH  16  17
ENDBRANCH  15  16
ENDBRANCH  13  15
ENDBRANCH  11  12
ENDBRANCH   1  11
TORSDOF 9
ENDMDL
MODEL 7
REMARK VINA RESULT:    -6.448      3.859      9.083
REMARK INTER + INTRA:         -10.834
REMARK INTER:                  -9.894
REMARK INTRA:                  -0.941
REMARK UNBOUND:                -0.994
REMARK SMILES CC(=O)CCC=C(C)CCC=C(C)CCC=C(C)C
REMARK SMILES IDX 10 1 11 2 12 3 13 4 14 5 15 6 16 7 18 8 17 9 19 10 9 11 7 12
REMARK SMILES IDX 6 13 8 14 5 15 4 16 2 17 3 18 1 19
REMARK H PARENT
REMARK Flexibility Score: inf
ROOT
ATOM      1  C   UNL     1      11.645  34.353  72.513  1.00  0.00     0.032 C 
ENDROOT
BRANCH   1   2
ATOM      2  C   UNL     1      11.219  33.476  73.661  1.00  0.00    -0.028 C 
ATOM      3  C   UNL     1      11.141  32.126  73.614  1.00  0.00    -0.077 C 
ATOM      4  C   UNL     1      10.630  31.396  74.832  1.00  0.00     0.039 C 
BRANCH   3   5
ATOM      5  C   UNL     1      11.580  31.316  72.406  1.00  0.00     0.034 C 
BRANCH   5   6
ATOM      6  C   UNL     1      11.010  29.890  72.440  1.00  0.00     0.032 C 
BRANCH   6   7
ATOM      7  C   UNL     1      12.068  28.871  72.795  1.00  0.00    -0.028 C 
ATOM      8  C   UNL     1      10.590  27.645  74.404  1.00  0.00     0.039 C 
ATOM      9  C   UNL     1      11.908  27.884  73.706  1.00  0.00    -0.080 C 
ATOM     10  C   UNL     1      13.077  26.979  73.997  1.00  0.00     0.039 C 
ENDBRANCH   6   7
ENDBRANCH   5   6
ENDBRANCH   3   5
ENDBRANCH   1   2
BRANCH   1  11
ATOM     11  C   UNL     1      11.571  35.832  72.904  1.00  0.00     0.034 C 
BRANCH  11  12
ATOM     12  C   UNL     1      10.954  36.646  71.789  1.00  0.00    -0.077 C 
ATOM     13  C   UNL     1       9.800  36.219  71.229  1.00  0.00    -0.028 C 
ATOM     14  C   UNL     1      11.642  37.913  71.338  1.00  0.00     0.039 C 
BRANCH  13  15
ATOM     15  C   UNL     1       9.028  36.978  70.176  1.00  0.00     0.035 C 
BRANCH  15  16
ATOM     16  C   UNL     1       8.769  36.109  68.939  1.00  0.00     0.079 C 
BRANCH  16  17
ATOM     17  C   UNL     1       7.292  35.904  68.708  1.00  0.00     0.130 C 
ATOM     18  O   UNL     1       6.486  36.444  69.451  1.00  0.00    -0.300 OA
ATOM     19  C   UNL     1       6.790  35.040  67.588  1.00  0.00     0.087 C 
ENDBRANCH  16  17
ENDBRANCH  15  16
ENDBRANCH  13  15
ENDBRANCH  11  12
ENDBRANCH   1  11
TORSDOF 9
ENDMDL
MODEL 8
REMARK VINA RESULT:    -6.389      2.740      6.186
REMARK INTER + INTRA:         -10.744
REMARK INTER:                  -9.604
REMARK INTRA:                  -1.141
REMARK UNBOUND:                -0.994
REMARK SMILES CC(=O)CCC=C(C)CCC=C(C)CCC=C(C)C
REMARK SMILES IDX 10 1 11 2 12 3 13 4 14 5 15 6 16 7 18 8 17 9 19 10 9 11 7 12
REMARK SMILES IDX 6 13 8 14 5 15 4 16 2 17 3 18 1 19
REMARK H PARENT
REMARK Flexibility Score: inf
ROOT
ATOM      1  C   UNL     1      10.764  35.731  73.195  1.00  0.00     0.032 C 
ENDROOT
BRANCH   1   2
ATOM      2  C   UNL     1      10.964  36.856  72.213  1.00  0.00    -0.028 C 
ATOM      3  C   UNL     1      10.289  36.994  71.048  1.00  0.00    -0.077 C 
ATOM      4  C   UNL     1      10.654  38.141  70.141  1.00  0.00     0.039 C 
BRANCH   3   5
ATOM      5  C   UNL     1       9.157  36.067  70.637  1.00  0.00     0.034 C 
BRANCH   5   6
ATOM      6  C   UNL     1       8.431  36.578  69.383  1.00  0.00     0.032 C 
BRANCH   6   7
ATOM      7  C   UNL     1       8.144  35.461  68.407  1.00  0.00    -0.028 C 
ATOM      8  C   UNL     1       5.669  35.857  68.423  1.00  0.00     0.039 C 
ATOM      9  C   UNL     1       6.905  35.099  68.000  1.00  0.00    -0.080 C 
ATOM     10  C   UNL     1       6.772  33.922  67.068  1.00  0.00     0.039 C 
ENDBRANCH   6   7
ENDBRANCH   5   6
ENDBRANCH   3   5
ENDBRANCH   1   2
BRANCH   1  11
ATOM     11  C   UNL     1      11.830  34.648  73.002  1.00  0.00     0.034 C 
BRANCH  11  12
ATOM     12  C   UNL     1      11.191  33.278  72.950  1.00  0.00    -0.077 C 
ATOM     13  C   UNL     1      11.187  32.515  74.066  1.00  0.00    -0.028 C 
ATOM     14  C   UNL     1      10.572  32.806  71.655  1.00  0.00     0.039 C 
BRANCH  13  15
ATOM     15  C   UNL     1      10.504  31.173  74.182  1.00  0.00     0.035 C 
BRANCH  15  16
ATOM     16  C   UNL     1      11.502  30.022  74.001  1.00  0.00     0.079 C 
BRANCH  16  17
ATOM     17  C   UNL     1      11.074  29.088  72.897  1.00  0.00     0.130 C 
ATOM     18  O   UNL     1      11.558  29.213  71.781  1.00  0.00    -0.300 OA
ATOM     19  C   UNL     1      10.057  28.011  73.136  1.00  0.00     0.087 C 
ENDBRANCH  16  17
ENDBRANCH  15  16
ENDBRANCH  13  15
ENDBRANCH  11  12
ENDBRANCH   1  11
TORSDOF 9
ENDMDL
MODEL 9
REMARK VINA RESULT:    -6.379      2.893      8.752
REMARK INTER + INTRA:         -10.729
REMARK INTER:                  -9.768
REMARK INTRA:                  -0.961
REMARK UNBOUND:                -0.994
REMARK SMILES CC(=O)CCC=C(C)CCC=C(C)CCC=C(C)C
REMARK SMILES IDX 10 1 11 2 12 3 13 4 14 5 15 6 16 7 18 8 17 9 19 10 9 11 7 12
REMARK SMILES IDX 6 13 8 14 5 15 4 16 2 17 3 18 1 19
REMARK H PARENT
REMARK Flexibility Score: inf
ROOT
ATOM      1  C   UNL     1       9.519  25.008  72.610  1.00  0.00     0.032 C 
ENDROOT
BRANCH   1   2
ATOM      2  C   UNL     1       9.221  23.828  73.499  1.00  0.00    -0.028 C 
ATOM      3  C   UNL     1       8.301  22.872  73.231  1.00  0.00    -0.077 C 
ATOM      4  C   UNL     1       8.075  21.791  74.258  1.00  0.00     0.039 C 
BRANCH   3   5
ATOM      5  C   UNL     1       7.520  22.821  71.929  1.00  0.00     0.034 C 
BRANCH   5   6
ATOM      6  C   UNL     1       6.148  23.500  72.063  1.00  0.00     0.032 C 
BRANCH   6   7
ATOM      7  C   UNL     1       6.014  24.681  71.131  1.00  0.00    -0.028 C 
ATOM      8  C   UNL     1       3.517  24.769  71.329  1.00  0.00     0.039 C 
ATOM      9  C   UNL     1       4.836  25.234  70.759  1.00  0.00    -0.080 C 
ATOM     10  C   UNL     1       4.858  26.373  69.772  1.00  0.00     0.039 C 
ENDBRANCH   6   7
ENDBRANCH   5   6
ENDBRANCH   3   5
ENDBRANCH   1   2
BRANCH   1  11
ATOM     11  C   UNL     1       9.006  26.306  73.242  1.00  0.00     0.034 C 
BRANCH  11  12
ATOM     12  C   UNL     1      10.155  27.111  73.805  1.00  0.00    -0.077 C 
ATOM     13  C   UNL     1      10.539  28.239  73.165  1.00  0.00    -0.028 C 
ATOM     14  C   UNL     1      10.836  26.636  75.067  1.00  0.00     0.039 C 
BRANCH  13  15
ATOM     15  C   UNL     1      11.605  29.185  73.666  1.00  0.00     0.035 C 
BRANCH  15  16
ATOM     16  C   UNL     1      11.014  30.558  74.012  1.00  0.00     0.079 C 
BRANCH  16  17
ATOM     17  C   UNL     1      11.170  31.530  72.870  1.00  0.00     0.130 C 
ATOM     18  O   UNL     1      10.579  31.325  71.819  1.00  0.00    -0.300 OA
ATOM     19  C   UNL     1      12.044  32.744  72.991  1.00  0.00     0.087 C 
ENDBRANCH  16  17
ENDBRANCH  15  16
ENDBRANCH  13  15
ENDBRANCH  11  12
ENDBRANCH   1  11
TORSDOF 9
ENDMDL
