MODEL 1
REMARK VINA RESULT:    -5.475      0.000      0.000
REMARK INTER + INTRA:          -7.944
REMARK INTER:                  -8.355
REMARK INTRA:                   0.411
REMARK UNBOUND:                 0.411
REMARK SMILES CC1=CCC[C@H](C)C(=O)C[C@@H](C(C)C)C(=O)C1
REMARK SMILES IDX 8 1 9 2 6 3 7 4 5 5 4 6 3 7 2 8 1 9 10 11 11 12 15 13 16 14
REMARK SMILES IDX 17 15 12 17 13 18 14 19
REMARK H PARENT
REMARK Flexibility Score: 70.00
ROOT
ATOM      1  C   UNL     1      -9.143  32.214  21.696  1.00  0.00     0.136 C 
ATOM      2  O   UNL     1      -9.555  31.834  20.610  1.00  0.00    -0.299 OA
ENDROOT
BRANCH   1   3
ATOM      3  C   UNL     1      -7.967  33.179  21.724  1.00  0.00     0.053 C 
ATOM      4  C   UNL     1      -7.483  33.487  20.300  1.00  0.00     0.016 C 
BRANCH   3   5
ATOM      5  C   UNL     1      -8.279  34.483  22.499  1.00  0.00     0.015 C 
BRANCH   5   6
ATOM      6  C   UNL     1      -7.538  34.657  23.842  1.00  0.00     0.028 C 
BRANCH   6   7
ATOM      7  C   UNL     1      -8.300  34.288  25.095  1.00  0.00    -0.028 C 
ATOM      8  C   UNL     1      -8.454  33.042  25.605  1.00  0.00    -0.070 CG0
ATOM      9  C   UNL     1      -9.395  32.873  26.771  1.00  0.00     0.039 C 
ATOM     10  G   UNL     1      -7.687  31.830  25.116  1.00  0.00     0.000 G0
ENDBRANCH   6   7
ENDBRANCH   5   6
ENDBRANCH   3   5
ENDBRANCH   1   3
BRANCH   1  11
ATOM     11  C   UNL     1      -9.858  31.720  22.945  1.00  0.00     0.087 C 
BRANCH  11  12
ATOM     12  C   UNL     1      -9.263  30.416  23.540  1.00  0.00     0.066 C 
BRANCH  12  13
ATOM     13  C   UNL     1      -8.624  30.651  24.897  1.00  0.00     0.140 C 
ATOM     14  O   UNL     1      -8.819  29.858  25.806  1.00  0.00    -0.299 OA
BRANCH  13  15
ATOM     15  C   UNL     1      -7.677  31.807  25.119  1.00  0.00     0.106 CG0
ATOM     16  G   UNL     1      -8.448  33.022  25.599  1.00  0.00     0.000 G0
ENDBRANCH  13  15
ENDBRANCH  12  13
BRANCH  12  17
ATOM     17  C   UNL     1      -8.342  29.657  22.531  1.00  0.00    -0.006 C 
ATOM     18  C   UNL     1      -8.705  28.164  22.471  1.00  0.00     0.008 C 
ATOM     19  C   UNL     1      -6.830  29.810  22.784  1.00  0.00     0.008 C 
ENDBRANCH  12  17
ENDBRANCH  11  12
ENDBRANCH   1  11
TORSDOF 1
ENDMDL
MODEL 2
REMARK VINA RESULT:    -5.129      1.777      3.932
REMARK INTER + INTRA:          -7.416
REMARK INTER:                  -7.197
REMARK INTRA:                  -0.219
REMARK UNBOUND:                 0.411
REMARK SMILES CC1=CCC[C@H](C)C(=O)C[C@@H](C(C)C)C(=O)C1
REMARK SMILES IDX 8 1 9 2 6 3 7 4 5 5 4 6 3 7 2 8 1 9 10 11 11 12 15 13 16 14
REMARK SMILES IDX 17 15 12 17 13 18 14 19
REMARK H PARENT
REMARK Flexibility Score: 70.00
ROOT
ATOM      1  C   UNL     1      -8.275  33.918  22.239  1.00  0.00     0.136 C 
ATOM      2  O   UNL     1      -7.595  34.910  22.018  1.00  0.00    -0.299 OA
ENDROOT
BRANCH   1   3
ATOM      3  C   UNL     1      -8.091  32.702  21.344  1.00  0.00     0.053 C 
ATOM      4  C   UNL     1      -7.282  33.068  20.091  1.00  0.00     0.016 C 
BRANCH   3   5
ATOM      5  C   UNL     1      -7.452  31.502  22.086  1.00  0.00     0.015 C 
BRANCH   5   6
ATOM      6  C   UNL     1      -8.421  30.367  22.481  1.00  0.00     0.028 C 
BRANCH   6   7
ATOM      7  C   UNL     1      -8.302  29.827  23.889  1.00  0.00    -0.028 C 
ATOM      8  C   UNL     1      -8.860  30.357  25.004  1.00  0.00    -0.070 CG0
ATOM      9  C   UNL     1      -8.477  29.758  26.334  1.00  0.00     0.039 C 
ATOM     10  G   UNL     1      -9.895  31.465  24.984  1.00  0.00     0.000 G0
ENDBRANCH   6   7
ENDBRANCH   5   6
ENDBRANCH   3   5
ENDBRANCH   1   3
BRANCH   1  11
ATOM     11  C   UNL     1      -9.236  33.960  23.418  1.00  0.00     0.087 C 
BRANCH  11  12
ATOM     12  C   UNL     1      -8.557  33.740  24.797  1.00  0.00     0.066 C 
BRANCH  12  13
ATOM     13  C   UNL     1      -9.295  32.711  25.635  1.00  0.00     0.140 C 
ATOM     14  O   UNL     1      -9.470  32.910  26.827  1.00  0.00    -0.299 OA
BRANCH  13  15
ATOM     15  C   UNL     1      -9.894  31.478  24.999  1.00  0.00     0.106 CG0
ATOM     16  G   UNL     1      -8.875  30.355  24.985  1.00  0.00     0.000 G0
ENDBRANCH  13  15
ENDBRANCH  12  13
BRANCH  12  17
ATOM     17  C   UNL     1      -8.271  35.079  25.549  1.00  0.00    -0.006 C 
ATOM     18  C   UNL     1      -9.353  36.125  25.240  1.00  0.00     0.008 C 
ATOM     19  C   UNL     1      -6.878  35.685  25.296  1.00  0.00     0.008 C 
ENDBRANCH  12  17
ENDBRANCH  11  12
ENDBRANCH   1  11
TORSDOF 1
ENDMDL
MODEL 3
REMARK VINA RESULT:    -4.913      1.848      4.133
REMARK INTER + INTRA:          -7.086
REMARK INTER:                  -7.825
REMARK INTRA:                   0.740
REMARK UNBOUND:                 0.411
REMARK SMILES CC1=CCC[C@H](C)C(=O)C[C@@H](C(C)C)C(=O)C1
REMARK SMILES IDX 8 1 9 2 6 3 7 4 5 5 4 6 3 7 2 8 1 9 10 11 11 12 15 13 16 14
REMARK SMILES IDX 17 15 12 17 13 18 14 19
REMARK H PARENT
REMARK Flexibility Score: 70.00
ROOT
ATOM      1  C   UNL     1      -8.493  31.137  23.106  1.00  0.00     0.136 C 
ATOM      2  O   UNL     1      -7.451  31.260  22.479  1.00  0.00    -0.299 OA
ENDROOT
BRANCH   1   3
ATOM      3  C   UNL     1      -9.069  29.740  23.282  1.00  0.00     0.053 C 
ATOM      4  C   UNL     1      -8.196  28.699  22.567  1.00  0.00     0.016 C 
BRANCH   3   5
ATOM      5  C   UNL     1      -9.279  29.361  24.769  1.00  0.00     0.015 C 
BRANCH   5   6
ATOM      6  C   UNL     1      -8.147  29.777  25.733  1.00  0.00     0.028 C 
BRANCH   6   7
ATOM      7  C   UNL     1      -8.555  30.167  27.136  1.00  0.00    -0.028 C 
ATOM      8  C   UNL     1      -9.147  31.327  27.509  1.00  0.00    -0.070 CG0
ATOM      9  C   UNL     1      -9.316  31.586  28.985  1.00  0.00     0.039 C 
ATOM     10  G   UNL     1      -9.710  32.339  26.530  1.00  0.00     0.000 G0
ENDBRANCH   6   7
ENDBRANCH   5   6
ENDBRANCH   3   5
ENDBRANCH   1   3
BRANCH   1  11
ATOM     11  C   UNL     1      -9.125  32.389  23.695  1.00  0.00     0.087 C 
BRANCH  11  12
ATOM     12  C   UNL     1      -8.170  33.218  24.595  1.00  0.00     0.066 C 
BRANCH  12  13
ATOM     13  C   UNL     1      -8.655  33.282  26.032  1.00  0.00     0.140 C 
ATOM     14  O   UNL     1      -8.227  34.147  26.780  1.00  0.00    -0.299 OA
BRANCH  13  15
ATOM     15  C   UNL     1      -9.728  32.341  26.530  1.00  0.00     0.106 CG0
ATOM     16  G   UNL     1      -9.130  31.344  27.504  1.00  0.00     0.000 G0
ENDBRANCH  13  15
ENDBRANCH  12  13
BRANCH  12  17
ATOM     17  C   UNL     1      -7.824  34.614  23.983  1.00  0.00    -0.006 C 
ATOM     18  C   UNL     1      -8.643  35.727  24.655  1.00  0.00     0.008 C 
ATOM     19  C   UNL     1      -7.975  34.713  22.453  1.00  0.00     0.008 C 
ENDBRANCH  12  17
ENDBRANCH  11  12
ENDBRANCH   1  11
TORSDOF 1
ENDMDL
MODEL 4
REMARK VINA RESULT:    -4.723      1.871      4.121
REMARK INTER + INTRA:          -6.797
REMARK INTER:                  -7.103
REMARK INTRA:                   0.305
REMARK UNBOUND:                 0.411
REMARK SMILES CC1=CCC[C@H](C)C(=O)C[C@@H](C(C)C)C(=O)C1
REMARK SMILES IDX 8 1 9 2 6 3 7 4 5 5 4 6 3 7 2 8 1 9 10 11 11 12 15 13 16 14
REMARK SMILES IDX 17 15 12 17 13 18 14 19
REMARK H PARENT
REMARK Flexibility Score: 70.00
ROOT
ATOM      1  C   UNL     1      -9.049  29.974  26.369  1.00  0.00     0.136 C 
ATOM      2  O   UNL     1      -7.958  29.527  26.692  1.00  0.00    -0.299 OA
ENDROOT
BRANCH   1   3
ATOM      3  C   UNL     1      -9.982  30.465  27.465  1.00  0.00     0.053 C 
ATOM      4  C   UNL     1      -9.721  29.713  28.778  1.00  0.00     0.016 C 
BRANCH   3   5
ATOM      5  C   UNL     1      -9.902  31.998  27.678  1.00  0.00     0.015 C 
BRANCH   5   6
ATOM      6  C   UNL     1      -8.537  32.647  27.364  1.00  0.00     0.028 C 
BRANCH   6   7
ATOM      7  C   UNL     1      -8.560  33.929  26.561  1.00  0.00    -0.028 C 
ATOM      8  C   UNL     1      -8.771  34.039  25.228  1.00  0.00    -0.070 CG0
ATOM      9  C   UNL     1      -8.585  35.396  24.597  1.00  0.00     0.039 C 
ATOM     10  G   UNL     1      -9.250  32.897  24.352  1.00  0.00     0.000 G0
ENDBRANCH   6   7
ENDBRANCH   5   6
ENDBRANCH   3   5
ENDBRANCH   1   3
BRANCH   1  11
ATOM     11  C   UNL     1      -9.384  30.037  24.886  1.00  0.00     0.087 C 
BRANCH  11  12
ATOM     12  C   UNL     1      -8.207  30.504  23.989  1.00  0.00     0.066 C 
BRANCH  12  13
ATOM     13  C   UNL     1      -8.107  32.018  23.928  1.00  0.00     0.140 C 
ATOM     14  O   UNL     1      -7.103  32.542  23.468  1.00  0.00    -0.299 OA
BRANCH  13  15
ATOM     15  C   UNL     1      -9.267  32.890  24.346  1.00  0.00     0.106 CG0
ATOM     16  G   UNL     1      -8.770  34.034  25.208  1.00  0.00     0.000 G0
ENDBRANCH  13  15
ENDBRANCH  12  13
BRANCH  12  17
ATOM     17  C   UNL     1      -8.203  29.813  22.588  1.00  0.00    -0.006 C 
ATOM     18  C   UNL     1      -9.327  30.369  21.699  1.00  0.00     0.008 C 
ATOM     19  C   UNL     1      -8.280  28.275  22.617  1.00  0.00     0.008 C 
ENDBRANCH  12  17
ENDBRANCH  11  12
ENDBRANCH   1  11
TORSDOF 1
ENDMDL
MODEL 5
REMARK VINA RESULT:    -4.676      1.855      3.982
REMARK INTER + INTRA:          -6.724
REMARK INTER:                  -7.101
REMARK INTRA:                   0.377
REMARK UNBOUND:                 0.411
REMARK SMILES CC1=CCC[C@H](C)C(=O)C[C@@H](C(C)C)C(=O)C1
REMARK SMILES IDX 8 1 9 2 6 3 7 4 5 5 4 6 3 7 2 8 1 9 10 11 11 12 15 13 16 14
REMARK SMILES IDX 17 15 12 17 13 18 14 19
REMARK H PARENT
REMARK Flexibility Score: 70.00
ROOT
ATOM      1  C   UNL     1      -8.652  33.944  24.358  1.00  0.00     0.136 C 
ATOM      2  O   UNL     1      -7.800  34.490  25.044  1.00  0.00    -0.299 OA
ENDROOT
BRANCH   1   3
ATOM      3  C   UNL     1      -8.764  34.343  22.894  1.00  0.00     0.053 C 
ATOM      4  C   UNL     1      -7.467  35.007  22.411  1.00  0.00     0.016 C 
BRANCH   3   5
ATOM      5  C   UNL     1      -9.155  33.157  21.978  1.00  0.00     0.015 C 
BRANCH   5   6
ATOM      6  C   UNL     1      -8.067  32.082  21.771  1.00  0.00     0.028 C 
BRANCH   6   7
ATOM      7  C   UNL     1      -8.526  30.641  21.746  1.00  0.00    -0.028 C 
ATOM      8  C   UNL     1      -8.281  29.702  22.690  1.00  0.00    -0.070 CG0
ATOM      9  C   UNL     1      -8.687  28.281  22.389  1.00  0.00     0.039 C 
ATOM     10  G   UNL     1      -7.690  30.009  24.052  1.00  0.00     0.000 G0
ENDBRANCH   6   7
ENDBRANCH   5   6
ENDBRANCH   3   5
ENDBRANCH   1   3
BRANCH   1  11
ATOM     11  C   UNL     1      -9.520  32.878  25.010  1.00  0.00     0.087 C 
BRANCH  11  12
ATOM     12  C   UNL     1      -8.719  31.766  25.737  1.00  0.00     0.066 C 
BRANCH  12  13
ATOM     13  C   UNL     1      -8.803  30.436  25.009  1.00  0.00     0.140 C 
ATOM     14  O   UNL     1      -9.803  29.743  25.122  1.00  0.00    -0.299 OA
BRANCH  13  15
ATOM     15  C   UNL     1      -7.703  29.993  24.073  1.00  0.00     0.106 CG0
ATOM     16  G   UNL     1      -8.275  29.716  22.696  1.00  0.00     0.000 G0
ENDBRANCH  13  15
ENDBRANCH  12  13
BRANCH  12  17
ATOM     17  C   UNL     1      -9.058  31.674  27.260  1.00  0.00    -0.006 C 
ATOM     18  C   UNL     1      -8.270  32.722  28.062  1.00  0.00     0.008 C 
ATOM     19  C   UNL     1      -8.859  30.283  27.891  1.00  0.00     0.008 C 
ENDBRANCH  12  17
ENDBRANCH  11  12
ENDBRANCH   1  11
TORSDOF 1
ENDMDL
MODEL 6
REMARK VINA RESULT:    -4.531      1.796      3.756
REMARK INTER + INTRA:          -6.503
REMARK INTER:                  -8.142
REMARK INTRA:                   1.639
REMARK UNBOUND:                 0.411
REMARK SMILES CC1=CCC[C@H](C)C(=O)C[C@@H](C(C)C)C(=O)C1
REMARK SMILES IDX 8 1 9 2 6 3 7 4 5 5 4 6 3 7 2 8 1 9 10 11 11 12 15 13 16 14
REMARK SMILES IDX 17 15 12 17 13 18 14 19
REMARK H PARENT
REMARK Flexibility Score: 70.00
ROOT
ATOM      1  C   UNL     1      -7.490  30.045  23.068  1.00  0.00     0.136 C 
ATOM      2  O   UNL     1      -6.688  29.368  22.443  1.00  0.00    -0.299 OA
ENDROOT
BRANCH   1   3
ATOM      3  C   UNL     1      -8.909  29.520  23.227  1.00  0.00     0.053 C 
ATOM      4  C   UNL     1      -8.977  28.025  22.883  1.00  0.00     0.016 C 
BRANCH   3   5
ATOM      5  C   UNL     1      -9.495  29.793  24.635  1.00  0.00     0.015 C 
BRANCH   5   6
ATOM      6  C   UNL     1      -8.484  29.747  25.801  1.00  0.00     0.028 C 
BRANCH   6   7
ATOM      7  C   UNL     1      -8.420  30.964  26.697  1.00  0.00    -0.028 C 
ATOM      8  C   UNL     1      -8.749  32.232  26.355  1.00  0.00    -0.070 CG0
ATOM      9  C   UNL     1      -8.451  33.327  27.349  1.00  0.00     0.039 C 
ATOM     10  G   UNL     1      -9.460  32.602  25.068  1.00  0.00     0.000 G0
ENDBRANCH   6   7
ENDBRANCH   5   6
ENDBRANCH   3   5
ENDBRANCH   1   3
BRANCH   1  11
ATOM     11  C   UNL     1      -7.003  31.355  23.671  1.00  0.00     0.087 C 
BRANCH  11  12
ATOM     12  C   UNL     1      -7.696  32.616  23.090  1.00  0.00     0.066 C 
BRANCH  12  13
ATOM     13  C   UNL     1      -8.509  33.352  24.140  1.00  0.00     0.140 C 
ATOM     14  O   UNL     1      -8.451  34.571  24.210  1.00  0.00    -0.299 OA
BRANCH  13  15
ATOM     15  C   UNL     1      -9.459  32.607  25.049  1.00  0.00     0.106 CG0
ATOM     16  G   UNL     1      -8.759  32.247  26.345  1.00  0.00     0.000 G0
ENDBRANCH  13  15
ENDBRANCH  12  13
BRANCH  12  17
ATOM     17  C   UNL     1      -8.486  32.319  21.774  1.00  0.00    -0.006 C 
ATOM     18  C   UNL     1      -7.841  33.032  20.575  1.00  0.00     0.008 C 
ATOM     19  C   UNL     1      -9.989  32.650  21.826  1.00  0.00     0.008 C 
ENDBRANCH  12  17
ENDBRANCH  11  12
ENDBRANCH   1  11
TORSDOF 1
ENDMDL
MODEL 7
REMARK VINA RESULT:    -4.449      1.695      2.718
REMARK INTER + INTRA:          -6.379
REMARK INTER:                  -6.603
REMARK INTRA:                   0.224
REMARK UNBOUND:                 0.411
REMARK SMILES CC1=CCC[C@H](C)C(=O)C[C@@H](C(C)C)C(=O)C1
REMARK SMILES IDX 8 1 9 2 6 3 7 4 5 5 4 6 3 7 2 8 1 9 10 11 11 12 15 13 16 14
REMARK SMILES IDX 17 15 12 17 13 18 14 19
REMARK H PARENT
REMARK Flexibility Score: 70.00
ROOT
ATOM      1  C   UNL     1      -8.055  33.225  23.623  1.00  0.00     0.136 C 
ATOM      2  O   UNL     1      -8.536  33.519  22.539  1.00  0.00    -0.299 OA
ENDROOT
BRANCH   1   3
ATOM      3  C   UNL     1      -7.893  34.324  24.662  1.00  0.00     0.053 C 
ATOM      4  C   UNL     1      -8.824  35.505  24.354  1.00  0.00     0.016 C 
BRANCH   3   5
ATOM      5  C   UNL     1      -8.103  33.815  26.110  1.00  0.00     0.015 C 
BRANCH   5   6
ATOM      6  C   UNL     1      -9.474  33.165  26.400  1.00  0.00     0.028 C 
BRANCH   6   7
ATOM      7  C   UNL     1      -9.521  32.137  27.508  1.00  0.00    -0.028 C 
ATOM      8  C   UNL     1      -9.054  30.867  27.447  1.00  0.00    -0.070 CG0
ATOM      9  C   UNL     1      -9.353  29.952  28.609  1.00  0.00     0.039 C 
ATOM     10  G   UNL     1      -8.194  30.337  26.317  1.00  0.00     0.000 G0
ENDBRANCH   6   7
ENDBRANCH   5   6
ENDBRANCH   3   5
ENDBRANCH   1   3
BRANCH   1  11
ATOM     11  C   UNL     1      -7.680  31.771  23.868  1.00  0.00     0.087 C 
BRANCH  11  12
ATOM     12  C   UNL     1      -8.879  30.787  23.799  1.00  0.00     0.066 C 
BRANCH  12  13
ATOM     13  C   UNL     1      -9.065  30.026  25.099  1.00  0.00     0.140 C 
ATOM     14  O   UNL     1      -9.873  29.111  25.157  1.00  0.00    -0.299 OA
BRANCH  13  15
ATOM     15  C   UNL     1      -8.202  30.324  26.303  1.00  0.00     0.106 CG0
ATOM     16  G   UNL     1      -9.058  30.864  27.432  1.00  0.00     0.000 G0
ENDBRANCH  13  15
ENDBRANCH  12  13
BRANCH  12  17
ATOM     17  C   UNL     1      -8.839  29.874  22.532  1.00  0.00    -0.006 C 
ATOM     18  C   UNL     1      -7.483  29.161  22.412  1.00  0.00     0.008 C 
ATOM     19  C   UNL     1      -9.170  30.582  21.205  1.00  0.00     0.008 C 
ENDBRANCH  12  17
ENDBRANCH  11  12
ENDBRANCH   1  11
TORSDOF 1
ENDMDL
MODEL 8
REMARK VINA RESULT:    -4.309      1.826      3.806
REMARK INTER + INTRA:          -6.165
REMARK INTER:                  -7.353
REMARK INTRA:                   1.188
REMARK UNBOUND:                 0.411
REMARK SMILES CC1=CCC[C@H](C)C(=O)C[C@@H](C(C)C)C(=O)C1
REMARK SMILES IDX 8 1 9 2 6 3 7 4 5 5 4 6 3 7 2 8 1 9 10 11 11 12 15 13 16 14
REMARK SMILES IDX 17 15 12 17 13 18 14 19
REMARK H PARENT
REMARK Flexibility Score: 70.00
ROOT
ATOM      1  C   UNL     1      -7.442  30.256  23.455  1.00  0.00     0.136 C 
ATOM      2  O   UNL     1      -6.306  30.680  23.305  1.00  0.00    -0.299 OA
ENDROOT
BRANCH   1   3
ATOM      3  C   UNL     1      -8.210  29.797  22.225  1.00  0.00     0.053 C 
ATOM      4  C   UNL     1      -8.597  28.316  22.347  1.00  0.00     0.016 C 
BRANCH   3   5
ATOM      5  C   UNL     1      -9.453  30.673  21.933  1.00  0.00     0.015 C 
BRANCH   5   6
ATOM      6  C   UNL     1      -9.188  31.963  21.126  1.00  0.00     0.028 C 
BRANCH   6   7
ATOM      7  C   UNL     1      -8.289  32.997  21.767  1.00  0.00    -0.028 C 
ATOM      8  C   UNL     1      -8.524  33.662  22.923  1.00  0.00    -0.070 CG0
ATOM      9  C   UNL     1      -7.577  34.774  23.298  1.00  0.00     0.039 C 
ATOM     10  G   UNL     1      -9.637  33.307  23.890  1.00  0.00     0.000 G0
ENDBRANCH   6   7
ENDBRANCH   5   6
ENDBRANCH   3   5
ENDBRANCH   1   3
BRANCH   1  11
ATOM     11  C   UNL     1      -7.997  30.187  24.870  1.00  0.00     0.087 C 
BRANCH  11  12
ATOM     12  C   UNL     1      -9.318  30.977  25.072  1.00  0.00     0.066 C 
BRANCH  12  13
ATOM     13  C   UNL     1      -9.093  32.478  25.026  1.00  0.00     0.140 C 
ATOM     14  O   UNL     1      -8.403  33.016  25.879  1.00  0.00    -0.299 OA
BRANCH  13  15
ATOM     15  C   UNL     1      -9.640  33.310  23.889  1.00  0.00     0.106 CG0
ATOM     16  G   UNL     1      -8.523  33.679  22.933  1.00  0.00     0.000 G0
ENDBRANCH  13  15
ENDBRANCH  12  13
BRANCH  12  17
ATOM     17  C   UNL     1     -10.125  30.497  26.321  1.00  0.00    -0.006 C 
ATOM     18  C   UNL     1      -9.753  31.320  27.564  1.00  0.00     0.008 C 
ATOM     19  C   UNL     1     -10.003  28.995  26.639  1.00  0.00     0.008 C 
ENDBRANCH  12  17
ENDBRANCH  11  12
ENDBRANCH   1  11
TORSDOF 1
ENDMDL
MODEL 9
REMARK VINA RESULT:    -3.779      1.867      5.120
REMARK INTER + INTRA:          -5.356
REMARK INTER:                  -6.701
REMARK INTRA:                   1.345
REMARK UNBOUND:                 0.411
REMARK SMILES CC1=CCC[C@H](C)C(=O)C[C@@H](C(C)C)C(=O)C1
REMARK SMILES IDX 8 1 9 2 6 3 7 4 5 5 4 6 3 7 2 8 1 9 10 11 11 12 15 13 16 14
REMARK SMILES IDX 17 15 12 17 13 18 14 19
REMARK H PARENT
REMARK Flexibility Score: 70.00
ROOT
ATOM      1  C   UNL     1      -9.063  31.896  25.870  1.00  0.00     0.136 C 
ATOM      2  O   UNL     1      -8.654  32.643  26.746  1.00  0.00    -0.299 OA
ENDROOT
BRANCH   1   3
ATOM      3  C   UNL     1      -8.547  30.465  25.844  1.00  0.00     0.053 C 
ATOM      4  C   UNL     1      -8.347  29.933  27.270  1.00  0.00     0.016 C 
BRANCH   3   5
ATOM      5  C   UNL     1      -9.453  29.516  25.020  1.00  0.00     0.015 C 
BRANCH   5   6
ATOM      6  C   UNL     1      -8.841  28.978  23.708  1.00  0.00     0.028 C 
BRANCH   6   7
ATOM      7  C   UNL     1      -7.802  29.845  23.034  1.00  0.00    -0.028 C 
ATOM      8  C   UNL     1      -8.037  30.952  22.291  1.00  0.00    -0.070 CG0
ATOM      9  C   UNL     1      -6.869  31.574  21.567  1.00  0.00     0.039 C 
ATOM     10  G   UNL     1      -9.387  31.638  22.204  1.00  0.00     0.000 G0
ENDBRANCH   6   7
ENDBRANCH   5   6
ENDBRANCH   3   5
ENDBRANCH   1   3
BRANCH   1  11
ATOM     11  C   UNL     1     -10.086  32.441  24.885  1.00  0.00     0.087 C 
BRANCH  11  12
ATOM     12  C   UNL     1      -9.552  33.591  23.990  1.00  0.00     0.066 C 
BRANCH  12  13
ATOM     13  C   UNL     1      -9.239  33.117  22.583  1.00  0.00     0.140 C 
ATOM     14  O   UNL     1      -8.794  33.904  21.760  1.00  0.00    -0.299 OA
BRANCH  13  15
ATOM     15  C   UNL     1      -9.385  31.661  22.204  1.00  0.00     0.106 CG0
ATOM     16  G   UNL     1      -8.041  30.966  22.290  1.00  0.00     0.000 G0
ENDBRANCH  13  15
ENDBRANCH  12  13
BRANCH  12  17
ATOM     17  C   UNL     1      -8.389  34.389  24.662  1.00  0.00    -0.006 C 
ATOM     18  C   UNL     1      -8.891  35.733  25.213  1.00  0.00     0.008 C 
ATOM     19  C   UNL     1      -7.157  34.625  23.767  1.00  0.00     0.008 C 
ENDBRANCH  12  17
ENDBRANCH  11  12
ENDBRANCH   1  11
TORSDOF 1
ENDMDL
