MODEL 1
REMARK VINA RESULT:    -7.516      0.000      0.000
REMARK INTER + INTRA:          -9.326
REMARK INTER:                  -9.054
REMARK INTRA:                  -0.272
REMARK UNBOUND:                -0.272
REMARK SMILES Oc1cc(O)c2c(c1)O[C@H](c1ccc(O)c(O)c1)[C@@H](O)C2
REMARK SMILES IDX 21 1 19 2 10 3 9 4 7 5 8 6 2 7 3 8 4 9 6 10 20 11 11 13
REMARK SMILES IDX 18 14 12 15 16 16 13 17 14 18 17 19 15 21 5 23 1 25
REMARK H PARENT 20 12 17 20 15 22 5 24 1 26
REMARK Flexibility Score: inf
ROOT
ATOM      1  C   UNL     1      15.395 -48.798  68.619  1.00  0.00     0.079 C 
ATOM      2  C   UNL     1      14.227 -48.708  69.621  1.00  0.00     0.164 C 
ATOM      3  C   UNL     1      14.133 -47.280  70.186  1.00  0.00     0.232 C 
ATOM      4  O   UNL     1      15.375 -46.914  70.786  1.00  0.00    -0.482 OA
ATOM      5  C   UNL     1      16.607 -47.275  70.230  1.00  0.00     0.131 A 
ATOM      6  C   UNL     1      17.777 -46.726  70.761  1.00  0.00     0.093 A 
ATOM      7  C   UNL     1      19.022 -47.056  70.216  1.00  0.00     0.122 A 
ATOM      8  C   UNL     1      19.094 -47.931  69.130  1.00  0.00     0.092 A 
ATOM      9  C   UNL     1      17.932 -48.492  68.586  1.00  0.00     0.126 A 
ATOM     10  C   UNL     1      16.674 -48.195  69.161  1.00  0.00     0.039 A 
ENDROOT
BRANCH   2  11
ATOM     11  O   UNL     1      13.024 -49.045  68.979  1.00  0.00    -0.389 OA
ATOM     12  H   UNL     1      13.106 -49.995  68.700  1.00  0.00     0.211 HD
ENDBRANCH   2  11
BRANCH   3  13
ATOM     13  C   UNL     1      13.024 -47.171  71.208  1.00  0.00    -0.001 A 
ATOM     14  C   UNL     1      12.204 -46.031  71.253  1.00  0.00     0.057 A 
ATOM     15  C   UNL     1      12.833 -48.190  72.155  1.00  0.00     0.012 A 
ATOM     16  C   UNL     1      11.193 -45.918  72.218  1.00  0.00     0.157 A 
ATOM     17  C   UNL     1      11.827 -48.080  73.117  1.00  0.00     0.050 A 
ATOM     18  C   UNL     1      11.003 -46.951  73.153  1.00  0.00     0.157 A 
BRANCH  16  19
ATOM     19  O   UNL     1      10.379 -44.787  72.251  1.00  0.00    -0.504 OA
ATOM     20  H   UNL     1       9.375 -44.852  72.135  1.00  0.00     0.293 HD
ENDBRANCH  16  19
BRANCH  18  21
ATOM     21  O   UNL     1      10.005 -46.869  74.125  1.00  0.00    -0.504 OA
ATOM     22  H   UNL     1       9.431 -47.664  74.375  1.00  0.00     0.293 HD
ENDBRANCH  18  21
ENDBRANCH   3  13
BRANCH   9  23
ATOM     23  O   UNL     1      18.065 -49.324  67.473  1.00  0.00    -0.507 OA
ATOM     24  H   UNL     1      17.671 -49.108  66.567  1.00  0.00     0.293 HD
ENDBRANCH   9  23
BRANCH   7  25
ATOM     25  O   UNL     1      20.193 -46.513  70.741  1.00  0.00    -0.508 OA
ATOM     26  H   UNL     1      20.834 -47.071  71.293  1.00  0.00     0.293 HD
ENDBRANCH   7  25
TORSDOF 6
ENDMDL
MODEL 2
REMARK VINA RESULT:    -7.391      2.235      6.891
REMARK INTER + INTRA:          -9.175
REMARK INTER:                  -8.805
REMARK INTRA:                  -0.370
REMARK UNBOUND:                -0.272
REMARK SMILES Oc1cc(O)c2c(c1)O[C@H](c1ccc(O)c(O)c1)[C@@H](O)C2
REMARK SMILES IDX 21 1 19 2 10 3 9 4 7 5 8 6 2 7 3 8 4 9 6 10 20 11 11 13
REMARK SMILES IDX 18 14 12 15 16 16 13 17 14 18 17 19 15 21 5 23 1 25
REMARK H PARENT 20 12 17 20 15 22 5 24 1 26
REMARK Flexibility Score: inf
ROOT
ATOM      1  C   UNL     1      14.301 -48.542  71.616  1.00  0.00     0.079 C 
ATOM      2  C   UNL     1      15.234 -48.068  70.485  1.00  0.00     0.164 C 
ATOM      3  C   UNL     1      15.549 -46.572  70.659  1.00  0.00     0.232 C 
ATOM      4  O   UNL     1      14.335 -45.823  70.694  1.00  0.00    -0.482 OA
ATOM      5  C   UNL     1      13.188 -46.289  71.344  1.00  0.00     0.131 A 
ATOM      6  C   UNL     1      12.100 -45.426  71.501  1.00  0.00     0.093 A 
ATOM      7  C   UNL     1      10.945 -45.860  72.161  1.00  0.00     0.122 A 
ATOM      8  C   UNL     1      10.886 -47.158  72.674  1.00  0.00     0.092 A 
ATOM      9  C   UNL     1      11.966 -48.036  72.525  1.00  0.00     0.126 A 
ATOM     10  C   UNL     1      13.119 -47.616  71.820  1.00  0.00     0.039 A 
ENDROOT
BRANCH   2  11
ATOM     11  O   UNL     1      16.425 -48.811  70.510  1.00  0.00    -0.389 OA
ATOM     12  H   UNL     1      17.126 -48.241  70.097  1.00  0.00     0.211 HD
ENDBRANCH   2  11
BRANCH   3  13
ATOM     13  C   UNL     1      16.427 -46.066  69.538  1.00  0.00    -0.001 A 
ATOM     14  C   UNL     1      16.005 -46.165  68.201  1.00  0.00     0.057 A 
ATOM     15  C   UNL     1      17.695 -45.533  69.818  1.00  0.00     0.012 A 
ATOM     16  C   UNL     1      16.830 -45.719  67.158  1.00  0.00     0.157 A 
ATOM     17  C   UNL     1      18.518 -45.088  68.781  1.00  0.00     0.050 A 
ATOM     18  C   UNL     1      18.093 -45.176  67.453  1.00  0.00     0.157 A 
BRANCH  16  19
ATOM     19  O   UNL     1      16.402 -45.815  65.836  1.00  0.00    -0.504 OA
ATOM     20  H   UNL     1      16.722 -45.168  65.126  1.00  0.00     0.293 HD
ENDBRANCH  16  19
BRANCH  18  21
ATOM     21  O   UNL     1      18.937 -44.723  66.438  1.00  0.00    -0.504 OA
ATOM     22  H   UNL     1      19.459 -45.359  65.848  1.00  0.00     0.293 HD
ENDBRANCH  18  21
ENDBRANCH   3  13
BRANCH   9  23
ATOM     23  O   UNL     1      11.863 -49.305  73.098  1.00  0.00    -0.507 OA
ATOM     24  H   UNL     1      11.960 -49.477  74.090  1.00  0.00     0.293 HD
ENDBRANCH   9  23
BRANCH   7  25
ATOM     25  O   UNL     1       9.856 -45.007  72.321  1.00  0.00    -0.508 OA
ATOM     26  H   UNL     1       8.967 -45.194  71.873  1.00  0.00     0.293 HD
ENDBRANCH   7  25
TORSDOF 6
ENDMDL
MODEL 3
REMARK VINA RESULT:    -7.174      2.549      8.078
REMARK INTER + INTRA:          -8.914
REMARK INTER:                  -8.626
REMARK INTRA:                  -0.288
REMARK UNBOUND:                -0.272
REMARK SMILES Oc1cc(O)c2c(c1)O[C@H](c1ccc(O)c(O)c1)[C@@H](O)C2
REMARK SMILES IDX 21 1 19 2 10 3 9 4 7 5 8 6 2 7 3 8 4 9 6 10 20 11 11 13
REMARK SMILES IDX 18 14 12 15 16 16 13 17 14 18 17 19 15 21 5 23 1 25
REMARK H PARENT 20 12 17 20 15 22 5 24 1 26
REMARK Flexibility Score: inf
ROOT
ATOM      1  C   UNL     1      16.996 -48.023  71.135  1.00  0.00     0.079 C 
ATOM      2  C   UNL     1      18.296 -48.415  70.406  1.00  0.00     0.164 C 
ATOM      3  C   UNL     1      18.297 -47.828  68.984  1.00  0.00     0.232 C 
ATOM      4  O   UNL     1      17.138 -48.271  68.278  1.00  0.00    -0.482 OA
ATOM      5  C   UNL     1      15.888 -48.390  68.893  1.00  0.00     0.131 A 
ATOM      6  C   UNL     1      14.764 -48.645  68.103  1.00  0.00     0.093 A 
ATOM      7  C   UNL     1      13.499 -48.753  68.689  1.00  0.00     0.122 A 
ATOM      8  C   UNL     1      13.358 -48.595  70.069  1.00  0.00     0.092 A 
ATOM      9  C   UNL     1      14.473 -48.340  70.877  1.00  0.00     0.126 A 
ATOM     10  C   UNL     1      15.761 -48.273  70.295  1.00  0.00     0.039 A 
ENDROOT
BRANCH   2  11
ATOM     11  O   UNL     1      19.405 -47.932  71.120  1.00  0.00    -0.389 OA
ATOM     12  H   UNL     1      20.163 -47.895  70.480  1.00  0.00     0.211 HD
ENDBRANCH   2  11
BRANCH   3  13
ATOM     13  C   UNL     1      19.539 -48.235  68.227  1.00  0.00    -0.001 A 
ATOM     14  C   UNL     1      20.222 -47.306  67.424  1.00  0.00     0.057 A 
ATOM     15  C   UNL     1      19.998 -49.561  68.282  1.00  0.00     0.012 A 
ATOM     16  C   UNL     1      21.360 -47.690  66.700  1.00  0.00     0.157 A 
ATOM     17  C   UNL     1      21.132 -49.945  67.562  1.00  0.00     0.050 A 
ATOM     18  C   UNL     1      21.817 -49.018  66.772  1.00  0.00     0.157 A 
BRANCH  16  19
ATOM     19  O   UNL     1      22.035 -46.761  65.911  1.00  0.00    -0.504 OA
ATOM     20  H   UNL     1      22.892 -46.999  65.426  1.00  0.00     0.293 HD
ENDBRANCH  16  19
BRANCH  18  21
ATOM     21  O   UNL     1      22.947 -49.431  66.065  1.00  0.00    -0.504 OA
ATOM     22  H   UNL     1      23.458 -50.269  66.311  1.00  0.00     0.293 HD
ENDBRANCH  18  21
ENDBRANCH   3  13
BRANCH   9  23
ATOM     23  O   UNL     1      14.262 -48.148  72.244  1.00  0.00    -0.507 OA
ATOM     24  H   UNL     1      13.348 -48.181  72.676  1.00  0.00     0.293 HD
ENDBRANCH   9  23
BRANCH   7  25
ATOM     25  O   UNL     1      12.374 -49.008  67.908  1.00  0.00    -0.508 OA
ATOM     26  H   UNL     1      12.287 -48.640  66.968  1.00  0.00     0.293 HD
ENDBRANCH   7  25
TORSDOF 6
ENDMDL
MODEL 4
REMARK VINA RESULT:    -7.118      1.487      2.824
REMARK INTER + INTRA:          -8.847
REMARK INTER:                  -8.475
REMARK INTRA:                  -0.372
REMARK UNBOUND:                -0.272
REMARK SMILES Oc1cc(O)c2c(c1)O[C@H](c1ccc(O)c(O)c1)[C@@H](O)C2
REMARK SMILES IDX 21 1 19 2 10 3 9 4 7 5 8 6 2 7 3 8 4 9 6 10 20 11 11 13
REMARK SMILES IDX 18 14 12 15 16 16 13 17 14 18 17 19 15 21 5 23 1 25
REMARK H PARENT 20 12 17 20 15 22 5 24 1 26
REMARK Flexibility Score: inf
ROOT
ATOM      1  C   UNL     1      17.529 -48.077  70.618  1.00  0.00     0.079 C 
ATOM      2  C   UNL     1      16.258 -47.544  71.307  1.00  0.00     0.164 C 
ATOM      3  C   UNL     1      15.041 -48.382  70.879  1.00  0.00     0.232 C 
ATOM      4  O   UNL     1      14.919 -48.367  69.457  1.00  0.00    -0.482 OA
ATOM      5  C   UNL     1      16.032 -48.423  68.611  1.00  0.00     0.131 A 
ATOM      6  C   UNL     1      15.833 -48.595  67.239  1.00  0.00     0.093 A 
ATOM      7  C   UNL     1      16.927 -48.670  66.371  1.00  0.00     0.122 A 
ATOM      8  C   UNL     1      18.224 -48.582  66.882  1.00  0.00     0.092 A 
ATOM      9  C   UNL     1      18.443 -48.409  68.254  1.00  0.00     0.126 A 
ATOM     10  C   UNL     1      17.338 -48.289  69.130  1.00  0.00     0.039 A 
ENDROOT
BRANCH   2  11
ATOM     11  O   UNL     1      16.411 -47.608  72.701  1.00  0.00    -0.389 OA
ATOM     12  H   UNL     1      16.466 -46.672  73.026  1.00  0.00     0.211 HD
ENDBRANCH   2  11
BRANCH   3  13
ATOM     13  C   UNL     1      13.769 -47.855  71.503  1.00  0.00    -0.001 A 
ATOM     14  C   UNL     1      13.327 -46.550  71.228  1.00  0.00     0.057 A 
ATOM     15  C   UNL     1      13.040 -48.650  72.402  1.00  0.00     0.012 A 
ATOM     16  C   UNL     1      12.161 -46.052  71.828  1.00  0.00     0.157 A 
ATOM     17  C   UNL     1      11.879 -48.156  73.000  1.00  0.00     0.050 A 
ATOM     18  C   UNL     1      11.433 -46.862  72.717  1.00  0.00     0.157 A 
BRANCH  16  19
ATOM     19  O   UNL     1      11.726 -44.758  71.546  1.00  0.00    -0.504 OA
ATOM     20  H   UNL     1      11.204 -44.546  70.704  1.00  0.00     0.293 HD
ENDBRANCH  16  19
BRANCH  18  21
ATOM     21  O   UNL     1      10.269 -46.396  73.329  1.00  0.00    -0.504 OA
ATOM     22  H   UNL     1       9.364 -46.813  73.152  1.00  0.00     0.293 HD
ENDBRANCH  18  21
ENDBRANCH   3  13
BRANCH   9  23
ATOM     23  O   UNL     1      19.762 -48.373  68.708  1.00  0.00    -0.507 OA
ATOM     24  H   UNL     1      20.108 -47.678  69.357  1.00  0.00     0.293 HD
ENDBRANCH   9  23
BRANCH   7  25
ATOM     25  O   UNL     1      16.737 -48.840  65.001  1.00  0.00    -0.508 OA
ATOM     26  H   UNL     1      16.449 -48.071  64.408  1.00  0.00     0.293 HD
ENDBRANCH   7  25
TORSDOF 6
ENDMDL
MODEL 5
REMARK VINA RESULT:    -7.090      1.780      7.074
REMARK INTER + INTRA:          -8.813
REMARK INTER:                  -8.469
REMARK INTRA:                  -0.344
REMARK UNBOUND:                -0.272
REMARK SMILES Oc1cc(O)c2c(c1)O[C@H](c1ccc(O)c(O)c1)[C@@H](O)C2
REMARK SMILES IDX 21 1 19 2 10 3 9 4 7 5 8 6 2 7 3 8 4 9 6 10 20 11 11 13
REMARK SMILES IDX 18 14 12 15 16 16 13 17 14 18 17 19 15 21 5 23 1 25
REMARK H PARENT 20 12 17 20 15 22 5 24 1 26
REMARK Flexibility Score: inf
ROOT
ATOM      1  C   UNL     1      15.098 -49.167  72.748  1.00  0.00     0.079 C 
ATOM      2  C   UNL     1      16.292 -48.980  71.792  1.00  0.00     0.164 C 
ATOM      3  C   UNL     1      16.530 -47.481  71.541  1.00  0.00     0.232 C 
ATOM      4  O   UNL     1      15.341 -46.881  71.028  1.00  0.00    -0.482 OA
ATOM      5  C   UNL     1      14.068 -47.233  71.490  1.00  0.00     0.131 A 
ATOM      6  C   UNL     1      12.966 -46.476  71.082  1.00  0.00     0.093 A 
ATOM      7  C   UNL     1      11.684 -46.795  71.540  1.00  0.00     0.122 A 
ATOM      8  C   UNL     1      11.507 -47.867  72.417  1.00  0.00     0.092 A 
ATOM      9  C   UNL     1      12.599 -48.637  72.835  1.00  0.00     0.126 A 
ATOM     10  C   UNL     1      13.892 -48.346  72.340  1.00  0.00     0.039 A 
ENDROOT
BRANCH   2  11
ATOM     11  O   UNL     1      17.444 -49.556  72.352  1.00  0.00    -0.389 OA
ATOM     12  H   UNL     1      17.631 -50.382  71.834  1.00  0.00     0.211 HD
ENDBRANCH   2  11
BRANCH   3  13
ATOM     13  C   UNL     1      17.667 -47.265  70.569  1.00  0.00    -0.001 A 
ATOM     14  C   UNL     1      17.517 -47.589  69.210  1.00  0.00     0.057 A 
ATOM     15  C   UNL     1      18.904 -46.781  71.025  1.00  0.00     0.012 A 
ATOM     16  C   UNL     1      18.581 -47.413  68.314  1.00  0.00     0.157 A 
ATOM     17  C   UNL     1      19.965 -46.605  70.134  1.00  0.00     0.050 A 
ATOM     18  C   UNL     1      19.811 -46.916  68.780  1.00  0.00     0.157 A 
BRANCH  16  19
ATOM     19  O   UNL     1      18.421 -47.731  66.966  1.00  0.00    -0.504 OA
ATOM     20  H   UNL     1      18.896 -47.211  66.238  1.00  0.00     0.293 HD
ENDBRANCH  16  19
BRANCH  18  21
ATOM     21  O   UNL     1      20.888 -46.729  67.913  1.00  0.00    -0.504 OA
ATOM     22  H   UNL     1      21.043 -45.854  67.429  1.00  0.00     0.293 HD
ENDBRANCH  18  21
ENDBRANCH   3  13
BRANCH   9  23
ATOM     23  O   UNL     1      12.364 -49.668  73.747  1.00  0.00    -0.507 OA
ATOM     24  H   UNL     1      13.103 -50.163  74.228  1.00  0.00     0.293 HD
ENDBRANCH   9  23
BRANCH   7  25
ATOM     25  O   UNL     1      10.580 -46.046  71.138  1.00  0.00    -0.508 OA
ATOM     26  H   UNL     1       9.633 -46.361  71.316  1.00  0.00     0.293 HD
ENDBRANCH   7  25
TORSDOF 6
ENDMDL
MODEL 6
REMARK VINA RESULT:    -6.984      2.681      4.342
REMARK INTER + INTRA:          -8.684
REMARK INTER:                  -8.774
REMARK INTRA:                   0.090
REMARK UNBOUND:                -0.272
REMARK SMILES Oc1cc(O)c2c(c1)O[C@H](c1ccc(O)c(O)c1)[C@@H](O)C2
REMARK SMILES IDX 21 1 19 2 10 3 9 4 7 5 8 6 2 7 3 8 4 9 6 10 20 11 11 13
REMARK SMILES IDX 18 14 12 15 16 16 13 17 14 18 17 19 15 21 5 23 1 25
REMARK H PARENT 20 12 17 20 15 22 5 24 1 26
REMARK Flexibility Score: inf
ROOT
ATOM      1  C   UNL     1      19.051 -47.124  68.057  1.00  0.00     0.079 C 
ATOM      2  C   UNL     1      17.684 -47.241  68.759  1.00  0.00     0.164 C 
ATOM      3  C   UNL     1      17.855 -47.930  70.124  1.00  0.00     0.232 C 
ATOM      4  O   UNL     1      18.473 -49.204  69.949  1.00  0.00    -0.482 OA
ATOM      5  C   UNL     1      19.497 -49.417  69.021  1.00  0.00     0.131 A 
ATOM      6  C   UNL     1      20.183 -50.634  69.035  1.00  0.00     0.093 A 
ATOM      7  C   UNL     1      21.223 -50.868  68.129  1.00  0.00     0.122 A 
ATOM      8  C   UNL     1      21.583 -49.876  67.215  1.00  0.00     0.092 A 
ATOM      9  C   UNL     1      20.906 -48.651  67.186  1.00  0.00     0.126 A 
ATOM     10  C   UNL     1      19.825 -48.426  68.071  1.00  0.00     0.039 A 
ENDROOT
BRANCH   2  11
ATOM     11  O   UNL     1      17.131 -45.963  68.938  1.00  0.00    -0.389 OA
ATOM     12  H   UNL     1      17.869 -45.312  68.811  1.00  0.00     0.211 HD
ENDBRANCH   2  11
BRANCH   3  13
ATOM     13  C   UNL     1      16.523 -48.102  70.818  1.00  0.00    -0.001 A 
ATOM     14  C   UNL     1      16.465 -48.520  72.158  1.00  0.00     0.057 A 
ATOM     15  C   UNL     1      15.327 -47.889  70.114  1.00  0.00     0.012 A 
ATOM     16  C   UNL     1      15.229 -48.705  72.794  1.00  0.00     0.157 A 
ATOM     17  C   UNL     1      14.095 -48.073  70.746  1.00  0.00     0.050 A 
ATOM     18  C   UNL     1      14.038 -48.478  72.082  1.00  0.00     0.157 A 
BRANCH  16  19
ATOM     19  O   UNL     1      15.180 -49.115  74.125  1.00  0.00    -0.504 OA
ATOM     20  H   UNL     1      14.775 -48.530  74.846  1.00  0.00     0.293 HD
ENDBRANCH  16  19
BRANCH  18  21
ATOM     21  O   UNL     1      12.793 -48.652  72.687  1.00  0.00    -0.504 OA
ATOM     22  H   UNL     1      12.159 -47.879  72.847  1.00  0.00     0.293 HD
ENDBRANCH  18  21
ENDBRANCH   3  13
BRANCH   9  23
ATOM     23  O   UNL     1      21.341 -47.683  66.279  1.00  0.00    -0.507 OA
ATOM     24  H   UNL     1      22.048 -46.993  66.498  1.00  0.00     0.293 HD
ENDBRANCH   9  23
BRANCH   7  25
ATOM     25  O   UNL     1      21.910 -52.080  68.136  1.00  0.00    -0.508 OA
ATOM     26  H   UNL     1      22.489 -52.365  67.354  1.00  0.00     0.293 HD
ENDBRANCH   7  25
TORSDOF 6
ENDMDL
MODEL 7
REMARK VINA RESULT:    -6.944      2.061      3.538
REMARK INTER + INTRA:          -8.637
REMARK INTER:                  -8.265
REMARK INTRA:                  -0.372
REMARK UNBOUND:                -0.272
REMARK SMILES Oc1cc(O)c2c(c1)O[C@H](c1ccc(O)c(O)c1)[C@@H](O)C2
REMARK SMILES IDX 21 1 19 2 10 3 9 4 7 5 8 6 2 7 3 8 4 9 6 10 20 11 11 13
REMARK SMILES IDX 18 14 12 15 16 16 13 17 14 18 17 19 15 21 5 23 1 25
REMARK H PARENT 20 12 17 20 15 22 5 24 1 26
REMARK Flexibility Score: inf
ROOT
ATOM      1  C   UNL     1      18.637 -46.518  70.752  1.00  0.00     0.079 C 
ATOM      2  C   UNL     1      17.225 -46.742  71.327  1.00  0.00     0.164 C 
ATOM      3  C   UNL     1      16.931 -48.249  71.417  1.00  0.00     0.232 C 
ATOM      4  O   UNL     1      17.082 -48.850  70.130  1.00  0.00    -0.482 OA
ATOM      5  C   UNL     1      18.097 -48.473  69.245  1.00  0.00     0.131 A 
ATOM      6  C   UNL     1      18.302 -49.229  68.088  1.00  0.00     0.093 A 
ATOM      7  C   UNL     1      19.321 -48.885  67.192  1.00  0.00     0.122 A 
ATOM      8  C   UNL     1      20.141 -47.789  67.463  1.00  0.00     0.092 A 
ATOM      9  C   UNL     1      19.951 -47.020  68.618  1.00  0.00     0.126 A 
ATOM     10  C   UNL     1      18.894 -47.337  69.504  1.00  0.00     0.039 A 
ENDROOT
BRANCH   2  11
ATOM     11  O   UNL     1      17.134 -46.163  72.603  1.00  0.00    -0.389 OA
ATOM     12  H   UNL     1      18.063 -46.077  72.944  1.00  0.00     0.211 HD
ENDBRANCH   2  11
BRANCH   3  13
ATOM     13  C   UNL     1      15.533 -48.502  71.934  1.00  0.00    -0.001 A 
ATOM     14  C   UNL     1      14.415 -48.024  71.230  1.00  0.00     0.057 A 
ATOM     15  C   UNL     1      15.341 -49.178  73.149  1.00  0.00     0.012 A 
ATOM     16  C   UNL     1      13.119 -48.236  71.724  1.00  0.00     0.157 A 
ATOM     17  C   UNL     1      14.051 -49.390  73.642  1.00  0.00     0.050 A 
ATOM     18  C   UNL     1      12.938 -48.924  72.936  1.00  0.00     0.157 A 
BRANCH  16  19
ATOM     19  O   UNL     1      12.014 -47.764  71.017  1.00  0.00    -0.504 OA
ATOM     20  H   UNL     1      11.916 -47.919  70.021  1.00  0.00     0.293 HD
ENDBRANCH  16  19
BRANCH  18  21
ATOM     21  O   UNL     1      11.662 -49.152  73.453  1.00  0.00    -0.504 OA
ATOM     22  H   UNL     1      10.832 -48.759  73.028  1.00  0.00     0.293 HD
ENDBRANCH  18  21
ENDBRANCH   3  13
BRANCH   9  23
ATOM     23  O   UNL     1      20.832 -45.964  68.856  1.00  0.00    -0.507 OA
ATOM     24  H   UNL     1      21.748 -45.898  68.432  1.00  0.00     0.293 HD
ENDBRANCH   9  23
BRANCH   7  25
ATOM     25  O   UNL     1      19.530 -49.632  66.035  1.00  0.00    -0.508 OA
ATOM     26  H   UNL     1      20.398 -50.131  65.877  1.00  0.00     0.293 HD
ENDBRANCH   7  25
TORSDOF 6
ENDMDL
MODEL 8
REMARK VINA RESULT:    -6.939      1.864      2.752
REMARK INTER + INTRA:          -8.631
REMARK INTER:                  -8.344
REMARK INTRA:                  -0.287
REMARK UNBOUND:                -0.272
REMARK SMILES Oc1cc(O)c2c(c1)O[C@H](c1ccc(O)c(O)c1)[C@@H](O)C2
REMARK SMILES IDX 21 1 19 2 10 3 9 4 7 5 8 6 2 7 3 8 4 9 6 10 20 11 11 13
REMARK SMILES IDX 18 14 12 15 16 16 13 17 14 18 17 19 15 21 5 23 1 25
REMARK H PARENT 20 12 17 20 15 22 5 24 1 26
REMARK Flexibility Score: inf
ROOT
ATOM      1  C   UNL     1      17.848 -47.215  71.320  1.00  0.00     0.079 C 
ATOM      2  C   UNL     1      16.414 -47.119  71.877  1.00  0.00     0.164 C 
ATOM      3  C   UNL     1      15.405 -47.548  70.798  1.00  0.00     0.232 C 
ATOM      4  O   UNL     1      15.575 -46.747  69.630  1.00  0.00    -0.482 OA
ATOM      5  C   UNL     1      16.836 -46.355  69.170  1.00  0.00     0.131 A 
ATOM      6  C   UNL     1      16.941 -45.734  67.922  1.00  0.00     0.093 A 
ATOM      7  C   UNL     1      18.191 -45.346  67.430  1.00  0.00     0.122 A 
ATOM      8  C   UNL     1      19.340 -45.590  68.185  1.00  0.00     0.092 A 
ATOM      9  C   UNL     1      19.255 -46.210  69.438  1.00  0.00     0.126 A 
ATOM     10  C   UNL     1      17.988 -46.564  69.959  1.00  0.00     0.039 A 
ENDROOT
BRANCH   2  11
ATOM     11  O   UNL     1      16.286 -47.947  73.004  1.00  0.00    -0.389 OA
ATOM     12  H   UNL     1      15.516 -48.549  72.830  1.00  0.00     0.211 HD
ENDBRANCH   2  11
BRANCH   3  13
ATOM     13  C   UNL     1      13.985 -47.421  71.299  1.00  0.00    -0.001 A 
ATOM     14  C   UNL     1      13.351 -46.167  71.339  1.00  0.00     0.057 A 
ATOM     15  C   UNL     1      13.299 -48.550  71.775  1.00  0.00     0.012 A 
ATOM     16  C   UNL     1      12.043 -46.045  71.828  1.00  0.00     0.157 A 
ATOM     17  C   UNL     1      11.996 -48.430  72.262  1.00  0.00     0.050 A 
ATOM     18  C   UNL     1      11.362 -47.184  72.291  1.00  0.00     0.157 A 
BRANCH  16  19
ATOM     19  O   UNL     1      11.420 -44.799  71.859  1.00  0.00    -0.504 OA
ATOM     20  H   UNL     1      10.906 -44.442  71.062  1.00  0.00     0.293 HD
ENDBRANCH  16  19
BRANCH  18  21
ATOM     21  O   UNL     1      10.059 -47.096  72.783  1.00  0.00    -0.504 OA
ATOM     22  H   UNL     1       9.565 -46.214  72.840  1.00  0.00     0.293 HD
ENDBRANCH  18  21
ENDBRANCH   3  13
BRANCH   9  23
ATOM     23  O   UNL     1      20.442 -46.466  70.125  1.00  0.00    -0.507 OA
ATOM     24  H   UNL     1      20.860 -45.813  70.775  1.00  0.00     0.293 HD
ENDBRANCH   9  23
BRANCH   7  25
ATOM     25  O   UNL     1      18.303 -44.726  66.187  1.00  0.00    -0.508 OA
ATOM     26  H   UNL     1      17.490 -44.546  65.610  1.00  0.00     0.293 HD
ENDBRANCH   7  25
TORSDOF 6
ENDMDL
MODEL 9
REMARK VINA RESULT:    -6.887      2.257      7.560
REMARK INTER + INTRA:          -8.568
REMARK INTER:                  -8.333
REMARK INTRA:                  -0.236
REMARK UNBOUND:                -0.272
REMARK SMILES Oc1cc(O)c2c(c1)O[C@H](c1ccc(O)c(O)c1)[C@@H](O)C2
REMARK SMILES IDX 21 1 19 2 10 3 9 4 7 5 8 6 2 7 3 8 4 9 6 10 20 11 11 13
REMARK SMILES IDX 18 14 12 15 16 16 13 17 14 18 17 19 15 21 5 23 1 25
REMARK H PARENT 20 12 17 20 15 22 5 24 1 26
REMARK Flexibility Score: inf
ROOT
ATOM      1  C   UNL     1      17.256 -48.301  72.471  1.00  0.00     0.079 C 
ATOM      2  C   UNL     1      18.276 -48.218  71.318  1.00  0.00     0.164 C 
ATOM      3  C   UNL     1      17.873 -47.098  70.344  1.00  0.00     0.232 C 
ATOM      4  O   UNL     1      16.548 -47.325  69.865  1.00  0.00    -0.482 OA
ATOM      5  C   UNL     1      15.531 -47.818  70.688  1.00  0.00     0.131 A 
ATOM      6  C   UNL     1      14.219 -47.838  70.207  1.00  0.00     0.093 A 
ATOM      7  C   UNL     1      13.179 -48.311  71.014  1.00  0.00     0.122 A 
ATOM      8  C   UNL     1      13.453 -48.755  72.309  1.00  0.00     0.092 A 
ATOM      9  C   UNL     1      14.761 -48.744  72.808  1.00  0.00     0.126 A 
ATOM     10  C   UNL     1      15.823 -48.307  71.980  1.00  0.00     0.039 A 
ENDROOT
BRANCH   2  11
ATOM     11  O   UNL     1      19.556 -47.962  71.834  1.00  0.00    -0.389 OA
ATOM     12  H   UNL     1      20.116 -47.662  71.072  1.00  0.00     0.211 HD
ENDBRANCH   2  11
BRANCH   3  13
ATOM     13  C   UNL     1      18.829 -47.022  69.176  1.00  0.00    -0.001 A 
ATOM     14  C   UNL     1      19.925 -46.142  69.206  1.00  0.00     0.057 A 
ATOM     15  C   UNL     1      18.605 -47.797  68.027  1.00  0.00     0.012 A 
ATOM     16  C   UNL     1      20.797 -46.052  68.111  1.00  0.00     0.157 A 
ATOM     17  C   UNL     1      19.473 -47.710  66.937  1.00  0.00     0.050 A 
ATOM     18  C   UNL     1      20.569 -46.843  66.971  1.00  0.00     0.157 A 
BRANCH  16  19
ATOM     19  O   UNL     1      21.884 -45.181  68.151  1.00  0.00    -0.504 OA
ATOM     20  H   UNL     1      22.396 -44.933  67.313  1.00  0.00     0.293 HD
ENDBRANCH  16  19
BRANCH  18  21
ATOM     21  O   UNL     1      21.418 -46.777  65.867  1.00  0.00    -0.504 OA
ATOM     22  H   UNL     1      22.114 -47.489  65.680  1.00  0.00     0.293 HD
ENDBRANCH  18  21
ENDBRANCH   3  13
BRANCH   9  23
ATOM     23  O   UNL     1      14.965 -49.159  74.125  1.00  0.00    -0.507 OA
ATOM     24  H   UNL     1      15.057 -48.519  74.902  1.00  0.00     0.293 HD
ENDBRANCH   9  23
BRANCH   7  25
ATOM     25  O   UNL     1      11.868 -48.335  70.542  1.00  0.00    -0.508 OA
ATOM     26  H   UNL     1      11.122 -48.770  71.071  1.00  0.00     0.293 HD
ENDBRANCH   7  25
TORSDOF 6
ENDMDL
