MODEL 1
REMARK VINA RESULT:    -3.697      0.000      0.000
REMARK INTER + INTRA:          -5.511
REMARK INTER:                  -4.994
REMARK INTRA:                  -0.517
REMARK UNBOUND:                -0.517
REMARK SMILES CCCCCCCC(=O)[O-]
REMARK SMILES IDX 5 1 6 2 7 3 8 4 9 5 10 6 4 7 3 8 2 9 1 10
REMARK H PARENT
REMARK Flexibility Score: inf
ROOT
ATOM      1  C   UNL     1       7.068  24.453 110.806  1.00  0.00     0.000 C 
ENDROOT
BRANCH   1   2
ATOM      2  C   UNL     1       5.708  24.639 111.508  1.00  0.00     0.006 C 
BRANCH   2   3
ATOM      3  C   UNL     1       5.171  26.078 111.481  1.00  0.00     0.053 C 
BRANCH   3   4
ATOM      4  C   UNL     1       4.254  26.312 110.321  1.00  0.00     0.041 C 
ATOM      5  O   UNL     1       4.644  26.983 109.329  1.00  0.00    -0.550 OA
ATOM      6  O   UNL     1       2.956  25.816 110.349  1.00  0.00    -0.550 OA
ENDBRANCH   3   4
ENDBRANCH   2   3
ENDBRANCH   1   2
BRANCH   1   7
ATOM      7  C   UNL     1       7.916  25.734 110.673  1.00  0.00     0.000 C 
BRANCH   7   8
ATOM      8  C   UNL     1       8.485  25.996 109.267  1.00  0.00    -0.000 C 
BRANCH   8   9
ATOM      9  C   UNL     1       7.704  25.270 108.163  1.00  0.00    -0.003 C 
ATOM     10  C   UNL     1       7.258  26.243 107.076  1.00  0.00     0.004 C 
ENDBRANCH   8   9
ENDBRANCH   7   8
ENDBRANCH   1   7
TORSDOF 6
ENDMDL
MODEL 2
REMARK VINA RESULT:    -3.544      3.059      3.618
REMARK INTER + INTRA:          -5.304
REMARK INTER:                  -5.082
REMARK INTRA:                  -0.221
REMARK UNBOUND:                -0.517
REMARK SMILES CCCCCCCC(=O)[O-]
REMARK SMILES IDX 5 1 6 2 7 3 8 4 9 5 10 6 4 7 3 8 2 9 1 10
REMARK H PARENT
REMARK Flexibility Score: inf
ROOT
ATOM      1  C   UNL     1       5.854  26.359 110.244  1.00  0.00     0.000 C 
ENDROOT
BRANCH   1   2
ATOM      2  C   UNL     1       6.306  25.966 111.665  1.00  0.00     0.006 C 
BRANCH   2   3
ATOM      3  C   UNL     1       7.538  25.048 111.708  1.00  0.00     0.053 C 
BRANCH   3   4
ATOM      4  C   UNL     1       7.923  24.693 113.111  1.00  0.00     0.041 C 
ATOM      5  O   UNL     1       8.752  23.769 113.326  1.00  0.00    -0.550 OA
ATOM      6  O   UNL     1       7.342  25.359 114.182  1.00  0.00    -0.550 OA
ENDBRANCH   3   4
ENDBRANCH   2   3
ENDBRANCH   1   2
BRANCH   1   7
ATOM      7  C   UNL     1       6.975  26.389 109.185  1.00  0.00     0.000 C 
BRANCH   7   8
ATOM      8  C   UNL     1       6.495  26.563 107.733  1.00  0.00    -0.000 C 
BRANCH   8   9
ATOM      9  C   UNL     1       7.389  25.836 106.719  1.00  0.00    -0.003 C 
ATOM     10  C   UNL     1       8.800  25.645 107.267  1.00  0.00     0.004 C 
ENDBRANCH   8   9
ENDBRANCH   7   8
ENDBRANCH   1   7
TORSDOF 6
ENDMDL
MODEL 3
REMARK VINA RESULT:    -3.518      1.340      2.078
REMARK INTER + INTRA:          -5.268
REMARK INTER:                  -4.799
REMARK INTRA:                  -0.469
REMARK UNBOUND:                -0.517
REMARK SMILES CCCCCCCC(=O)[O-]
REMARK SMILES IDX 5 1 6 2 7 3 8 4 9 5 10 6 4 7 3 8 2 9 1 10
REMARK H PARENT
REMARK Flexibility Score: inf
ROOT
ATOM      1  C   UNL     1       5.298  24.149 111.932  1.00  0.00     0.000 C 
ENDROOT
BRANCH   1   2
ATOM      2  C   UNL     1       4.527  25.483 111.976  1.00  0.00     0.006 C 
BRANCH   2   3
ATOM      3  C   UNL     1       3.603  25.722 110.771  1.00  0.00     0.053 C 
BRANCH   3   4
ATOM      4  C   UNL     1       4.041  26.899 109.955  1.00  0.00     0.041 C 
ATOM      5  O   UNL     1       5.016  26.794 109.164  1.00  0.00    -0.550 OA
ATOM      6  O   UNL     1       3.394  28.120 110.091  1.00  0.00    -0.550 OA
ENDBRANCH   3   4
ENDBRANCH   2   3
ENDBRANCH   1   2
BRANCH   1   7
ATOM      7  C   UNL     1       6.658  24.201 111.206  1.00  0.00     0.000 C 
BRANCH   7   8
ATOM      8  C   UNL     1       7.668  25.207 111.786  1.00  0.00    -0.000 C 
BRANCH   8   9
ATOM      9  C   UNL     1       8.024  26.330 110.801  1.00  0.00    -0.003 C 
ATOM     10  C   UNL     1       8.357  25.767 109.423  1.00  0.00     0.004 C 
ENDBRANCH   8   9
ENDBRANCH   7   8
ENDBRANCH   1   7
TORSDOF 6
ENDMDL
MODEL 4
REMARK VINA RESULT:    -3.469      2.147      3.922
REMARK INTER + INTRA:          -5.203
REMARK INTER:                  -4.626
REMARK INTRA:                  -0.576
REMARK UNBOUND:                -0.517
REMARK SMILES CCCCCCCC(=O)[O-]
REMARK SMILES IDX 5 1 6 2 7 3 8 4 9 5 10 6 4 7 3 8 2 9 1 10
REMARK H PARENT
REMARK Flexibility Score: inf
ROOT
ATOM      1  C   UNL     1       5.303  24.192 111.712  1.00  0.00     0.000 C 
ENDROOT
BRANCH   1   2
ATOM      2  C   UNL     1       6.702  24.764 112.016  1.00  0.00     0.006 C 
BRANCH   2   3
ATOM      3  C   UNL     1       7.532  25.107 110.770  1.00  0.00     0.053 C 
BRANCH   3   4
ATOM      4  C   UNL     1       7.283  26.507 110.300  1.00  0.00     0.041 C 
ATOM      5  O   UNL     1       7.504  27.482 111.066  1.00  0.00    -0.550 OA
ATOM      6  O   UNL     1       6.776  26.735 109.027  1.00  0.00    -0.550 OA
ENDBRANCH   3   4
ENDBRANCH   2   3
ENDBRANCH   1   2
BRANCH   1   7
ATOM      7  C   UNL     1       4.128  25.153 111.986  1.00  0.00     0.000 C 
BRANCH   7   8
ATOM      8  C   UNL     1       3.345  25.597 110.738  1.00  0.00    -0.000 C 
BRANCH   8   9
ATOM      9  C   UNL     1       3.642  27.047 110.330  1.00  0.00    -0.003 C 
ATOM     10  C   UNL     1       3.901  27.919 111.555  1.00  0.00     0.004 C 
ENDBRANCH   8   9
ENDBRANCH   7   8
ENDBRANCH   1   7
TORSDOF 6
ENDMDL
MODEL 5
REMARK VINA RESULT:    -3.443      1.654      4.031
REMARK INTER + INTRA:          -5.168
REMARK INTER:                  -4.804
REMARK INTRA:                  -0.364
REMARK UNBOUND:                -0.517
REMARK SMILES CCCCCCCC(=O)[O-]
REMARK SMILES IDX 5 1 6 2 7 3 8 4 9 5 10 6 4 7 3 8 2 9 1 10
REMARK H PARENT
REMARK Flexibility Score: inf
ROOT
ATOM      1  C   UNL     1       7.018  24.393 110.864  1.00  0.00     0.000 C 
ENDROOT
BRANCH   1   2
ATOM      2  C   UNL     1       7.290  25.765 110.214  1.00  0.00     0.006 C 
BRANCH   2   3
ATOM      3  C   UNL     1       7.910  25.690 108.810  1.00  0.00     0.053 C 
BRANCH   3   4
ATOM      4  C   UNL     1       7.017  26.293 107.771  1.00  0.00     0.041 C 
ATOM      5  O   UNL     1       5.892  26.759 108.094  1.00  0.00    -0.550 OA
ATOM      6  O   UNL     1       7.412  26.312 106.439  1.00  0.00    -0.550 OA
ENDBRANCH   3   4
ENDBRANCH   2   3
ENDBRANCH   1   2
BRANCH   1   7
ATOM      7  C   UNL     1       6.257  24.442 112.204  1.00  0.00     0.000 C 
BRANCH   7   8
ATOM      8  C   UNL     1       4.760  24.098 112.117  1.00  0.00    -0.000 C 
BRANCH   8   9
ATOM      9  C   UNL     1       3.861  25.342 112.090  1.00  0.00    -0.003 C 
ATOM     10  C   UNL     1       3.528  25.748 110.658  1.00  0.00     0.004 C 
ENDBRANCH   8   9
ENDBRANCH   7   8
ENDBRANCH   1   7
TORSDOF 6
ENDMDL
MODEL 6
REMARK VINA RESULT:    -3.371      1.463      2.035
REMARK INTER + INTRA:          -5.070
REMARK INTER:                  -4.788
REMARK INTRA:                  -0.282
REMARK UNBOUND:                -0.517
REMARK SMILES CCCCCCCC(=O)[O-]
REMARK SMILES IDX 5 1 6 2 7 3 8 4 9 5 10 6 4 7 3 8 2 9 1 10
REMARK H PARENT
REMARK Flexibility Score: inf
ROOT
ATOM      1  C   UNL     1       6.070  25.896 110.434  1.00  0.00     0.000 C 
ENDROOT
BRANCH   1   2
ATOM      2  C   UNL     1       4.835  26.596 109.831  1.00  0.00     0.006 C 
BRANCH   2   3
ATOM      3  C   UNL     1       3.515  26.288 110.555  1.00  0.00     0.053 C 
BRANCH   3   4
ATOM      4  C   UNL     1       2.607  27.479 110.594  1.00  0.00     0.041 C 
ATOM      5  O   UNL     1       1.550  27.448 111.278  1.00  0.00    -0.550 OA
ATOM      6  O   UNL     1       2.912  28.611 109.849  1.00  0.00    -0.550 OA
ENDBRANCH   3   4
ENDBRANCH   2   3
ENDBRANCH   1   2
BRANCH   1   7
ATOM      7  C   UNL     1       7.415  26.606 110.177  1.00  0.00     0.000 C 
BRANCH   7   8
ATOM      8  C   UNL     1       8.400  25.832 109.283  1.00  0.00    -0.000 C 
BRANCH   8   9
ATOM      9  C   UNL     1       7.728  25.217 108.048  1.00  0.00    -0.003 C 
ATOM     10  C   UNL     1       7.475  26.274 106.977  1.00  0.00     0.004 C 
ENDBRANCH   8   9
ENDBRANCH   7   8
ENDBRANCH   1   7
TORSDOF 6
ENDMDL
MODEL 7
REMARK VINA RESULT:    -3.259      2.281      2.776
REMARK INTER + INTRA:          -4.920
REMARK INTER:                  -4.655
REMARK INTRA:                  -0.264
REMARK UNBOUND:                -0.517
REMARK SMILES CCCCCCCC(=O)[O-]
REMARK SMILES IDX 5 1 6 2 7 3 8 4 9 5 10 6 4 7 3 8 2 9 1 10
REMARK H PARENT
REMARK Flexibility Score: inf
ROOT
ATOM      1  C   UNL     1       7.391  26.935 111.061  1.00  0.00     0.000 C 
ENDROOT
BRANCH   1   2
ATOM      2  C   UNL     1       6.359  26.652 112.171  1.00  0.00     0.006 C 
BRANCH   2   3
ATOM      3  C   UNL     1       5.379  25.513 111.851  1.00  0.00     0.053 C 
BRANCH   3   4
ATOM      4  C   UNL     1       5.737  24.247 112.567  1.00  0.00     0.041 C 
ATOM      5  O   UNL     1       5.008  23.226 112.455  1.00  0.00    -0.550 OA
ATOM      6  O   UNL     1       6.858  24.204 113.386  1.00  0.00    -0.550 OA
ENDBRANCH   3   4
ENDBRANCH   2   3
ENDBRANCH   1   2
BRANCH   1   7
ATOM      7  C   UNL     1       7.146  26.188 109.734  1.00  0.00     0.000 C 
BRANCH   7   8
ATOM      8  C   UNL     1       8.418  25.720 109.005  1.00  0.00    -0.000 C 
BRANCH   8   9
ATOM      9  C   UNL     1       8.226  25.599 107.487  1.00  0.00    -0.003 C 
ATOM     10  C   UNL     1       7.004  26.387 107.023  1.00  0.00     0.004 C 
ENDBRANCH   8   9
ENDBRANCH   7   8
ENDBRANCH   1   7
TORSDOF 6
ENDMDL
MODEL 8
REMARK VINA RESULT:    -3.188      3.064      5.285
REMARK INTER + INTRA:          -4.822
REMARK INTER:                  -4.479
REMARK INTRA:                  -0.343
REMARK UNBOUND:                -0.517
REMARK SMILES CCCCCCCC(=O)[O-]
REMARK SMILES IDX 5 1 6 2 7 3 8 4 9 5 10 6 4 7 3 8 2 9 1 10
REMARK H PARENT
REMARK Flexibility Score: inf
ROOT
ATOM      1  C   UNL     1       4.875  23.722 112.307  1.00  0.00     0.000 C 
ENDROOT
BRANCH   1   2
ATOM      2  C   UNL     1       4.750  25.134 111.701  1.00  0.00     0.006 C 
BRANCH   2   3
ATOM      3  C   UNL     1       3.322  25.526 111.292  1.00  0.00     0.053 C 
BRANCH   3   4
ATOM      4  C   UNL     1       3.303  26.745 110.423  1.00  0.00     0.041 C 
ATOM      5  O   UNL     1       2.297  27.504 110.418  1.00  0.00    -0.550 OA
ATOM      6  O   UNL     1       4.381  27.027 109.595  1.00  0.00    -0.550 OA
ENDBRANCH   3   4
ENDBRANCH   2   3
ENDBRANCH   1   2
BRANCH   1   7
ATOM      7  C   UNL     1       4.004  23.465 113.554  1.00  0.00     0.000 C 
BRANCH   7   8
ATOM      8  C   UNL     1       3.461  22.031 113.686  1.00  0.00    -0.000 C 
BRANCH   8   9
ATOM      9  C   UNL     1       1.964  21.989 114.022  1.00  0.00    -0.003 C 
ATOM     10  C   UNL     1       1.271  23.284 113.610  1.00  0.00     0.004 C 
ENDBRANCH   8   9
ENDBRANCH   7   8
ENDBRANCH   1   7
TORSDOF 6
ENDMDL
MODEL 9
REMARK VINA RESULT:    -3.173      3.497      4.950
REMARK INTER + INTRA:          -4.803
REMARK INTER:                  -4.521
REMARK INTRA:                  -0.282
REMARK UNBOUND:                -0.517
REMARK SMILES CCCCCCCC(=O)[O-]
REMARK SMILES IDX 5 1 6 2 7 3 8 4 9 5 10 6 4 7 3 8 2 9 1 10
REMARK H PARENT
REMARK Flexibility Score: inf
ROOT
ATOM      1  C   UNL     1       4.492  24.545 112.461  1.00  0.00     0.000 C 
ENDROOT
BRANCH   1   2
ATOM      2  C   UNL     1       5.732  24.860 111.600  1.00  0.00     0.006 C 
BRANCH   2   3
ATOM      3  C   UNL     1       6.825  25.658 112.329  1.00  0.00     0.053 C 
BRANCH   3   4
ATOM      4  C   UNL     1       8.172  25.018 112.191  1.00  0.00     0.041 C 
ATOM      5  O   UNL     1       9.004  25.466 111.358  1.00  0.00    -0.550 OA
ATOM      6  O   UNL     1       8.497  23.906 112.958  1.00  0.00    -0.550 OA
ENDBRANCH   3   4
ENDBRANCH   2   3
ENDBRANCH   1   2
BRANCH   1   7
ATOM      7  C   UNL     1       3.257  25.423 112.174  1.00  0.00     0.000 C 
BRANCH   7   8
ATOM      8  C   UNL     1       3.110  25.884 110.713  1.00  0.00    -0.000 C 
BRANCH   8   9
ATOM      9  C   UNL     1       2.682  27.354 110.592  1.00  0.00    -0.003 C 
ATOM     10  C   UNL     1       1.742  27.748 111.727  1.00  0.00     0.004 C 
ENDBRANCH   8   9
ENDBRANCH   7   8
ENDBRANCH   1   7
TORSDOF 6
ENDMDL
