MODEL 1
REMARK VINA RESULT:    -2.894      0.000      0.000
REMARK INTER + INTRA:          -4.451
REMARK INTER:                  -3.909
REMARK INTRA:                  -0.541
REMARK UNBOUND:                -0.541
REMARK SMILES CCCCCCCC(=O)[O-]
REMARK SMILES IDX 5 1 6 2 7 3 8 4 9 5 10 6 4 7 3 8 2 9 1 10
REMARK H PARENT
REMARK Flexibility Score: inf
ROOT
ATOM      1  C   UNL     1      87.437  30.147  29.162  1.00  0.00     0.000 C 
ENDROOT
BRANCH   1   2
ATOM      2  C   UNL     1      86.423  29.866  28.043  1.00  0.00     0.006 C 
BRANCH   2   3
ATOM      3  C   UNL     1      85.581  28.628  28.365  1.00  0.00     0.053 C 
BRANCH   3   4
ATOM      4  C   UNL     1      86.377  27.381  28.143  1.00  0.00     0.041 C 
ATOM      5  O   UNL     1      86.738  27.058  26.981  1.00  0.00    -0.550 OA
ATOM      6  O   UNL     1      86.763  26.600  29.226  1.00  0.00    -0.550 OA
ENDBRANCH   3   4
ENDBRANCH   2   3
ENDBRANCH   1   2
BRANCH   1   7
ATOM      7  C   UNL     1      88.880  30.251  28.641  1.00  0.00     0.000 C 
BRANCH   7   8
ATOM      8  C   UNL     1      89.503  28.873  28.351  1.00  0.00    -0.000 C 
BRANCH   8   9
ATOM      9  C   UNL     1      89.892  28.705  26.874  1.00  0.00    -0.003 C 
ATOM     10  C   UNL     1      89.577  29.943  26.035  1.00  0.00     0.004 C 
ENDBRANCH   8   9
ENDBRANCH   7   8
ENDBRANCH   1   7
TORSDOF 6
ENDMDL
MODEL 2
REMARK VINA RESULT:    -2.859      2.578      3.591
REMARK INTER + INTRA:          -4.403
REMARK INTER:                  -4.129
REMARK INTRA:                  -0.273
REMARK UNBOUND:                -0.541
REMARK SMILES CCCCCCCC(=O)[O-]
REMARK SMILES IDX 5 1 6 2 7 3 8 4 9 5 10 6 4 7 3 8 2 9 1 10
REMARK H PARENT
REMARK Flexibility Score: inf
ROOT
ATOM      1  C   UNL     1      86.250  26.624  27.274  1.00  0.00     0.000 C 
ENDROOT
BRANCH   1   2
ATOM      2  C   UNL     1      86.205  25.839  28.595  1.00  0.00     0.006 C 
BRANCH   2   3
ATOM      3  C   UNL     1      85.742  24.399  28.361  1.00  0.00     0.053 C 
BRANCH   3   4
ATOM      4  C   UNL     1      84.427  24.155  29.031  1.00  0.00     0.041 C 
ATOM      5  O   UNL     1      83.784  25.115  29.532  1.00  0.00    -0.550 OA
ATOM      6  O   UNL     1      83.887  22.875  29.061  1.00  0.00    -0.550 OA
ENDBRANCH   3   4
ENDBRANCH   2   3
ENDBRANCH   1   2
BRANCH   1   7
ATOM      7  C   UNL     1      87.103  27.898  27.372  1.00  0.00     0.000 C 
BRANCH   7   8
ATOM      8  C   UNL     1      87.784  28.049  28.744  1.00  0.00    -0.000 C 
BRANCH   8   9
ATOM      9  C   UNL     1      89.017  28.965  28.690  1.00  0.00    -0.003 C 
ATOM     10  C   UNL     1      89.702  28.954  27.324  1.00  0.00     0.004 C 
ENDBRANCH   8   9
ENDBRANCH   7   8
ENDBRANCH   1   7
TORSDOF 6
ENDMDL
MODEL 3
REMARK VINA RESULT:    -2.849      1.984      2.732
REMARK INTER + INTRA:          -4.390
REMARK INTER:                  -3.749
REMARK INTRA:                  -0.640
REMARK UNBOUND:                -0.541
REMARK SMILES CCCCCCCC(=O)[O-]
REMARK SMILES IDX 5 1 6 2 7 3 8 4 9 5 10 6 4 7 3 8 2 9 1 10
REMARK H PARENT
REMARK Flexibility Score: inf
ROOT
ATOM      1  C   UNL     1      89.039  29.999  28.565  1.00  0.00     0.000 C 
ENDROOT
BRANCH   1   2
ATOM      2  C   UNL     1      87.651  29.802  29.194  1.00  0.00     0.006 C 
BRANCH   2   3
ATOM      3  C   UNL     1      86.666  30.860  28.691  1.00  0.00     0.053 C 
BRANCH   3   4
ATOM      4  C   UNL     1      86.506  30.764  27.207  1.00  0.00     0.041 C 
ATOM      5  O   UNL     1      86.672  31.780  26.484  1.00  0.00    -0.550 OA
ATOM      6  O   UNL     1      86.220  29.538  26.616  1.00  0.00    -0.550 OA
ENDBRANCH   3   4
ENDBRANCH   2   3
ENDBRANCH   1   2
BRANCH   1   7
ATOM      7  C   UNL     1      89.645  28.686  28.045  1.00  0.00     0.000 C 
BRANCH   7   8
ATOM      8  C   UNL     1      89.785  28.667  26.512  1.00  0.00    -0.000 C 
BRANCH   8   9
ATOM      9  C   UNL     1      89.960  30.075  25.921  1.00  0.00    -0.003 C 
ATOM     10  C   UNL     1      89.204  30.263  24.607  1.00  0.00     0.004 C 
ENDBRANCH   8   9
ENDBRANCH   7   8
ENDBRANCH   1   7
TORSDOF 6
ENDMDL
MODEL 4
REMARK VINA RESULT:    -2.840      1.600      2.077
REMARK INTER + INTRA:          -4.377
REMARK INTER:                  -4.116
REMARK INTRA:                  -0.261
REMARK UNBOUND:                -0.541
REMARK SMILES CCCCCCCC(=O)[O-]
REMARK SMILES IDX 5 1 6 2 7 3 8 4 9 5 10 6 4 7 3 8 2 9 1 10
REMARK H PARENT
REMARK Flexibility Score: inf
ROOT
ATOM      1  C   UNL     1      87.146  28.193  28.423  1.00  0.00     0.000 C 
ENDROOT
BRANCH   1   2
ATOM      2  C   UNL     1      86.947  26.884  29.201  1.00  0.00     0.006 C 
BRANCH   2   3
ATOM      3  C   UNL     1      85.624  26.215  28.820  1.00  0.00     0.053 C 
BRANCH   3   4
ATOM      4  C   UNL     1      85.857  25.116  27.833  1.00  0.00     0.041 C 
ATOM      5  O   UNL     1      85.974  25.379  26.608  1.00  0.00    -0.550 OA
ATOM      6  O   UNL     1      85.994  23.804  28.271  1.00  0.00    -0.550 OA
ENDBRANCH   3   4
ENDBRANCH   2   3
ENDBRANCH   1   2
BRANCH   1   7
ATOM      7  C   UNL     1      87.891  29.260  29.240  1.00  0.00     0.000 C 
BRANCH   7   8
ATOM      8  C   UNL     1      89.155  29.775  28.527  1.00  0.00    -0.000 C 
BRANCH   8   9
ATOM      9  C   UNL     1      89.528  28.920  27.306  1.00  0.00    -0.003 C 
ATOM     10  C   UNL     1      89.907  29.762  26.089  1.00  0.00     0.004 C 
ENDBRANCH   8   9
ENDBRANCH   7   8
ENDBRANCH   1   7
TORSDOF 6
ENDMDL
MODEL 5
REMARK VINA RESULT:    -2.808      1.355      2.389
REMARK INTER + INTRA:          -4.334
REMARK INTER:                  -3.793
REMARK INTRA:                  -0.541
REMARK UNBOUND:                -0.541
REMARK SMILES CCCCCCCC(=O)[O-]
REMARK SMILES IDX 5 1 6 2 7 3 8 4 9 5 10 6 4 7 3 8 2 9 1 10
REMARK H PARENT
REMARK Flexibility Score: inf
ROOT
ATOM      1  C   UNL     1      87.028  28.899  25.973  1.00  0.00     0.000 C 
ENDROOT
BRANCH   1   2
ATOM      2  C   UNL     1      86.097  28.168  26.952  1.00  0.00     0.006 C 
BRANCH   2   3
ATOM      3  C   UNL     1      86.447  26.679  27.035  1.00  0.00     0.053 C 
BRANCH   3   4
ATOM      4  C   UNL     1      86.410  26.210  28.454  1.00  0.00     0.041 C 
ATOM      5  O   UNL     1      85.834  25.130  28.750  1.00  0.00    -0.550 OA
ATOM      6  O   UNL     1      87.055  26.940  29.446  1.00  0.00    -0.550 OA
ENDBRANCH   3   4
ENDBRANCH   2   3
ENDBRANCH   1   2
BRANCH   1   7
ATOM      7  C   UNL     1      88.435  28.283  25.923  1.00  0.00     0.000 C 
BRANCH   7   8
ATOM      8  C   UNL     1      89.490  29.163  26.617  1.00  0.00    -0.000 C 
BRANCH   8   9
ATOM      9  C   UNL     1      89.581  28.891  28.127  1.00  0.00    -0.003 C 
ATOM     10  C   UNL     1      88.880  29.960  28.963  1.00  0.00     0.004 C 
ENDBRANCH   8   9
ENDBRANCH   7   8
ENDBRANCH   1   7
TORSDOF 6
ENDMDL
MODEL 6
REMARK VINA RESULT:    -2.799      1.419      1.948
REMARK INTER + INTRA:          -4.322
REMARK INTER:                  -3.800
REMARK INTRA:                  -0.522
REMARK UNBOUND:                -0.541
REMARK SMILES CCCCCCCC(=O)[O-]
REMARK SMILES IDX 5 1 6 2 7 3 8 4 9 5 10 6 4 7 3 8 2 9 1 10
REMARK H PARENT
REMARK Flexibility Score: inf
ROOT
ATOM      1  C   UNL     1      88.884  29.806  28.850  1.00  0.00     0.000 C 
ENDROOT
BRANCH   1   2
ATOM      2  C   UNL     1      87.511  29.202  29.183  1.00  0.00     0.006 C 
BRANCH   2   3
ATOM      3  C   UNL     1      87.561  27.672  29.141  1.00  0.00     0.053 C 
BRANCH   3   4
ATOM      4  C   UNL     1      86.193  27.109  28.924  1.00  0.00     0.041 C 
ATOM      5  O   UNL     1      86.015  25.863  28.909  1.00  0.00    -0.550 OA
ATOM      6  O   UNL     1      85.103  27.961  28.786  1.00  0.00    -0.550 OA
ENDBRANCH   3   4
ENDBRANCH   2   3
ENDBRANCH   1   2
BRANCH   1   7
ATOM      7  C   UNL     1      89.707  28.919  27.904  1.00  0.00     0.000 C 
BRANCH   7   8
ATOM      8  C   UNL     1      89.689  29.429  26.451  1.00  0.00    -0.000 C 
BRANCH   8   9
ATOM      9  C   UNL     1      88.910  28.496  25.511  1.00  0.00    -0.003 C 
ATOM     10  C   UNL     1      87.415  28.811  25.471  1.00  0.00     0.004 C 
ENDBRANCH   8   9
ENDBRANCH   7   8
ENDBRANCH   1   7
TORSDOF 6
ENDMDL
MODEL 7
REMARK VINA RESULT:    -2.753      2.201      3.460
REMARK INTER + INTRA:          -4.260
REMARK INTER:                  -3.634
REMARK INTRA:                  -0.627
REMARK UNBOUND:                -0.541
REMARK SMILES CCCCCCCC(=O)[O-]
REMARK SMILES IDX 5 1 6 2 7 3 8 4 9 5 10 6 4 7 3 8 2 9 1 10
REMARK H PARENT
REMARK Flexibility Score: inf
ROOT
ATOM      1  C   UNL     1      89.816  28.873  26.938  1.00  0.00     0.000 C 
ENDROOT
BRANCH   1   2
ATOM      2  C   UNL     1      89.321  28.875  28.392  1.00  0.00     0.006 C 
BRANCH   2   3
ATOM      3  C   UNL     1      88.725  30.235  28.766  1.00  0.00     0.053 C 
BRANCH   3   4
ATOM      4  C   UNL     1      87.261  30.106  29.047  1.00  0.00     0.041 C 
ATOM      5  O   UNL     1      86.670  29.014  28.844  1.00  0.00    -0.550 OA
ATOM      6  O   UNL     1      86.558  31.180  29.579  1.00  0.00    -0.550 OA
ENDBRANCH   3   4
ENDBRANCH   2   3
ENDBRANCH   1   2
BRANCH   1   7
ATOM      7  C   UNL     1      88.700  28.547  25.933  1.00  0.00     0.000 C 
BRANCH   7   8
ATOM      8  C   UNL     1      88.301  29.764  25.079  1.00  0.00    -0.000 C 
BRANCH   8   9
ATOM      9  C   UNL     1      86.866  30.236  25.365  1.00  0.00    -0.003 C 
ATOM     10  C   UNL     1      86.798  31.709  25.765  1.00  0.00     0.004 C 
ENDBRANCH   8   9
ENDBRANCH   7   8
ENDBRANCH   1   7
TORSDOF 6
ENDMDL
MODEL 8
REMARK VINA RESULT:    -2.745      1.871      3.003
REMARK INTER + INTRA:          -4.250
REMARK INTER:                  -3.844
REMARK INTRA:                  -0.406
REMARK UNBOUND:                -0.541
REMARK SMILES CCCCCCCC(=O)[O-]
REMARK SMILES IDX 5 1 6 2 7 3 8 4 9 5 10 6 4 7 3 8 2 9 1 10
REMARK H PARENT
REMARK Flexibility Score: inf
ROOT
ATOM      1  C   UNL     1      87.700  28.044  28.191  1.00  0.00     0.000 C 
ENDROOT
BRANCH   1   2
ATOM      2  C   UNL     1      87.045  27.084  29.197  1.00  0.00     0.006 C 
BRANCH   2   3
ATOM      3  C   UNL     1      85.543  26.952  28.931  1.00  0.00     0.053 C 
BRANCH   3   4
ATOM      4  C   UNL     1      85.147  25.512  28.862  1.00  0.00     0.041 C 
ATOM      5  O   UNL     1      84.012  25.146  29.264  1.00  0.00    -0.550 OA
ATOM      6  O   UNL     1      86.014  24.577  28.308  1.00  0.00    -0.550 OA
ENDBRANCH   3   4
ENDBRANCH   2   3
ENDBRANCH   1   2
BRANCH   1   7
ATOM      7  C   UNL     1      88.778  28.930  28.835  1.00  0.00     0.000 C 
BRANCH   7   8
ATOM      8  C   UNL     1      88.520  30.431  28.611  1.00  0.00    -0.000 C 
BRANCH   8   9
ATOM      9  C   UNL     1      87.037  30.739  28.351  1.00  0.00    -0.003 C 
ATOM     10  C   UNL     1      86.278  31.108  29.625  1.00  0.00     0.004 C 
ENDBRANCH   8   9
ENDBRANCH   7   8
ENDBRANCH   1   7
TORSDOF 6
ENDMDL
