MODEL 1
REMARK VINA RESULT:    -3.659      0.000      0.000
REMARK INTER + INTRA:          -6.705
REMARK INTER:                  -5.797
REMARK INTRA:                  -0.907
REMARK UNBOUND:                -0.907
REMARK SMILES CCCCCCCCCCCC(=O)[O-]
REMARK SMILES IDX 7 1 8 2 9 3 10 4 11 5 12 6 13 7 14 8 6 9 5 10 4 11 3 12 2 13
REMARK SMILES IDX 1 14
REMARK H PARENT
REMARK Flexibility Score: inf
ROOT
ATOM      1  C   UNL     1      56.289 -14.523   9.237  1.00  0.00     0.000 C 
ENDROOT
BRANCH   1   2
ATOM      2  C   UNL     1      56.119 -15.687  10.229  1.00  0.00     0.000 C 
BRANCH   2   3
ATOM      3  C   UNL     1      57.247 -16.727  10.116  1.00  0.00     0.000 C 
BRANCH   3   4
ATOM      4  C   UNL     1      57.969 -16.969  11.454  1.00  0.00     0.006 C 
BRANCH   4   5
ATOM      5  C   UNL     1      57.094 -16.745  12.699  1.00  0.00     0.053 C 
BRANCH   5   6
ATOM      6  C   UNL     1      57.916 -16.585  13.941  1.00  0.00     0.041 C 
ATOM      7  O   UNL     1      59.077 -16.101  13.875  1.00  0.00    -0.550 OA
ATOM      8  O   UNL     1      57.412 -17.000  15.167  1.00  0.00    -0.550 OA
ENDBRANCH   5   6
ENDBRANCH   4   5
ENDBRANCH   3   4
ENDBRANCH   2   3
ENDBRANCH   1   2
BRANCH   1   9
ATOM      9  C   UNL     1      57.766 -14.149   9.015  1.00  0.00     0.000 C 
BRANCH   9  10
ATOM     10  C   UNL     1      58.132 -14.049   7.525  1.00  0.00    -0.000 C 
BRANCH  10  11
ATOM     11  C   UNL     1      57.926 -15.371   6.772  1.00  0.00    -0.000 C 
BRANCH  11  12
ATOM     12  C   UNL     1      57.623 -15.115   5.288  1.00  0.00    -0.000 C 
BRANCH  12  13
ATOM     13  C   UNL     1      56.116 -15.098   4.988  1.00  0.00    -0.003 C 
ATOM     14  C   UNL     1      55.304 -15.926   5.984  1.00  0.00     0.004 C 
ENDBRANCH  12  13
ENDBRANCH  11  12
ENDBRANCH  10  11
ENDBRANCH   9  10
ENDBRANCH   1   9
TORSDOF 10
ENDMDL
MODEL 2
REMARK VINA RESULT:    -3.629      9.915     12.300
REMARK INTER + INTRA:          -6.658
REMARK INTER:                  -5.462
REMARK INTRA:                  -1.196
REMARK UNBOUND:                -0.907
REMARK SMILES CCCCCCCCCCCC(=O)[O-]
REMARK SMILES IDX 7 1 8 2 9 3 10 4 11 5 12 6 13 7 14 8 6 9 5 10 4 11 3 12 2 13
REMARK SMILES IDX 1 14
REMARK H PARENT
REMARK Flexibility Score: inf
ROOT
ATOM      1  C   UNL     1      65.622 -14.601  12.675  1.00  0.00     0.000 C 
ENDROOT
BRANCH   1   2
ATOM      2  C   UNL     1      66.762 -14.436  11.655  1.00  0.00     0.000 C 
BRANCH   2   3
ATOM      3  C   UNL     1      68.103 -14.981  12.176  1.00  0.00     0.000 C 
BRANCH   3   4
ATOM      4  C   UNL     1      68.582 -16.222  11.402  1.00  0.00     0.006 C 
BRANCH   4   5
ATOM      5  C   UNL     1      67.939 -16.395  10.016  1.00  0.00     0.053 C 
BRANCH   5   6
ATOM      6  C   UNL     1      68.877 -16.019   8.911  1.00  0.00     0.041 C 
ATOM      7  O   UNL     1      69.876 -15.289   9.148  1.00  0.00    -0.550 OA
ATOM      8  O   UNL     1      68.632 -16.448   7.613  1.00  0.00    -0.550 OA
ENDBRANCH   5   6
ENDBRANCH   4   5
ENDBRANCH   3   4
ENDBRANCH   2   3
ENDBRANCH   1   2
BRANCH   1   9
ATOM      9  C   UNL     1      64.994 -16.006  12.635  1.00  0.00     0.000 C 
BRANCH   9  10
ATOM     10  C   UNL     1      65.372 -16.858  13.857  1.00  0.00    -0.000 C 
BRANCH  10  11
ATOM     11  C   UNL     1      66.053 -16.040  14.964  1.00  0.00    -0.000 C 
BRANCH  11  12
ATOM     12  C   UNL     1      67.082 -16.893  15.722  1.00  0.00    -0.000 C 
BRANCH  12  13
ATOM     13  C   UNL     1      68.335 -16.096  16.116  1.00  0.00    -0.003 C 
ATOM     14  C   UNL     1      69.583 -16.539  15.352  1.00  0.00     0.004 C 
ENDBRANCH  12  13
ENDBRANCH  11  12
ENDBRANCH  10  11
ENDBRANCH   9  10
ENDBRANCH   1   9
TORSDOF 10
ENDMDL
MODEL 3
REMARK VINA RESULT:    -3.496      9.937     11.070
REMARK INTER + INTRA:          -6.447
REMARK INTER:                  -5.436
REMARK INTRA:                  -1.010
REMARK UNBOUND:                -0.907
REMARK SMILES CCCCCCCCCCCC(=O)[O-]
REMARK SMILES IDX 7 1 8 2 9 3 10 4 11 5 12 6 13 7 14 8 6 9 5 10 4 11 3 12 2 13
REMARK SMILES IDX 1 14
REMARK H PARENT
REMARK Flexibility Score: inf
ROOT
ATOM      1  C   UNL     1      65.563 -14.654  12.117  1.00  0.00     0.000 C 
ENDROOT
BRANCH   1   2
ATOM      2  C   UNL     1      65.299 -15.998  12.817  1.00  0.00     0.000 C 
BRANCH   2   3
ATOM      3  C   UNL     1      65.726 -15.988  14.295  1.00  0.00     0.000 C 
BRANCH   3   4
ATOM      4  C   UNL     1      67.019 -15.188  14.535  1.00  0.00     0.006 C 
BRANCH   4   5
ATOM      5  C   UNL     1      68.309 -16.020  14.433  1.00  0.00     0.053 C 
BRANCH   5   6
ATOM      6  C   UNL     1      68.877 -16.341  15.780  1.00  0.00     0.041 C 
ATOM      7  O   UNL     1      70.125 -16.389  15.947  1.00  0.00    -0.550 OA
ATOM      8  O   UNL     1      68.030 -16.620  16.845  1.00  0.00    -0.550 OA
ENDBRANCH   5   6
ENDBRANCH   4   5
ENDBRANCH   3   4
ENDBRANCH   2   3
ENDBRANCH   1   2
BRANCH   1   9
ATOM      9  C   UNL     1      66.511 -14.792  10.913  1.00  0.00     0.000 C 
BRANCH   9  10
ATOM     10  C   UNL     1      66.913 -16.251  10.641  1.00  0.00    -0.000 C 
BRANCH  10  11
ATOM     11  C   UNL     1      68.425 -16.485  10.768  1.00  0.00    -0.000 C 
BRANCH  11  12
ATOM     12  C   UNL     1      69.207 -15.520   9.862  1.00  0.00    -0.000 C 
BRANCH  12  13
ATOM     13  C   UNL     1      69.910 -16.241   8.701  1.00  0.00    -0.003 C 
ATOM     14  C   UNL     1      69.023 -16.375   7.463  1.00  0.00     0.004 C 
ENDBRANCH  12  13
ENDBRANCH  11  12
ENDBRANCH  10  11
ENDBRANCH   9  10
ENDBRANCH   1   9
TORSDOF 10
ENDMDL
MODEL 4
REMARK VINA RESULT:    -3.394     19.076     20.458
REMARK INTER + INTRA:          -6.286
REMARK INTER:                  -5.481
REMARK INTRA:                  -0.805
REMARK UNBOUND:                -0.907
REMARK SMILES CCCCCCCCCCCC(=O)[O-]
REMARK SMILES IDX 7 1 8 2 9 3 10 4 11 5 12 6 13 7 14 8 6 9 5 10 4 11 3 12 2 13
REMARK SMILES IDX 1 14
REMARK H PARENT
REMARK Flexibility Score: inf
ROOT
ATOM      1  C   UNL     1      55.237   0.118  22.439  1.00  0.00     0.000 C 
ENDROOT
BRANCH   1   2
ATOM      2  C   UNL     1      54.010   0.844  21.862  1.00  0.00     0.000 C 
BRANCH   2   3
ATOM      3  C   UNL     1      53.262  -0.001  20.817  1.00  0.00     0.000 C 
BRANCH   3   4
ATOM      4  C   UNL     1      51.875   0.572  20.470  1.00  0.00     0.006 C 
BRANCH   4   5
ATOM      5  C   UNL     1      50.775   0.236  21.491  1.00  0.00     0.053 C 
BRANCH   5   6
ATOM      6  C   UNL     1      50.695  -1.234  21.766  1.00  0.00     0.041 C 
ATOM      7  O   UNL     1      50.288  -2.025  20.875  1.00  0.00    -0.550 OA
ATOM      8  O   UNL     1      51.040  -1.728  23.018  1.00  0.00    -0.550 OA
ENDBRANCH   5   6
ENDBRANCH   4   5
ENDBRANCH   3   4
ENDBRANCH   2   3
ENDBRANCH   1   2
BRANCH   1   9
ATOM      9  C   UNL     1      56.564   0.768  22.008  1.00  0.00     0.000 C 
BRANCH   9  10
ATOM     10  C   UNL     1      57.463  -0.194  21.213  1.00  0.00    -0.000 C 
BRANCH  10  11
ATOM     11  C   UNL     1      57.539  -1.593  21.843  1.00  0.00    -0.000 C 
BRANCH  11  12
ATOM     12  C   UNL     1      58.795  -1.731  22.718  1.00  0.00    -0.000 C 
BRANCH  12  13
ATOM     13  C   UNL     1      58.466  -2.156  24.158  1.00  0.00    -0.003 C 
ATOM     14  C   UNL     1      57.917  -1.007  25.004  1.00  0.00     0.004 C 
ENDBRANCH  12  13
ENDBRANCH  11  12
ENDBRANCH  10  11
ENDBRANCH   9  10
ENDBRANCH   1   9
TORSDOF 10
ENDMDL
MODEL 5
REMARK VINA RESULT:    -3.353     19.667     20.764
REMARK INTER + INTRA:          -6.220
REMARK INTER:                  -4.924
REMARK INTRA:                  -1.296
REMARK UNBOUND:                -0.907
REMARK SMILES CCCCCCCCCCCC(=O)[O-]
REMARK SMILES IDX 7 1 8 2 9 3 10 4 11 5 12 6 13 7 14 8 6 9 5 10 4 11 3 12 2 13
REMARK SMILES IDX 1 14
REMARK H PARENT
REMARK Flexibility Score: inf
ROOT
ATOM      1  C   UNL     1      55.302   2.534  22.591  1.00  0.00     0.000 C 
ENDROOT
BRANCH   1   2
ATOM      2  C   UNL     1      56.591   1.703  22.700  1.00  0.00     0.000 C 
BRANCH   2   3
ATOM      3  C   UNL     1      56.548   0.430  21.837  1.00  0.00     0.000 C 
BRANCH   3   4
ATOM      4  C   UNL     1      56.291  -0.842  22.666  1.00  0.00     0.006 C 
BRANCH   4   5
ATOM      5  C   UNL     1      57.022  -0.878  24.019  1.00  0.00     0.053 C 
BRANCH   5   6
ATOM      6  C   UNL     1      58.229  -1.762  23.981  1.00  0.00     0.041 C 
ATOM      7  O   UNL     1      58.839  -2.049  25.045  1.00  0.00    -0.550 OA
ATOM      8  O   UNL     1      58.703  -2.243  22.767  1.00  0.00    -0.550 OA
ENDBRANCH   5   6
ENDBRANCH   4   5
ENDBRANCH   3   4
ENDBRANCH   2   3
ENDBRANCH   1   2
BRANCH   1   9
ATOM      9  C   UNL     1      54.247   2.128  23.636  1.00  0.00     0.000 C 
BRANCH   9  10
ATOM     10  C   UNL     1      53.050   1.392  23.013  1.00  0.00    -0.000 C 
BRANCH  10  11
ATOM     11  C   UNL     1      52.983   1.551  21.486  1.00  0.00    -0.000 C 
BRANCH  11  12
ATOM     12  C   UNL     1      52.893   0.181  20.796  1.00  0.00    -0.000 C 
BRANCH  12  13
ATOM     13  C   UNL     1      52.481  -0.940  21.763  1.00  0.00    -0.003 C 
ATOM     14  C   UNL     1      51.032  -1.389  21.566  1.00  0.00     0.004 C 
ENDBRANCH  12  13
ENDBRANCH  11  12
ENDBRANCH  10  11
ENDBRANCH   9  10
ENDBRANCH   1   9
TORSDOF 10
ENDMDL
MODEL 6
REMARK VINA RESULT:    -3.313     18.534     20.297
REMARK INTER + INTRA:          -6.156
REMARK INTER:                  -4.757
REMARK INTRA:                  -1.399
REMARK UNBOUND:                -0.907
REMARK SMILES CCCCCCCCCCCC(=O)[O-]
REMARK SMILES IDX 7 1 8 2 9 3 10 4 11 5 12 6 13 7 14 8 6 9 5 10 4 11 3 12 2 13
REMARK SMILES IDX 1 14
REMARK H PARENT
REMARK Flexibility Score: inf
ROOT
ATOM      1  C   UNL     1      69.585  -2.496   9.189  1.00  0.00     0.000 C 
ENDROOT
BRANCH   1   2
ATOM      2  C   UNL     1      69.473  -1.673   7.895  1.00  0.00     0.000 C 
BRANCH   2   3
ATOM      3  C   UNL     1      69.371  -0.162   8.164  1.00  0.00     0.000 C 
BRANCH   3   4
ATOM      4  C   UNL     1      68.232   0.508   7.374  1.00  0.00     0.006 C 
BRANCH   4   5
ATOM      5  C   UNL     1      66.941   0.725   8.180  1.00  0.00     0.053 C 
BRANCH   5   6
ATOM      6  C   UNL     1      66.454   2.139   8.090  1.00  0.00     0.041 C 
ATOM      7  O   UNL     1      66.640   2.935   9.048  1.00  0.00    -0.550 OA
ATOM      8  O   UNL     1      65.767   2.568   6.962  1.00  0.00    -0.550 OA
ENDBRANCH   5   6
ENDBRANCH   4   5
ENDBRANCH   3   4
ENDBRANCH   2   3
ENDBRANCH   1   2
BRANCH   1   9
ATOM      9  C   UNL     1      68.486  -2.146  10.208  1.00  0.00     0.000 C 
BRANCH   9  10
ATOM     10  C   UNL     1      69.037  -1.959  11.632  1.00  0.00    -0.000 C 
BRANCH  10  11
ATOM     11  C   UNL     1      69.397  -0.499  11.943  1.00  0.00    -0.000 C 
BRANCH  11  12
ATOM     12  C   UNL     1      68.193   0.425  11.701  1.00  0.00    -0.000 C 
BRANCH  12  13
ATOM     13  C   UNL     1      68.556   1.912  11.831  1.00  0.00    -0.003 C 
ATOM     14  C   UNL     1      69.631   2.349  10.836  1.00  0.00     0.004 C 
ENDBRANCH  12  13
ENDBRANCH  11  12
ENDBRANCH  10  11
ENDBRANCH   9  10
ENDBRANCH   1   9
TORSDOF 10
ENDMDL
MODEL 7
REMARK VINA RESULT:    -3.221      3.488      6.503
REMARK INTER + INTRA:          -6.012
REMARK INTER:                  -4.979
REMARK INTRA:                  -1.033
REMARK UNBOUND:                -0.907
REMARK SMILES CCCCCCCCCCCC(=O)[O-]
REMARK SMILES IDX 7 1 8 2 9 3 10 4 11 5 12 6 13 7 14 8 6 9 5 10 4 11 3 12 2 13
REMARK SMILES IDX 1 14
REMARK H PARENT
REMARK Flexibility Score: inf
ROOT
ATOM      1  C   UNL     1      56.633 -14.252   9.344  1.00  0.00     0.000 C 
ENDROOT
BRANCH   1   2
ATOM      2  C   UNL     1      57.889 -14.836   8.674  1.00  0.00     0.000 C 
BRANCH   2   3
ATOM      3  C   UNL     1      58.005 -14.439   7.192  1.00  0.00     0.000 C 
BRANCH   3   4
ATOM      4  C   UNL     1      58.058 -15.657   6.252  1.00  0.00     0.006 C 
BRANCH   4   5
ATOM      5  C   UNL     1      56.852 -16.603   6.370  1.00  0.00     0.053 C 
BRANCH   5   6
ATOM      6  C   UNL     1      55.557 -15.897   6.113  1.00  0.00     0.041 C 
ATOM      7  O   UNL     1      54.620 -15.965   6.951  1.00  0.00    -0.550 OA
ATOM      8  O   UNL     1      55.373 -15.189   4.931  1.00  0.00    -0.550 OA
ENDBRANCH   5   6
ENDBRANCH   4   5
ENDBRANCH   3   4
ENDBRANCH   2   3
ENDBRANCH   1   2
BRANCH   1   9
ATOM      9  C   UNL     1      55.881 -15.291  10.194  1.00  0.00     0.000 C 
BRANCH   9  10
ATOM     10  C   UNL     1      56.628 -16.632  10.287  1.00  0.00    -0.000 C 
BRANCH  10  11
ATOM     11  C   UNL     1      57.001 -17.005  11.729  1.00  0.00    -0.000 C 
BRANCH  11  12
ATOM     12  C   UNL     1      58.499 -16.777  11.984  1.00  0.00    -0.000 C 
BRANCH  12  13
ATOM     13  C   UNL     1      58.804 -16.444  13.452  1.00  0.00    -0.003 C 
ATOM     14  C   UNL     1      57.553 -16.443  14.331  1.00  0.00     0.004 C 
ENDBRANCH  12  13
ENDBRANCH  11  12
ENDBRANCH  10  11
ENDBRANCH   9  10
ENDBRANCH   1   9
TORSDOF 10
ENDMDL
MODEL 8
REMARK VINA RESULT:    -3.198     19.335     20.460
REMARK INTER + INTRA:          -5.975
REMARK INTER:                  -4.924
REMARK INTRA:                  -1.051
REMARK UNBOUND:                -0.907
REMARK SMILES CCCCCCCCCCCC(=O)[O-]
REMARK SMILES IDX 7 1 8 2 9 3 10 4 11 5 12 6 13 7 14 8 6 9 5 10 4 11 3 12 2 13
REMARK SMILES IDX 1 14
REMARK H PARENT
REMARK Flexibility Score: inf
ROOT
ATOM      1  C   UNL     1      52.562   1.485  20.981  1.00  0.00     0.000 C 
ENDROOT
BRANCH   1   2
ATOM      2  C   UNL     1      53.620   1.554  22.095  1.00  0.00     0.000 C 
BRANCH   2   3
ATOM      3  C   UNL     1      54.547   0.326  22.106  1.00  0.00     0.000 C 
BRANCH   3   4
ATOM      4  C   UNL     1      56.015   0.690  22.389  1.00  0.00     0.006 C 
BRANCH   4   5
ATOM      5  C   UNL     1      57.041  -0.255  21.741  1.00  0.00     0.053 C 
BRANCH   5   6
ATOM      6  C   UNL     1      57.599  -1.236  22.725  1.00  0.00     0.041 C 
ATOM      7  O   UNL     1      57.223  -1.212  23.927  1.00  0.00    -0.550 OA
ATOM      8  O   UNL     1      58.560  -2.155  22.323  1.00  0.00    -0.550 OA
ENDBRANCH   5   6
ENDBRANCH   4   5
ENDBRANCH   3   4
ENDBRANCH   2   3
ENDBRANCH   1   2
BRANCH   1   9
ATOM      9  C   UNL     1      52.558   0.128  20.255  1.00  0.00     0.000 C 
BRANCH   9  10
ATOM     10  C   UNL     1      51.148  -0.304  19.818  1.00  0.00    -0.000 C 
BRANCH  10  11
ATOM     11  C   UNL     1      50.203  -0.537  21.006  1.00  0.00    -0.000 C 
BRANCH  11  12
ATOM     12  C   UNL     1      50.624  -1.780  21.806  1.00  0.00    -0.000 C 
BRANCH  12  13
ATOM     13  C   UNL     1      50.535  -1.562  23.324  1.00  0.00    -0.003 C 
ATOM     14  C   UNL     1      50.650  -0.090  23.719  1.00  0.00     0.004 C 
ENDBRANCH  12  13
ENDBRANCH  11  12
ENDBRANCH  10  11
ENDBRANCH   9  10
ENDBRANCH   1   9
TORSDOF 10
ENDMDL
MODEL 9
REMARK VINA RESULT:    -3.167     17.299     19.057
REMARK INTER + INTRA:          -5.925
REMARK INTER:                  -5.167
REMARK INTRA:                  -0.758
REMARK UNBOUND:                -0.907
REMARK SMILES CCCCCCCCCCCC(=O)[O-]
REMARK SMILES IDX 7 1 8 2 9 3 10 4 11 5 12 6 13 7 14 8 6 9 5 10 4 11 3 12 2 13
REMARK SMILES IDX 1 14
REMARK H PARENT
REMARK Flexibility Score: inf
ROOT
ATOM      1  C   UNL     1      69.002  -1.816  11.518  1.00  0.00     0.000 C 
ENDROOT
BRANCH   1   2
ATOM      2  C   UNL     1      69.403  -0.335  11.630  1.00  0.00     0.000 C 
BRANCH   2   3
ATOM      3  C   UNL     1      68.222   0.617  11.372  1.00  0.00     0.000 C 
BRANCH   3   4
ATOM      4  C   UNL     1      68.488   1.596  10.214  1.00  0.00     0.006 C 
BRANCH   4   5
ATOM      5  C   UNL     1      67.236   1.988   9.411  1.00  0.00     0.053 C 
BRANCH   5   6
ATOM      6  C   UNL     1      67.002   1.068   8.253  1.00  0.00     0.041 C 
ATOM      7  O   UNL     1      66.368  -0.008   8.416  1.00  0.00    -0.550 OA
ATOM      8  O   UNL     1      67.510   1.384   6.999  1.00  0.00    -0.550 OA
ENDBRANCH   5   6
ENDBRANCH   4   5
ENDBRANCH   3   4
ENDBRANCH   2   3
ENDBRANCH   1   2
BRANCH   1   9
ATOM      9  C   UNL     1      68.463  -2.177  10.123  1.00  0.00     0.000 C 
BRANCH   9  10
ATOM     10  C   UNL     1      69.509  -1.976   9.014  1.00  0.00    -0.000 C 
BRANCH  10  11
ATOM     11  C   UNL     1      69.916  -3.292   8.335  1.00  0.00    -0.000 C 
BRANCH  11  12
ATOM     12  C   UNL     1      69.914  -3.142   6.806  1.00  0.00    -0.000 C 
BRANCH  12  13
ATOM     13  C   UNL     1      69.718  -4.483   6.082  1.00  0.00    -0.003 C 
ATOM     14  C   UNL     1      69.075  -5.548   6.971  1.00  0.00     0.004 C 
ENDBRANCH  12  13
ENDBRANCH  11  12
ENDBRANCH  10  11
ENDBRANCH   9  10
ENDBRANCH   1   9
TORSDOF 10
ENDMDL
