MODEL 1
REMARK VINA RESULT:    -5.695      0.000      0.000
REMARK INTER + INTRA:         -12.391
REMARK INTER:                 -10.023
REMARK INTRA:                  -2.368
REMARK UNBOUND:                -2.368
REMARK SMILES CCCCCCC=CCCCCCCCC(=O)[O-]
REMARK SMILES IDX 10 1 11 2 12 3 13 4 14 5 15 6 16 7 17 8 18 9 9 10 8 11 7 12
REMARK SMILES IDX 6 13 5 14 4 15 3 16 2 17 1 18
REMARK H PARENT
REMARK Flexibility Score: inf
ROOT
ATOM      1  C   UNL     1      13.268 -13.339  36.988  1.00  0.00     0.004 C 
ENDROOT
BRANCH   1   2
ATOM      2  C   UNL     1      13.237 -13.086  35.474  1.00  0.00     0.000 C 
BRANCH   2   3
ATOM      3  C   UNL     1      12.818 -11.640  35.167  1.00  0.00     0.000 C 
BRANCH   3   4
ATOM      4  C   UNL     1      11.292 -11.468  35.101  1.00  0.00     0.000 C 
BRANCH   4   5
ATOM      5  C   UNL     1      10.715 -10.809  36.363  1.00  0.00     0.006 C 
BRANCH   5   6
ATOM      6  C   UNL     1      11.770  -9.945  37.061  1.00  0.00     0.053 C 
BRANCH   6   7
ATOM      7  C   UNL     1      11.927 -10.362  38.490  1.00  0.00     0.041 C 
ATOM      8  O   UNL     1      10.956 -10.866  39.113  1.00  0.00    -0.550 OA
ATOM      9  O   UNL     1      13.131 -10.148  39.147  1.00  0.00    -0.550 OA
ENDBRANCH   6   7
ENDBRANCH   5   6
ENDBRANCH   4   5
ENDBRANCH   3   4
ENDBRANCH   2   3
ENDBRANCH   1   2
BRANCH   1  10
ATOM     10  C   UNL     1      12.536 -14.633  37.373  1.00  0.00     0.027 C 
BRANCH  10  11
ATOM     11  C   UNL     1      11.351 -14.903  36.481  1.00  0.00    -0.031 C 
ATOM     12  C   UNL     1      10.063 -14.845  36.870  1.00  0.00    -0.031 C 
BRANCH  12  13
ATOM     13  C   UNL     1       9.588 -14.443  38.247  1.00  0.00     0.027 C 
BRANCH  13  14
ATOM     14  C   UNL     1       8.558 -13.308  38.174  1.00  0.00     0.004 C 
BRANCH  14  15
ATOM     15  C   UNL     1       7.570 -13.498  37.009  1.00  0.00     0.000 C 
BRANCH  15  16
ATOM     16  C   UNL     1       7.198 -12.159  36.338  1.00  0.00    -0.000 C 
BRANCH  16  17
ATOM     17  C   UNL     1       7.564 -12.097  34.845  1.00  0.00    -0.003 C 
ATOM     18  C   UNL     1       7.931 -13.461  34.262  1.00  0.00     0.004 C 
ENDBRANCH  16  17
ENDBRANCH  15  16
ENDBRANCH  14  15
ENDBRANCH  13  14
ENDBRANCH  12  13
ENDBRANCH  10  11
ENDBRANCH   1  10
TORSDOF 13
ENDMDL
MODEL 2
REMARK VINA RESULT:    -5.676      2.328      5.207
REMARK INTER + INTRA:         -12.358
REMARK INTER:                 -10.316
REMARK INTRA:                  -2.042
REMARK UNBOUND:                -2.368
REMARK SMILES CCCCCCC=CCCCCCCCC(=O)[O-]
REMARK SMILES IDX 10 1 11 2 12 3 13 4 14 5 15 6 16 7 17 8 18 9 9 10 8 11 7 12
REMARK SMILES IDX 6 13 5 14 4 15 3 16 2 17 1 18
REMARK H PARENT
REMARK Flexibility Score: inf
ROOT
ATOM      1  C   UNL     1       9.996 -14.615  36.759  1.00  0.00     0.004 C 
ENDROOT
BRANCH   1   2
ATOM      2  C   UNL     1       9.772 -13.994  38.146  1.00  0.00     0.000 C 
BRANCH   2   3
ATOM      3  C   UNL     1       9.688 -12.463  38.054  1.00  0.00     0.000 C 
BRANCH   3   4
ATOM      4  C   UNL     1       8.259 -11.963  37.789  1.00  0.00     0.000 C 
BRANCH   4   5
ATOM      5  C   UNL     1       8.075 -11.423  36.363  1.00  0.00     0.006 C 
BRANCH   5   6
ATOM      6  C   UNL     1       7.322 -12.430  35.489  1.00  0.00     0.053 C 
BRANCH   6   7
ATOM      7  C   UNL     1       8.085 -12.707  34.232  1.00  0.00     0.041 C 
ATOM      8  O   UNL     1       9.138 -12.066  33.976  1.00  0.00    -0.550 OA
ATOM      9  O   UNL     1       7.606 -13.638  33.319  1.00  0.00    -0.550 OA
ENDBRANCH   6   7
ENDBRANCH   5   6
ENDBRANCH   4   5
ENDBRANCH   3   4
ENDBRANCH   2   3
ENDBRANCH   1   2
BRANCH   1  10
ATOM     10  C   UNL     1      11.337 -15.360  36.669  1.00  0.00     0.027 C 
BRANCH  10  11
ATOM     11  C   UNL     1      12.435 -14.647  37.419  1.00  0.00    -0.031 C 
ATOM     12  C   UNL     1      13.250 -13.715  36.890  1.00  0.00    -0.031 C 
BRANCH  12  13
ATOM     13  C   UNL     1      13.165 -13.186  35.478  1.00  0.00     0.027 C 
BRANCH  13  14
ATOM     14  C   UNL     1      12.266 -11.945  35.399  1.00  0.00     0.004 C 
BRANCH  14  15
ATOM     15  C   UNL     1      13.075 -10.658  35.157  1.00  0.00     0.000 C 
BRANCH  15  16
ATOM     16  C   UNL     1      13.517  -9.993  36.477  1.00  0.00    -0.000 C 
BRANCH  16  17
ATOM     17  C   UNL     1      12.419  -9.972  37.553  1.00  0.00    -0.003 C 
ATOM     18  C   UNL     1      12.895 -10.506  38.903  1.00  0.00     0.004 C 
ENDBRANCH  16  17
ENDBRANCH  15  16
ENDBRANCH  14  15
ENDBRANCH  13  14
ENDBRANCH  12  13
ENDBRANCH  10  11
ENDBRANCH   1  10
TORSDOF 13
ENDMDL
MODEL 3
REMARK VINA RESULT:    -5.674      2.401      5.637
REMARK INTER + INTRA:         -12.354
REMARK INTER:                 -10.673
REMARK INTRA:                  -1.682
REMARK UNBOUND:                -2.368
REMARK SMILES CCCCCCC=CCCCCCCCC(=O)[O-]
REMARK SMILES IDX 10 1 11 2 12 3 13 4 14 5 15 6 16 7 17 8 18 9 9 10 8 11 7 12
REMARK SMILES IDX 6 13 5 14 4 15 3 16 2 17 1 18
REMARK H PARENT
REMARK Flexibility Score: inf
ROOT
ATOM      1  C   UNL     1      10.692 -11.806  38.323  1.00  0.00     0.004 C 
ENDROOT
BRANCH   1   2
ATOM      2  C   UNL     1       9.170 -11.724  38.509  1.00  0.00     0.000 C 
BRANCH   2   3
ATOM      3  C   UNL     1       8.534 -13.122  38.457  1.00  0.00     0.000 C 
BRANCH   3   4
ATOM      4  C   UNL     1       8.523 -13.714  37.038  1.00  0.00     0.000 C 
BRANCH   4   5
ATOM      5  C   UNL     1       7.222 -13.409  36.280  1.00  0.00     0.006 C 
BRANCH   5   6
ATOM      6  C   UNL     1       7.401 -12.207  35.348  1.00  0.00     0.053 C 
BRANCH   6   7
ATOM      7  C   UNL     1       8.123 -12.612  34.101  1.00  0.00     0.041 C 
ATOM      8  O   UNL     1       7.671 -13.540  33.380  1.00  0.00    -0.550 OA
ATOM      9  O   UNL     1       9.322 -11.998  33.762  1.00  0.00    -0.550 OA
ENDBRANCH   6   7
ENDBRANCH   5   6
ENDBRANCH   4   5
ENDBRANCH   3   4
ENDBRANCH   2   3
ENDBRANCH   1   2
BRANCH   1  10
ATOM     10  C   UNL     1      11.416 -10.600  38.940  1.00  0.00     0.027 C 
BRANCH  10  11
ATOM     11  C   UNL     1      12.886 -10.585  38.603  1.00  0.00    -0.031 C 
ATOM     12  C   UNL     1      13.399 -10.252  37.404  1.00  0.00    -0.031 C 
BRANCH  12  13
ATOM     13  C   UNL     1      12.595  -9.781  36.214  1.00  0.00     0.027 C 
BRANCH  13  14
ATOM     14  C   UNL     1      12.498 -10.870  35.138  1.00  0.00     0.004 C 
BRANCH  14  15
ATOM     15  C   UNL     1      13.866 -11.509  34.836  1.00  0.00     0.000 C 
BRANCH  15  16
ATOM     16  C   UNL     1      13.863 -13.032  35.085  1.00  0.00    -0.000 C 
BRANCH  16  17
ATOM     17  C   UNL     1      12.653 -13.520  35.898  1.00  0.00    -0.003 C 
ATOM     18  C   UNL     1      13.049 -14.215  37.200  1.00  0.00     0.004 C 
ENDBRANCH  16  17
ENDBRANCH  15  16
ENDBRANCH  14  15
ENDBRANCH  13  14
ENDBRANCH  12  13
ENDBRANCH  10  11
ENDBRANCH   1  10
TORSDOF 13
ENDMDL
MODEL 4
REMARK VINA RESULT:    -5.655      2.278      5.042
REMARK INTER + INTRA:         -12.321
REMARK INTER:                  -9.988
REMARK INTRA:                  -2.333
REMARK UNBOUND:                -2.368
REMARK SMILES CCCCCCC=CCCCCCCCC(=O)[O-]
REMARK SMILES IDX 10 1 11 2 12 3 13 4 14 5 15 6 16 7 17 8 18 9 9 10 8 11 7 12
REMARK SMILES IDX 6 13 5 14 4 15 3 16 2 17 1 18
REMARK H PARENT
REMARK Flexibility Score: inf
ROOT
ATOM      1  C   UNL     1      13.302 -13.624  36.942  1.00  0.00     0.004 C 
ENDROOT
BRANCH   1   2
ATOM      2  C   UNL     1      12.328 -14.657  37.527  1.00  0.00     0.000 C 
BRANCH   2   3
ATOM      3  C   UNL     1      10.988 -14.634  36.777  1.00  0.00     0.000 C 
BRANCH   3   4
ATOM      4  C   UNL     1       9.784 -14.482  37.721  1.00  0.00     0.000 C 
BRANCH   4   5
ATOM      5  C   UNL     1       8.611 -13.734  37.070  1.00  0.00     0.006 C 
BRANCH   5   6
ATOM      6  C   UNL     1       8.645 -13.884  35.546  1.00  0.00     0.053 C 
BRANCH   6   7
ATOM      7  C   UNL     1       8.199 -12.618  34.884  1.00  0.00     0.041 C 
ATOM      8  O   UNL     1       7.285 -11.922  35.399  1.00  0.00    -0.550 OA
ATOM      9  O   UNL     1       8.759 -12.232  33.673  1.00  0.00    -0.550 OA
ENDBRANCH   6   7
ENDBRANCH   5   6
ENDBRANCH   4   5
ENDBRANCH   3   4
ENDBRANCH   2   3
ENDBRANCH   1   2
BRANCH   1  10
ATOM     10  C   UNL     1      12.980 -13.290  35.477  1.00  0.00     0.027 C 
BRANCH  10  11
ATOM     11  C   UNL     1      13.715 -12.064  34.999  1.00  0.00    -0.031 C 
ATOM     12  C   UNL     1      13.134 -10.891  34.683  1.00  0.00    -0.031 C 
BRANCH  12  13
ATOM     13  C   UNL     1      11.660 -10.588  34.811  1.00  0.00     0.027 C 
BRANCH  13  14
ATOM     14  C   UNL     1      11.333  -9.962  36.172  1.00  0.00     0.004 C 
BRANCH  14  15
ATOM     15  C   UNL     1      10.743 -10.990  37.155  1.00  0.00     0.000 C 
BRANCH  15  16
ATOM     16  C   UNL     1      11.317 -10.830  38.578  1.00  0.00    -0.000 C 
BRANCH  16  17
ATOM     17  C   UNL     1      12.752 -10.276  38.603  1.00  0.00    -0.003 C 
ATOM     18  C   UNL     1      13.394 -10.343  39.988  1.00  0.00     0.004 C 
ENDBRANCH  16  17
ENDBRANCH  15  16
ENDBRANCH  14  15
ENDBRANCH  13  14
ENDBRANCH  12  13
ENDBRANCH  10  11
ENDBRANCH   1  10
TORSDOF 13
ENDMDL
MODEL 5
REMARK VINA RESULT:    -5.634      1.283      3.154
REMARK INTER + INTRA:         -12.283
REMARK INTER:                 -10.544
REMARK INTRA:                  -1.739
REMARK UNBOUND:                -2.368
REMARK SMILES CCCCCCC=CCCCCCCCC(=O)[O-]
REMARK SMILES IDX 10 1 11 2 12 3 13 4 14 5 15 6 16 7 17 8 18 9 9 10 8 11 7 12
REMARK SMILES IDX 6 13 5 14 4 15 3 16 2 17 1 18
REMARK H PARENT
REMARK Flexibility Score: inf
ROOT
ATOM      1  C   UNL     1      10.570 -12.040  35.093  1.00  0.00     0.004 C 
ENDROOT
BRANCH   1   2
ATOM      2  C   UNL     1      11.348 -10.721  34.984  1.00  0.00     0.000 C 
BRANCH   2   3
ATOM      3  C   UNL     1      12.767 -10.964  34.447  1.00  0.00     0.000 C 
BRANCH   3   4
ATOM      4  C   UNL     1      13.829 -10.965  35.559  1.00  0.00     0.000 C 
BRANCH   4   5
ATOM      5  C   UNL     1      13.349 -10.263  36.838  1.00  0.00     0.006 C 
BRANCH   5   6
ATOM      6  C   UNL     1      13.192 -11.264  37.986  1.00  0.00     0.053 C 
BRANCH   6   7
ATOM      7  C   UNL     1      12.594 -10.598  39.185  1.00  0.00     0.041 C 
ATOM      8  O   UNL     1      13.337 -10.180  40.113  1.00  0.00    -0.550 OA
ATOM      9  O   UNL     1      11.216 -10.483  39.302  1.00  0.00    -0.550 OA
ENDBRANCH   6   7
ENDBRANCH   5   6
ENDBRANCH   4   5
ENDBRANCH   3   4
ENDBRANCH   2   3
ENDBRANCH   1   2
BRANCH   1  10
ATOM     10  C   UNL     1       9.219 -11.976  34.362  1.00  0.00     0.027 C 
BRANCH  10  11
ATOM     11  C   UNL     1       8.376 -13.200  34.617  1.00  0.00    -0.031 C 
ATOM     12  C   UNL     1       7.572 -13.375  35.682  1.00  0.00    -0.031 C 
BRANCH  12  13
ATOM     13  C   UNL     1       7.334 -12.353  36.769  1.00  0.00     0.027 C 
BRANCH  13  14
ATOM     14  C   UNL     1       8.152 -12.672  38.027  1.00  0.00     0.004 C 
BRANCH  14  15
ATOM     15  C   UNL     1       7.897 -14.103  38.535  1.00  0.00     0.000 C 
BRANCH  15  16
ATOM     16  C   UNL     1       9.210 -14.875  38.780  1.00  0.00    -0.000 C 
BRANCH  16  17
ATOM     17  C   UNL     1      10.379 -14.396  37.902  1.00  0.00    -0.003 C 
ATOM     18  C   UNL     1      10.752 -15.392  36.806  1.00  0.00     0.004 C 
ENDBRANCH  16  17
ENDBRANCH  15  16
ENDBRANCH  14  15
ENDBRANCH  13  14
ENDBRANCH  12  13
ENDBRANCH  10  11
ENDBRANCH   1  10
TORSDOF 13
ENDMDL
MODEL 6
REMARK VINA RESULT:    -5.626      2.270      4.997
REMARK INTER + INTRA:         -12.270
REMARK INTER:                 -10.004
REMARK INTRA:                  -2.266
REMARK UNBOUND:                -2.368
REMARK SMILES CCCCCCC=CCCCCCCCC(=O)[O-]
REMARK SMILES IDX 10 1 11 2 12 3 13 4 14 5 15 6 16 7 17 8 18 9 9 10 8 11 7 12
REMARK SMILES IDX 6 13 5 14 4 15 3 16 2 17 1 18
REMARK H PARENT
REMARK Flexibility Score: inf
ROOT
ATOM      1  C   UNL     1      10.633 -15.330  36.944  1.00  0.00     0.004 C 
ENDROOT
BRANCH   1   2
ATOM      2  C   UNL     1      10.005 -14.876  38.270  1.00  0.00     0.000 C 
BRANCH   2   3
ATOM      3  C   UNL     1       8.653 -14.187  38.030  1.00  0.00     0.000 C 
BRANCH   3   4
ATOM      4  C   UNL     1       8.726 -12.662  38.210  1.00  0.00     0.000 C 
BRANCH   4   5
ATOM      5  C   UNL     1       8.416 -11.897  36.914  1.00  0.00     0.006 C 
BRANCH   5   6
ATOM      6  C   UNL     1       7.567 -12.749  35.966  1.00  0.00     0.053 C 
BRANCH   6   7
ATOM      7  C   UNL     1       8.199 -12.813  34.610  1.00  0.00     0.041 C 
ATOM      8  O   UNL     1       7.693 -13.534  33.710  1.00  0.00    -0.550 OA
ATOM      9  O   UNL     1       9.373 -12.116  34.357  1.00  0.00    -0.550 OA
ENDBRANCH   6   7
ENDBRANCH   5   6
ENDBRANCH   4   5
ENDBRANCH   3   4
ENDBRANCH   2   3
ENDBRANCH   1   2
BRANCH   1  10
ATOM     10  C   UNL     1      11.483 -14.225  36.298  1.00  0.00     0.027 C 
BRANCH  10  11
ATOM     11  C   UNL     1      12.786 -14.011  37.026  1.00  0.00    -0.031 C 
ATOM     12  C   UNL     1      13.113 -12.901  37.713  1.00  0.00    -0.031 C 
BRANCH  12  13
ATOM     13  C   UNL     1      12.208 -11.708  37.920  1.00  0.00     0.027 C 
BRANCH  13  14
ATOM     14  C   UNL     1      13.013 -10.406  38.017  1.00  0.00     0.004 C 
BRANCH  14  15
ATOM     15  C   UNL     1      13.231  -9.756  36.639  1.00  0.00     0.000 C 
BRANCH  15  16
ATOM     16  C   UNL     1      12.172 -10.204  35.610  1.00  0.00    -0.000 C 
BRANCH  16  17
ATOM     17  C   UNL     1      12.763 -10.967  34.413  1.00  0.00    -0.003 C 
ATOM     18  C   UNL     1      14.259 -11.237  34.555  1.00  0.00     0.004 C 
ENDBRANCH  16  17
ENDBRANCH  15  16
ENDBRANCH  14  15
ENDBRANCH  13  14
ENDBRANCH  12  13
ENDBRANCH  10  11
ENDBRANCH   1  10
TORSDOF 13
ENDMDL
MODEL 7
REMARK VINA RESULT:    -5.603      2.124      5.236
REMARK INTER + INTRA:         -12.230
REMARK INTER:                  -9.909
REMARK INTRA:                  -2.321
REMARK UNBOUND:                -2.368
REMARK SMILES CCCCCCC=CCCCCCCCC(=O)[O-]
REMARK SMILES IDX 10 1 11 2 12 3 13 4 14 5 15 6 16 7 17 8 18 9 9 10 8 11 7 12
REMARK SMILES IDX 6 13 5 14 4 15 3 16 2 17 1 18
REMARK H PARENT
REMARK Flexibility Score: inf
ROOT
ATOM      1  C   UNL     1      11.918 -14.426  37.101  1.00  0.00     0.004 C 
ENDROOT
BRANCH   1   2
ATOM      2  C   UNL     1      10.454 -14.889  37.127  1.00  0.00     0.000 C 
BRANCH   2   3
ATOM      3  C   UNL     1       9.899 -14.874  38.559  1.00  0.00     0.000 C 
BRANCH   3   4
ATOM      4  C   UNL     1       8.375 -14.675  38.602  1.00  0.00     0.000 C 
BRANCH   4   5
ATOM      5  C   UNL     1       7.939 -13.317  38.031  1.00  0.00     0.006 C 
BRANCH   5   6
ATOM      6  C   UNL     1       7.149 -13.498  36.732  1.00  0.00     0.053 C 
BRANCH   6   7
ATOM      7  C   UNL     1       7.375 -12.337  35.815  1.00  0.00     0.041 C 
ATOM      8  O   UNL     1       7.356 -11.161  36.265  1.00  0.00    -0.550 OA
ATOM      9  O   UNL     1       7.557 -12.550  34.455  1.00  0.00    -0.550 OA
ENDBRANCH   6   7
ENDBRANCH   5   6
ENDBRANCH   4   5
ENDBRANCH   3   4
ENDBRANCH   2   3
ENDBRANCH   1   2
BRANCH   1  10
ATOM     10  C   UNL     1      12.207 -13.487  35.919  1.00  0.00     0.027 C 
BRANCH  10  11
ATOM     11  C   UNL     1      10.980 -12.724  35.487  1.00  0.00    -0.031 C 
ATOM     12  C   UNL     1      10.980 -11.454  35.039  1.00  0.00    -0.031 C 
BRANCH  12  13
ATOM     13  C   UNL     1      12.212 -10.602  34.838  1.00  0.00     0.027 C 
BRANCH  13  14
ATOM     14  C   UNL     1      12.490  -9.723  36.064  1.00  0.00     0.004 C 
BRANCH  14  15
ATOM     15  C   UNL     1      13.679 -10.243  36.892  1.00  0.00     0.000 C 
BRANCH  15  16
ATOM     16  C   UNL     1      13.228 -10.861  38.232  1.00  0.00    -0.000 C 
BRANCH  16  17
ATOM     17  C   UNL     1      11.943 -10.233  38.797  1.00  0.00    -0.003 C 
ATOM     18  C   UNL     1      10.753 -11.191  38.782  1.00  0.00     0.004 C 
ENDBRANCH  16  17
ENDBRANCH  15  16
ENDBRANCH  14  15
ENDBRANCH  13  14
ENDBRANCH  12  13
ENDBRANCH  10  11
ENDBRANCH   1  10
TORSDOF 13
ENDMDL
MODEL 8
REMARK VINA RESULT:    -5.568      1.934      2.537
REMARK INTER + INTRA:         -12.168
REMARK INTER:                  -9.945
REMARK INTRA:                  -2.223
REMARK UNBOUND:                -2.368
REMARK SMILES CCCCCCC=CCCCCCCCC(=O)[O-]
REMARK SMILES IDX 10 1 11 2 12 3 13 4 14 5 15 6 16 7 17 8 18 9 9 10 8 11 7 12
REMARK SMILES IDX 6 13 5 14 4 15 3 16 2 17 1 18
REMARK H PARENT
REMARK Flexibility Score: inf
ROOT
ATOM      1  C   UNL     1      11.352 -13.825  36.320  1.00  0.00     0.004 C 
ENDROOT
BRANCH   1   2
ATOM      2  C   UNL     1      12.717 -13.888  37.022  1.00  0.00     0.000 C 
BRANCH   2   3
ATOM      3  C   UNL     1      13.042 -12.554  37.711  1.00  0.00     0.000 C 
BRANCH   3   4
ATOM      4  C   UNL     1      11.836 -11.601  37.755  1.00  0.00     0.000 C 
BRANCH   4   5
ATOM      5  C   UNL     1      12.159 -10.212  37.186  1.00  0.00     0.006 C 
BRANCH   5   6
ATOM      6  C   UNL     1      13.422 -10.254  36.320  1.00  0.00     0.053 C 
BRANCH   6   7
ATOM      7  C   UNL     1      13.108 -10.792  34.960  1.00  0.00     0.041 C 
ATOM      8  O   UNL     1      11.978 -10.584  34.442  1.00  0.00    -0.550 OA
ATOM      9  O   UNL     1      14.043 -11.564  34.284  1.00  0.00    -0.550 OA
ENDBRANCH   6   7
ENDBRANCH   5   6
ENDBRANCH   4   5
ENDBRANCH   3   4
ENDBRANCH   2   3
ENDBRANCH   1   2
BRANCH   1  10
ATOM     10  C   UNL     1      10.480 -15.049  36.642  1.00  0.00     0.027 C 
BRANCH  10  11
ATOM     11  C   UNL     1      10.325 -15.262  38.126  1.00  0.00    -0.031 C 
ATOM     12  C   UNL     1       9.301 -14.802  38.869  1.00  0.00    -0.031 C 
BRANCH  12  13
ATOM     13  C   UNL     1       8.108 -14.046  38.333  1.00  0.00     0.027 C 
BRANCH  13  14
ATOM     14  C   UNL     1       8.391 -12.541  38.247  1.00  0.00     0.004 C 
BRANCH  14  15
ATOM     15  C   UNL     1       8.080 -11.972  36.851  1.00  0.00     0.000 C 
BRANCH  15  16
ATOM     16  C   UNL     1       7.205 -12.929  36.015  1.00  0.00    -0.000 C 
BRANCH  16  17
ATOM     17  C   UNL     1       7.857 -13.356  34.689  1.00  0.00    -0.003 C 
ATOM     18  C   UNL     1       8.718 -12.259  34.065  1.00  0.00     0.004 C 
ENDBRANCH  16  17
ENDBRANCH  15  16
ENDBRANCH  14  15
ENDBRANCH  13  14
ENDBRANCH  12  13
ENDBRANCH  10  11
ENDBRANCH   1  10
TORSDOF 13
ENDMDL
MODEL 9
REMARK VINA RESULT:    -5.545      1.173      2.448
REMARK INTER + INTRA:         -12.127
REMARK INTER:                  -9.781
REMARK INTRA:                  -2.345
REMARK UNBOUND:                -2.368
REMARK SMILES CCCCCCC=CCCCCCCCC(=O)[O-]
REMARK SMILES IDX 10 1 11 2 12 3 13 4 14 5 15 6 16 7 17 8 18 9 9 10 8 11 7 12
REMARK SMILES IDX 6 13 5 14 4 15 3 16 2 17 1 18
REMARK H PARENT
REMARK Flexibility Score: inf
ROOT
ATOM      1  C   UNL     1      10.651 -15.179  36.916  1.00  0.00     0.004 C 
ENDROOT
BRANCH   1   2
ATOM      2  C   UNL     1      12.166 -15.346  36.732  1.00  0.00     0.000 C 
BRANCH   2   3
ATOM      3  C   UNL     1      12.910 -14.053  37.097  1.00  0.00     0.000 C 
BRANCH   3   4
ATOM      4  C   UNL     1      13.022 -13.080  35.912  1.00  0.00     0.000 C 
BRANCH   4   5
ATOM      5  C   UNL     1      13.024 -11.608  36.352  1.00  0.00     0.006 C 
BRANCH   5   6
ATOM      6  C   UNL     1      12.946 -11.493  37.878  1.00  0.00     0.053 C 
BRANCH   6   7
ATOM      7  C   UNL     1      12.104 -10.321  38.273  1.00  0.00     0.041 C 
ATOM      8  O   UNL     1      12.051  -9.302  37.534  1.00  0.00    -0.550 OA
ATOM      9  O   UNL     1      11.418 -10.333  39.480  1.00  0.00    -0.550 OA
ENDBRANCH   6   7
ENDBRANCH   5   6
ENDBRANCH   4   5
ENDBRANCH   3   4
ENDBRANCH   2   3
ENDBRANCH   1   2
BRANCH   1  10
ATOM     10  C   UNL     1      10.305 -14.430  38.213  1.00  0.00     0.027 C 
BRANCH  10  11
ATOM     11  C   UNL     1       8.851 -14.574  38.582  1.00  0.00    -0.031 C 
ATOM     12  C   UNL     1       7.992 -13.550  38.750  1.00  0.00    -0.031 C 
BRANCH  12  13
ATOM     13  C   UNL     1       8.327 -12.092  38.539  1.00  0.00     0.027 C 
BRANCH  13  14
ATOM     14  C   UNL     1       7.998 -11.644  37.109  1.00  0.00     0.004 C 
BRANCH  14  15
ATOM     15  C   UNL     1       9.268 -11.379  36.280  1.00  0.00     0.000 C 
BRANCH  15  16
ATOM     16  C   UNL     1       9.394 -12.346  35.084  1.00  0.00    -0.000 C 
BRANCH  16  17
ATOM     17  C   UNL     1       8.194 -13.296  34.933  1.00  0.00    -0.003 C 
ATOM     18  C   UNL     1       7.802 -13.538  33.477  1.00  0.00     0.004 C 
ENDBRANCH  16  17
ENDBRANCH  15  16
ENDBRANCH  14  15
ENDBRANCH  13  14
ENDBRANCH  12  13
ENDBRANCH  10  11
ENDBRANCH   1  10
TORSDOF 13
ENDMDL
