MODEL 1
REMARK VINA RESULT:    -4.897      0.000      0.000
REMARK INTER + INTRA:          -5.326
REMARK INTER:                  -5.326
REMARK INTRA:                   0.000
REMARK UNBOUND:                 0.000
REMARK SMILES Cc1cc(O)c2c(c1)C(=O)c1cc(O)cc(O)c1C2=O
REMARK SMILES IDX 1 1 2 2 8 3 7 4 6 5 4 6 3 7 19 8 20 9 18 10 11 11 9 12 10 13
REMARK SMILES IDX 12 14 13 15 15 16 16 17 5 18 17 20 14 22
REMARK H PARENT 5 19 17 21 14 23
REMARK Flexibility Score: inf
ROOT
ATOM      1  C   UNL     1     -15.001  -3.840  -0.747  1.00  0.00     0.044 C 
ATOM      2  C   UNL     1     -15.624  -4.851  -1.666  1.00  0.00    -0.047 A 
ATOM      3  C   UNL     1     -15.037  -5.132  -2.904  1.00  0.00     0.016 A 
ATOM      4  C   UNL     1     -15.627  -6.055  -3.783  1.00  0.00     0.038 A 
ATOM      5  C   UNL     1     -16.825  -6.708  -3.417  1.00  0.00     0.076 A 
ATOM      6  C   UNL     1     -17.460  -6.355  -2.198  1.00  0.00     0.127 A 
ATOM      7  C   UNL     1     -16.842  -5.448  -1.330  1.00  0.00     0.050 A 
ATOM      8  C   UNL     1     -17.339  -7.784  -4.304  1.00  0.00     0.201 C 
ATOM      9  O   UNL     1     -17.996  -8.740  -3.813  1.00  0.00    -0.288 OA
ATOM     10  C   UNL     1     -16.917  -7.831  -5.728  1.00  0.00     0.076 A 
ATOM     11  C   UNL     1     -15.719  -7.174  -6.091  1.00  0.00     0.041 A 
ATOM     12  C   UNL     1     -15.001  -6.343  -5.097  1.00  0.00     0.194 C 
ATOM     13  O   UNL     1     -13.870  -5.859  -5.376  1.00  0.00    -0.289 OA
ATOM     14  C   UNL     1     -15.217  -7.309  -7.397  1.00  0.00     0.059 A 
ATOM     15  C   UNL     1     -15.901  -8.077  -8.344  1.00  0.00     0.120 A 
ATOM     16  C   UNL     1     -17.103  -8.692  -8.000  1.00  0.00     0.093 A 
ATOM     17  C   UNL     1     -17.635  -8.556  -6.714  1.00  0.00     0.131 A 
ENDROOT
BRANCH   6  18
ATOM     18  O   UNL     1     -18.712  -6.851  -1.829  1.00  0.00    -0.507 OA
ATOM     19  H   UNL     1     -19.362  -7.269  -2.480  1.00  0.00     0.293 HD
ENDBRANCH   6  18
BRANCH  17  20
ATOM     20  O   UNL     1     -18.888  -9.125  -6.471  1.00  0.00    -0.507 OA
ATOM     21  H   UNL     1     -19.054 -10.121  -6.446  1.00  0.00     0.293 HD
ENDBRANCH  17  20
BRANCH  15  22
ATOM     22  O   UNL     1     -15.398  -8.224  -9.634  1.00  0.00    -0.508 OA
ATOM     23  H   UNL     1     -16.011  -8.266 -10.441  1.00  0.00     0.293 HD
ENDBRANCH  15  22
TORSDOF 3
ENDMDL
MODEL 2
REMARK VINA RESULT:    -4.770      2.971      4.919
REMARK INTER + INTRA:          -5.189
REMARK INTER:                  -5.189
REMARK INTRA:                   0.000
REMARK UNBOUND:                 0.000
REMARK SMILES Cc1cc(O)c2c(c1)C(=O)c1cc(O)cc(O)c1C2=O
REMARK SMILES IDX 1 1 2 2 8 3 7 4 6 5 4 6 3 7 19 8 20 9 18 10 11 11 9 12 10 13
REMARK SMILES IDX 12 14 13 15 15 16 16 17 5 18 17 20 14 22
REMARK H PARENT 5 19 17 21 14 23
REMARK Flexibility Score: inf
ROOT
ATOM      1  C   UNL     1     -17.749  -9.015  -2.717  1.00  0.00     0.044 C 
ATOM      2  C   UNL     1     -16.866  -7.945  -3.290  1.00  0.00    -0.047 A 
ATOM      3  C   UNL     1     -15.721  -8.291  -4.016  1.00  0.00     0.016 A 
ATOM      4  C   UNL     1     -14.873  -7.297  -4.532  1.00  0.00     0.038 A 
ATOM      5  C   UNL     1     -15.176  -5.933  -4.319  1.00  0.00     0.076 A 
ATOM      6  C   UNL     1     -16.290  -5.591  -3.510  1.00  0.00     0.127 A 
ATOM      7  C   UNL     1     -17.131  -6.598  -3.025  1.00  0.00     0.050 A 
ATOM      8  C   UNL     1     -14.340  -4.912  -5.003  1.00  0.00     0.201 C 
ATOM      9  O   UNL     1     -14.847  -3.806  -5.330  1.00  0.00    -0.288 OA
ATOM     10  C   UNL     1     -12.975  -5.267  -5.468  1.00  0.00     0.076 A 
ATOM     11  C   UNL     1     -12.675  -6.633  -5.678  1.00  0.00     0.041 A 
ATOM     12  C   UNL     1     -13.658  -7.672  -5.295  1.00  0.00     0.194 C 
ATOM     13  O   UNL     1     -13.449  -8.880  -5.595  1.00  0.00    -0.289 OA
ATOM     14  C   UNL     1     -11.442  -6.997  -6.246  1.00  0.00     0.059 A 
ATOM     15  C   UNL     1     -10.503  -6.020  -6.591  1.00  0.00     0.120 A 
ATOM     16  C   UNL     1     -10.780  -4.677  -6.347  1.00  0.00     0.093 A 
ATOM     17  C   UNL     1     -11.991  -4.288  -5.765  1.00  0.00     0.131 A 
ENDROOT
BRANCH   6  18
ATOM     18  O   UNL     1     -16.577  -4.276  -3.138  1.00  0.00    -0.507 OA
ATOM     19  H   UNL     1     -16.719  -3.984  -2.180  1.00  0.00     0.293 HD
ENDBRANCH   6  18
BRANCH  17  20
ATOM     20  O   UNL     1     -12.158  -2.933  -5.467  1.00  0.00    -0.507 OA
ATOM     21  H   UNL     1     -12.482  -2.250  -6.137  1.00  0.00     0.293 HD
ENDBRANCH  17  20
BRANCH  15  22
ATOM     22  O   UNL     1      -9.286  -6.378  -7.166  1.00  0.00    -0.508 OA
ATOM     23  H   UNL     1      -9.020  -7.349  -7.285  1.00  0.00     0.293 HD
ENDBRANCH  15  22
TORSDOF 3
ENDMDL
MODEL 3
REMARK VINA RESULT:    -4.390      2.420      5.676
REMARK INTER + INTRA:          -4.775
REMARK INTER:                  -4.775
REMARK INTRA:                   0.000
REMARK UNBOUND:                 0.000
REMARK SMILES Cc1cc(O)c2c(c1)C(=O)c1cc(O)cc(O)c1C2=O
REMARK SMILES IDX 1 1 2 2 8 3 7 4 6 5 4 6 3 7 19 8 20 9 18 10 11 11 9 12 10 13
REMARK SMILES IDX 12 14 13 15 15 16 16 17 5 18 17 20 14 22
REMARK H PARENT 5 19 17 21 14 23
REMARK Flexibility Score: inf
ROOT
ATOM      1  C   UNL     1     -15.531  -8.880  -9.300  1.00  0.00     0.044 C 
ATOM      2  C   UNL     1     -15.956  -8.502  -7.911  1.00  0.00    -0.047 A 
ATOM      3  C   UNL     1     -15.102  -8.730  -6.827  1.00  0.00     0.016 A 
ATOM      4  C   UNL     1     -15.501  -8.406  -5.520  1.00  0.00     0.038 A 
ATOM      5  C   UNL     1     -16.778  -7.844  -5.293  1.00  0.00     0.076 A 
ATOM      6  C   UNL     1     -17.671  -7.695  -6.385  1.00  0.00     0.127 A 
ATOM      7  C   UNL     1     -17.243  -8.006  -7.680  1.00  0.00     0.050 A 
ATOM      8  C   UNL     1     -17.108  -7.379  -3.921  1.00  0.00     0.201 C 
ATOM      9  O   UNL     1     -17.902  -6.414  -3.761  1.00  0.00    -0.288 OA
ATOM     10  C   UNL     1     -16.360  -7.922  -2.758  1.00  0.00     0.076 A 
ATOM     11  C   UNL     1     -15.084  -8.486  -2.989  1.00  0.00     0.041 A 
ATOM     12  C   UNL     1     -14.592  -8.657  -4.375  1.00  0.00     0.194 C 
ATOM     13  O   UNL     1     -13.408  -9.041  -4.583  1.00  0.00    -0.289 OA
ATOM     14  C   UNL     1     -14.290  -8.885  -1.900  1.00  0.00     0.059 A 
ATOM     15  C   UNL     1     -14.758  -8.743  -0.590  1.00  0.00     0.120 A 
ATOM     16  C   UNL     1     -16.032  -8.225  -0.362  1.00  0.00     0.093 A 
ATOM     17  C   UNL     1     -16.850  -7.839  -1.428  1.00  0.00     0.131 A 
ENDROOT
BRANCH   6  18
ATOM     18  O   UNL     1     -18.995  -7.279  -6.226  1.00  0.00    -0.507 OA
ATOM     19  H   UNL     1     -19.693  -7.813  -5.726  1.00  0.00     0.293 HD
ENDBRANCH   6  18
BRANCH  17  20
ATOM     20  O   UNL     1     -18.147  -7.416  -1.126  1.00  0.00    -0.507 OA
ATOM     21  H   UNL     1     -18.845  -7.211  -1.826  1.00  0.00     0.293 HD
ENDBRANCH  17  20
BRANCH  15  22
ATOM     22  O   UNL     1     -13.968  -9.125   0.491  1.00  0.00    -0.508 OA
ATOM     23  H   UNL     1     -12.956  -9.076   0.452  1.00  0.00     0.293 HD
ENDBRANCH  15  22
TORSDOF 3
ENDMDL
MODEL 4
REMARK VINA RESULT:    -4.148      2.840      4.920
REMARK INTER + INTRA:          -4.512
REMARK INTER:                  -4.512
REMARK INTRA:                   0.000
REMARK UNBOUND:                 0.000
REMARK SMILES Cc1cc(O)c2c(c1)C(=O)c1cc(O)cc(O)c1C2=O
REMARK SMILES IDX 1 1 2 2 8 3 7 4 6 5 4 6 3 7 19 8 20 9 18 10 11 11 9 12 10 13
REMARK SMILES IDX 12 14 13 15 15 16 16 17 5 18 17 20 14 22
REMARK H PARENT 5 19 17 21 14 23
REMARK Flexibility Score: inf
ROOT
ATOM      1  C   UNL     1      -9.223  -6.450  -6.398  1.00  0.00     0.044 C 
ATOM      2  C   UNL     1     -10.635  -6.120  -6.009  1.00  0.00    -0.047 A 
ATOM      3  C   UNL     1     -11.614  -7.119  -6.000  1.00  0.00     0.016 A 
ATOM      4  C   UNL     1     -12.944  -6.815  -5.665  1.00  0.00     0.038 A 
ATOM      5  C   UNL     1     -13.300  -5.488  -5.333  1.00  0.00     0.076 A 
ATOM      6  C   UNL     1     -12.321  -4.465  -5.427  1.00  0.00     0.127 A 
ATOM      7  C   UNL     1     -10.999  -4.796  -5.743  1.00  0.00     0.050 A 
ATOM      8  C   UNL     1     -14.679  -5.232  -4.843  1.00  0.00     0.201 C 
ATOM      9  O   UNL     1     -14.890  -4.291  -4.031  1.00  0.00    -0.288 OA
ATOM     10  C   UNL     1     -15.765  -6.196  -5.157  1.00  0.00     0.076 A 
ATOM     11  C   UNL     1     -15.404  -7.522  -5.491  1.00  0.00     0.041 A 
ATOM     12  C   UNL     1     -13.977  -7.878  -5.665  1.00  0.00     0.194 C 
ATOM     13  O   UNL     1     -13.643  -9.083  -5.837  1.00  0.00    -0.289 OA
ATOM     14  C   UNL     1     -16.404  -8.496  -5.660  1.00  0.00     0.059 A 
ATOM     15  C   UNL     1     -17.753  -8.160  -5.516  1.00  0.00     0.120 A 
ATOM     16  C   UNL     1     -18.113  -6.845  -5.227  1.00  0.00     0.093 A 
ATOM     17  C   UNL     1     -17.139  -5.853  -5.073  1.00  0.00     0.131 A 
ENDROOT
BRANCH   6  18
ATOM     18  O   UNL     1     -12.623  -3.113  -5.252  1.00  0.00    -0.507 OA
ATOM     19  H   UNL     1     -12.888  -2.710  -4.363  1.00  0.00     0.293 HD
ENDBRANCH   6  18
BRANCH  17  20
ATOM     20  O   UNL     1     -17.580  -4.541  -4.876  1.00  0.00    -0.507 OA
ATOM     21  H   UNL     1     -16.994  -3.729  -5.007  1.00  0.00     0.293 HD
ENDBRANCH  17  20
BRANCH  15  22
ATOM     22  O   UNL     1     -18.745  -9.125  -5.670  1.00  0.00    -0.508 OA
ATOM     23  H   UNL     1     -18.580 -10.098  -5.437  1.00  0.00     0.293 HD
ENDBRANCH  15  22
TORSDOF 3
ENDMDL
MODEL 5
REMARK VINA RESULT:    -3.936      2.401      2.536
REMARK INTER + INTRA:          -4.281
REMARK INTER:                  -4.281
REMARK INTRA:                   0.000
REMARK UNBOUND:                 0.000
REMARK SMILES Cc1cc(O)c2c(c1)C(=O)c1cc(O)cc(O)c1C2=O
REMARK SMILES IDX 1 1 2 2 8 3 7 4 6 5 4 6 3 7 19 8 20 9 18 10 11 11 9 12 10 13
REMARK SMILES IDX 12 14 13 15 15 16 16 17 5 18 17 20 14 22
REMARK H PARENT 5 19 17 21 14 23
REMARK Flexibility Score: inf
ROOT
ATOM      1  C   UNL     1     -14.502  -9.097   0.861  1.00  0.00     0.044 C 
ATOM      2  C   UNL     1     -15.336  -8.969  -0.381  1.00  0.00    -0.047 A 
ATOM      3  C   UNL     1     -14.726  -8.967  -1.640  1.00  0.00     0.016 A 
ATOM      4  C   UNL     1     -15.494  -8.819  -2.807  1.00  0.00     0.038 A 
ATOM      5  C   UNL     1     -16.896  -8.671  -2.712  1.00  0.00     0.076 A 
ATOM      6  C   UNL     1     -17.498  -8.588  -1.430  1.00  0.00     0.127 A 
ATOM      7  C   UNL     1     -16.714  -8.759  -0.283  1.00  0.00     0.050 A 
ATOM      8  C   UNL     1     -17.689  -8.666  -3.969  1.00  0.00     0.201 C 
ATOM      9  O   UNL     1     -18.871  -9.103  -3.966  1.00  0.00    -0.288 OA
ATOM     10  C   UNL     1     -17.029  -8.326  -5.256  1.00  0.00     0.076 A 
ATOM     11  C   UNL     1     -15.626  -8.473  -5.346  1.00  0.00     0.041 A 
ATOM     12  C   UNL     1     -14.839  -8.811  -4.138  1.00  0.00     0.194 C 
ATOM     13  O   UNL     1     -13.607  -9.067  -4.236  1.00  0.00    -0.289 OA
ATOM     14  C   UNL     1     -14.983  -8.294  -6.583  1.00  0.00     0.059 A 
ATOM     15  C   UNL     1     -15.719  -7.956  -7.723  1.00  0.00     0.120 A 
ATOM     16  C   UNL     1     -17.097  -7.771  -7.628  1.00  0.00     0.093 A 
ATOM     17  C   UNL     1     -17.758  -7.924  -6.406  1.00  0.00     0.131 A 
ENDROOT
BRANCH   6  18
ATOM     18  O   UNL     1     -18.853  -8.305  -1.249  1.00  0.00    -0.507 OA
ATOM     19  H   UNL     1     -19.574  -9.013  -1.221  1.00  0.00     0.293 HD
ENDBRANCH   6  18
BRANCH  17  20
ATOM     20  O   UNL     1     -19.124  -7.632  -6.370  1.00  0.00    -0.507 OA
ATOM     21  H   UNL     1     -19.809  -8.091  -6.954  1.00  0.00     0.293 HD
ENDBRANCH  17  20
BRANCH  15  22
ATOM     22  O   UNL     1     -15.087  -7.791  -8.953  1.00  0.00    -0.508 OA
ATOM     23  H   UNL     1     -14.077  -7.734  -9.027  1.00  0.00     0.293 HD
ENDBRANCH  15  22
TORSDOF 3
ENDMDL
MODEL 6
REMARK VINA RESULT:    -3.710      2.484      6.231
REMARK INTER + INTRA:          -4.036
REMARK INTER:                  -4.036
REMARK INTRA:                   0.000
REMARK UNBOUND:                 0.000
REMARK SMILES Cc1cc(O)c2c(c1)C(=O)c1cc(O)cc(O)c1C2=O
REMARK SMILES IDX 1 1 2 2 8 3 7 4 6 5 4 6 3 7 19 8 20 9 18 10 11 11 9 12 10 13
REMARK SMILES IDX 12 14 13 15 15 16 16 17 5 18 17 20 14 22
REMARK H PARENT 5 19 17 21 14 23
REMARK Flexibility Score: inf
ROOT
ATOM      1  C   UNL     1     -17.115  -7.882  -9.373  1.00  0.00     0.044 C 
ATOM      2  C   UNL     1     -16.590  -8.058  -7.978  1.00  0.00    -0.047 A 
ATOM      3  C   UNL     1     -17.463  -8.374  -6.932  1.00  0.00     0.016 A 
ATOM      4  C   UNL     1     -16.985  -8.513  -5.618  1.00  0.00     0.038 A 
ATOM      5  C   UNL     1     -15.610  -8.334  -5.347  1.00  0.00     0.076 A 
ATOM      6  C   UNL     1     -14.745  -7.930  -6.397  1.00  0.00     0.127 A 
ATOM      7  C   UNL     1     -15.241  -7.818  -7.700  1.00  0.00     0.050 A 
ATOM      8  C   UNL     1     -15.119  -8.633  -3.977  1.00  0.00     0.201 C 
ATOM      9  O   UNL     1     -13.940  -9.046  -3.810  1.00  0.00    -0.288 OA
ATOM     10  C   UNL     1     -16.069  -8.630  -2.835  1.00  0.00     0.076 A 
ATOM     11  C   UNL     1     -17.445  -8.807  -3.110  1.00  0.00     0.041 A 
ATOM     12  C   UNL     1     -17.918  -8.842  -4.513  1.00  0.00     0.194 C 
ATOM     13  O   UNL     1     -19.122  -9.125  -4.767  1.00  0.00    -0.289 OA
ATOM     14  C   UNL     1     -18.357  -8.946  -2.050  1.00  0.00     0.059 A 
ATOM     15  C   UNL     1     -17.917  -8.895  -0.724  1.00  0.00     0.120 A 
ATOM     16  C   UNL     1     -16.568  -8.680  -0.450  1.00  0.00     0.093 A 
ATOM     17  C   UNL     1     -15.642  -8.518  -1.486  1.00  0.00     0.131 A 
ENDROOT
BRANCH   6  18
ATOM     18  O   UNL     1     -13.405  -7.599  -6.185  1.00  0.00    -0.507 OA
ATOM     19  H   UNL     1     -13.066  -7.149  -5.345  1.00  0.00     0.293 HD
ENDBRANCH   6  18
BRANCH  17  20
ATOM     20  O   UNL     1     -14.325  -8.215  -1.132  1.00  0.00    -0.507 OA
ATOM     21  H   UNL     1     -13.891  -7.320  -1.311  1.00  0.00     0.293 HD
ENDBRANCH  17  20
BRANCH  15  22
ATOM     22  O   UNL     1     -18.816  -9.046   0.328  1.00  0.00    -0.508 OA
ATOM     23  H   UNL     1     -19.081  -9.962   0.673  1.00  0.00     0.293 HD
ENDBRANCH  15  22
TORSDOF 3
ENDMDL
MODEL 7
REMARK VINA RESULT:    -3.626      3.165      5.303
REMARK INTER + INTRA:          -3.944
REMARK INTER:                  -3.944
REMARK INTRA:                   0.000
REMARK UNBOUND:                 0.000
REMARK SMILES Cc1cc(O)c2c(c1)C(=O)c1cc(O)cc(O)c1C2=O
REMARK SMILES IDX 1 1 2 2 8 3 7 4 6 5 4 6 3 7 19 8 20 9 18 10 11 11 9 12 10 13
REMARK SMILES IDX 12 14 13 15 15 16 16 17 5 18 17 20 14 22
REMARK H PARENT 5 19 17 21 14 23
REMARK Flexibility Score: inf
ROOT
ATOM      1  C   UNL     1     -15.751  -2.007  -6.513  1.00  0.00     0.044 C 
ATOM      2  C   UNL     1     -15.506  -3.302  -5.795  1.00  0.00    -0.047 A 
ATOM      3  C   UNL     1     -16.554  -3.945  -5.126  1.00  0.00     0.016 A 
ATOM      4  C   UNL     1     -16.329  -5.143  -4.428  1.00  0.00     0.038 A 
ATOM      5  C   UNL     1     -15.033  -5.706  -4.397  1.00  0.00     0.076 A 
ATOM      6  C   UNL     1     -13.959  -5.005  -5.004  1.00  0.00     0.127 A 
ATOM      7  C   UNL     1     -14.212  -3.825  -5.712  1.00  0.00     0.050 A 
ATOM      8  C   UNL     1     -14.864  -7.046  -3.776  1.00  0.00     0.201 C 
ATOM      9  O   UNL     1     -13.961  -7.820  -4.193  1.00  0.00    -0.288 OA
ATOM     10  C   UNL     1     -15.871  -7.540  -2.802  1.00  0.00     0.076 A 
ATOM     11  C   UNL     1     -17.165  -6.972  -2.834  1.00  0.00     0.041 A 
ATOM     12  C   UNL     1     -17.442  -5.815  -3.716  1.00  0.00     0.194 C 
ATOM     13  O   UNL     1     -18.622  -5.385  -3.843  1.00  0.00    -0.289 OA
ATOM     14  C   UNL     1     -18.182  -7.506  -2.024  1.00  0.00     0.059 A 
ATOM     15  C   UNL     1     -17.920  -8.585  -1.175  1.00  0.00     0.120 A 
ATOM     16  C   UNL     1     -16.635  -9.121  -1.112  1.00  0.00     0.093 A 
ATOM     17  C   UNL     1     -15.600  -8.595  -1.892  1.00  0.00     0.131 A 
ENDROOT
BRANCH   6  18
ATOM     18  O   UNL     1     -12.631  -5.422  -4.900  1.00  0.00    -0.507 OA
ATOM     19  H   UNL     1     -12.085  -5.347  -4.052  1.00  0.00     0.293 HD
ENDBRANCH   6  18
BRANCH  17  20
ATOM     20  O   UNL     1     -14.320  -9.124  -1.707  1.00  0.00    -0.507 OA
ATOM     21  H   UNL     1     -13.587  -8.648  -1.201  1.00  0.00     0.293 HD
ENDBRANCH  17  20
BRANCH  15  22
ATOM     22  O   UNL     1     -18.929  -9.125  -0.382  1.00  0.00    -0.508 OA
ATOM     23  H   UNL     1     -19.391  -8.577   0.336  1.00  0.00     0.293 HD
ENDBRANCH  15  22
TORSDOF 3
ENDMDL
MODEL 8
REMARK VINA RESULT:    -3.614      4.272      6.713
REMARK INTER + INTRA:          -3.931
REMARK INTER:                  -3.931
REMARK INTRA:                   0.000
REMARK UNBOUND:                 0.000
REMARK SMILES Cc1cc(O)c2c(c1)C(=O)c1cc(O)cc(O)c1C2=O
REMARK SMILES IDX 1 1 2 2 8 3 7 4 6 5 4 6 3 7 19 8 20 9 18 10 11 11 9 12 10 13
REMARK SMILES IDX 12 14 13 15 15 16 16 17 5 18 17 20 14 22
REMARK H PARENT 5 19 17 21 14 23
REMARK Flexibility Score: inf
ROOT
ATOM      1  C   UNL     1      -7.042  -6.726  -7.010  1.00  0.00     0.044 C 
ATOM      2  C   UNL     1      -8.374  -6.106  -6.704  1.00  0.00    -0.047 A 
ATOM      3  C   UNL     1      -9.446  -6.907  -6.297  1.00  0.00     0.016 A 
ATOM      4  C   UNL     1     -10.704  -6.340  -6.035  1.00  0.00     0.038 A 
ATOM      5  C   UNL     1     -10.893  -4.947  -6.184  1.00  0.00     0.076 A 
ATOM      6  C   UNL     1      -9.826  -4.154  -6.680  1.00  0.00     0.127 A 
ATOM      7  C   UNL     1      -8.577  -4.738  -6.914  1.00  0.00     0.050 A 
ATOM      8  C   UNL     1     -12.192  -4.364  -5.758  1.00  0.00     0.201 C 
ATOM      9  O   UNL     1     -12.236  -3.180  -5.328  1.00  0.00    -0.288 OA
ATOM     10  C   UNL     1     -13.393  -5.232  -5.659  1.00  0.00     0.076 A 
ATOM     11  C   UNL     1     -13.201  -6.625  -5.513  1.00  0.00     0.041 A 
ATOM     12  C   UNL     1     -11.838  -7.196  -5.610  1.00  0.00     0.194 C 
ATOM     13  O   UNL     1     -11.644  -8.417  -5.355  1.00  0.00    -0.289 OA
ATOM     14  C   UNL     1     -14.305  -7.462  -5.280  1.00  0.00     0.059 A 
ATOM     15  C   UNL     1     -15.596  -6.930  -5.207  1.00  0.00     0.120 A 
ATOM     16  C   UNL     1     -15.793  -5.563  -5.392  1.00  0.00     0.093 A 
ATOM     17  C   UNL     1     -14.714  -4.711  -5.645  1.00  0.00     0.131 A 
ENDROOT
BRANCH   6  18
ATOM     18  O   UNL     1      -9.972  -2.799  -6.986  1.00  0.00    -0.507 OA
ATOM     19  H   UNL     1      -9.353  -2.296  -7.607  1.00  0.00     0.293 HD
ENDBRANCH   6  18
BRANCH  17  20
ATOM     20  O   UNL     1     -14.999  -3.369  -5.910  1.00  0.00    -0.507 OA
ATOM     21  H   UNL     1     -15.459  -2.755  -5.253  1.00  0.00     0.293 HD
ENDBRANCH  17  20
BRANCH  15  22
ATOM     22  O   UNL     1     -16.691  -7.755  -4.963  1.00  0.00    -0.508 OA
ATOM     23  H   UNL     1     -17.342  -7.564  -4.209  1.00  0.00     0.293 HD
ENDBRANCH  15  22
TORSDOF 3
ENDMDL
