MODEL 1
REMARK VINA RESULT:    -3.027      0.000      0.000
REMARK INTER + INTRA:         -10.644
REMARK INTER:                  -6.566
REMARK INTRA:                  -4.078
REMARK UNBOUND:                -4.078
REMARK SMILES CCCCCCCCCCCCCCCCCCCCCC(=O)[O-]
REMARK SMILES IDX 12 1 11 2 10 3 9 4 8 5 7 6 6 7 5 8 4 9 3 10 2 11 1 12 13 13
REMARK SMILES IDX 14 14 15 15 16 16 17 17 18 18 19 19 20 20 21 21 22 22 23 23
REMARK SMILES IDX 24 24
REMARK H PARENT
REMARK Flexibility Score: inf
ROOT
ATOM      1  C   UNL     1      56.312  26.406  53.499  1.00  0.00     0.000 C 
ENDROOT
BRANCH   1   2
ATOM      2  C   UNL     1      57.720  26.659  52.927  1.00  0.00     0.000 C 
BRANCH   2   3
ATOM      3  C   UNL     1      58.191  28.127  52.981  1.00  0.00     0.000 C 
BRANCH   3   4
ATOM      4  C   UNL     1      57.675  29.016  51.834  1.00  0.00    -0.000 C 
BRANCH   4   5
ATOM      5  C   UNL     1      57.626  28.328  50.455  1.00  0.00    -0.000 C 
BRANCH   5   6
ATOM      6  C   UNL     1      58.836  28.659  49.554  1.00  0.00    -0.000 C 
BRANCH   6   7
ATOM      7  C   UNL     1      59.910  27.557  49.584  1.00  0.00    -0.000 C 
BRANCH   7   8
ATOM      8  C   UNL     1      59.308  26.149  49.705  1.00  0.00    -0.000 C 
BRANCH   8   9
ATOM      9  C   UNL     1      60.179  25.204  50.546  1.00  0.00    -0.000 C 
BRANCH   9  10
ATOM     10  C   UNL     1      59.444  23.890  50.833  1.00  0.00    -0.000 C 
BRANCH  10  11
ATOM     11  C   UNL     1      59.726  23.402  52.259  1.00  0.00    -0.003 C 
ATOM     12  C   UNL     1      58.432  23.039  52.983  1.00  0.00     0.004 C 
ENDBRANCH  10  11
ENDBRANCH   9  10
ENDBRANCH   8   9
ENDBRANCH   7   8
ENDBRANCH   6   7
ENDBRANCH   5   6
ENDBRANCH   4   5
ENDBRANCH   3   4
ENDBRANCH   2   3
ENDBRANCH   1   2
BRANCH   1  13
ATOM     13  C   UNL     1      55.364  25.616  52.574  1.00  0.00     0.000 C 
BRANCH  13  14
ATOM     14  C   UNL     1      55.975  25.195  51.225  1.00  0.00     0.000 C 
BRANCH  14  15
ATOM     15  C   UNL     1      55.201  25.751  50.021  1.00  0.00     0.000 C 
BRANCH  15  16
ATOM     16  C   UNL     1      53.775  26.161  50.419  1.00  0.00     0.000 C 
BRANCH  16  17
ATOM     17  C   UNL     1      53.443  27.616  50.041  1.00  0.00     0.000 C 
BRANCH  17  18
ATOM     18  C   UNL     1      54.036  28.679  50.982  1.00  0.00     0.000 C 
BRANCH  18  19
ATOM     19  C   UNL     1      53.356  28.701  52.361  1.00  0.00     0.000 C 
BRANCH  19  20
ATOM     20  C   UNL     1      54.177  29.471  53.407  1.00  0.00     0.006 C 
BRANCH  20  21
ATOM     21  C   UNL     1      54.675  30.823  52.878  1.00  0.00     0.053 C 
BRANCH  21  22
ATOM     22  C   UNL     1      54.157  31.940  53.728  1.00  0.00     0.041 C 
ATOM     23  O   UNL     1      53.622  31.694  54.842  1.00  0.00    -0.550 OA
ATOM     24  O   UNL     1      54.308  33.258  53.313  1.00  0.00    -0.550 OA
ENDBRANCH  21  22
ENDBRANCH  20  21
ENDBRANCH  19  20
ENDBRANCH  18  19
ENDBRANCH  17  18
ENDBRANCH  16  17
ENDBRANCH  15  16
ENDBRANCH  14  15
ENDBRANCH  13  14
ENDBRANCH   1  13
TORSDOF 20
ENDMDL
MODEL 2
REMARK VINA RESULT:    -2.908      1.101      2.790
REMARK INTER + INTRA:         -10.386
REMARK INTER:                  -6.438
REMARK INTRA:                  -3.948
REMARK UNBOUND:                -4.078
REMARK SMILES CCCCCCCCCCCCCCCCCCCCCC(=O)[O-]
REMARK SMILES IDX 12 1 11 2 10 3 9 4 8 5 7 6 6 7 5 8 4 9 3 10 2 11 1 12 13 13
REMARK SMILES IDX 14 14 15 15 16 16 17 17 18 18 19 19 20 20 21 21 22 22 23 23
REMARK SMILES IDX 24 24
REMARK H PARENT
REMARK Flexibility Score: inf
ROOT
ATOM      1  C   UNL     1      55.198  25.247  51.235  1.00  0.00     0.000 C 
ENDROOT
BRANCH   1   2
ATOM      2  C   UNL     1      54.580  25.746  52.556  1.00  0.00     0.000 C 
BRANCH   2   3
ATOM      3  C   UNL     1      55.487  26.673  53.389  1.00  0.00     0.000 C 
BRANCH   3   4
ATOM      4  C   UNL     1      56.908  26.868  52.826  1.00  0.00    -0.000 C 
BRANCH   4   5
ATOM      5  C   UNL     1      57.541  28.240  53.129  1.00  0.00    -0.000 C 
BRANCH   5   6
ATOM      6  C   UNL     1      57.744  29.119  51.875  1.00  0.00    -0.000 C 
BRANCH   6   7
ATOM      7  C   UNL     1      57.653  28.310  50.569  1.00  0.00    -0.000 C 
BRANCH   7   8
ATOM      8  C   UNL     1      58.838  28.571  49.629  1.00  0.00    -0.000 C 
BRANCH   8   9
ATOM      9  C   UNL     1      59.729  27.334  49.441  1.00  0.00    -0.000 C 
BRANCH   9  10
ATOM     10  C   UNL     1      58.977  26.054  49.823  1.00  0.00    -0.000 C 
BRANCH  10  11
ATOM     11  C   UNL     1      59.823  25.174  50.751  1.00  0.00    -0.003 C 
ATOM     12  C   UNL     1      58.964  24.124  51.450  1.00  0.00     0.004 C 
ENDBRANCH  10  11
ENDBRANCH   9  10
ENDBRANCH   8   9
ENDBRANCH   7   8
ENDBRANCH   6   7
ENDBRANCH   5   6
ENDBRANCH   4   5
ENDBRANCH   3   4
ENDBRANCH   2   3
ENDBRANCH   1   2
BRANCH   1  13
ATOM     13  C   UNL     1      54.791  26.049  49.982  1.00  0.00     0.000 C 
BRANCH  13  14
ATOM     14  C   UNL     1      53.608  27.014  50.183  1.00  0.00     0.000 C 
BRANCH  14  15
ATOM     15  C   UNL     1      54.053  28.473  50.357  1.00  0.00     0.000 C 
BRANCH  15  16
ATOM     16  C   UNL     1      53.300  29.149  51.512  1.00  0.00     0.000 C 
BRANCH  16  17
ATOM     17  C   UNL     1      54.180  30.132  52.306  1.00  0.00     0.000 C 
BRANCH  17  18
ATOM     18  C   UNL     1      53.989  30.082  53.832  1.00  0.00     0.000 C 
BRANCH  18  19
ATOM     19  C   UNL     1      55.187  30.664  54.601  1.00  0.00     0.000 C 
BRANCH  19  20
ATOM     20  C   UNL     1      55.971  31.695  53.772  1.00  0.00     0.006 C 
BRANCH  20  21
ATOM     21  C   UNL     1      55.958  33.089  54.412  1.00  0.00     0.053 C 
BRANCH  21  22
ATOM     22  C   UNL     1      54.571  33.650  54.418  1.00  0.00     0.041 C 
ATOM     23  O   UNL     1      53.967  33.857  53.332  1.00  0.00    -0.550 OA
ATOM     24  O   UNL     1      53.926  33.900  55.623  1.00  0.00    -0.550 OA
ENDBRANCH  21  22
ENDBRANCH  20  21
ENDBRANCH  19  20
ENDBRANCH  18  19
ENDBRANCH  17  18
ENDBRANCH  16  17
ENDBRANCH  15  16
ENDBRANCH  14  15
ENDBRANCH  13  14
ENDBRANCH   1  13
TORSDOF 20
ENDMDL
MODEL 3
REMARK VINA RESULT:    -2.828      3.257      5.644
REMARK INTER + INTRA:         -10.212
REMARK INTER:                  -8.196
REMARK INTRA:                  -2.016
REMARK UNBOUND:                -4.078
REMARK SMILES CCCCCCCCCCCCCCCCCCCCCC(=O)[O-]
REMARK SMILES IDX 12 1 11 2 10 3 9 4 8 5 7 6 6 7 5 8 4 9 3 10 2 11 1 12 13 13
REMARK SMILES IDX 14 14 15 15 16 16 17 17 18 18 19 19 20 20 21 21 22 22 23 23
REMARK SMILES IDX 24 24
REMARK H PARENT
REMARK Flexibility Score: inf
ROOT
ATOM      1  C   UNL     1      59.740  26.499  50.448  1.00  0.00     0.000 C 
ENDROOT
BRANCH   1   2
ATOM      2  C   UNL     1      58.756  25.334  50.221  1.00  0.00     0.000 C 
BRANCH   2   3
ATOM      3  C   UNL     1      58.922  24.145  51.188  1.00  0.00     0.000 C 
BRANCH   3   4
ATOM      4  C   UNL     1      60.381  23.787  51.530  1.00  0.00    -0.000 C 
BRANCH   4   5
ATOM      5  C   UNL     1      61.186  23.169  50.370  1.00  0.00    -0.000 C 
BRANCH   5   6
ATOM      6  C   UNL     1      61.537  21.681  50.584  1.00  0.00    -0.000 C 
BRANCH   6   7
ATOM      7  C   UNL     1      60.371  20.743  50.224  1.00  0.00    -0.000 C 
BRANCH   7   8
ATOM      8  C   UNL     1      59.777  20.040  51.453  1.00  0.00    -0.000 C 
BRANCH   8   9
ATOM      9  C   UNL     1      58.873  18.857  51.078  1.00  0.00    -0.000 C 
BRANCH   9  10
ATOM     10  C   UNL     1      58.151  18.304  52.312  1.00  0.00    -0.000 C 
BRANCH  10  11
ATOM     11  C   UNL     1      56.636  18.518  52.206  1.00  0.00    -0.003 C 
ATOM     12  C   UNL     1      56.132  18.200  50.801  1.00  0.00     0.004 C 
ENDBRANCH  10  11
ENDBRANCH   9  10
ENDBRANCH   8   9
ENDBRANCH   7   8
ENDBRANCH   6   7
ENDBRANCH   5   6
ENDBRANCH   4   5
ENDBRANCH   3   4
ENDBRANCH   2   3
ENDBRANCH   1   2
BRANCH   1  13
ATOM     13  C   UNL     1      59.607  27.668  49.450  1.00  0.00     0.000 C 
BRANCH  13  14
ATOM     14  C   UNL     1      58.469  28.658  49.756  1.00  0.00     0.000 C 
BRANCH  14  15
ATOM     15  C   UNL     1      58.275  28.896  51.260  1.00  0.00     0.000 C 
BRANCH  15  16
ATOM     16  C   UNL     1      56.830  28.599  51.688  1.00  0.00     0.000 C 
BRANCH  16  17
ATOM     17  C   UNL     1      56.016  27.887  50.592  1.00  0.00     0.000 C 
BRANCH  17  18
ATOM     18  C   UNL     1      54.510  28.201  50.598  1.00  0.00     0.000 C 
BRANCH  18  19
ATOM     19  C   UNL     1      53.659  27.050  50.036  1.00  0.00     0.000 C 
BRANCH  19  20
ATOM     20  C   UNL     1      54.461  25.747  49.889  1.00  0.00     0.006 C 
BRANCH  20  21
ATOM     21  C   UNL     1      53.962  24.645  50.832  1.00  0.00     0.053 C 
BRANCH  21  22
ATOM     22  C   UNL     1      54.496  24.858  52.214  1.00  0.00     0.041 C 
ATOM     23  O   UNL     1      55.718  24.668  52.457  1.00  0.00    -0.550 OA
ATOM     24  O   UNL     1      53.656  25.312  53.223  1.00  0.00    -0.550 OA
ENDBRANCH  21  22
ENDBRANCH  20  21
ENDBRANCH  19  20
ENDBRANCH  18  19
ENDBRANCH  17  18
ENDBRANCH  16  17
ENDBRANCH  15  16
ENDBRANCH  14  15
ENDBRANCH  13  14
ENDBRANCH   1  13
TORSDOF 20
ENDMDL
MODEL 4
REMARK VINA RESULT:    -2.815      9.600     11.745
REMARK INTER + INTRA:         -10.185
REMARK INTER:                  -6.409
REMARK INTRA:                  -3.775
REMARK UNBOUND:                -4.078
REMARK SMILES CCCCCCCCCCCCCCCCCCCCCC(=O)[O-]
REMARK SMILES IDX 12 1 11 2 10 3 9 4 8 5 7 6 6 7 5 8 4 9 3 10 2 11 1 12 13 13
REMARK SMILES IDX 14 14 15 15 16 16 17 17 18 18 19 19 20 20 21 21 22 22 23 23
REMARK SMILES IDX 24 24
REMARK H PARENT
REMARK Flexibility Score: inf
ROOT
ATOM      1  C   UNL     1      63.332  35.396  60.545  1.00  0.00     0.000 C 
ENDROOT
BRANCH   1   2
ATOM      2  C   UNL     1      64.163  34.358  61.325  1.00  0.00     0.000 C 
BRANCH   2   3
ATOM      3  C   UNL     1      64.533  33.090  60.529  1.00  0.00     0.000 C 
BRANCH   3   4
ATOM      4  C   UNL     1      64.339  33.202  59.005  1.00  0.00    -0.000 C 
BRANCH   4   5
ATOM      5  C   UNL     1      63.950  31.885  58.304  1.00  0.00    -0.000 C 
BRANCH   5   6
ATOM      6  C   UNL     1      65.145  30.936  58.062  1.00  0.00    -0.000 C 
BRANCH   6   7
ATOM      7  C   UNL     1      65.045  29.642  58.889  1.00  0.00    -0.000 C 
BRANCH   7   8
ATOM      8  C   UNL     1      65.886  29.695  60.172  1.00  0.00    -0.000 C 
BRANCH   8   9
ATOM      9  C   UNL     1      66.044  28.317  60.833  1.00  0.00    -0.000 C 
BRANCH   9  10
ATOM     10  C   UNL     1      65.507  27.207  59.922  1.00  0.00    -0.000 C 
BRANCH  10  11
ATOM     11  C   UNL     1      64.505  26.320  60.669  1.00  0.00    -0.003 C 
ATOM     12  C   UNL     1      64.966  24.865  60.690  1.00  0.00     0.004 C 
ENDBRANCH  10  11
ENDBRANCH   9  10
ENDBRANCH   8   9
ENDBRANCH   7   8
ENDBRANCH   6   7
ENDBRANCH   5   6
ENDBRANCH   4   5
ENDBRANCH   3   4
ENDBRANCH   2   3
ENDBRANCH   1   2
BRANCH   1  13
ATOM     13  C   UNL     1      61.828  35.415  60.887  1.00  0.00     0.000 C 
BRANCH  13  14
ATOM     14  C   UNL     1      60.924  34.674  59.884  1.00  0.00     0.000 C 
BRANCH  14  15
ATOM     15  C   UNL     1      60.201  33.473  60.510  1.00  0.00     0.000 C 
BRANCH  15  16
ATOM     16  C   UNL     1      60.921  32.157  60.179  1.00  0.00     0.000 C 
BRANCH  16  17
ATOM     17  C   UNL     1      61.203  31.300  61.427  1.00  0.00     0.000 C 
BRANCH  17  18
ATOM     18  C   UNL     1      62.439  30.389  61.320  1.00  0.00     0.000 C 
BRANCH  18  19
ATOM     19  C   UNL     1      62.124  28.918  61.638  1.00  0.00     0.000 C 
BRANCH  19  20
ATOM     20  C   UNL     1      61.102  28.313  60.663  1.00  0.00     0.006 C 
BRANCH  20  21
ATOM     21  C   UNL     1      61.637  28.242  59.227  1.00  0.00     0.053 C 
BRANCH  21  22
ATOM     22  C   UNL     1      60.753  29.014  58.299  1.00  0.00     0.041 C 
ATOM     23  O   UNL     1      59.510  29.062  58.502  1.00  0.00    -0.550 OA
ATOM     24  O   UNL     1      61.305  29.721  57.238  1.00  0.00    -0.550 OA
ENDBRANCH  21  22
ENDBRANCH  20  21
ENDBRANCH  19  20
ENDBRANCH  18  19
ENDBRANCH  17  18
ENDBRANCH  16  17
ENDBRANCH  15  16
ENDBRANCH  14  15
ENDBRANCH  13  14
ENDBRANCH   1  13
TORSDOF 20
ENDMDL
MODEL 5
REMARK VINA RESULT:    -2.795      2.128      3.839
REMARK INTER + INTRA:         -10.141
REMARK INTER:                  -5.971
REMARK INTRA:                  -4.170
REMARK UNBOUND:                -4.078
REMARK SMILES CCCCCCCCCCCCCCCCCCCCCC(=O)[O-]
REMARK SMILES IDX 12 1 11 2 10 3 9 4 8 5 7 6 6 7 5 8 4 9 3 10 2 11 1 12 13 13
REMARK SMILES IDX 14 14 15 15 16 16 17 17 18 18 19 19 20 20 21 21 22 22 23 23
REMARK SMILES IDX 24 24
REMARK H PARENT
REMARK Flexibility Score: inf
ROOT
ATOM      1  C   UNL     1      58.510  24.284  52.049  1.00  0.00     0.000 C 
ENDROOT
BRANCH   1   2
ATOM      2  C   UNL     1      59.426  24.143  50.817  1.00  0.00     0.000 C 
BRANCH   2   3
ATOM      3  C   UNL     1      59.695  25.454  50.052  1.00  0.00     0.000 C 
BRANCH   3   4
ATOM      4  C   UNL     1      61.124  26.011  50.202  1.00  0.00    -0.000 C 
BRANCH   4   5
ATOM      5  C   UNL     1      61.889  25.504  51.440  1.00  0.00    -0.000 C 
BRANCH   5   6
ATOM      6  C   UNL     1      62.067  26.574  52.539  1.00  0.00    -0.000 C 
BRANCH   6   7
ATOM      7  C   UNL     1      60.865  26.637  53.498  1.00  0.00    -0.000 C 
BRANCH   7   8
ATOM      8  C   UNL     1      59.929  27.817  53.195  1.00  0.00    -0.000 C 
BRANCH   8   9
ATOM      9  C   UNL     1      60.686  29.064  52.716  1.00  0.00    -0.000 C 
BRANCH   9  10
ATOM     10  C   UNL     1      60.217  29.490  51.320  1.00  0.00    -0.000 C 
BRANCH  10  11
ATOM     11  C   UNL     1      58.815  28.946  51.022  1.00  0.00    -0.003 C 
ATOM     12  C   UNL     1      58.595  28.783  49.520  1.00  0.00     0.004 C 
ENDBRANCH  10  11
ENDBRANCH   9  10
ENDBRANCH   8   9
ENDBRANCH   7   8
ENDBRANCH   6   7
ENDBRANCH   5   6
ENDBRANCH   4   5
ENDBRANCH   3   4
ENDBRANCH   2   3
ENDBRANCH   1   2
BRANCH   1  13
ATOM     13  C   UNL     1      57.539  25.481  52.005  1.00  0.00     0.000 C 
BRANCH  13  14
ATOM     14  C   UNL     1      56.178  25.191  51.346  1.00  0.00     0.000 C 
BRANCH  14  15
ATOM     15  C   UNL     1      55.796  26.232  50.284  1.00  0.00     0.000 C 
BRANCH  15  16
ATOM     16  C   UNL     1      54.277  26.460  50.252  1.00  0.00     0.000 C 
BRANCH  16  17
ATOM     17  C   UNL     1      53.897  27.951  50.245  1.00  0.00     0.000 C 
BRANCH  17  18
ATOM     18  C   UNL     1      54.925  28.884  50.907  1.00  0.00     0.000 C 
BRANCH  18  19
ATOM     19  C   UNL     1      54.749  28.980  52.431  1.00  0.00     0.000 C 
BRANCH  19  20
ATOM     20  C   UNL     1      56.062  28.727  53.190  1.00  0.00     0.006 C 
BRANCH  20  21
ATOM     21  C   UNL     1      56.189  29.602  54.444  1.00  0.00     0.053 C 
BRANCH  21  22
ATOM     22  C   UNL     1      57.463  30.387  54.408  1.00  0.00     0.041 C 
ATOM     23  O   UNL     1      58.339  30.213  55.296  1.00  0.00    -0.550 OA
ATOM     24  O   UNL     1      57.704  31.275  53.367  1.00  0.00    -0.550 OA
ENDBRANCH  21  22
ENDBRANCH  20  21
ENDBRANCH  19  20
ENDBRANCH  18  19
ENDBRANCH  17  18
ENDBRANCH  16  17
ENDBRANCH  15  16
ENDBRANCH  14  15
ENDBRANCH  13  14
ENDBRANCH   1  13
TORSDOF 20
ENDMDL
MODEL 6
REMARK VINA RESULT:    -2.779      5.583      8.914
REMARK INTER + INTRA:         -10.107
REMARK INTER:                  -7.518
REMARK INTRA:                  -2.589
REMARK UNBOUND:                -4.078
REMARK SMILES CCCCCCCCCCCCCCCCCCCCCC(=O)[O-]
REMARK SMILES IDX 12 1 11 2 10 3 9 4 8 5 7 6 6 7 5 8 4 9 3 10 2 11 1 12 13 13
REMARK SMILES IDX 14 14 15 15 16 16 17 17 18 18 19 19 20 20 21 21 22 22 23 23
REMARK SMILES IDX 24 24
REMARK H PARENT
REMARK Flexibility Score: inf
ROOT
ATOM      1  C   UNL     1      59.629  23.675  51.225  1.00  0.00     0.000 C 
ENDROOT
BRANCH   1   2
ATOM      2  C   UNL     1      59.287  25.177  51.225  1.00  0.00     0.000 C 
BRANCH   2   3
ATOM      3  C   UNL     1      59.036  25.789  49.832  1.00  0.00     0.000 C 
BRANCH   3   4
ATOM      4  C   UNL     1      59.777  27.112  49.562  1.00  0.00    -0.000 C 
BRANCH   4   5
ATOM      5  C   UNL     1      58.879  28.365  49.551  1.00  0.00    -0.000 C 
BRANCH   5   6
ATOM      6  C   UNL     1      58.733  29.035  50.934  1.00  0.00    -0.000 C 
BRANCH   6   7
ATOM      7  C   UNL     1      57.429  28.635  51.647  1.00  0.00    -0.000 C 
BRANCH   7   8
ATOM      8  C   UNL     1      56.282  28.354  50.665  1.00  0.00    -0.000 C 
BRANCH   8   9
ATOM      9  C   UNL     1      55.162  27.508  51.291  1.00  0.00    -0.000 C 
BRANCH   9  10
ATOM     10  C   UNL     1      55.614  26.057  51.485  1.00  0.00    -0.000 C 
BRANCH  10  11
ATOM     11  C   UNL     1      55.348  25.224  50.224  1.00  0.00    -0.003 C 
ATOM     12  C   UNL     1      53.986  25.557  49.623  1.00  0.00     0.004 C 
ENDBRANCH  10  11
ENDBRANCH   9  10
ENDBRANCH   8   9
ENDBRANCH   7   8
ENDBRANCH   6   7
ENDBRANCH   5   6
ENDBRANCH   4   5
ENDBRANCH   3   4
ENDBRANCH   2   3
ENDBRANCH   1   2
BRANCH   1  13
ATOM     13  C   UNL     1      60.899  23.296  50.436  1.00  0.00     0.000 C 
BRANCH  13  14
ATOM     14  C   UNL     1      62.217  23.434  51.220  1.00  0.00     0.000 C 
BRANCH  14  15
ATOM     15  C   UNL     1      63.330  24.103  50.400  1.00  0.00     0.000 C 
BRANCH  15  16
ATOM     16  C   UNL     1      63.398  25.611  50.682  1.00  0.00     0.000 C 
BRANCH  16  17
ATOM     17  C   UNL     1      63.205  26.466  49.416  1.00  0.00     0.000 C 
BRANCH  17  18
ATOM     18  C   UNL     1      63.881  27.847  49.459  1.00  0.00     0.000 C 
BRANCH  18  19
ATOM     19  C   UNL     1      64.423  28.288  48.089  1.00  0.00     0.000 C 
BRANCH  19  20
ATOM     20  C   UNL     1      65.875  27.835  47.860  1.00  0.00     0.006 C 
BRANCH  20  21
ATOM     21  C   UNL     1      65.997  26.828  46.709  1.00  0.00     0.053 C 
BRANCH  21  22
ATOM     22  C   UNL     1      66.473  25.505  47.220  1.00  0.00     0.041 C 
ATOM     23  O   UNL     1      66.285  25.186  48.424  1.00  0.00    -0.550 OA
ATOM     24  O   UNL     1      67.081  24.603  46.355  1.00  0.00    -0.550 OA
ENDBRANCH  21  22
ENDBRANCH  20  21
ENDBRANCH  19  20
ENDBRANCH  18  19
ENDBRANCH  17  18
ENDBRANCH  16  17
ENDBRANCH  15  16
ENDBRANCH  14  15
ENDBRANCH  13  14
ENDBRANCH   1  13
TORSDOF 20
ENDMDL
MODEL 7
REMARK VINA RESULT:    -2.736      9.224     11.590
REMARK INTER + INTRA:         -10.014
REMARK INTER:                  -6.543
REMARK INTRA:                  -3.470
REMARK UNBOUND:                -4.078
REMARK SMILES CCCCCCCCCCCCCCCCCCCCCC(=O)[O-]
REMARK SMILES IDX 12 1 11 2 10 3 9 4 8 5 7 6 6 7 5 8 4 9 3 10 2 11 1 12 13 13
REMARK SMILES IDX 14 14 15 15 16 16 17 17 18 18 19 19 20 20 21 21 22 22 23 23
REMARK SMILES IDX 24 24
REMARK H PARENT
REMARK Flexibility Score: inf
ROOT
ATOM      1  C   UNL     1      64.369  31.861  58.269  1.00  0.00     0.000 C 
ENDROOT
BRANCH   1   2
ATOM      2  C   UNL     1      63.004  31.272  57.862  1.00  0.00     0.000 C 
BRANCH   2   3
ATOM      3  C   UNL     1      61.778  32.049  58.382  1.00  0.00     0.000 C 
BRANCH   3   4
ATOM      4  C   UNL     1      60.904  31.281  59.391  1.00  0.00    -0.000 C 
BRANCH   4   5
ATOM      5  C   UNL     1      61.053  31.738  60.856  1.00  0.00    -0.000 C 
BRANCH   5   6
ATOM      6  C   UNL     1      61.336  30.582  61.839  1.00  0.00    -0.000 C 
BRANCH   6   7
ATOM      7  C   UNL     1      62.142  29.443  61.190  1.00  0.00    -0.000 C 
BRANCH   7   8
ATOM      8  C   UNL     1      63.659  29.663  61.285  1.00  0.00    -0.000 C 
BRANCH   8   9
ATOM      9  C   UNL     1      64.463  28.417  60.885  1.00  0.00    -0.000 C 
BRANCH   9  10
ATOM     10  C   UNL     1      65.244  28.661  59.589  1.00  0.00    -0.000 C 
BRANCH  10  11
ATOM     11  C   UNL     1      66.601  29.314  59.878  1.00  0.00    -0.003 C 
ATOM     12  C   UNL     1      67.382  28.521  60.922  1.00  0.00     0.004 C 
ENDBRANCH  10  11
ENDBRANCH   9  10
ENDBRANCH   8   9
ENDBRANCH   7   8
ENDBRANCH   6   7
ENDBRANCH   5   6
ENDBRANCH   4   5
ENDBRANCH   3   4
ENDBRANCH   2   3
ENDBRANCH   1   2
BRANCH   1  13
ATOM     13  C   UNL     1      64.303  33.229  58.979  1.00  0.00     0.000 C 
BRANCH  13  14
ATOM     14  C   UNL     1      64.530  33.183  60.501  1.00  0.00     0.000 C 
BRANCH  14  15
ATOM     15  C   UNL     1      63.779  34.294  61.248  1.00  0.00     0.000 C 
BRANCH  15  16
ATOM     16  C   UNL     1      63.073  35.244  60.269  1.00  0.00     0.000 C 
BRANCH  16  17
ATOM     17  C   UNL     1      61.798  35.872  60.859  1.00  0.00     0.000 C 
BRANCH  17  18
ATOM     18  C   UNL     1      60.503  35.089  60.581  1.00  0.00     0.000 C 
BRANCH  18  19
ATOM     19  C   UNL     1      59.657  35.716  59.460  1.00  0.00     0.000 C 
BRANCH  19  20
ATOM     20  C   UNL     1      59.399  34.737  58.303  1.00  0.00     0.006 C 
BRANCH  20  21
ATOM     21  C   UNL     1      58.122  33.913  58.509  1.00  0.00     0.053 C 
BRANCH  21  22
ATOM     22  C   UNL     1      57.020  34.429  57.638  1.00  0.00     0.041 C 
ATOM     23  O   UNL     1      56.647  33.770  56.631  1.00  0.00    -0.550 OA
ATOM     24  O   UNL     1      56.371  35.613  57.964  1.00  0.00    -0.550 OA
ENDBRANCH  21  22
ENDBRANCH  20  21
ENDBRANCH  19  20
ENDBRANCH  18  19
ENDBRANCH  17  18
ENDBRANCH  16  17
ENDBRANCH  15  16
ENDBRANCH  14  15
ENDBRANCH  13  14
ENDBRANCH   1  13
TORSDOF 20
ENDMDL
MODEL 8
REMARK VINA RESULT:    -2.721      9.513     12.266
REMARK INTER + INTRA:          -9.980
REMARK INTER:                  -6.301
REMARK INTRA:                  -3.680
REMARK UNBOUND:                -4.078
REMARK SMILES CCCCCCCCCCCCCCCCCCCCCC(=O)[O-]
REMARK SMILES IDX 12 1 11 2 10 3 9 4 8 5 7 6 6 7 5 8 4 9 3 10 2 11 1 12 13 13
REMARK SMILES IDX 14 14 15 15 16 16 17 17 18 18 19 19 20 20 21 21 22 22 23 23
REMARK SMILES IDX 24 24
REMARK H PARENT
REMARK Flexibility Score: inf
ROOT
ATOM      1  C   UNL     1      64.006  30.697  57.766  1.00  0.00     0.000 C 
ENDROOT
BRANCH   1   2
ATOM      2  C   UNL     1      62.656  31.430  57.895  1.00  0.00     0.000 C 
BRANCH   2   3
ATOM      3  C   UNL     1      62.688  32.925  57.521  1.00  0.00     0.000 C 
BRANCH   3   4
ATOM      4  C   UNL     1      64.099  33.529  57.385  1.00  0.00    -0.000 C 
BRANCH   4   5
ATOM      5  C   UNL     1      64.438  34.623  58.417  1.00  0.00    -0.000 C 
BRANCH   5   6
ATOM      6  C   UNL     1      64.921  34.065  59.773  1.00  0.00    -0.000 C 
BRANCH   6   7
ATOM      7  C   UNL     1      64.083  34.584  60.955  1.00  0.00    -0.000 C 
BRANCH   7   8
ATOM      8  C   UNL     1      62.600  34.200  60.841  1.00  0.00    -0.000 C 
BRANCH   8   9
ATOM      9  C   UNL     1      61.673  35.424  60.803  1.00  0.00    -0.000 C 
BRANCH   9  10
ATOM     10  C   UNL     1      60.265  35.032  60.342  1.00  0.00    -0.000 C 
BRANCH  10  11
ATOM     11  C   UNL     1      60.132  33.510  60.210  1.00  0.00    -0.003 C 
ATOM     12  C   UNL     1      59.310  33.133  58.981  1.00  0.00     0.004 C 
ENDBRANCH  10  11
ENDBRANCH   9  10
ENDBRANCH   8   9
ENDBRANCH   7   8
ENDBRANCH   6   7
ENDBRANCH   5   6
ENDBRANCH   4   5
ENDBRANCH   3   4
ENDBRANCH   2   3
ENDBRANCH   1   2
BRANCH   1  13
ATOM     13  C   UNL     1      64.341  29.738  58.926  1.00  0.00     0.000 C 
BRANCH  13  14
ATOM     14  C   UNL     1      65.187  30.354  60.055  1.00  0.00     0.000 C 
BRANCH  14  15
ATOM     15  C   UNL     1      64.339  30.836  61.240  1.00  0.00     0.000 C 
BRANCH  15  16
ATOM     16  C   UNL     1      63.211  29.842  61.556  1.00  0.00     0.000 C 
BRANCH  16  17
ATOM     17  C   UNL     1      61.825  30.510  61.614  1.00  0.00     0.000 C 
BRANCH  17  18
ATOM     18  C   UNL     1      60.765  29.883  60.691  1.00  0.00     0.000 C 
BRANCH  18  19
ATOM     19  C   UNL     1      61.119  28.448  60.267  1.00  0.00     0.000 C 
BRANCH  19  20
ATOM     20  C   UNL     1      59.888  27.528  60.227  1.00  0.00     0.006 C 
BRANCH  20  21
ATOM     21  C   UNL     1      59.976  26.391  61.253  1.00  0.00     0.053 C 
BRANCH  21  22
ATOM     22  C   UNL     1      58.606  25.946  61.659  1.00  0.00     0.041 C 
ATOM     23  O   UNL     1      57.595  26.618  61.322  1.00  0.00    -0.550 OA
ATOM     24  O   UNL     1      58.441  24.763  62.369  1.00  0.00    -0.550 OA
ENDBRANCH  21  22
ENDBRANCH  20  21
ENDBRANCH  19  20
ENDBRANCH  18  19
ENDBRANCH  17  18
ENDBRANCH  16  17
ENDBRANCH  15  16
ENDBRANCH  14  15
ENDBRANCH  13  14
ENDBRANCH   1  13
TORSDOF 20
ENDMDL
MODEL 9
REMARK VINA RESULT:    -2.713      3.625      6.320
REMARK INTER + INTRA:          -9.964
REMARK INTER:                  -6.224
REMARK INTRA:                  -3.740
REMARK UNBOUND:                -4.078
REMARK SMILES CCCCCCCCCCCCCCCCCCCCCC(=O)[O-]
REMARK SMILES IDX 12 1 11 2 10 3 9 4 8 5 7 6 6 7 5 8 4 9 3 10 2 11 1 12 13 13
REMARK SMILES IDX 14 14 15 15 16 16 17 17 18 18 19 19 20 20 21 21 22 22 23 23
REMARK SMILES IDX 24 24
REMARK H PARENT
REMARK Flexibility Score: inf
ROOT
ATOM      1  C   UNL     1      57.510  29.365  52.254  1.00  0.00     0.000 C 
ENDROOT
BRANCH   1   2
ATOM      2  C   UNL     1      56.264  28.714  52.887  1.00  0.00     0.000 C 
BRANCH   2   3
ATOM      3  C   UNL     1      54.933  29.029  52.176  1.00  0.00     0.000 C 
BRANCH   3   4
ATOM      4  C   UNL     1      54.805  28.450  50.754  1.00  0.00    -0.000 C 
BRANCH   4   5
ATOM      5  C   UNL     1      54.186  27.040  50.682  1.00  0.00    -0.000 C 
BRANCH   5   6
ATOM      6  C   UNL     1      55.107  25.993  50.018  1.00  0.00    -0.000 C 
BRANCH   6   7
ATOM      7  C   UNL     1      56.194  25.475  50.976  1.00  0.00    -0.000 C 
BRANCH   7   8
ATOM      8  C   UNL     1      55.616  24.949  52.298  1.00  0.00    -0.000 C 
BRANCH   8   9
ATOM      9  C   UNL     1      56.543  25.211  53.494  1.00  0.00    -0.000 C 
BRANCH   9  10
ATOM     10  C   UNL     1      58.011  24.997  53.108  1.00  0.00    -0.000 C 
BRANCH  10  11
ATOM     11  C   UNL     1      58.934  25.907  53.927  1.00  0.00    -0.003 C 
ATOM     12  C   UNL     1      60.388  25.454  53.823  1.00  0.00     0.004 C 
ENDBRANCH  10  11
ENDBRANCH   9  10
ENDBRANCH   8   9
ENDBRANCH   7   8
ENDBRANCH   6   7
ENDBRANCH   5   6
ENDBRANCH   4   5
ENDBRANCH   3   4
ENDBRANCH   2   3
ENDBRANCH   1   2
BRANCH   1  13
ATOM     13  C   UNL     1      58.417  28.401  51.462  1.00  0.00     0.000 C 
BRANCH  13  14
ATOM     14  C   UNL     1      58.340  28.544  49.932  1.00  0.00     0.000 C 
BRANCH  14  15
ATOM     15  C   UNL     1      59.348  27.649  49.198  1.00  0.00     0.000 C 
BRANCH  15  16
ATOM     16  C   UNL     1      59.580  26.335  49.959  1.00  0.00     0.000 C 
BRANCH  16  17
ATOM     17  C   UNL     1      61.069  26.060  50.236  1.00  0.00     0.000 C 
BRANCH  17  18
ATOM     18  C   UNL     1      61.974  27.304  50.202  1.00  0.00     0.000 C 
BRANCH  18  19
ATOM     19  C   UNL     1      62.192  27.920  51.594  1.00  0.00     0.000 C 
BRANCH  19  20
ATOM     20  C   UNL     1      63.227  29.057  51.576  1.00  0.00     0.006 C 
BRANCH  20  21
ATOM     21  C   UNL     1      62.622  30.391  51.120  1.00  0.00     0.053 C 
BRANCH  21  22
ATOM     22  C   UNL     1      63.268  30.853  49.852  1.00  0.00     0.041 C 
ATOM     23  O   UNL     1      63.129  32.045  49.468  1.00  0.00    -0.550 OA
ATOM     24  O   UNL     1      64.064  29.982  49.119  1.00  0.00    -0.550 OA
ENDBRANCH  21  22
ENDBRANCH  20  21
ENDBRANCH  19  20
ENDBRANCH  18  19
ENDBRANCH  17  18
ENDBRANCH  16  17
ENDBRANCH  15  16
ENDBRANCH  14  15
ENDBRANCH  13  14
ENDBRANCH   1  13
TORSDOF 20
ENDMDL
