MODEL 1
REMARK VINA RESULT:    -5.193      0.000      0.000
REMARK INTER + INTRA:          -5.345
REMARK INTER:                  -5.345
REMARK INTRA:                   0.000
REMARK UNBOUND:                 0.000
REMARK SMILES O=c1ccc2cc(O)ccc2o1
REMARK SMILES IDX 9 1 10 2 11 3 5 4 4 5 3 6 2 7 1 8 12 9 6 10 7 11 8 12
REMARK H PARENT 8 13
REMARK Flexibility Score: inf
ROOT
ATOM      1  C   UNL     1       7.820  -6.434  -5.603  1.00  0.00     0.050 A 
ATOM      2  C   UNL     1       8.801  -5.757  -6.335  1.00  0.00     0.052 A 
ATOM      3  C   UNL     1       9.554  -6.439  -7.295  1.00  0.00     0.138 A 
ATOM      4  C   UNL     1       9.321  -7.814  -7.523  1.00  0.00     0.021 A 
ATOM      5  C   UNL     1      10.090  -8.469  -8.489  1.00  0.00     0.019 A 
ATOM      6  C   UNL     1      11.058  -7.754  -9.195  1.00  0.00     0.094 A 
ATOM      7  C   UNL     1      11.234  -6.394  -8.915  1.00  0.00     0.336 A 
ATOM      8  O   UNL     1      12.101  -5.732  -9.542  1.00  0.00    -0.246 OA
ATOM      9  O   UNL     1      10.488  -5.795  -7.991  1.00  0.00    -0.423 OA
ATOM     10  C   UNL     1       8.336  -8.489  -6.786  1.00  0.00     0.058 A 
ATOM     11  C   UNL     1       7.584  -7.796  -5.825  1.00  0.00     0.116 A 
ENDROOT
BRANCH  11  12
ATOM     12  O   UNL     1       6.604  -8.452  -5.086  1.00  0.00    -0.508 OA
ATOM     13  H   UNL     1       6.445  -8.239  -4.108  1.00  0.00     0.293 HD
ENDBRANCH  11  12
TORSDOF 1
ENDMDL
MODEL 2
REMARK VINA RESULT:    -4.860     15.632     18.220
REMARK INTER + INTRA:          -5.002
REMARK INTER:                  -5.002
REMARK INTRA:                   0.000
REMARK UNBOUND:                 0.000
REMARK SMILES O=c1ccc2cc(O)ccc2o1
REMARK SMILES IDX 9 1 10 2 11 3 5 4 4 5 3 6 2 7 1 8 12 9 6 10 7 11 8 12
REMARK H PARENT 8 13
REMARK Flexibility Score: inf
ROOT
ATOM      1  C   UNL     1      20.245   0.238 -17.496  1.00  0.00     0.050 A 
ATOM      2  C   UNL     1      21.025   0.866 -18.472  1.00  0.00     0.052 A 
ATOM      3  C   UNL     1      21.011   0.397 -19.789  1.00  0.00     0.138 A 
ATOM      4  C   UNL     1      20.207  -0.713 -20.130  1.00  0.00     0.021 A 
ATOM      5  C   UNL     1      20.213  -1.158 -21.455  1.00  0.00     0.019 A 
ATOM      6  C   UNL     1      21.008  -0.502 -22.395  1.00  0.00     0.094 A 
ATOM      7  C   UNL     1      21.780   0.591 -21.985  1.00  0.00     0.336 A 
ATOM      8  O   UNL     1      22.502   1.197 -22.818  1.00  0.00    -0.246 OA
ATOM      9  O   UNL     1      21.754   0.995 -20.717  1.00  0.00    -0.423 OA
ATOM     10  C   UNL     1      19.426  -1.339 -19.148  1.00  0.00     0.058 A 
ATOM     11  C   UNL     1      19.445  -0.861 -17.828  1.00  0.00     0.116 A 
ENDROOT
BRANCH  11  12
ATOM     12  O   UNL     1      18.676  -1.473 -16.842  1.00  0.00    -0.508 OA
ATOM     13  H   UNL     1      18.003  -2.197 -17.068  1.00  0.00     0.293 HD
ENDBRANCH  11  12
TORSDOF 1
ENDMDL
MODEL 3
REMARK VINA RESULT:    -4.843      2.630      3.188
REMARK INTER + INTRA:          -4.984
REMARK INTER:                  -4.984
REMARK INTRA:                   0.000
REMARK UNBOUND:                 0.000
REMARK SMILES O=c1ccc2cc(O)ccc2o1
REMARK SMILES IDX 9 1 10 2 11 3 5 4 4 5 3 6 2 7 1 8 12 9 6 10 7 11 8 12
REMARK H PARENT 8 13
REMARK Flexibility Score: inf
ROOT
ATOM      1  C   UNL     1       7.841  -6.888  -5.237  1.00  0.00     0.050 A 
ATOM      2  C   UNL     1       7.880  -7.816  -6.283  1.00  0.00     0.052 A 
ATOM      3  C   UNL     1       8.001  -7.377  -7.605  1.00  0.00     0.138 A 
ATOM      4  C   UNL     1       8.083  -5.994  -7.880  1.00  0.00     0.021 A 
ATOM      5  C   UNL     1       8.204  -5.585  -9.211  1.00  0.00     0.019 A 
ATOM      6  C   UNL     1       8.238  -6.545 -10.223  1.00  0.00     0.094 A 
ATOM      7  C   UNL     1       8.151  -7.898  -9.875  1.00  0.00     0.336 A 
ATOM      8  O   UNL     1       8.181  -8.779 -10.773  1.00  0.00    -0.246 OA
ATOM      9  O   UNL     1       8.038  -8.260  -8.600  1.00  0.00    -0.423 OA
ATOM     10  C   UNL     1       8.044  -5.067  -6.828  1.00  0.00     0.058 A 
ATOM     11  C   UNL     1       7.923  -5.517  -5.504  1.00  0.00     0.116 A 
ENDROOT
BRANCH  11  12
ATOM     12  O   UNL     1       7.881  -4.609  -4.449  1.00  0.00    -0.508 OA
ATOM     13  H   UNL     1       8.295  -3.688  -4.526  1.00  0.00     0.293 HD
ENDBRANCH  11  12
TORSDOF 1
ENDMDL
MODEL 4
REMARK VINA RESULT:    -4.833      1.809      1.809
REMARK INTER + INTRA:          -4.975
REMARK INTER:                  -4.975
REMARK INTRA:                   0.000
REMARK UNBOUND:                 0.000
REMARK SMILES O=c1ccc2cc(O)ccc2o1
REMARK SMILES IDX 9 1 10 2 11 3 5 4 4 5 3 6 2 7 1 8 12 9 6 10 7 11 8 12
REMARK H PARENT 8 13
REMARK Flexibility Score: inf
ROOT
ATOM      1  C   UNL     1       7.891  -6.266  -4.960  1.00  0.00     0.050 A 
ATOM      2  C   UNL     1       8.296  -5.502  -6.059  1.00  0.00     0.052 A 
ATOM      3  C   UNL     1       8.346  -6.077  -7.332  1.00  0.00     0.138 A 
ATOM      4  C   UNL     1       7.987  -7.432  -7.505  1.00  0.00     0.021 A 
ATOM      5  C   UNL     1       8.047  -7.978  -8.790  1.00  0.00     0.019 A 
ATOM      6  C   UNL     1       8.458  -7.179  -9.857  1.00  0.00     0.094 A 
ATOM      7  C   UNL     1       8.800  -5.844  -9.610  1.00  0.00     0.336 A 
ATOM      8  O   UNL     1       9.172  -5.107 -10.559  1.00  0.00    -0.246 OA
ATOM      9  O   UNL     1       8.733  -5.348  -8.377  1.00  0.00    -0.423 OA
ATOM     10  C   UNL     1       7.581  -8.194  -6.400  1.00  0.00     0.058 A 
ATOM     11  C   UNL     1       7.533  -7.609  -5.125  1.00  0.00     0.116 A 
ENDROOT
BRANCH  11  12
ATOM     12  O   UNL     1       7.132  -8.353  -4.019  1.00  0.00    -0.508 OA
ATOM     13  H   UNL     1       7.299  -9.351  -3.963  1.00  0.00     0.293 HD
ENDBRANCH  11  12
TORSDOF 1
ENDMDL
MODEL 5
REMARK VINA RESULT:    -4.778      3.131      3.556
REMARK INTER + INTRA:          -4.917
REMARK INTER:                  -4.917
REMARK INTRA:                   0.000
REMARK UNBOUND:                 0.000
REMARK SMILES O=c1ccc2cc(O)ccc2o1
REMARK SMILES IDX 9 1 10 2 11 3 5 4 4 5 3 6 2 7 1 8 12 9 6 10 7 11 8 12
REMARK H PARENT 8 13
REMARK Flexibility Score: inf
ROOT
ATOM      1  C   UNL     1       7.933  -7.012  -6.828  1.00  0.00     0.050 A 
ATOM      2  C   UNL     1       8.179  -7.627  -8.060  1.00  0.00     0.052 A 
ATOM      3  C   UNL     1       8.169  -6.871  -9.236  1.00  0.00     0.138 A 
ATOM      4  C   UNL     1       7.909  -5.484  -9.175  1.00  0.00     0.021 A 
ATOM      5  C   UNL     1       7.906  -4.754 -10.368  1.00  0.00     0.019 A 
ATOM      6  C   UNL     1       8.155  -5.410 -11.573  1.00  0.00     0.094 A 
ATOM      7  C   UNL     1       8.404  -6.787 -11.556  1.00  0.00     0.336 A 
ATOM      8  O   UNL     1       8.632  -7.396 -12.633  1.00  0.00    -0.246 OA
ATOM      9  O   UNL     1       8.402  -7.458 -10.407  1.00  0.00    -0.423 OA
ATOM     10  C   UNL     1       7.663  -4.871  -7.938  1.00  0.00     0.058 A 
ATOM     11  C   UNL     1       7.676  -5.638  -6.762  1.00  0.00     0.116 A 
ENDROOT
BRANCH  11  12
ATOM     12  O   UNL     1       7.433  -5.044  -5.527  1.00  0.00    -0.508 OA
ATOM     13  H   UNL     1       7.083  -4.096  -5.454  1.00  0.00     0.293 HD
ENDBRANCH  11  12
TORSDOF 1
ENDMDL
MODEL 6
REMARK VINA RESULT:    -4.774     10.802     11.847
REMARK INTER + INTRA:          -4.914
REMARK INTER:                  -4.914
REMARK INTRA:                   0.000
REMARK UNBOUND:                 0.000
REMARK SMILES O=c1ccc2cc(O)ccc2o1
REMARK SMILES IDX 9 1 10 2 11 3 5 4 4 5 3 6 2 7 1 8 12 9 6 10 7 11 8 12
REMARK H PARENT 8 13
REMARK Flexibility Score: inf
ROOT
ATOM      1  C   UNL     1      12.662   2.433  -2.875  1.00  0.00     0.050 A 
ATOM      2  C   UNL     1      13.846   2.966  -3.395  1.00  0.00     0.052 A 
ATOM      3  C   UNL     1      13.827   3.665  -4.606  1.00  0.00     0.138 A 
ATOM      4  C   UNL     1      12.609   3.831  -5.302  1.00  0.00     0.021 A 
ATOM      5  C   UNL     1      12.622   4.534  -6.510  1.00  0.00     0.019 A 
ATOM      6  C   UNL     1      13.826   5.048  -6.991  1.00  0.00     0.094 A 
ATOM      7  C   UNL     1      14.994   4.845  -6.248  1.00  0.00     0.336 A 
ATOM      8  O   UNL     1      16.090   5.301  -6.665  1.00  0.00    -0.246 OA
ATOM      9  O   UNL     1      14.954   4.172  -5.101  1.00  0.00    -0.423 OA
ATOM     10  C   UNL     1      11.424   3.294  -4.777  1.00  0.00     0.058 A 
ATOM     11  C   UNL     1      11.452   2.594  -3.560  1.00  0.00     0.116 A 
ENDROOT
BRANCH  11  12
ATOM     12  O   UNL     1      10.284   2.056  -3.026  1.00  0.00    -0.508 OA
ATOM     13  H   UNL     1       9.746   2.549  -2.324  1.00  0.00     0.293 HD
ENDBRANCH  11  12
TORSDOF 1
ENDMDL
MODEL 7
REMARK VINA RESULT:    -4.697      3.297      4.282
REMARK INTER + INTRA:          -4.834
REMARK INTER:                  -4.834
REMARK INTRA:                   0.000
REMARK UNBOUND:                 0.000
REMARK SMILES O=c1ccc2cc(O)ccc2o1
REMARK SMILES IDX 9 1 10 2 11 3 5 4 4 5 3 6 2 7 1 8 12 9 6 10 7 11 8 12
REMARK H PARENT 8 13
REMARK Flexibility Score: inf
ROOT
ATOM      1  C   UNL     1       9.823  -7.572  -7.646  1.00  0.00     0.050 A 
ATOM      2  C   UNL     1       9.229  -8.392  -8.612  1.00  0.00     0.052 A 
ATOM      3  C   UNL     1       8.795  -7.846  -9.824  1.00  0.00     0.138 A 
ATOM      4  C   UNL     1       8.958  -6.464 -10.069  1.00  0.00     0.021 A 
ATOM      5  C   UNL     1       8.514  -5.947 -11.289  1.00  0.00     0.019 A 
ATOM      6  C   UNL     1       7.927  -6.801 -12.223  1.00  0.00     0.094 A 
ATOM      7  C   UNL     1       7.798  -8.159 -11.911  1.00  0.00     0.336 A 
ATOM      8  O   UNL     1       7.272  -8.946 -12.740  1.00  0.00    -0.246 OA
ATOM      9  O   UNL     1       8.230  -8.626 -10.742  1.00  0.00    -0.423 OA
ATOM     10  C   UNL     1       9.554  -5.646  -9.097  1.00  0.00     0.058 A 
ATOM     11  C   UNL     1       9.987  -6.203  -7.884  1.00  0.00     0.116 A 
ENDROOT
BRANCH  11  12
ATOM     12  O   UNL     1      10.580  -5.404  -6.910  1.00  0.00    -0.508 OA
ATOM     13  H   UNL     1      10.976  -4.499  -7.136  1.00  0.00     0.293 HD
ENDBRANCH  11  12
TORSDOF 1
ENDMDL
MODEL 8
REMARK VINA RESULT:    -4.686     15.205     18.081
REMARK INTER + INTRA:          -4.823
REMARK INTER:                  -4.823
REMARK INTRA:                   0.000
REMARK UNBOUND:                 0.000
REMARK SMILES O=c1ccc2cc(O)ccc2o1
REMARK SMILES IDX 9 1 10 2 11 3 5 4 4 5 3 6 2 7 1 8 12 9 6 10 7 11 8 12
REMARK H PARENT 8 13
REMARK Flexibility Score: inf
ROOT
ATOM      1  C   UNL     1      21.696   0.645 -21.229  1.00  0.00     0.050 A 
ATOM      2  C   UNL     1      21.408   1.001 -19.907  1.00  0.00     0.052 A 
ATOM      3  C   UNL     1      20.511   0.236 -19.155  1.00  0.00     0.138 A 
ATOM      4  C   UNL     1      19.896  -0.896 -19.734  1.00  0.00     0.021 A 
ATOM      5  C   UNL     1      19.004  -1.640 -18.957  1.00  0.00     0.019 A 
ATOM      6  C   UNL     1      18.747  -1.248 -17.643  1.00  0.00     0.094 A 
ATOM      7  C   UNL     1      19.392  -0.114 -17.136  1.00  0.00     0.336 A 
ATOM      8  O   UNL     1      19.174   0.256 -15.954  1.00  0.00    -0.246 OA
ATOM      9  O   UNL     1      20.238   0.576 -17.897  1.00  0.00    -0.423 OA
ATOM     10  C   UNL     1      20.187  -1.249 -21.060  1.00  0.00     0.058 A 
ATOM     11  C   UNL     1      21.090  -0.476 -21.807  1.00  0.00     0.116 A 
ENDROOT
BRANCH  11  12
ATOM     12  O   UNL     1      21.389  -0.814 -23.125  1.00  0.00    -0.508 OA
ATOM     13  H   UNL     1      21.173  -1.731 -23.499  1.00  0.00     0.293 HD
ENDBRANCH  11  12
TORSDOF 1
ENDMDL
MODEL 9
REMARK VINA RESULT:    -4.681      3.199      4.685
REMARK INTER + INTRA:          -4.817
REMARK INTER:                  -4.817
REMARK INTRA:                   0.000
REMARK UNBOUND:                 0.000
REMARK SMILES O=c1ccc2cc(O)ccc2o1
REMARK SMILES IDX 9 1 10 2 11 3 5 4 4 5 3 6 2 7 1 8 12 9 6 10 7 11 8 12
REMARK H PARENT 8 13
REMARK Flexibility Score: inf
ROOT
ATOM      1  C   UNL     1       7.982  -5.108 -11.438  1.00  0.00     0.050 A 
ATOM      2  C   UNL     1       7.871  -4.622 -10.132  1.00  0.00     0.052 A 
ATOM      3  C   UNL     1       7.901  -5.507  -9.050  1.00  0.00     0.138 A 
ATOM      4  C   UNL     1       8.043  -6.893  -9.281  1.00  0.00     0.021 A 
ATOM      5  C   UNL     1       8.070  -7.753  -8.179  1.00  0.00     0.019 A 
ATOM      6  C   UNL     1       7.956  -7.224  -6.894  1.00  0.00     0.094 A 
ATOM      7  C   UNL     1       7.817  -5.840  -6.741  1.00  0.00     0.336 A 
ATOM      8  O   UNL     1       7.714  -5.343  -5.590  1.00  0.00    -0.246 OA
ATOM      9  O   UNL     1       7.796  -5.043  -7.807  1.00  0.00    -0.423 OA
ATOM     10  C   UNL     1       8.154  -7.376 -10.593  1.00  0.00     0.058 A 
ATOM     11  C   UNL     1       8.123  -6.480 -11.673  1.00  0.00     0.116 A 
ENDROOT
BRANCH  11  12
ATOM     12  O   UNL     1       8.231  -6.945 -12.982  1.00  0.00    -0.508 OA
ATOM     13  H   UNL     1       9.106  -6.897 -13.490  1.00  0.00     0.293 HD
ENDBRANCH  11  12
TORSDOF 1
ENDMDL
