MODEL 1
REMARK VINA RESULT:    -5.344      0.000      0.000
REMARK INTER + INTRA:         -10.405
REMARK INTER:                  -9.406
REMARK INTRA:                  -0.999
REMARK UNBOUND:                -0.999
REMARK SMILES CCCCCCC=CCCCCCCCC(=O)[O-]
REMARK SMILES IDX 10 1 11 2 12 3 13 4 14 5 15 6 16 7 17 8 18 9 9 10 8 11 7 12
REMARK SMILES IDX 6 13 5 14 4 15 3 16 2 17 1 18
REMARK H PARENT
REMARK Flexibility Score: inf
ROOT
ATOM      1  C   UNL     1      -2.796   6.923   3.993  1.00  0.00     0.004 C 
ENDROOT
BRANCH   1   2
ATOM      2  C   UNL     1      -2.189   5.539   4.279  1.00  0.00     0.000 C 
BRANCH   2   3
ATOM      3  C   UNL     1      -3.026   4.720   5.275  1.00  0.00     0.000 C 
BRANCH   3   4
ATOM      4  C   UNL     1      -2.303   3.454   5.756  1.00  0.00     0.000 C 
BRANCH   4   5
ATOM      5  C   UNL     1      -2.355   3.340   7.284  1.00  0.00     0.006 C 
BRANCH   5   6
ATOM      6  C   UNL     1      -1.159   2.547   7.818  1.00  0.00     0.053 C 
BRANCH   6   7
ATOM      7  C   UNL     1      -1.258   2.381   9.301  1.00  0.00     0.041 C 
ATOM      8  O   UNL     1      -2.224   1.750   9.806  1.00  0.00    -0.550 OA
ATOM      9  O   UNL     1      -0.258   2.882  10.125  1.00  0.00    -0.550 OA
ENDBRANCH   6   7
ENDBRANCH   5   6
ENDBRANCH   4   5
ENDBRANCH   3   4
ENDBRANCH   2   3
ENDBRANCH   1   2
BRANCH   1  10
ATOM     10  C   UNL     1      -4.184   7.087   4.631  1.00  0.00     0.027 C 
BRANCH  10  11
ATOM     11  C   UNL     1      -4.151   8.011   5.825  1.00  0.00    -0.031 C 
ATOM     12  C   UNL     1      -4.700   7.735   7.023  1.00  0.00    -0.031 C 
BRANCH  12  13
ATOM     13  C   UNL     1      -5.512   6.501   7.328  1.00  0.00     0.027 C 
BRANCH  13  14
ATOM     14  C   UNL     1      -6.485   6.764   8.484  1.00  0.00     0.004 C 
BRANCH  14  15
ATOM     15  C   UNL     1      -7.872   6.184   8.175  1.00  0.00     0.000 C 
BRANCH  15  16
ATOM     16  C   UNL     1      -8.392   5.248   9.282  1.00  0.00    -0.000 C 
BRANCH  16  17
ATOM     17  C   UNL     1      -7.574   3.958   9.475  1.00  0.00    -0.003 C 
ATOM     18  C   UNL     1      -8.324   2.702   9.031  1.00  0.00     0.004 C 
ENDBRANCH  16  17
ENDBRANCH  15  16
ENDBRANCH  14  15
ENDBRANCH  13  14
ENDBRANCH  12  13
ENDBRANCH  10  11
ENDBRANCH   1  10
TORSDOF 13
ENDMDL
MODEL 2
REMARK VINA RESULT:    -4.903      1.452      2.035
REMARK INTER + INTRA:          -9.629
REMARK INTER:                  -8.881
REMARK INTRA:                  -0.748
REMARK UNBOUND:                -0.999
REMARK SMILES CCCCCCC=CCCCCCCCC(=O)[O-]
REMARK SMILES IDX 10 1 11 2 12 3 13 4 14 5 15 6 16 7 17 8 18 9 9 10 8 11 7 12
REMARK SMILES IDX 6 13 5 14 4 15 3 16 2 17 1 18
REMARK H PARENT
REMARK Flexibility Score: inf
ROOT
ATOM      1  C   UNL     1      -2.654   5.271   4.976  1.00  0.00     0.004 C 
ENDROOT
BRANCH   1   2
ATOM      2  C   UNL     1      -3.129   4.170   5.940  1.00  0.00     0.000 C 
BRANCH   2   3
ATOM      3  C   UNL     1      -1.988   3.242   6.386  1.00  0.00     0.000 C 
BRANCH   3   4
ATOM      4  C   UNL     1      -1.924   3.072   7.911  1.00  0.00     0.000 C 
BRANCH   4   5
ATOM      5  C   UNL     1      -0.641   2.344   8.329  1.00  0.00     0.006 C 
BRANCH   5   6
ATOM      6  C   UNL     1      -0.906   1.389   9.496  1.00  0.00     0.053 C 
BRANCH   6   7
ATOM      7  C   UNL     1      -0.510  -0.007   9.131  1.00  0.00     0.041 C 
ATOM      8  O   UNL     1       0.509  -0.212   8.420  1.00  0.00    -0.550 OA
ATOM      9  O   UNL     1      -1.237  -1.085   9.619  1.00  0.00    -0.550 OA
ENDBRANCH   6   7
ENDBRANCH   5   6
ENDBRANCH   4   5
ENDBRANCH   3   4
ENDBRANCH   2   3
ENDBRANCH   1   2
BRANCH   1  10
ATOM     10  C   UNL     1      -3.811   6.168   4.509  1.00  0.00     0.027 C 
BRANCH  10  11
ATOM     11  C   UNL     1      -3.870   7.462   5.286  1.00  0.00    -0.031 C 
ATOM     12  C   UNL     1      -4.517   7.625   6.455  1.00  0.00    -0.031 C 
BRANCH  12  13
ATOM     13  C   UNL     1      -5.360   6.566   7.121  1.00  0.00     0.027 C 
BRANCH  13  14
ATOM     14  C   UNL     1      -6.163   7.164   8.282  1.00  0.00     0.004 C 
BRANCH  14  15
ATOM     15  C   UNL     1      -7.617   6.671   8.253  1.00  0.00     0.000 C 
BRANCH  15  16
ATOM     16  C   UNL     1      -7.981   5.804   9.473  1.00  0.00    -0.000 C 
BRANCH  16  17
ATOM     17  C   UNL     1      -7.620   4.314   9.338  1.00  0.00    -0.003 C 
ATOM     18  C   UNL     1      -6.244   3.977   9.913  1.00  0.00     0.004 C 
ENDBRANCH  16  17
ENDBRANCH  15  16
ENDBRANCH  14  15
ENDBRANCH  13  14
ENDBRANCH  12  13
ENDBRANCH  10  11
ENDBRANCH   1  10
TORSDOF 13
ENDMDL
MODEL 3
REMARK VINA RESULT:    -4.756     13.357     14.924
REMARK INTER + INTRA:          -9.369
REMARK INTER:                  -8.048
REMARK INTRA:                  -1.321
REMARK UNBOUND:                -0.999
REMARK SMILES CCCCCCC=CCCCCCCCC(=O)[O-]
REMARK SMILES IDX 10 1 11 2 12 3 13 4 14 5 15 6 16 7 17 8 18 9 9 10 8 11 7 12
REMARK SMILES IDX 6 13 5 14 4 15 3 16 2 17 1 18
REMARK H PARENT
REMARK Flexibility Score: inf
ROOT
ATOM      1  C   UNL     1       9.278   4.241  -1.280  1.00  0.00     0.004 C 
ENDROOT
BRANCH   1   2
ATOM      2  C   UNL     1      10.024   5.124  -0.266  1.00  0.00     0.000 C 
BRANCH   2   3
ATOM      3  C   UNL     1       9.085   5.743   0.782  1.00  0.00     0.000 C 
BRANCH   3   4
ATOM      4  C   UNL     1       9.179   7.275   0.831  1.00  0.00     0.000 C 
BRANCH   4   5
ATOM      5  C   UNL     1       9.368   7.767   2.271  1.00  0.00     0.006 C 
BRANCH   5   6
ATOM      6  C   UNL     1       9.593   6.594   3.229  1.00  0.00     0.053 C 
BRANCH   6   7
ATOM      7  C   UNL     1       9.333   7.013   4.641  1.00  0.00     0.041 C 
ATOM      8  O   UNL     1       9.467   6.187   5.583  1.00  0.00    -0.550 OA
ATOM      9  O   UNL     1       8.989   8.329   4.923  1.00  0.00    -0.550 OA
ENDBRANCH   6   7
ENDBRANCH   5   6
ENDBRANCH   4   5
ENDBRANCH   3   4
ENDBRANCH   2   3
ENDBRANCH   1   2
BRANCH   1  10
ATOM     10  C   UNL     1       7.790   4.612  -1.385  1.00  0.00     0.027 C 
BRANCH  10  11
ATOM     11  C   UNL     1       7.445   5.181  -2.740  1.00  0.00    -0.031 C 
ATOM     12  C   UNL     1       7.004   6.434  -2.955  1.00  0.00    -0.031 C 
BRANCH  12  13
ATOM     13  C   UNL     1       6.698   7.432  -1.866  1.00  0.00     0.027 C 
BRANCH  13  14
ATOM     14  C   UNL     1       7.577   8.680  -2.012  1.00  0.00     0.004 C 
BRANCH  14  15
ATOM     15  C   UNL     1       6.734   9.899  -2.413  1.00  0.00     0.000 C 
BRANCH  15  16
ATOM     16  C   UNL     1       5.841  10.414  -1.269  1.00  0.00    -0.000 C 
BRANCH  16  17
ATOM     17  C   UNL     1       4.339  10.122  -1.440  1.00  0.00    -0.003 C 
ATOM     18  C   UNL     1       3.749  10.743  -2.707  1.00  0.00     0.004 C 
ENDBRANCH  16  17
ENDBRANCH  15  16
ENDBRANCH  14  15
ENDBRANCH  13  14
ENDBRANCH  12  13
ENDBRANCH  10  11
ENDBRANCH   1  10
TORSDOF 13
ENDMDL
MODEL 4
REMARK VINA RESULT:    -4.691     14.780     17.189
REMARK INTER + INTRA:          -9.255
REMARK INTER:                  -7.360
REMARK INTRA:                  -1.895
REMARK UNBOUND:                -0.999
REMARK SMILES CCCCCCC=CCCCCCCCC(=O)[O-]
REMARK SMILES IDX 10 1 11 2 12 3 13 4 14 5 15 6 16 7 17 8 18 9 9 10 8 11 7 12
REMARK SMILES IDX 6 13 5 14 4 15 3 16 2 17 1 18
REMARK H PARENT
REMARK Flexibility Score: inf
ROOT
ATOM      1  C   UNL     1      10.571   4.732  -2.536  1.00  0.00     0.004 C 
ENDROOT
BRANCH   1   2
ATOM      2  C   UNL     1      10.698   6.208  -2.952  1.00  0.00     0.000 C 
BRANCH   2   3
ATOM      3  C   UNL     1       9.998   6.509  -4.287  1.00  0.00     0.000 C 
BRANCH   3   4
ATOM      4  C   UNL     1       9.070   5.372  -4.738  1.00  0.00     0.000 C 
BRANCH   4   5
ATOM      5  C   UNL     1       7.736   5.925  -5.255  1.00  0.00     0.006 C 
BRANCH   5   6
ATOM      6  C   UNL     1       7.928   6.682  -6.573  1.00  0.00     0.053 C 
BRANCH   6   7
ATOM      7  C   UNL     1       7.406   5.877  -7.720  1.00  0.00     0.041 C 
ATOM      8  O   UNL     1       6.687   6.419  -8.600  1.00  0.00    -0.550 OA
ATOM      9  O   UNL     1       7.755   4.538  -7.845  1.00  0.00    -0.550 OA
ENDBRANCH   6   7
ENDBRANCH   5   6
ENDBRANCH   4   5
ENDBRANCH   3   4
ENDBRANCH   2   3
ENDBRANCH   1   2
BRANCH   1  10
ATOM     10  C   UNL     1       9.896   4.575  -1.165  1.00  0.00     0.027 C 
BRANCH  10  11
ATOM     11  C   UNL     1       8.426   4.257  -1.293  1.00  0.00    -0.031 C 
ATOM     12  C   UNL     1       7.446   5.179  -1.356  1.00  0.00    -0.031 C 
BRANCH  12  13
ATOM     13  C   UNL     1       7.659   6.665  -1.215  1.00  0.00     0.027 C 
BRANCH  13  14
ATOM     14  C   UNL     1       6.706   7.439  -2.133  1.00  0.00     0.004 C 
BRANCH  14  15
ATOM     15  C   UNL     1       7.262   8.835  -2.447  1.00  0.00     0.000 C 
BRANCH  15  16
ATOM     16  C   UNL     1       6.394   9.970  -1.872  1.00  0.00    -0.000 C 
BRANCH  16  17
ATOM     17  C   UNL     1       4.922   9.595  -1.619  1.00  0.00    -0.003 C 
ATOM     18  C   UNL     1       3.946  10.381  -2.495  1.00  0.00     0.004 C 
ENDBRANCH  16  17
ENDBRANCH  15  16
ENDBRANCH  14  15
ENDBRANCH  13  14
ENDBRANCH  12  13
ENDBRANCH  10  11
ENDBRANCH   1  10
TORSDOF 13
ENDMDL
MODEL 5
REMARK VINA RESULT:    -4.656     14.804     16.843
REMARK INTER + INTRA:          -9.194
REMARK INTER:                  -7.504
REMARK INTRA:                  -1.689
REMARK UNBOUND:                -0.999
REMARK SMILES CCCCCCC=CCCCCCCCC(=O)[O-]
REMARK SMILES IDX 10 1 11 2 12 3 13 4 14 5 15 6 16 7 17 8 18 9 9 10 8 11 7 12
REMARK SMILES IDX 6 13 5 14 4 15 3 16 2 17 1 18
REMARK H PARENT
REMARK Flexibility Score: inf
ROOT
ATOM      1  C   UNL     1       7.961   4.895  -0.309  1.00  0.00     0.004 C 
ENDROOT
BRANCH   1   2
ATOM      2  C   UNL     1       8.023   4.346  -1.745  1.00  0.00     0.000 C 
BRANCH   2   3
ATOM      3  C   UNL     1       8.280   5.446  -2.788  1.00  0.00     0.000 C 
BRANCH   3   4
ATOM      4  C   UNL     1       7.230   5.456  -3.909  1.00  0.00     0.000 C 
BRANCH   4   5
ATOM      5  C   UNL     1       7.775   6.145  -5.165  1.00  0.00     0.006 C 
BRANCH   5   6
ATOM      6  C   UNL     1       8.625   5.180  -5.997  1.00  0.00     0.053 C 
BRANCH   6   7
ATOM      7  C   UNL     1       8.027   4.993  -7.356  1.00  0.00     0.041 C 
ATOM      8  O   UNL     1       7.198   5.828  -7.804  1.00  0.00    -0.550 OA
ATOM      9  O   UNL     1       8.424   3.923  -8.148  1.00  0.00    -0.550 OA
ENDBRANCH   6   7
ENDBRANCH   5   6
ENDBRANCH   4   5
ENDBRANCH   3   4
ENDBRANCH   2   3
ENDBRANCH   1   2
BRANCH   1  10
ATOM     10  C   UNL     1       9.318   5.445   0.158  1.00  0.00     0.027 C 
BRANCH  10  11
ATOM     11  C   UNL     1       9.197   6.231   1.441  1.00  0.00    -0.031 C 
ATOM     12  C   UNL     1       9.344   7.566   1.539  1.00  0.00    -0.031 C 
BRANCH  12  13
ATOM     13  C   UNL     1       9.742   8.468   0.398  1.00  0.00     0.027 C 
BRANCH  13  14
ATOM     14  C   UNL     1       8.503   9.024  -0.313  1.00  0.00     0.004 C 
BRANCH  14  15
ATOM     15  C   UNL     1       8.683   8.986  -1.837  1.00  0.00     0.000 C 
BRANCH  15  16
ATOM     16  C   UNL     1       7.351   9.109  -2.601  1.00  0.00    -0.000 C 
BRANCH  16  17
ATOM     17  C   UNL     1       6.119   8.583  -1.844  1.00  0.00    -0.003 C 
ATOM     18  C   UNL     1       4.969   9.589  -1.799  1.00  0.00     0.004 C 
ENDBRANCH  16  17
ENDBRANCH  15  16
ENDBRANCH  14  15
ENDBRANCH  13  14
ENDBRANCH  12  13
ENDBRANCH  10  11
ENDBRANCH   1  10
TORSDOF 13
ENDMDL
MODEL 6
REMARK VINA RESULT:    -4.648     17.043     19.220
REMARK INTER + INTRA:          -9.180
REMARK INTER:                  -6.989
REMARK INTRA:                  -2.191
REMARK UNBOUND:                -0.999
REMARK SMILES CCCCCCC=CCCCCCCCC(=O)[O-]
REMARK SMILES IDX 10 1 11 2 12 3 13 4 14 5 15 6 16 7 17 8 18 9 9 10 8 11 7 12
REMARK SMILES IDX 6 13 5 14 4 15 3 16 2 17 1 18
REMARK H PARENT
REMARK Flexibility Score: inf
ROOT
ATOM      1  C   UNL     1      -0.543  -7.378  -8.285  1.00  0.00     0.004 C 
ENDROOT
BRANCH   1   2
ATOM      2  C   UNL     1      -1.952  -6.770  -8.396  1.00  0.00     0.000 C 
BRANCH   2   3
ATOM      3  C   UNL     1      -2.128  -5.915  -9.662  1.00  0.00     0.000 C 
BRANCH   3   4
ATOM      4  C   UNL     1      -2.833  -4.580  -9.383  1.00  0.00     0.000 C 
BRANCH   4   5
ATOM      5  C   UNL     1      -3.233  -4.469  -7.907  1.00  0.00     0.006 C 
BRANCH   5   6
ATOM      6  C   UNL     1      -4.596  -3.788  -7.756  1.00  0.00     0.053 C 
BRANCH   6   7
ATOM      7  C   UNL     1      -5.481  -4.581  -6.847  1.00  0.00     0.041 C 
ATOM      8  O   UNL     1      -5.771  -5.775  -7.126  1.00  0.00    -0.550 OA
ATOM      9  O   UNL     1      -5.945  -4.019  -5.664  1.00  0.00    -0.550 OA
ENDBRANCH   6   7
ENDBRANCH   5   6
ENDBRANCH   4   5
ENDBRANCH   3   4
ENDBRANCH   2   3
ENDBRANCH   1   2
BRANCH   1  10
ATOM     10  C   UNL     1       0.057  -7.192  -6.882  1.00  0.00     0.027 C 
BRANCH  10  11
ATOM     11  C   UNL     1      -0.101  -5.776  -6.384  1.00  0.00    -0.031 C 
ATOM     12  C   UNL     1       0.775  -4.780  -6.615  1.00  0.00    -0.031 C 
BRANCH  12  13
ATOM     13  C   UNL     1       2.094  -4.949  -7.327  1.00  0.00     0.027 C 
BRANCH  13  14
ATOM     14  C   UNL     1       1.958  -4.595  -8.813  1.00  0.00     0.004 C 
BRANCH  14  15
ATOM     15  C   UNL     1       0.717  -3.725  -9.056  1.00  0.00     0.000 C 
BRANCH  15  16
ATOM     16  C   UNL     1       1.066  -2.268  -9.413  1.00  0.00    -0.000 C 
BRANCH  16  17
ATOM     17  C   UNL     1      -0.091  -1.266  -9.247  1.00  0.00    -0.003 C 
ATOM     18  C   UNL     1      -0.953  -1.546  -8.015  1.00  0.00     0.004 C 
ENDBRANCH  16  17
ENDBRANCH  15  16
ENDBRANCH  14  15
ENDBRANCH  13  14
ENDBRANCH  12  13
ENDBRANCH  10  11
ENDBRANCH   1  10
TORSDOF 13
ENDMDL
MODEL 7
REMARK VINA RESULT:    -4.570     14.227     17.481
REMARK INTER + INTRA:          -9.042
REMARK INTER:                  -7.085
REMARK INTRA:                  -1.957
REMARK UNBOUND:                -0.999
REMARK SMILES CCCCCCC=CCCCCCCCC(=O)[O-]
REMARK SMILES IDX 10 1 11 2 12 3 13 4 14 5 15 6 16 7 17 8 18 9 9 10 8 11 7 12
REMARK SMILES IDX 6 13 5 14 4 15 3 16 2 17 1 18
REMARK H PARENT
REMARK Flexibility Score: inf
ROOT
ATOM      1  C   UNL     1       7.822   5.613  -0.906  1.00  0.00     0.004 C 
ENDROOT
BRANCH   1   2
ATOM      2  C   UNL     1       8.888   6.722  -0.895  1.00  0.00     0.000 C 
BRANCH   2   3
ATOM      3  C   UNL     1       8.283   8.122  -0.703  1.00  0.00     0.000 C 
BRANCH   3   4
ATOM      4  C   UNL     1       8.392   8.993  -1.963  1.00  0.00     0.000 C 
BRANCH   4   5
ATOM      5  C   UNL     1       7.076   8.987  -2.750  1.00  0.00     0.006 C 
BRANCH   5   6
ATOM      6  C   UNL     1       5.890   8.669  -1.836  1.00  0.00     0.053 C 
BRANCH   6   7
ATOM      7  C   UNL     1       5.007   9.867  -1.686  1.00  0.00     0.041 C 
ATOM      8  O   UNL     1       5.491  10.970  -1.317  1.00  0.00    -0.550 OA
ATOM      9  O   UNL     1       3.657   9.780  -2.003  1.00  0.00    -0.550 OA
ENDBRANCH   6   7
ENDBRANCH   5   6
ENDBRANCH   4   5
ENDBRANCH   3   4
ENDBRANCH   2   3
ENDBRANCH   1   2
BRANCH   1  10
ATOM     10  C   UNL     1       7.951   4.700  -2.135  1.00  0.00     0.027 C 
BRANCH  10  11
ATOM     11  C   UNL     1       6.960   5.063  -3.214  1.00  0.00    -0.031 C 
ATOM     12  C   UNL     1       7.284   5.619  -4.397  1.00  0.00    -0.031 C 
BRANCH  12  13
ATOM     13  C   UNL     1       8.675   6.049  -4.787  1.00  0.00     0.027 C 
BRANCH  13  14
ATOM     14  C   UNL     1       8.641   6.910  -6.056  1.00  0.00     0.004 C 
BRANCH  14  15
ATOM     15  C   UNL     1       7.539   6.433  -7.012  1.00  0.00     0.000 C 
BRANCH  15  16
ATOM     16  C   UNL     1       8.031   6.272  -8.462  1.00  0.00    -0.000 C 
BRANCH  16  17
ATOM     17  C   UNL     1       9.202   5.290  -8.644  1.00  0.00    -0.003 C 
ATOM     18  C   UNL     1       8.925   3.911  -8.044  1.00  0.00     0.004 C 
ENDBRANCH  16  17
ENDBRANCH  15  16
ENDBRANCH  14  15
ENDBRANCH  13  14
ENDBRANCH  12  13
ENDBRANCH  10  11
ENDBRANCH   1  10
TORSDOF 13
ENDMDL
MODEL 8
REMARK VINA RESULT:    -4.548     16.700     18.839
REMARK INTER + INTRA:          -9.004
REMARK INTER:                  -7.094
REMARK INTRA:                  -1.909
REMARK UNBOUND:                -0.999
REMARK SMILES CCCCCCC=CCCCCCCCC(=O)[O-]
REMARK SMILES IDX 10 1 11 2 12 3 13 4 14 5 15 6 16 7 17 8 18 9 9 10 8 11 7 12
REMARK SMILES IDX 6 13 5 14 4 15 3 16 2 17 1 18
REMARK H PARENT
REMARK Flexibility Score: inf
ROOT
ATOM      1  C   UNL     1      -1.227  -2.694  -7.076  1.00  0.00     0.004 C 
ENDROOT
BRANCH   1   2
ATOM      2  C   UNL     1      -2.208  -3.878  -7.049  1.00  0.00     0.000 C 
BRANCH   2   3
ATOM      3  C   UNL     1      -2.639  -4.321  -8.457  1.00  0.00     0.000 C 
BRANCH   3   4
ATOM      4  C   UNL     1      -3.735  -5.396  -8.430  1.00  0.00     0.000 C 
BRANCH   4   5
ATOM      5  C   UNL     1      -5.116  -4.767  -8.213  1.00  0.00     0.006 C 
BRANCH   5   6
ATOM      6  C   UNL     1      -5.983  -5.643  -7.305  1.00  0.00     0.053 C 
BRANCH   6   7
ATOM      7  C   UNL     1      -6.245  -4.952  -6.004  1.00  0.00     0.041 C 
ATOM      8  O   UNL     1      -5.809  -3.788  -5.805  1.00  0.00    -0.550 OA
ATOM      9  O   UNL     1      -7.013  -5.576  -5.028  1.00  0.00    -0.550 OA
ENDBRANCH   6   7
ENDBRANCH   5   6
ENDBRANCH   4   5
ENDBRANCH   3   4
ENDBRANCH   2   3
ENDBRANCH   1   2
BRANCH   1  10
ATOM     10  C   UNL     1      -1.212  -1.988  -8.441  1.00  0.00     0.027 C 
BRANCH  10  11
ATOM     11  C   UNL     1       0.187  -1.612  -8.867  1.00  0.00    -0.031 C 
ATOM     12  C   UNL     1       1.024  -2.420  -9.545  1.00  0.00    -0.031 C 
BRANCH  12  13
ATOM     13  C   UNL     1       0.727  -3.855  -9.900  1.00  0.00     0.027 C 
BRANCH  13  14
ATOM     14  C   UNL     1       2.002  -4.705  -9.836  1.00  0.00     0.004 C 
BRANCH  14  15
ATOM     15  C   UNL     1       1.927  -5.720  -8.687  1.00  0.00     0.000 C 
BRANCH  15  16
ATOM     16  C   UNL     1       1.744  -5.054  -7.310  1.00  0.00    -0.000 C 
BRANCH  16  17
ATOM     17  C   UNL     1       0.831  -5.823  -6.337  1.00  0.00    -0.003 C 
ATOM     18  C   UNL     1      -0.062  -6.848  -7.036  1.00  0.00     0.004 C 
ENDBRANCH  16  17
ENDBRANCH  15  16
ENDBRANCH  14  15
ENDBRANCH  13  14
ENDBRANCH  12  13
ENDBRANCH  10  11
ENDBRANCH   1  10
TORSDOF 13
ENDMDL
MODEL 9
REMARK VINA RESULT:    -4.544     13.975     15.756
REMARK INTER + INTRA:          -8.997
REMARK INTER:                  -7.006
REMARK INTRA:                  -1.992
REMARK UNBOUND:                -0.999
REMARK SMILES CCCCCCC=CCCCCCCCC(=O)[O-]
REMARK SMILES IDX 10 1 11 2 12 3 13 4 14 5 15 6 16 7 17 8 18 9 9 10 8 11 7 12
REMARK SMILES IDX 6 13 5 14 4 15 3 16 2 17 1 18
REMARK H PARENT
REMARK Flexibility Score: inf
ROOT
ATOM      1  C   UNL     1       7.529   4.528  -1.042  1.00  0.00     0.004 C 
ENDROOT
BRANCH   1   2
ATOM      2  C   UNL     1       7.805   4.964  -2.491  1.00  0.00     0.000 C 
BRANCH   2   3
ATOM      3  C   UNL     1       7.018   6.224  -2.890  1.00  0.00     0.000 C 
BRANCH   3   4
ATOM      4  C   UNL     1       7.921   7.451  -3.081  1.00  0.00     0.000 C 
BRANCH   4   5
ATOM      5  C   UNL     1       7.378   8.658  -2.307  1.00  0.00     0.006 C 
BRANCH   5   6
ATOM      6  C   UNL     1       5.921   8.435  -1.893  1.00  0.00     0.053 C 
BRANCH   6   7
ATOM      7  C   UNL     1       5.183   9.735  -1.853  1.00  0.00     0.041 C 
ATOM      8  O   UNL     1       5.805  10.823  -1.980  1.00  0.00    -0.550 OA
ATOM      9  O   UNL     1       3.799   9.745  -1.726  1.00  0.00    -0.550 OA
ENDBRANCH   6   7
ENDBRANCH   5   6
ENDBRANCH   4   5
ENDBRANCH   3   4
ENDBRANCH   2   3
ENDBRANCH   1   2
BRANCH   1  10
ATOM     10  C   UNL     1       8.435   5.257  -0.037  1.00  0.00     0.027 C 
BRANCH  10  11
ATOM     11  C   UNL     1       9.852   5.382  -0.543  1.00  0.00    -0.031 C 
ATOM     12  C   UNL     1      10.583   6.513  -0.503  1.00  0.00    -0.031 C 
BRANCH  12  13
ATOM     13  C   UNL     1      10.066   7.849  -0.034  1.00  0.00     0.027 C 
BRANCH  13  14
ATOM     14  C   UNL     1      10.508   8.126   1.408  1.00  0.00     0.004 C 
BRANCH  14  15
ATOM     15  C   UNL     1       9.301   8.457   2.297  1.00  0.00     0.000 C 
BRANCH  15  16
ATOM     16  C   UNL     1       9.236   7.592   3.569  1.00  0.00    -0.000 C 
BRANCH  16  17
ATOM     17  C   UNL     1       9.636   6.119   3.371  1.00  0.00    -0.003 C 
ATOM     18  C   UNL     1       9.142   5.209   4.496  1.00  0.00     0.004 C 
ENDBRANCH  16  17
ENDBRANCH  15  16
ENDBRANCH  14  15
ENDBRANCH  13  14
ENDBRANCH  12  13
ENDBRANCH  10  11
ENDBRANCH   1  10
TORSDOF 13
ENDMDL
