MODEL 1
REMARK VINA RESULT:    -3.922      0.000      0.000
REMARK INTER + INTRA:          -3.922
REMARK INTER:                  -3.922
REMARK INTRA:                   0.000
REMARK UNBOUND:                 0.000
REMARK SMILES O=C1CCCCC1
REMARK SMILES IDX 5 1 4 2 3 3 2 4 1 5 7 6 6 7
REMARK H PARENT
REMARK Flexibility Score: inf
ROOT
ATOM      1  C   UNL     1      15.973  41.752 -13.854  1.00  0.00     0.001 C 
ATOM      2  C   UNL     1      15.365  42.412 -12.607  1.00  0.00     0.008 C 
ATOM      3  C   UNL     1      14.151  43.277 -12.967  1.00  0.00     0.075 C 
ATOM      4  C   UNL     1      14.492  44.218 -14.089  1.00  0.00     0.132 C 
ATOM      5  O   UNL     1      14.127  45.384 -14.049  1.00  0.00    -0.300 OA
ATOM      6  C   UNL     1      15.202  43.687 -15.303  1.00  0.00     0.075 C 
ATOM      7  C   UNL     1      16.392  42.811 -14.885  1.00  0.00     0.008 C 
ENDROOT
TORSDOF 0
ENDMDL
MODEL 2
REMARK VINA RESULT:    -3.857      1.573      2.794
REMARK INTER + INTRA:          -3.857
REMARK INTER:                  -3.857
REMARK INTRA:                   0.000
REMARK UNBOUND:                 0.000
REMARK SMILES O=C1CCCCC1
REMARK SMILES IDX 5 1 4 2 3 3 2 4 1 5 7 6 6 7
REMARK H PARENT
REMARK Flexibility Score: inf
ROOT
ATOM      1  C   UNL     1      13.926  43.131 -12.821  1.00  0.00     0.001 C 
ATOM      2  C   UNL     1      14.234  44.252 -13.825  1.00  0.00     0.008 C 
ATOM      3  C   UNL     1      14.918  43.704 -15.084  1.00  0.00     0.075 C 
ATOM      4  C   UNL     1      16.088  42.837 -14.709  1.00  0.00     0.132 C 
ATOM      5  O   UNL     1      17.144  42.929 -15.318  1.00  0.00    -0.300 OA
ATOM      6  C   UNL     1      15.916  41.790 -13.644  1.00  0.00     0.075 C 
ATOM      7  C   UNL     1      15.208  42.386 -12.420  1.00  0.00     0.008 C 
ENDROOT
TORSDOF 0
ENDMDL
MODEL 3
REMARK VINA RESULT:    -3.757      1.948      2.723
REMARK INTER + INTRA:          -3.757
REMARK INTER:                  -3.757
REMARK INTRA:                   0.000
REMARK UNBOUND:                 0.000
REMARK SMILES O=C1CCCCC1
REMARK SMILES IDX 5 1 4 2 3 3 2 4 1 5 7 6 6 7
REMARK H PARENT
REMARK Flexibility Score: inf
ROOT
ATOM      1  C   UNL     1      14.626  44.408 -14.569  1.00  0.00     0.001 C 
ATOM      2  C   UNL     1      14.026  43.556 -13.441  1.00  0.00     0.008 C 
ATOM      3  C   UNL     1      15.111  42.773 -12.691  1.00  0.00     0.075 C 
ATOM      4  C   UNL     1      15.985  42.028 -13.663  1.00  0.00     0.132 C 
ATOM      5  O   UNL     1      16.319  40.875 -13.433  1.00  0.00    -0.300 OA
ATOM      6  C   UNL     1      16.521  42.747 -14.870  1.00  0.00     0.075 C 
ATOM      7  C   UNL     1      15.400  43.531 -15.566  1.00  0.00     0.008 C 
ENDROOT
TORSDOF 0
ENDMDL
MODEL 4
REMARK VINA RESULT:    -3.609      1.661      2.914
REMARK INTER + INTRA:          -3.609
REMARK INTER:                  -3.609
REMARK INTRA:                   0.000
REMARK UNBOUND:                 0.000
REMARK SMILES O=C1CCCCC1
REMARK SMILES IDX 5 1 4 2 3 3 2 4 1 5 7 6 6 7
REMARK H PARENT
REMARK Flexibility Score: inf
ROOT
ATOM      1  C   UNL     1      15.218  43.774 -15.558  1.00  0.00     0.001 C 
ATOM      2  C   UNL     1      16.549  43.081 -15.229  1.00  0.00     0.008 C 
ATOM      3  C   UNL     1      16.357  41.959 -14.200  1.00  0.00     0.075 C 
ATOM      4  C   UNL     1      15.585  42.464 -13.012  1.00  0.00     0.132 C 
ATOM      5  O   UNL     1      15.931  42.162 -11.880  1.00  0.00    -0.300 OA
ATOM      6  C   UNL     1      14.331  43.262 -13.236  1.00  0.00     0.075 C 
ATOM      7  C   UNL     1      14.573  44.352 -14.289  1.00  0.00     0.008 C 
ENDROOT
TORSDOF 0
ENDMDL
MODEL 5
REMARK VINA RESULT:    -3.340      1.197      2.289
REMARK INTER + INTRA:          -3.340
REMARK INTER:                  -3.340
REMARK INTRA:                   0.000
REMARK UNBOUND:                 0.000
REMARK SMILES O=C1CCCCC1
REMARK SMILES IDX 5 1 4 2 3 3 2 4 1 5 7 6 6 7
REMARK H PARENT
REMARK Flexibility Score: inf
ROOT
ATOM      1  C   UNL     1      15.056  41.955 -12.369  1.00  0.00     0.001 C 
ATOM      2  C   UNL     1      15.883  41.324 -13.499  1.00  0.00     0.008 C 
ATOM      3  C   UNL     1      16.476  42.394 -14.424  1.00  0.00     0.075 C 
ATOM      4  C   UNL     1      15.405  43.352 -14.870  1.00  0.00     0.132 C 
ATOM      5  O   UNL     1      15.351  43.718 -16.035  1.00  0.00    -0.300 OA
ATOM      6  C   UNL     1      14.463  43.928 -13.849  1.00  0.00     0.075 C 
ATOM      7  C   UNL     1      13.920  42.819 -12.938  1.00  0.00     0.008 C 
ENDROOT
TORSDOF 0
ENDMDL
MODEL 6
REMARK VINA RESULT:    -3.270     14.089     15.042
REMARK INTER + INTRA:          -3.270
REMARK INTER:                  -3.270
REMARK INTRA:                   0.000
REMARK UNBOUND:                 0.000
REMARK SMILES O=C1CCCCC1
REMARK SMILES IDX 5 1 4 2 3 3 2 4 1 5 7 6 6 7
REMARK H PARENT
REMARK Flexibility Score: inf
ROOT
ATOM      1  C   UNL     1      15.991  44.967  -0.602  1.00  0.00     0.001 C 
ATOM      2  C   UNL     1      17.472  45.336  -0.772  1.00  0.00     0.008 C 
ATOM      3  C   UNL     1      18.391  44.233  -0.230  1.00  0.00     0.075 C 
ATOM      4  C   UNL     1      17.980  43.848   1.165  1.00  0.00     0.132 C 
ATOM      5  O   UNL     1      18.826  43.673   2.030  1.00  0.00    -0.300 OA
ATOM      6  C   UNL     1      16.529  43.587   1.458  1.00  0.00     0.075 C 
ATOM      7  C   UNL     1      15.657  44.707   0.875  1.00  0.00     0.008 C 
ENDROOT
TORSDOF 0
ENDMDL
MODEL 7
REMARK VINA RESULT:    -3.146     21.660     22.270
REMARK INTER + INTRA:          -3.146
REMARK INTER:                  -3.146
REMARK INTRA:                   0.000
REMARK UNBOUND:                 0.000
REMARK SMILES O=C1CCCCC1
REMARK SMILES IDX 5 1 4 2 3 3 2 4 1 5 7 6 6 7
REMARK H PARENT
REMARK Flexibility Score: inf
ROOT
ATOM      1  C   UNL     1      30.373  58.488 -13.178  1.00  0.00     0.001 C 
ATOM      2  C   UNL     1      31.690  58.954 -12.537  1.00  0.00     0.008 C 
ATOM      3  C   UNL     1      32.892  58.640 -13.437  1.00  0.00     0.075 C 
ATOM      4  C   UNL     1      32.862  57.200 -13.868  1.00  0.00     0.132 C 
ATOM      5  O   UNL     1      33.886  56.534 -13.864  1.00  0.00    -0.300 OA
ATOM      6  C   UNL     1      31.580  56.617 -14.394  1.00  0.00     0.075 C 
ATOM      7  C   UNL     1      30.410  56.980 -13.471  1.00  0.00     0.008 C 
ENDROOT
TORSDOF 0
ENDMDL
MODEL 8
REMARK VINA RESULT:    -3.073     21.809     22.415
REMARK INTER + INTRA:          -3.073
REMARK INTER:                  -3.073
REMARK INTRA:                   0.000
REMARK UNBOUND:                 0.000
REMARK SMILES O=C1CCCCC1
REMARK SMILES IDX 5 1 4 2 3 3 2 4 1 5 7 6 6 7
REMARK H PARENT
REMARK Flexibility Score: inf
ROOT
ATOM      1  C   UNL     1      30.355  56.991 -13.497  1.00  0.00     0.001 C 
ATOM      2  C   UNL     1      31.516  56.586 -14.418  1.00  0.00     0.008 C 
ATOM      3  C   UNL     1      32.869  57.007 -13.832  1.00  0.00     0.075 C 
ATOM      4  C   UNL     1      32.840  58.458 -13.435  1.00  0.00     0.132 C 
ATOM      5  O   UNL     1      33.786  59.186 -13.693  1.00  0.00    -0.300 OA
ATOM      6  C   UNL     1      31.678  58.977 -12.635  1.00  0.00     0.075 C 
ATOM      7  C   UNL     1      30.353  58.507 -13.251  1.00  0.00     0.008 C 
ENDROOT
TORSDOF 0
ENDMDL
MODEL 9
REMARK VINA RESULT:    -3.067     21.764     22.302
REMARK INTER + INTRA:          -3.067
REMARK INTER:                  -3.067
REMARK INTRA:                   0.000
REMARK UNBOUND:                 0.000
REMARK SMILES O=C1CCCCC1
REMARK SMILES IDX 5 1 4 2 3 3 2 4 1 5 7 6 6 7
REMARK H PARENT
REMARK Flexibility Score: inf
ROOT
ATOM      1  C   UNL     1      31.538  56.622 -14.405  1.00  0.00     0.001 C 
ATOM      2  C   UNL     1      30.464  57.039 -13.389  1.00  0.00     0.008 C 
ATOM      3  C   UNL     1      30.535  58.541 -13.083  1.00  0.00     0.075 C 
ATOM      4  C   UNL     1      31.943  58.936 -12.729  1.00  0.00     0.132 C 
ATOM      5  O   UNL     1      32.153  59.692 -11.792  1.00  0.00    -0.300 OA
ATOM      6  C   UNL     1      33.078  58.470 -13.597  1.00  0.00     0.075 C 
ATOM      7  C   UNL     1      32.943  56.969 -13.890  1.00  0.00     0.008 C 
ENDROOT
TORSDOF 0
ENDMDL
