MODEL 1
REMARK VINA RESULT:    -6.768      0.000      0.000
REMARK INTER + INTRA:          -8.578
REMARK INTER:                  -8.152
REMARK INTRA:                  -0.426
REMARK UNBOUND:                -0.426
REMARK SMILES O=c1c(O)c(-c2ccc(O)cc2O)oc2cc(O)cc(O)c12
REMARK SMILES IDX 5 1 3 2 2 3 1 4 22 5 20 6 19 7 17 8 16 9 15 10 14 11 6 12
REMARK SMILES IDX 8 13 7 14 9 15 11 16 12 17 10 18 13 20 4 22 21 24 18 26
REMARK H PARENT 10 19 13 21 4 23 21 25 18 27
REMARK Flexibility Score: inf
ROOT
ATOM      1  C   UNL     1      21.374   6.244  31.194  1.00  0.00     0.184 A 
ATOM      2  C   UNL     1      20.041   6.637  31.386  1.00  0.00     0.208 A 
ATOM      3  C   UNL     1      19.433   7.467  30.431  1.00  0.00     0.238 A 
ATOM      4  O   UNL     1      18.254   7.860  30.634  1.00  0.00    -0.285 OA
ATOM      5  C   UNL     1      20.163   7.880  29.290  1.00  0.00     0.111 A 
ATOM      6  C   UNL     1      19.635   8.688  28.238  1.00  0.00     0.134 A 
ATOM      7  C   UNL     1      20.485   9.143  27.224  1.00  0.00     0.093 A 
ATOM      8  C   UNL     1      21.827   8.766  27.185  1.00  0.00     0.123 A 
ATOM      9  C   UNL     1      22.340   7.928  28.175  1.00  0.00     0.094 A 
ATOM     10  C   UNL     1      21.526   7.487  29.220  1.00  0.00     0.146 A 
ATOM     11  O   UNL     1      22.055   6.699  30.150  1.00  0.00    -0.451 OA
ENDROOT
BRANCH   1  12
ATOM     12  C   UNL     1      22.068   5.358  32.152  1.00  0.00     0.063 A 
ATOM     13  C   UNL     1      22.375   3.129  33.073  1.00  0.00     0.047 A 
ATOM     14  C   UNL     1      21.742   3.993  32.176  1.00  0.00     0.020 A 
ATOM     15  C   UNL     1      23.332   3.619  33.965  1.00  0.00     0.119 A 
ATOM     16  C   UNL     1      23.649   4.983  33.965  1.00  0.00     0.093 A 
ATOM     17  C   UNL     1      23.014   5.859  33.072  1.00  0.00     0.130 A 
BRANCH  15  18
ATOM     18  O   UNL     1      23.960   2.745  34.850  1.00  0.00    -0.508 OA
ATOM     19  H   UNL     1      24.869   2.953  35.246  1.00  0.00     0.293 HD
ENDBRANCH  15  18
BRANCH  17  20
ATOM     20  O   UNL     1      23.301   7.223  33.115  1.00  0.00    -0.507 OA
ATOM     21  H   UNL     1      23.059   7.793  33.916  1.00  0.00     0.293 HD
ENDBRANCH  17  20
ENDBRANCH   1  12
BRANCH   2  22
ATOM     22  O   UNL     1      19.349   6.231  32.530  1.00  0.00    -0.502 OA
ATOM     23  H   UNL     1      19.778   5.662  33.250  1.00  0.00     0.293 HD
ENDBRANCH   2  22
BRANCH   6  24
ATOM     24  O   UNL     1      18.288   9.047  28.131  1.00  0.00    -0.507 OA
ATOM     25  H   UNL     1      17.935   9.987  28.221  1.00  0.00     0.293 HD
ENDBRANCH   6  24
BRANCH   8  26
ATOM     26  O   UNL     1      22.641   9.224  26.151  1.00  0.00    -0.508 OA
ATOM     27  H   UNL     1      23.464   8.712  25.858  1.00  0.00     0.293 HD
ENDBRANCH   8  26
TORSDOF 6
ENDMDL
MODEL 2
REMARK VINA RESULT:    -6.375     10.922     13.037
REMARK INTER + INTRA:          -8.105
REMARK INTER:                  -7.695
REMARK INTRA:                  -0.410
REMARK UNBOUND:                -0.426
REMARK SMILES O=c1c(O)c(-c2ccc(O)cc2O)oc2cc(O)cc(O)c12
REMARK SMILES IDX 5 1 3 2 2 3 1 4 22 5 20 6 19 7 17 8 16 9 15 10 14 11 6 12
REMARK SMILES IDX 8 13 7 14 9 15 11 16 12 17 10 18 13 20 4 22 21 24 18 26
REMARK H PARENT 10 19 13 21 4 23 21 25 18 27
REMARK Flexibility Score: inf
ROOT
ATOM      1  C   UNL     1      27.591   1.170  23.112  1.00  0.00     0.184 A 
ATOM      2  C   UNL     1      27.391   0.956  21.739  1.00  0.00     0.208 A 
ATOM      3  C   UNL     1      27.934  -0.194  21.144  1.00  0.00     0.238 A 
ATOM      4  O   UNL     1      27.798  -0.354  19.902  1.00  0.00    -0.285 OA
ATOM      5  C   UNL     1      28.657  -1.121  21.933  1.00  0.00     0.111 A 
ATOM      6  C   UNL     1      29.217  -2.340  21.444  1.00  0.00     0.134 A 
ATOM      7  C   UNL     1      30.022  -3.116  22.285  1.00  0.00     0.093 A 
ATOM      8  C   UNL     1      30.234  -2.755  23.616  1.00  0.00     0.123 A 
ATOM      9  C   UNL     1      29.643  -1.597  24.121  1.00  0.00     0.094 A 
ATOM     10  C   UNL     1      28.864  -0.782  23.297  1.00  0.00     0.146 A 
ATOM     11  O   UNL     1      28.329   0.318  23.813  1.00  0.00    -0.451 OA
ENDROOT
BRANCH   1  12
ATOM     12  C   UNL     1      27.033   2.350  23.804  1.00  0.00     0.063 A 
ATOM     13  C   UNL     1      25.189   3.366  25.019  1.00  0.00     0.047 A 
ATOM     14  C   UNL     1      25.748   2.267  24.363  1.00  0.00     0.020 A 
ATOM     15  C   UNL     1      25.899   4.565  25.113  1.00  0.00     0.119 A 
ATOM     16  C   UNL     1      27.172   4.666  24.539  1.00  0.00     0.093 A 
ATOM     17  C   UNL     1      27.740   3.570  23.873  1.00  0.00     0.130 A 
BRANCH  15  18
ATOM     18  O   UNL     1      25.331   5.651  25.775  1.00  0.00    -0.508 OA
ATOM     19  H   UNL     1      25.700   5.986  26.657  1.00  0.00     0.293 HD
ENDBRANCH  15  18
BRANCH  17  20
ATOM     20  O   UNL     1      28.987   3.698  23.262  1.00  0.00    -0.507 OA
ATOM     21  H   UNL     1      29.136   3.432  22.296  1.00  0.00     0.293 HD
ENDBRANCH  17  20
ENDBRANCH   1  12
BRANCH   2  22
ATOM     22  O   UNL     1      26.691   1.896  20.980  1.00  0.00    -0.502 OA
ATOM     23  H   UNL     1      25.678   1.927  20.953  1.00  0.00     0.293 HD
ENDBRANCH   2  22
BRANCH   6  24
ATOM     24  O   UNL     1      28.992  -2.841  20.158  1.00  0.00    -0.507 OA
ATOM     25  H   UNL     1      29.410  -3.679  19.787  1.00  0.00     0.293 HD
ENDBRANCH   6  24
BRANCH   8  26
ATOM     26  O   UNL     1      31.029  -3.560  24.429  1.00  0.00    -0.508 OA
ATOM     27  H   UNL     1      31.336  -3.250  25.343  1.00  0.00     0.293 HD
ENDBRANCH   8  26
TORSDOF 6
ENDMDL
MODEL 3
REMARK VINA RESULT:    -6.189      1.539      6.832
REMARK INTER + INTRA:          -7.881
REMARK INTER:                  -7.472
REMARK INTRA:                  -0.409
REMARK UNBOUND:                -0.426
REMARK SMILES O=c1c(O)c(-c2ccc(O)cc2O)oc2cc(O)cc(O)c12
REMARK SMILES IDX 5 1 3 2 2 3 1 4 22 5 20 6 19 7 17 8 16 9 15 10 14 11 6 12
REMARK SMILES IDX 8 13 7 14 9 15 11 16 12 17 10 18 13 20 4 22 21 24 18 26
REMARK H PARENT 10 19 13 21 4 23 21 25 18 27
REMARK Flexibility Score: inf
ROOT
ATOM      1  C   UNL     1      21.784   7.212  30.706  1.00  0.00     0.184 A 
ATOM      2  C   UNL     1      22.604   7.963  31.563  1.00  0.00     0.208 A 
ATOM      3  C   UNL     1      23.250   7.314  32.626  1.00  0.00     0.238 A 
ATOM      4  O   UNL     1      23.942   8.001  33.424  1.00  0.00    -0.285 OA
ATOM      5  C   UNL     1      23.080   5.920  32.809  1.00  0.00     0.111 A 
ATOM      6  C   UNL     1      23.719   5.151  33.828  1.00  0.00     0.134 A 
ATOM      7  C   UNL     1      23.377   3.804  33.994  1.00  0.00     0.093 A 
ATOM      8  C   UNL     1      22.470   3.180  33.138  1.00  0.00     0.123 A 
ATOM      9  C   UNL     1      21.884   3.906  32.101  1.00  0.00     0.094 A 
ATOM     10  C   UNL     1      22.178   5.261  31.932  1.00  0.00     0.146 A 
ATOM     11  O   UNL     1      21.590   5.920  30.940  1.00  0.00    -0.451 OA
ENDROOT
BRANCH   1  12
ATOM     12  C   UNL     1      21.088   7.830  29.558  1.00  0.00     0.063 A 
ATOM     13  C   UNL     1      19.058   8.800  28.636  1.00  0.00     0.047 A 
ATOM     14  C   UNL     1      19.747   8.218  29.704  1.00  0.00     0.020 A 
ATOM     15  C   UNL     1      19.695   8.989  27.407  1.00  0.00     0.119 A 
ATOM     16  C   UNL     1      21.026   8.584  27.245  1.00  0.00     0.093 A 
ATOM     17  C   UNL     1      21.724   7.993  28.309  1.00  0.00     0.130 A 
BRANCH  15  18
ATOM     18  O   UNL     1      18.997   9.575  26.354  1.00  0.00    -0.508 OA
ATOM     19  H   UNL     1      18.047   9.302  26.131  1.00  0.00     0.293 HD
ENDBRANCH  15  18
BRANCH  17  20
ATOM     20  O   UNL     1      23.032   7.549  28.120  1.00  0.00    -0.507 OA
ATOM     21  H   UNL     1      23.704   8.085  27.584  1.00  0.00     0.293 HD
ENDBRANCH  17  20
ENDBRANCH   1  12
BRANCH   2  22
ATOM     22  O   UNL     1      22.739   9.340  31.372  1.00  0.00    -0.502 OA
ATOM     23  H   UNL     1      22.150   9.860  30.732  1.00  0.00     0.293 HD
ENDBRANCH   2  22
BRANCH   6  24
ATOM     24  O   UNL     1      24.708   5.654  34.680  1.00  0.00    -0.507 OA
ATOM     25  H   UNL     1      25.398   5.092  35.154  1.00  0.00     0.293 HD
ENDBRANCH   6  24
BRANCH   8  26
ATOM     26  O   UNL     1      22.165   1.834  33.323  1.00  0.00    -0.508 OA
ATOM     27  H   UNL     1      22.515   1.120  32.695  1.00  0.00     0.293 HD
ENDBRANCH   8  26
TORSDOF 6
ENDMDL
MODEL 4
REMARK VINA RESULT:    -5.960     10.046     11.907
REMARK INTER + INTRA:          -7.606
REMARK INTER:                  -7.225
REMARK INTRA:                  -0.381
REMARK UNBOUND:                -0.426
REMARK SMILES O=c1c(O)c(-c2ccc(O)cc2O)oc2cc(O)cc(O)c12
REMARK SMILES IDX 5 1 3 2 2 3 1 4 22 5 20 6 19 7 17 8 16 9 15 10 14 11 6 12
REMARK SMILES IDX 8 13 7 14 9 15 11 16 12 17 10 18 13 20 4 22 21 24 18 26
REMARK H PARENT 10 19 13 21 4 23 21 25 18 27
REMARK Flexibility Score: inf
ROOT
ATOM      1  C   UNL     1      27.886   1.321  23.026  1.00  0.00     0.184 A 
ATOM      2  C   UNL     1      28.486   2.568  22.792  1.00  0.00     0.208 A 
ATOM      3  C   UNL     1      27.958   3.705  23.422  1.00  0.00     0.238 A 
ATOM      4  O   UNL     1      28.466   4.829  23.167  1.00  0.00    -0.285 OA
ATOM      5  C   UNL     1      26.846   3.578  24.290  1.00  0.00     0.111 A 
ATOM      6  C   UNL     1      26.254   4.657  25.013  1.00  0.00     0.134 A 
ATOM      7  C   UNL     1      25.078   4.437  25.740  1.00  0.00     0.093 A 
ATOM      8  C   UNL     1      24.510   3.167  25.826  1.00  0.00     0.123 A 
ATOM      9  C   UNL     1      25.113   2.093  25.172  1.00  0.00     0.094 A 
ATOM     10  C   UNL     1      26.267   2.287  24.408  1.00  0.00     0.146 A 
ATOM     11  O   UNL     1      26.804   1.240  23.792  1.00  0.00    -0.451 OA
ENDROOT
BRANCH   1  12
ATOM     12  C   UNL     1      28.401   0.082  22.408  1.00  0.00     0.063 A 
ATOM     13  C   UNL     1      29.807  -1.895  22.577  1.00  0.00     0.047 A 
ATOM     14  C   UNL     1      29.296  -0.720  23.134  1.00  0.00     0.020 A 
ATOM     15  C   UNL     1      29.441  -2.277  21.284  1.00  0.00     0.119 A 
ATOM     16  C   UNL     1      28.567  -1.473  20.542  1.00  0.00     0.093 A 
ATOM     17  C   UNL     1      28.054  -0.288  21.091  1.00  0.00     0.130 A 
BRANCH  15  18
ATOM     18  O   UNL     1      29.954  -3.454  20.743  1.00  0.00    -0.508 OA
ATOM     19  H   UNL     1      30.850  -3.474  20.270  1.00  0.00     0.293 HD
ENDBRANCH  15  18
BRANCH  17  20
ATOM     20  O   UNL     1      27.224   0.530  20.325  1.00  0.00    -0.507 OA
ATOM     21  H   UNL     1      27.504   0.865  19.412  1.00  0.00     0.293 HD
ENDBRANCH  17  20
ENDBRANCH   1  12
BRANCH   2  22
ATOM     22  O   UNL     1      29.570   2.668  21.917  1.00  0.00    -0.502 OA
ATOM     23  H   UNL     1      30.003   3.555  21.688  1.00  0.00     0.293 HD
ENDBRANCH   2  22
BRANCH   6  24
ATOM     24  O   UNL     1      26.792   5.946  25.070  1.00  0.00    -0.507 OA
ATOM     25  H   UNL     1      27.118   6.468  24.272  1.00  0.00     0.293 HD
ENDBRANCH   6  24
BRANCH   8  26
ATOM     26  O   UNL     1      23.348   2.982  26.572  1.00  0.00    -0.508 OA
ATOM     27  H   UNL     1      22.505   3.510  26.379  1.00  0.00     0.293 HD
ENDBRANCH   8  26
TORSDOF 6
ENDMDL
MODEL 5
REMARK VINA RESULT:    -5.845      2.285      2.616
REMARK INTER + INTRA:          -7.466
REMARK INTER:                  -7.039
REMARK INTRA:                  -0.427
REMARK UNBOUND:                -0.426
REMARK SMILES O=c1c(O)c(-c2ccc(O)cc2O)oc2cc(O)cc(O)c12
REMARK SMILES IDX 5 1 3 2 2 3 1 4 22 5 20 6 19 7 17 8 16 9 15 10 14 11 6 12
REMARK SMILES IDX 8 13 7 14 9 15 11 16 12 17 10 18 13 20 4 22 21 24 18 26
REMARK H PARENT 10 19 13 21 4 23 21 25 18 27
REMARK Flexibility Score: inf
ROOT
ATOM      1  C   UNL     1      22.554   5.608  32.155  1.00  0.00     0.184 A 
ATOM      2  C   UNL     1      21.355   6.331  32.252  1.00  0.00     0.208 A 
ATOM      3  C   UNL     1      21.263   7.583  31.625  1.00  0.00     0.238 A 
ATOM      4  O   UNL     1      20.204   8.252  31.760  1.00  0.00    -0.285 OA
ATOM      5  C   UNL     1      22.367   8.089  30.896  1.00  0.00     0.111 A 
ATOM      6  C   UNL     1      22.372   9.328  30.187  1.00  0.00     0.134 A 
ATOM      7  C   UNL     1      23.561   9.788  29.609  1.00  0.00     0.093 A 
ATOM      8  C   UNL     1      24.728   9.026  29.657  1.00  0.00     0.123 A 
ATOM      9  C   UNL     1      24.719   7.786  30.296  1.00  0.00     0.094 A 
ATOM     10  C   UNL     1      23.558   7.316  30.913  1.00  0.00     0.146 A 
ATOM     11  O   UNL     1      23.594   6.135  31.521  1.00  0.00    -0.451 OA
ENDROOT
BRANCH   1  12
ATOM     12  C   UNL     1      22.712   4.277  32.777  1.00  0.00     0.063 A 
ATOM     13  C   UNL     1      22.261   1.889  32.716  1.00  0.00     0.047 A 
ATOM     14  C   UNL     1      22.136   3.161  32.151  1.00  0.00     0.020 A 
ATOM     15  C   UNL     1      22.953   1.718  33.918  1.00  0.00     0.119 A 
ATOM     16  C   UNL     1      23.512   2.829  34.562  1.00  0.00     0.093 A 
ATOM     17  C   UNL     1      23.385   4.111  34.006  1.00  0.00     0.130 A 
BRANCH  15  18
ATOM     18  O   UNL     1      23.075   0.443  34.467  1.00  0.00    -0.508 OA
ATOM     19  H   UNL     1      23.411   0.304  35.412  1.00  0.00     0.293 HD
ENDBRANCH  15  18
BRANCH  17  20
ATOM     20  O   UNL     1      23.904   5.215  34.682  1.00  0.00    -0.507 OA
ATOM     21  H   UNL     1      24.355   5.976  34.189  1.00  0.00     0.293 HD
ENDBRANCH  17  20
ENDBRANCH   1  12
BRANCH   2  22
ATOM     22  O   UNL     1      20.288   5.818  32.994  1.00  0.00    -0.502 OA
ATOM     23  H   UNL     1      20.425   5.236  33.812  1.00  0.00     0.293 HD
ENDBRANCH   2  22
BRANCH   6  24
ATOM     24  O   UNL     1      21.238  10.124  30.001  1.00  0.00    -0.507 OA
ATOM     25  H   UNL     1      21.102  11.035  30.410  1.00  0.00     0.293 HD
ENDBRANCH   6  24
BRANCH   8  26
ATOM     26  O   UNL     1      25.889   9.508  29.057  1.00  0.00    -0.508 OA
ATOM     27  H   UNL     1      26.263   9.088  28.215  1.00  0.00     0.293 HD
ENDBRANCH   8  26
TORSDOF 6
ENDMDL
MODEL 6
REMARK VINA RESULT:    -5.836      8.921     11.053
REMARK INTER + INTRA:          -7.455
REMARK INTER:                  -7.137
REMARK INTRA:                  -0.318
REMARK UNBOUND:                -0.426
REMARK SMILES O=c1c(O)c(-c2ccc(O)cc2O)oc2cc(O)cc(O)c12
REMARK SMILES IDX 5 1 3 2 2 3 1 4 22 5 20 6 19 7 17 8 16 9 15 10 14 11 6 12
REMARK SMILES IDX 8 13 7 14 9 15 11 16 12 17 10 18 13 20 4 22 21 24 18 26
REMARK H PARENT 10 19 13 21 4 23 21 25 18 27
REMARK Flexibility Score: inf
ROOT
ATOM      1  C   UNL     1      27.459   3.031  23.453  1.00  0.00     0.184 A 
ATOM      2  C   UNL     1      26.268   3.306  24.143  1.00  0.00     0.208 A 
ATOM      3  C   UNL     1      26.254   4.344  25.088  1.00  0.00     0.238 A 
ATOM      4  O   UNL     1      25.198   4.552  25.742  1.00  0.00    -0.285 OA
ATOM      5  C   UNL     1      27.428   5.102  25.319  1.00  0.00     0.111 A 
ATOM      6  C   UNL     1      27.517   6.203  26.224  1.00  0.00     0.134 A 
ATOM      7  C   UNL     1      28.761   6.796  26.468  1.00  0.00     0.093 A 
ATOM      8  C   UNL     1      29.906   6.375  25.793  1.00  0.00     0.123 A 
ATOM      9  C   UNL     1      29.819   5.340  24.862  1.00  0.00     0.094 A 
ATOM     10  C   UNL     1      28.600   4.703  24.623  1.00  0.00     0.146 A 
ATOM     11  O   UNL     1      28.561   3.714  23.738  1.00  0.00    -0.451 OA
ENDROOT
BRANCH   1  12
ATOM     12  C   UNL     1      27.538   1.964  22.434  1.00  0.00     0.063 A 
ATOM     13  C   UNL     1      27.351  -0.395  21.877  1.00  0.00     0.047 A 
ATOM     14  C   UNL     1      27.280   0.638  22.815  1.00  0.00     0.020 A 
ATOM     15  C   UNL     1      27.694  -0.119  20.552  1.00  0.00     0.119 A 
ATOM     16  C   UNL     1      27.976   1.197  20.166  1.00  0.00     0.093 A 
ATOM     17  C   UNL     1      27.913   2.240  21.102  1.00  0.00     0.130 A 
BRANCH  15  18
ATOM     18  O   UNL     1      27.756  -1.159  19.627  1.00  0.00    -0.508 OA
ATOM     19  H   UNL     1      26.927  -1.494  19.150  1.00  0.00     0.293 HD
ENDBRANCH  15  18
BRANCH  17  20
ATOM     20  O   UNL     1      28.244   3.539  20.718  1.00  0.00    -0.507 OA
ATOM     21  H   UNL     1      28.879   4.110  21.263  1.00  0.00     0.293 HD
ENDBRANCH  17  20
ENDBRANCH   1  12
BRANCH   2  22
ATOM     22  O   UNL     1      25.130   2.531  23.910  1.00  0.00    -0.502 OA
ATOM     23  H   UNL     1      24.227   2.940  23.701  1.00  0.00     0.293 HD
ENDBRANCH   2  22
BRANCH   6  24
ATOM     24  O   UNL     1      26.418   6.763  26.883  1.00  0.00    -0.507 OA
ATOM     25  H   UNL     1      26.058   7.689  26.714  1.00  0.00     0.293 HD
ENDBRANCH   6  24
BRANCH   8  26
ATOM     26  O   UNL     1      31.125   6.999  26.050  1.00  0.00    -0.508 OA
ATOM     27  H   UNL     1      31.963   6.465  26.243  1.00  0.00     0.293 HD
ENDBRANCH   8  26
TORSDOF 6
ENDMDL
MODEL 7
REMARK VINA RESULT:    -5.810      3.359      6.849
REMARK INTER + INTRA:          -7.425
REMARK INTER:                  -7.039
REMARK INTRA:                  -0.386
REMARK UNBOUND:                -0.426
REMARK SMILES O=c1c(O)c(-c2ccc(O)cc2O)oc2cc(O)cc(O)c12
REMARK SMILES IDX 5 1 3 2 2 3 1 4 22 5 20 6 19 7 17 8 16 9 15 10 14 11 6 12
REMARK SMILES IDX 8 13 7 14 9 15 11 16 12 17 10 18 13 20 4 22 21 24 18 26
REMARK H PARENT 10 19 13 21 4 23 21 25 18 27
REMARK Flexibility Score: inf
ROOT
ATOM      1  C   UNL     1      23.157   8.500  29.679  1.00  0.00     0.184 A 
ATOM      2  C   UNL     1      23.162   7.531  30.694  1.00  0.00     0.208 A 
ATOM      3  C   UNL     1      24.354   7.285  31.393  1.00  0.00     0.238 A 
ATOM      4  O   UNL     1      24.367   6.378  32.267  1.00  0.00    -0.285 OA
ATOM      5  C   UNL     1      25.521   8.023  31.078  1.00  0.00     0.111 A 
ATOM      6  C   UNL     1      26.773   7.886  31.749  1.00  0.00     0.134 A 
ATOM      7  C   UNL     1      27.893   8.574  31.267  1.00  0.00     0.093 A 
ATOM      8  C   UNL     1      27.793   9.444  30.182  1.00  0.00     0.123 A 
ATOM      9  C   UNL     1      26.561   9.631  29.556  1.00  0.00     0.094 A 
ATOM     10  C   UNL     1      25.433   8.932  29.990  1.00  0.00     0.146 A 
ATOM     11  O   UNL     1      24.281   9.129  29.359  1.00  0.00    -0.451 OA
ENDROOT
BRANCH   1  12
ATOM     12  C   UNL     1      21.933   8.819  28.915  1.00  0.00     0.063 A 
ATOM     13  C   UNL     1      19.669   9.705  28.895  1.00  0.00     0.047 A 
ATOM     14  C   UNL     1      20.843   9.396  29.586  1.00  0.00     0.020 A 
ATOM     15  C   UNL     1      19.563   9.431  27.530  1.00  0.00     0.119 A 
ATOM     16  C   UNL     1      20.636   8.834  26.856  1.00  0.00     0.093 A 
ATOM     17  C   UNL     1      21.816   8.515  27.542  1.00  0.00     0.130 A 
BRANCH  15  18
ATOM     18  O   UNL     1      18.388   9.749  26.853  1.00  0.00    -0.508 OA
ATOM     19  H   UNL     1      18.014   9.148  26.128  1.00  0.00     0.293 HD
ENDBRANCH  15  18
BRANCH  17  20
ATOM     20  O   UNL     1      22.859   7.876  26.871  1.00  0.00    -0.507 OA
ATOM     21  H   UNL     1      23.465   7.213  27.338  1.00  0.00     0.293 HD
ENDBRANCH  17  20
ENDBRANCH   1  12
BRANCH   2  22
ATOM     22  O   UNL     1      22.002   6.804  30.972  1.00  0.00    -0.502 OA
ATOM     23  H   UNL     1      21.688   6.038  30.388  1.00  0.00     0.293 HD
ENDBRANCH   2  22
BRANCH   6  24
ATOM     24  O   UNL     1      26.962   7.113  32.899  1.00  0.00    -0.507 OA
ATOM     25  H   UNL     1      26.945   6.106  32.923  1.00  0.00     0.293 HD
ENDBRANCH   6  24
BRANCH   8  26
ATOM     26  O   UNL     1      28.926  10.124  29.740  1.00  0.00    -0.508 OA
ATOM     27  H   UNL     1      29.806   9.646  29.591  1.00  0.00     0.293 HD
ENDBRANCH   8  26
TORSDOF 6
ENDMDL
MODEL 8
REMARK VINA RESULT:    -5.809      1.560      6.353
REMARK INTER + INTRA:          -7.423
REMARK INTER:                  -7.013
REMARK INTRA:                  -0.410
REMARK UNBOUND:                -0.426
REMARK SMILES O=c1c(O)c(-c2ccc(O)cc2O)oc2cc(O)cc(O)c12
REMARK SMILES IDX 5 1 3 2 2 3 1 4 22 5 20 6 19 7 17 8 16 9 15 10 14 11 6 12
REMARK SMILES IDX 8 13 7 14 9 15 11 16 12 17 10 18 13 20 4 22 21 24 18 26
REMARK H PARENT 10 19 13 21 4 23 21 25 18 27
REMARK Flexibility Score: inf
ROOT
ATOM      1  C   UNL     1      21.574   7.047  30.931  1.00  0.00     0.184 A 
ATOM      2  C   UNL     1      20.252   6.764  31.307  1.00  0.00     0.208 A 
ATOM      3  C   UNL     1      20.022   5.985  32.452  1.00  0.00     0.238 A 
ATOM      4  O   UNL     1      18.836   5.690  32.755  1.00  0.00    -0.285 OA
ATOM      5  C   UNL     1      21.119   5.512  33.213  1.00  0.00     0.111 A 
ATOM      6  C   UNL     1      21.003   4.748  34.414  1.00  0.00     0.134 A 
ATOM      7  C   UNL     1      22.155   4.224  35.012  1.00  0.00     0.093 A 
ATOM      8  C   UNL     1      23.421   4.490  34.493  1.00  0.00     0.123 A 
ATOM      9  C   UNL     1      23.550   5.284  33.354  1.00  0.00     0.094 A 
ATOM     10  C   UNL     1      22.418   5.792  32.714  1.00  0.00     0.146 A 
ATOM     11  O   UNL     1      22.583   6.535  31.625  1.00  0.00    -0.451 OA
ENDROOT
BRANCH   1  12
ATOM     12  C   UNL     1      21.885   7.874  29.747  1.00  0.00     0.063 A 
ATOM     13  C   UNL     1      22.490   7.992  27.395  1.00  0.00     0.047 A 
ATOM     14  C   UNL     1      22.186   7.239  28.532  1.00  0.00     0.020 A 
ATOM     15  C   UNL     1      22.510   9.387  27.460  1.00  0.00     0.119 A 
ATOM     16  C   UNL     1      22.234  10.030  28.673  1.00  0.00     0.093 A 
ATOM     17  C   UNL     1      21.934   9.283  29.821  1.00  0.00     0.130 A 
BRANCH  15  18
ATOM     18  O   UNL     1      22.810  10.125  26.317  1.00  0.00    -0.508 OA
ATOM     19  H   UNL     1      22.198  10.861  25.986  1.00  0.00     0.293 HD
ENDBRANCH  15  18
BRANCH  17  20
ATOM     20  O   UNL     1      21.709   9.933  31.034  1.00  0.00    -0.507 OA
ATOM     21  H   UNL     1      20.898  10.521  31.180  1.00  0.00     0.293 HD
ENDBRANCH  17  20
ENDBRANCH   1  12
BRANCH   2  22
ATOM     22  O   UNL     1      19.189   7.227  30.528  1.00  0.00    -0.502 OA
ATOM     23  H   UNL     1      18.615   6.607  29.968  1.00  0.00     0.293 HD
ENDBRANCH   2  22
BRANCH   6  24
ATOM     24  O   UNL     1      19.792   4.500  35.067  1.00  0.00    -0.507 OA
ATOM     25  H   UNL     1      19.703   4.271  36.045  1.00  0.00     0.293 HD
ENDBRANCH   6  24
BRANCH   8  26
ATOM     26  O   UNL     1      24.547   3.965  35.124  1.00  0.00    -0.508 OA
ATOM     27  H   UNL     1      24.920   3.057  34.873  1.00  0.00     0.293 HD
ENDBRANCH   8  26
TORSDOF 6
ENDMDL
