MODEL 1
REMARK VINA RESULT:    -4.673      0.000      0.000
REMARK INTER + INTRA:          -6.292
REMARK INTER:                  -6.586
REMARK INTRA:                   0.293
REMARK UNBOUND:                 0.293
REMARK SMILES CC1=CCC(=C(C)C)C(=O)CC(C)=CCC1
REMARK SMILES IDX 12 1 14 2 13 3 15 4 16 5 2 6 1 7 3 8 11 10 9 11 10 12 5 13
REMARK SMILES IDX 6 14 7 15 8 16 4 17
REMARK H PARENT
REMARK Flexibility Score: 60.00
ROOT
ATOM      1  C   UNL     1      14.233 -30.930  23.821  1.00  0.00    -0.070 C 
ATOM      2  C   UNL     1      13.782 -32.153  24.178  1.00  0.00    -0.027 C 
ATOM      3  C   UNL     1      13.253 -29.784  23.837  1.00  0.00     0.039 C 
ENDROOT
BRANCH   2   4
ATOM      4  C   UNL     1      14.627 -33.400  24.318  1.00  0.00     0.032 C 
BRANCH   4   5
ATOM      5  C   UNL     1      15.177 -33.963  22.991  1.00  0.00     0.034 C 
BRANCH   5   6
ATOM      6  C   UNL     1      16.677 -34.200  23.021  1.00  0.00    -0.077 C 
ATOM      7  C   UNL     1      17.219 -35.132  24.075  1.00  0.00     0.039 C 
ATOM      8  C   UNL     1      17.550 -33.684  22.122  1.00  0.00    -0.023 CG0
ATOM      9  G   UNL     1      17.239 -32.716  20.996  1.00  0.00     0.000 G0
ENDBRANCH   5   6
ENDBRANCH   4   5
ENDBRANCH   2   4
BRANCH   1  10
ATOM     10  C   UNL     1      15.685 -30.640  23.501  1.00  0.00     0.111 C 
BRANCH  10  11
ATOM     11  C   UNL     1      15.953 -30.712  22.021  1.00  0.00     0.163 C 
ATOM     12  O   UNL     1      15.081 -30.251  21.237  1.00  0.00    -0.294 OA
BRANCH  11  13
ATOM     13  C   UNL     1      17.229 -31.250  21.463  1.00  0.00    -0.002 C 
ATOM     14  C   UNL     1      18.367 -30.491  21.461  1.00  0.00    -0.069 C 
ATOM     15  C   UNL     1      19.708 -31.059  21.051  1.00  0.00     0.039 C 
ATOM     16  C   UNL     1      18.339 -29.036  21.875  1.00  0.00     0.039 C 
BRANCH  13  17
ATOM     17  C   UNL     1      17.228 -32.695  20.992  1.00  0.00     0.066 CG0
ATOM     18  G   UNL     1      17.534 -33.668  22.115  1.00  0.00     0.000 G0
ENDBRANCH  13  17
ENDBRANCH  11  13
ENDBRANCH  10  11
ENDBRANCH   1  10
TORSDOF 0
ENDMDL
MODEL 2
REMARK VINA RESULT:    -4.536      1.646      1.982
REMARK INTER + INTRA:          -6.099
REMARK INTER:                  -6.204
REMARK INTRA:                   0.105
REMARK UNBOUND:                 0.293
REMARK SMILES CC1=CCC(=C(C)C)C(=O)CC(C)=CCC1
REMARK SMILES IDX 12 1 14 2 13 3 15 4 16 5 2 6 1 7 3 8 11 10 9 11 10 12 5 13
REMARK SMILES IDX 6 14 7 15 8 16 4 17
REMARK H PARENT
REMARK Flexibility Score: 60.00
ROOT
ATOM      1  C   UNL     1      14.128 -30.755  22.211  1.00  0.00    -0.070 C 
ATOM      2  C   UNL     1      13.633 -31.970  21.885  1.00  0.00    -0.027 C 
ATOM      3  C   UNL     1      13.416 -29.966  23.280  1.00  0.00     0.039 C 
ENDROOT
BRANCH   2   4
ATOM      4  C   UNL     1      14.257 -32.947  20.914  1.00  0.00     0.032 C 
BRANCH   4   5
ATOM      5  C   UNL     1      15.254 -33.941  21.545  1.00  0.00     0.034 C 
BRANCH   5   6
ATOM      6  C   UNL     1      16.556 -34.053  20.771  1.00  0.00    -0.077 C 
ATOM      7  C   UNL     1      16.546 -34.858  19.496  1.00  0.00     0.039 C 
ATOM      8  C   UNL     1      17.705 -33.423  21.114  1.00  0.00    -0.023 CG0
ATOM      9  G   UNL     1      17.954 -32.583  22.351  1.00  0.00     0.000 G0
ENDBRANCH   5   6
ENDBRANCH   4   5
ENDBRANCH   2   4
BRANCH   1  10
ATOM     10  C   UNL     1      15.407 -30.194  21.625  1.00  0.00     0.111 C 
BRANCH  10  11
ATOM     11  C   UNL     1      16.580 -30.408  22.544  1.00  0.00     0.163 C 
ATOM     12  O   UNL     1      16.464 -30.051  23.747  1.00  0.00    -0.294 OA
BRANCH  11  13
ATOM     13  C   UNL     1      17.838 -31.076  22.096  1.00  0.00    -0.002 C 
ATOM     14  C   UNL     1      18.865 -30.348  21.561  1.00  0.00    -0.069 C 
ATOM     15  C   UNL     1      20.208 -30.970  21.246  1.00  0.00     0.039 C 
ATOM     16  C   UNL     1      18.707 -28.874  21.258  1.00  0.00     0.039 C 
BRANCH  13  17
ATOM     17  C   UNL     1      17.961 -32.570  22.350  1.00  0.00     0.066 CG0
ATOM     18  G   UNL     1      17.718 -33.389  21.096  1.00  0.00     0.000 G0
ENDBRANCH  13  17
ENDBRANCH  11  13
ENDBRANCH  10  11
ENDBRANCH   1  10
TORSDOF 0
ENDMDL
MODEL 3
REMARK VINA RESULT:    -4.532      2.426      4.364
REMARK INTER + INTRA:          -6.093
REMARK INTER:                  -6.221
REMARK INTRA:                   0.128
REMARK UNBOUND:                 0.293
REMARK SMILES CC1=CCC(=C(C)C)C(=O)CC(C)=CCC1
REMARK SMILES IDX 12 1 14 2 13 3 15 4 16 5 2 6 1 7 3 8 11 10 9 11 10 12 5 13
REMARK SMILES IDX 6 14 7 15 8 16 4 17
REMARK H PARENT
REMARK Flexibility Score: 60.00
ROOT
ATOM      1  C   UNL     1      15.121 -33.952  21.064  1.00  0.00    -0.070 C 
ATOM      2  C   UNL     1      14.255 -33.060  20.534  1.00  0.00    -0.027 C 
ATOM      3  C   UNL     1      15.701 -35.002  20.150  1.00  0.00     0.039 C 
ENDROOT
BRANCH   2   4
ATOM      4  C   UNL     1      13.646 -31.881  21.261  1.00  0.00     0.032 C 
BRANCH   4   5
ATOM      5  C   UNL     1      14.539 -30.625  21.321  1.00  0.00     0.034 C 
BRANCH   5   6
ATOM      6  C   UNL     1      14.698 -30.074  22.728  1.00  0.00    -0.077 C 
ATOM      7  C   UNL     1      13.499 -29.417  23.363  1.00  0.00     0.039 C 
ATOM      8  C   UNL     1      15.823 -30.194  23.473  1.00  0.00    -0.023 CG0
ATOM      9  G   UNL     1      17.147 -30.795  23.040  1.00  0.00     0.000 G0
ENDBRANCH   5   6
ENDBRANCH   4   5
ENDBRANCH   2   4
BRANCH   1  10
ATOM     10  C   UNL     1      15.604 -33.891  22.499  1.00  0.00     0.111 C 
BRANCH  10  11
ATOM     11  C   UNL     1      16.993 -33.318  22.593  1.00  0.00     0.163 C 
ATOM     12  O   UNL     1      17.869 -33.750  21.797  1.00  0.00    -0.294 OA
BRANCH  11  13
ATOM     13  C   UNL     1      17.345 -32.223  23.547  1.00  0.00    -0.002 C 
ATOM     14  C   UNL     1      17.884 -32.509  24.771  1.00  0.00    -0.069 C 
ATOM     15  C   UNL     1      18.398 -31.424  25.692  1.00  0.00     0.039 C 
ATOM     16  C   UNL     1      17.997 -33.934  25.265  1.00  0.00     0.039 C 
BRANCH  13  17
ATOM     17  C   UNL     1      17.169 -30.794  23.061  1.00  0.00     0.066 CG0
ATOM     18  G   UNL     1      15.826 -30.212  23.458  1.00  0.00     0.000 G0
ENDBRANCH  13  17
ENDBRANCH  11  13
ENDBRANCH  10  11
ENDBRANCH   1  10
TORSDOF 0
ENDMDL
MODEL 4
REMARK VINA RESULT:    -4.521      2.332      4.127
REMARK INTER + INTRA:          -6.078
REMARK INTER:                  -6.687
REMARK INTRA:                   0.609
REMARK UNBOUND:                 0.293
REMARK SMILES CC1=CCC(=C(C)C)C(=O)CC(C)=CCC1
REMARK SMILES IDX 12 1 14 2 13 3 15 4 16 5 2 6 1 7 3 8 11 10 9 11 10 12 5 13
REMARK SMILES IDX 6 14 7 15 8 16 4 17
REMARK H PARENT
REMARK Flexibility Score: 60.00
ROOT
ATOM      1  C   UNL     1      17.541 -31.525  21.977  1.00  0.00    -0.070 C 
ATOM      2  C   UNL     1      18.145 -31.989  20.860  1.00  0.00    -0.027 C 
ATOM      3  C   UNL     1      17.141 -30.071  22.011  1.00  0.00     0.039 C 
ENDROOT
BRANCH   2   4
ATOM      4  C   UNL     1      18.530 -33.428  20.598  1.00  0.00     0.032 C 
BRANCH   4   5
ATOM      5  C   UNL     1      17.745 -34.112  19.460  1.00  0.00     0.034 C 
BRANCH   5   6
ATOM      6  C   UNL     1      16.716 -35.111  19.961  1.00  0.00    -0.077 C 
ATOM      7  C   UNL     1      17.104 -36.568  19.980  1.00  0.00     0.039 C 
ATOM      8  C   UNL     1      15.500 -34.772  20.455  1.00  0.00    -0.023 CG0
ATOM      9  G   UNL     1      14.892 -33.384  20.518  1.00  0.00     0.000 G0
ENDBRANCH   5   6
ENDBRANCH   4   5
ENDBRANCH   2   4
BRANCH   1  10
ATOM     10  C   UNL     1      17.165 -32.409  23.148  1.00  0.00     0.111 C 
BRANCH  10  11
ATOM     11  C   UNL     1      15.950 -33.245  22.846  1.00  0.00     0.163 C 
ATOM     12  O   UNL     1      15.823 -34.347  23.445  1.00  0.00    -0.294 OA
BRANCH  11  13
ATOM     13  C   UNL     1      14.874 -32.789  21.916  1.00  0.00    -0.002 C 
ATOM     14  C   UNL     1      13.986 -31.820  22.296  1.00  0.00    -0.069 C 
ATOM     15  C   UNL     1      12.989 -31.224  21.327  1.00  0.00     0.039 C 
ATOM     16  C   UNL     1      13.961 -31.291  23.713  1.00  0.00     0.039 C 
BRANCH  13  17
ATOM     17  C   UNL     1      14.872 -33.374  20.514  1.00  0.00     0.066 CG0
ATOM     18  G   UNL     1      15.499 -34.754  20.464  1.00  0.00     0.000 G0
ENDBRANCH  13  17
ENDBRANCH  11  13
ENDBRANCH  10  11
ENDBRANCH   1  10
TORSDOF 0
ENDMDL
MODEL 5
REMARK VINA RESULT:    -4.422      1.788      4.189
REMARK INTER + INTRA:          -5.939
REMARK INTER:                  -6.173
REMARK INTRA:                   0.234
REMARK UNBOUND:                 0.293
REMARK SMILES CC1=CCC(=C(C)C)C(=O)CC(C)=CCC1
REMARK SMILES IDX 12 1 14 2 13 3 15 4 16 5 2 6 1 7 3 8 11 10 9 11 10 12 5 13
REMARK SMILES IDX 6 14 7 15 8 16 4 17
REMARK H PARENT
REMARK Flexibility Score: 60.00
ROOT
ATOM      1  C   UNL     1      18.944 -31.383  21.254  1.00  0.00    -0.070 C 
ATOM      2  C   UNL     1      19.282 -32.640  20.894  1.00  0.00    -0.027 C 
ATOM      3  C   UNL     1      20.057 -30.411  21.556  1.00  0.00     0.039 C 
ENDROOT
BRANCH   2   4
ATOM      4  C   UNL     1      18.319 -33.724  20.461  1.00  0.00     0.032 C 
BRANCH   4   5
ATOM      5  C   UNL     1      17.453 -34.312  21.595  1.00  0.00     0.034 C 
BRANCH   5   6
ATOM      6  C   UNL     1      15.962 -34.216  21.317  1.00  0.00    -0.077 C 
ATOM      7  C   UNL     1      15.421 -34.971  20.129  1.00  0.00     0.039 C 
ATOM      8  C   UNL     1      15.079 -33.554  22.103  1.00  0.00    -0.023 CG0
ATOM      9  G   UNL     1      15.394 -32.716  23.327  1.00  0.00     0.000 G0
ENDBRANCH   5   6
ENDBRANCH   4   5
ENDBRANCH   2   4
BRANCH   1  10
ATOM     10  C   UNL     1      17.515 -30.880  21.278  1.00  0.00     0.111 C 
BRANCH  10  11
ATOM     11  C   UNL     1      16.972 -30.813  22.681  1.00  0.00     0.163 C 
ATOM     12  O   UNL     1      17.710 -30.330  23.581  1.00  0.00    -0.294 OA
BRANCH  11  13
ATOM     13  C   UNL     1      15.583 -31.240  23.024  1.00  0.00    -0.002 C 
ATOM     14  C   UNL     1      14.542 -30.355  22.958  1.00  0.00    -0.069 C 
ATOM     15  C   UNL     1      13.106 -30.792  23.144  1.00  0.00     0.039 C 
ATOM     16  C   UNL     1      14.780 -28.885  22.691  1.00  0.00     0.039 C 
BRANCH  13  17
ATOM     17  C   UNL     1      15.367 -32.708  23.352  1.00  0.00     0.066 CG0
ATOM     18  G   UNL     1      15.098 -33.542  22.114  1.00  0.00     0.000 G0
ENDBRANCH  13  17
ENDBRANCH  11  13
ENDBRANCH  10  11
ENDBRANCH   1  10
TORSDOF 0
ENDMDL
MODEL 6
REMARK VINA RESULT:    -4.329      1.929      3.750
REMARK INTER + INTRA:          -5.808
REMARK INTER:                  -5.914
REMARK INTRA:                   0.106
REMARK UNBOUND:                 0.293
REMARK SMILES CC1=CCC(=C(C)C)C(=O)CC(C)=CCC1
REMARK SMILES IDX 12 1 14 2 13 3 15 4 16 5 2 6 1 7 3 8 11 10 9 11 10 12 5 13
REMARK SMILES IDX 6 14 7 15 8 16 4 17
REMARK H PARENT
REMARK Flexibility Score: 60.00
ROOT
ATOM      1  C   UNL     1      16.045 -33.394  23.971  1.00  0.00    -0.070 C 
ATOM      2  C   UNL     1      14.697 -33.344  24.060  1.00  0.00    -0.027 C 
ATOM      3  C   UNL     1      16.686 -34.734  23.714  1.00  0.00     0.039 C 
ENDROOT
BRANCH   2   4
ATOM      4  C   UNL     1      13.868 -32.089  24.216  1.00  0.00     0.032 C 
BRANCH   4   5
ATOM      5  C   UNL     1      13.573 -31.339  22.901  1.00  0.00     0.034 C 
BRANCH   5   6
ATOM      6  C   UNL     1      13.874 -29.852  22.981  1.00  0.00    -0.077 C 
ATOM      7  C   UNL     1      12.970 -28.999  23.835  1.00  0.00     0.039 C 
ATOM      8  C   UNL     1      14.939 -29.256  22.392  1.00  0.00    -0.023 CG0
ATOM      9  G   UNL     1      15.963 -29.905  21.481  1.00  0.00     0.000 G0
ENDBRANCH   5   6
ENDBRANCH   4   5
ENDBRANCH   2   4
BRANCH   1  10
ATOM     10  C   UNL     1      16.928 -32.164  24.021  1.00  0.00     0.111 C 
BRANCH  10  11
ATOM     11  C   UNL     1      17.349 -31.725  22.645  1.00  0.00     0.163 C 
ATOM     12  O   UNL     1      17.753 -32.606  21.838  1.00  0.00    -0.294 OA
BRANCH  11  13
ATOM     13  C   UNL     1      17.249 -30.306  22.189  1.00  0.00    -0.002 C 
ATOM     14  C   UNL     1      18.305 -29.449  22.336  1.00  0.00    -0.069 C 
ATOM     15  C   UNL     1      18.292 -28.057  21.744  1.00  0.00     0.039 C 
ATOM     16  C   UNL     1      19.546 -29.855  23.100  1.00  0.00     0.039 C 
BRANCH  13  17
ATOM     17  C   UNL     1      15.972 -29.893  21.478  1.00  0.00     0.066 CG0
ATOM     18  G   UNL     1      14.964 -29.264  22.421  1.00  0.00     0.000 G0
ENDBRANCH  13  17
ENDBRANCH  11  13
ENDBRANCH  10  11
ENDBRANCH   1  10
TORSDOF 0
ENDMDL
MODEL 7
REMARK VINA RESULT:    -4.308      2.428      4.399
REMARK INTER + INTRA:          -5.778
REMARK INTER:                  -6.003
REMARK INTRA:                   0.225
REMARK UNBOUND:                 0.293
REMARK SMILES CC1=CCC(=C(C)C)C(=O)CC(C)=CCC1
REMARK SMILES IDX 12 1 14 2 13 3 15 4 16 5 2 6 1 7 3 8 11 10 9 11 10 12 5 13
REMARK SMILES IDX 6 14 7 15 8 16 4 17
REMARK H PARENT
REMARK Flexibility Score: 60.00
ROOT
ATOM      1  C   UNL     1      17.199 -35.127  19.838  1.00  0.00    -0.070 C 
ATOM      2  C   UNL     1      15.850 -35.097  19.893  1.00  0.00    -0.027 C 
ATOM      3  C   UNL     1      17.866 -36.457  19.591  1.00  0.00     0.039 C 
ENDROOT
BRANCH   2   4
ATOM      4  C   UNL     1      14.999 -33.853  20.034  1.00  0.00     0.032 C 
BRANCH   4   5
ATOM      5  C   UNL     1      14.713 -33.425  21.488  1.00  0.00     0.034 C 
BRANCH   5   6
ATOM      6  C   UNL     1      14.996 -31.954  21.743  1.00  0.00    -0.077 C 
ATOM      7  C   UNL     1      13.978 -30.951  21.263  1.00  0.00     0.039 C 
ATOM      8  C   UNL     1      16.068 -31.490  22.431  1.00  0.00    -0.023 CG0
ATOM      9  G   UNL     1      17.220 -32.305  22.987  1.00  0.00     0.000 G0
ENDBRANCH   5   6
ENDBRANCH   4   5
ENDBRANCH   2   4
BRANCH   1  10
ATOM     10  C   UNL     1      18.064 -33.885  19.919  1.00  0.00     0.111 C 
BRANCH  10  11
ATOM     11  C   UNL     1      18.606 -33.675  21.307  1.00  0.00     0.163 C 
ATOM     12  O   UNL     1      19.285 -34.601  21.826  1.00  0.00    -0.294 OA
BRANCH  11  13
ATOM     13  C   UNL     1      18.419 -32.395  22.055  1.00  0.00    -0.002 C 
ATOM     14  C   UNL     1      19.240 -31.326  21.828  1.00  0.00    -0.069 C 
ATOM     15  C   UNL     1      18.981 -29.971  22.449  1.00  0.00     0.039 C 
ATOM     16  C   UNL     1      20.456 -31.446  20.935  1.00  0.00     0.039 C 
BRANCH  13  17
ATOM     17  C   UNL     1      17.229 -32.308  22.996  1.00  0.00     0.066 CG0
ATOM     18  G   UNL     1      16.088 -31.499  22.411  1.00  0.00     0.000 G0
ENDBRANCH  13  17
ENDBRANCH  11  13
ENDBRANCH  10  11
ENDBRANCH   1  10
TORSDOF 0
ENDMDL
MODEL 8
REMARK VINA RESULT:    -4.274      2.053      4.387
REMARK INTER + INTRA:          -5.729
REMARK INTER:                  -5.941
REMARK INTRA:                   0.212
REMARK UNBOUND:                 0.293
REMARK SMILES CC1=CCC(=C(C)C)C(=O)CC(C)=CCC1
REMARK SMILES IDX 12 1 14 2 13 3 15 4 16 5 2 6 1 7 3 8 11 10 9 11 10 12 5 13
REMARK SMILES IDX 6 14 7 15 8 16 4 17
REMARK H PARENT
REMARK Flexibility Score: 60.00
ROOT
ATOM      1  C   UNL     1      18.570 -30.397  21.761  1.00  0.00    -0.070 C 
ATOM      2  C   UNL     1      17.796 -29.684  22.609  1.00  0.00    -0.027 C 
ATOM      3  C   UNL     1      20.065 -30.233  21.864  1.00  0.00     0.039 C 
ENDROOT
BRANCH   2   4
ATOM      4  C   UNL     1      16.291 -29.782  22.727  1.00  0.00     0.032 C 
BRANCH   4   5
ATOM      5  C   UNL     1      15.776 -31.081  23.380  1.00  0.00     0.034 C 
BRANCH   5   6
ATOM      6  C   UNL     1      14.697 -31.772  22.564  1.00  0.00    -0.077 C 
ATOM      7  C   UNL     1      13.435 -30.998  22.272  1.00  0.00     0.039 C 
ATOM      8  C   UNL     1      14.820 -33.009  22.025  1.00  0.00    -0.023 CG0
ATOM      9  G   UNL     1      15.980 -33.970  22.198  1.00  0.00     0.000 G0
ENDBRANCH   5   6
ENDBRANCH   4   5
ENDBRANCH   2   4
BRANCH   1  10
ATOM     10  C   UNL     1      18.015 -31.414  20.785  1.00  0.00     0.111 C 
BRANCH  10  11
ATOM     11  C   UNL     1      18.112 -32.815  21.328  1.00  0.00     0.163 C 
ATOM     12  O   UNL     1      19.112 -33.109  22.037  1.00  0.00    -0.294 OA
BRANCH  11  13
ATOM     13  C   UNL     1      17.046 -33.836  21.106  1.00  0.00    -0.002 C 
ATOM     14  C   UNL     1      17.078 -34.656  20.011  1.00  0.00    -0.069 C 
ATOM     15  C   UNL     1      16.106 -35.802  19.840  1.00  0.00     0.039 C 
ATOM     16  C   UNL     1      18.099 -34.456  18.912  1.00  0.00     0.039 C 
BRANCH  13  17
ATOM     17  C   UNL     1      15.990 -33.985  22.188  1.00  0.00     0.066 CG0
ATOM     18  G   UNL     1      14.840 -33.012  22.011  1.00  0.00     0.000 G0
ENDBRANCH  13  17
ENDBRANCH  11  13
ENDBRANCH  10  11
ENDBRANCH   1  10
TORSDOF 0
ENDMDL
MODEL 9
REMARK VINA RESULT:    -4.125      2.102      2.904
REMARK INTER + INTRA:          -5.520
REMARK INTER:                  -6.016
REMARK INTRA:                   0.495
REMARK UNBOUND:                 0.293
REMARK SMILES CC1=CCC(=C(C)C)C(=O)CC(C)=CCC1
REMARK SMILES IDX 12 1 14 2 13 3 15 4 16 5 2 6 1 7 3 8 11 10 9 11 10 12 5 13
REMARK SMILES IDX 6 14 7 15 8 16 4 17
REMARK H PARENT
REMARK Flexibility Score: 60.00
ROOT
ATOM      1  C   UNL     1      14.565 -32.937  21.346  1.00  0.00    -0.070 C 
ATOM      2  C   UNL     1      14.681 -33.687  20.228  1.00  0.00    -0.027 C 
ATOM      3  C   UNL     1      13.757 -31.667  21.264  1.00  0.00     0.039 C 
ENDROOT
BRANCH   2   4
ATOM      4  C   UNL     1      15.364 -35.034  20.134  1.00  0.00     0.032 C 
BRANCH   4   5
ATOM      5  C   UNL     1      16.778 -35.002  19.518  1.00  0.00     0.034 C 
BRANCH   5   6
ATOM      6  C   UNL     1      17.882 -34.972  20.560  1.00  0.00    -0.077 C 
ATOM      7  C   UNL     1      18.485 -36.288  20.981  1.00  0.00     0.039 C 
ATOM      8  C   UNL     1      18.406 -33.838  21.086  1.00  0.00    -0.023 CG0
ATOM      9  G   UNL     1      17.951 -32.415  20.828  1.00  0.00     0.000 G0
ENDBRANCH   5   6
ENDBRANCH   4   5
ENDBRANCH   2   4
BRANCH   1  10
ATOM     10  C   UNL     1      15.125 -33.356  22.690  1.00  0.00     0.111 C 
BRANCH  10  11
ATOM     11  C   UNL     1      16.505 -32.799  22.916  1.00  0.00     0.163 C 
ATOM     12  O   UNL     1      17.156 -33.212  23.913  1.00  0.00    -0.294 OA
BRANCH  11  13
ATOM     13  C   UNL     1      17.142 -31.830  21.975  1.00  0.00    -0.002 C 
ATOM     14  C   UNL     1      17.063 -30.483  22.198  1.00  0.00    -0.069 C 
ATOM     15  C   UNL     1      17.828 -29.486  21.356  1.00  0.00     0.039 C 
ATOM     16  C   UNL     1      16.202 -29.921  23.308  1.00  0.00     0.039 C 
BRANCH  13  17
ATOM     17  C   UNL     1      17.953 -32.407  20.827  1.00  0.00     0.066 CG0
ATOM     18  G   UNL     1      18.401 -33.831  21.096  1.00  0.00     0.000 G0
ENDBRANCH  13  17
ENDBRANCH  11  13
ENDBRANCH  10  11
ENDBRANCH   1  10
TORSDOF 0
ENDMDL
