MODEL 1
REMARK VINA RESULT:    -3.847      0.000      0.000
REMARK INTER + INTRA:          -5.020
REMARK INTER:                  -4.971
REMARK INTRA:                  -0.049
REMARK UNBOUND:                -0.049
REMARK SMILES CCCCCCC=O
REMARK SMILES IDX 4 1 3 2 2 3 1 4 5 5 6 6 7 7 8 8
REMARK H PARENT
REMARK Flexibility Score: inf
ROOT
ATOM      1  C   UNL     1      25.431  58.075  -9.028  1.00  0.00     0.000 C 
ENDROOT
BRANCH   1   2
ATOM      2  C   UNL     1      26.636  58.525  -9.879  1.00  0.00    -0.000 C 
BRANCH   2   3
ATOM      3  C   UNL     1      27.001  60.014  -9.753  1.00  0.00    -0.003 C 
ATOM      4  C   UNL     1      28.247  60.392 -10.553  1.00  0.00     0.004 C 
ENDBRANCH   2   3
ENDBRANCH   1   2
BRANCH   1   5
ATOM      5  C   UNL     1      25.563  56.677  -8.397  1.00  0.00     0.008 C 
BRANCH   5   6
ATOM      6  C   UNL     1      24.342  55.787  -8.660  1.00  0.00     0.072 C 
BRANCH   6   7
ATOM      7  C   UNL     1      23.687  55.406  -7.366  1.00  0.00     0.224 C 
ATOM      8  O   UNL     1      22.533  55.010  -7.350  1.00  0.00    -0.303 OA
ENDBRANCH   6   7
ENDBRANCH   5   6
ENDBRANCH   1   5
TORSDOF 5
ENDMDL
MODEL 2
REMARK VINA RESULT:    -3.712      3.012      5.579
REMARK INTER + INTRA:          -4.846
REMARK INTER:                  -4.787
REMARK INTRA:                  -0.059
REMARK UNBOUND:                -0.049
REMARK SMILES CCCCCCC=O
REMARK SMILES IDX 4 1 3 2 2 3 1 4 5 5 6 6 7 7 8 8
REMARK H PARENT
REMARK Flexibility Score: inf
ROOT
ATOM      1  C   UNL     1      25.430  58.017  -8.904  1.00  0.00     0.000 C 
ENDROOT
BRANCH   1   2
ATOM      2  C   UNL     1      25.440  56.550  -8.426  1.00  0.00    -0.000 C 
BRANCH   2   3
ATOM      3  C   UNL     1      24.156  55.759  -8.728  1.00  0.00    -0.003 C 
ATOM      4  C   UNL     1      23.384  55.371  -7.467  1.00  0.00     0.004 C 
ENDBRANCH   2   3
ENDBRANCH   1   2
BRANCH   1   5
ATOM      5  C   UNL     1      26.620  58.423  -9.791  1.00  0.00     0.008 C 
BRANCH   5   6
ATOM      6  C   UNL     1      26.926  59.924  -9.727  1.00  0.00     0.072 C 
BRANCH   6   7
ATOM      7  C   UNL     1      28.303  60.198 -10.255  1.00  0.00     0.224 C 
ATOM      8  O   UNL     1      28.876  59.372 -10.947  1.00  0.00    -0.303 OA
ENDBRANCH   6   7
ENDBRANCH   5   6
ENDBRANCH   1   5
TORSDOF 5
ENDMDL
MODEL 3
REMARK VINA RESULT:    -3.570     17.239     18.431
REMARK INTER + INTRA:          -4.663
REMARK INTER:                  -4.450
REMARK INTRA:                  -0.212
REMARK UNBOUND:                -0.049
REMARK SMILES CCCCCCC=O
REMARK SMILES IDX 4 1 3 2 2 3 1 4 5 5 6 6 7 7 8 8
REMARK H PARENT
REMARK Flexibility Score: inf
ROOT
ATOM      1  C   UNL     1      17.700  43.663   1.472  1.00  0.00     0.000 C 
ENDROOT
BRANCH   1   2
ATOM      2  C   UNL     1      16.444  44.500   1.790  1.00  0.00    -0.000 C 
BRANCH   2   3
ATOM      3  C   UNL     1      15.870  45.289   0.599  1.00  0.00    -0.003 C 
ATOM      4  C   UNL     1      16.924  45.625  -0.456  1.00  0.00     0.004 C 
ENDBRANCH   2   3
ENDBRANCH   1   2
BRANCH   1   5
ATOM      5  C   UNL     1      18.964  44.061   2.255  1.00  0.00     0.008 C 
BRANCH   5   6
ATOM      6  C   UNL     1      20.170  44.323   1.344  1.00  0.00     0.072 C 
BRANCH   6   7
ATOM      7  C   UNL     1      21.001  43.082   1.209  1.00  0.00     0.224 C 
ATOM      8  O   UNL     1      21.328  42.673   0.107  1.00  0.00    -0.303 OA
ENDBRANCH   6   7
ENDBRANCH   5   6
ENDBRANCH   1   5
TORSDOF 5
ENDMDL
MODEL 4
REMARK VINA RESULT:    -3.553      3.303      5.738
REMARK INTER + INTRA:          -4.641
REMARK INTER:                  -4.582
REMARK INTRA:                  -0.058
REMARK UNBOUND:                -0.049
REMARK SMILES CCCCCCC=O
REMARK SMILES IDX 4 1 3 2 2 3 1 4 5 5 6 6 7 7 8 8
REMARK H PARENT
REMARK Flexibility Score: inf
ROOT
ATOM      1  C   UNL     1      26.002  58.589  -9.319  1.00  0.00     0.000 C 
ENDROOT
BRANCH   1   2
ATOM      2  C   UNL     1      25.788  57.143  -8.827  1.00  0.00    -0.000 C 
BRANCH   2   3
ATOM      3  C   UNL     1      24.328  56.771  -8.515  1.00  0.00    -0.003 C 
ATOM      4  C   UNL     1      24.157  55.303  -8.126  1.00  0.00     0.004 C 
ENDBRANCH   2   3
ENDBRANCH   1   2
BRANCH   1   5
ATOM      5  C   UNL     1      27.097  58.761 -10.386  1.00  0.00     0.008 C 
BRANCH   5   6
ATOM      6  C   UNL     1      27.759  60.144 -10.343  1.00  0.00     0.072 C 
BRANCH   6   7
ATOM      7  C   UNL     1      29.127  60.086 -10.954  1.00  0.00     0.224 C 
ATOM      8  O   UNL     1      29.502  59.083 -11.540  1.00  0.00    -0.303 OA
ENDBRANCH   6   7
ENDBRANCH   5   6
ENDBRANCH   1   5
TORSDOF 5
ENDMDL
MODEL 5
REMARK VINA RESULT:    -3.412     17.531     18.055
REMARK INTER + INTRA:          -4.459
REMARK INTER:                  -4.214
REMARK INTRA:                  -0.245
REMARK UNBOUND:                -0.049
REMARK SMILES CCCCCCC=O
REMARK SMILES IDX 4 1 3 2 2 3 1 4 5 5 6 6 7 7 8 8
REMARK H PARENT
REMARK Flexibility Score: inf
ROOT
ATOM      1  C   UNL     1      18.875  44.139   2.204  1.00  0.00     0.000 C 
ENDROOT
BRANCH   1   2
ATOM      2  C   UNL     1      20.146  44.319   1.350  1.00  0.00    -0.000 C 
BRANCH   2   3
ATOM      3  C   UNL     1      21.117  43.126   1.371  1.00  0.00    -0.003 C 
ATOM      4  C   UNL     1      21.285  42.471  -0.000  1.00  0.00     0.004 C 
ENDBRANCH   2   3
ENDBRANCH   1   2
BRANCH   1   5
ATOM      5  C   UNL     1      17.647  43.607   1.444  1.00  0.00     0.008 C 
BRANCH   5   6
ATOM      6  C   UNL     1      17.537  44.171   0.022  1.00  0.00     0.072 C 
BRANCH   6   7
ATOM      7  C   UNL     1      16.586  45.331  -0.007  1.00  0.00     0.224 C 
ATOM      8  O   UNL     1      16.512  46.046  -0.993  1.00  0.00    -0.303 OA
ENDBRANCH   6   7
ENDBRANCH   5   6
ENDBRANCH   1   5
TORSDOF 5
ENDMDL
MODEL 6
REMARK VINA RESULT:    -3.371     16.428     18.032
REMARK INTER + INTRA:          -4.405
REMARK INTER:                  -4.147
REMARK INTRA:                  -0.258
REMARK UNBOUND:                -0.049
REMARK SMILES CCCCCCC=O
REMARK SMILES IDX 4 1 3 2 2 3 1 4 5 5 6 6 7 7 8 8
REMARK H PARENT
REMARK Flexibility Score: inf
ROOT
ATOM      1  C   UNL     1      17.374  43.878   1.282  1.00  0.00     0.000 C 
ENDROOT
BRANCH   1   2
ATOM      2  C   UNL     1      18.713  44.031   2.033  1.00  0.00    -0.000 C 
BRANCH   2   3
ATOM      3  C   UNL     1      19.903  44.460   1.158  1.00  0.00    -0.003 C 
ATOM      4  C   UNL     1      19.484  45.301  -0.048  1.00  0.00     0.004 C 
ENDBRANCH   2   3
ENDBRANCH   1   2
BRANCH   1   5
ATOM      5  C   UNL     1      16.207  44.702   1.854  1.00  0.00     0.008 C 
BRANCH   5   6
ATOM      6  C   UNL     1      15.276  45.253   0.766  1.00  0.00     0.072 C 
BRANCH   6   7
ATOM      7  C   UNL     1      15.926  45.140  -0.581  1.00  0.00     0.224 C 
ATOM      8  O   UNL     1      16.031  46.118  -1.302  1.00  0.00    -0.303 OA
ENDBRANCH   6   7
ENDBRANCH   5   6
ENDBRANCH   1   5
TORSDOF 5
ENDMDL
MODEL 7
REMARK VINA RESULT:    -3.295     16.461     17.420
REMARK INTER + INTRA:          -4.307
REMARK INTER:                  -4.140
REMARK INTRA:                  -0.167
REMARK UNBOUND:                -0.049
REMARK SMILES CCCCCCC=O
REMARK SMILES IDX 4 1 3 2 2 3 1 4 5 5 6 6 7 7 8 8
REMARK H PARENT
REMARK Flexibility Score: inf
ROOT
ATOM      1  C   UNL     1      18.072  45.673  -0.377  1.00  0.00     0.000 C 
ENDROOT
BRANCH   1   2
ATOM      2  C   UNL     1      19.535  45.267  -0.103  1.00  0.00    -0.000 C 
BRANCH   2   3
ATOM      3  C   UNL     1      19.776  44.580   1.252  1.00  0.00    -0.003 C 
ATOM      4  C   UNL     1      20.708  43.372   1.149  1.00  0.00     0.004 C 
ENDBRANCH   2   3
ENDBRANCH   1   2
BRANCH   1   5
ATOM      5  C   UNL     1      17.012  44.790   0.306  1.00  0.00     0.008 C 
BRANCH   5   6
ATOM      6  C   UNL     1      15.639  45.469   0.393  1.00  0.00     0.072 C 
BRANCH   6   7
ATOM      7  C   UNL     1      15.229  45.990  -0.952  1.00  0.00     0.224 C 
ATOM      8  O   UNL     1      14.388  46.869  -1.045  1.00  0.00    -0.303 OA
ENDBRANCH   6   7
ENDBRANCH   5   6
ENDBRANCH   1   5
TORSDOF 5
ENDMDL
MODEL 8
REMARK VINA RESULT:    -3.272      5.507      7.324
REMARK INTER + INTRA:          -4.277
REMARK INTER:                  -4.072
REMARK INTRA:                  -0.205
REMARK UNBOUND:                -0.049
REMARK SMILES CCCCCCC=O
REMARK SMILES IDX 4 1 3 2 2 3 1 4 5 5 6 6 7 7 8 8
REMARK H PARENT
REMARK Flexibility Score: inf
ROOT
ATOM      1  C   UNL     1      30.243  57.609 -13.277  1.00  0.00     0.000 C 
ENDROOT
BRANCH   1   2
ATOM      2  C   UNL     1      31.469  56.828 -13.793  1.00  0.00    -0.000 C 
BRANCH   2   3
ATOM      3  C   UNL     1      32.731  57.677 -14.021  1.00  0.00    -0.003 C 
ATOM      4  C   UNL     1      34.006  56.994 -13.527  1.00  0.00     0.004 C 
ENDBRANCH   2   3
ENDBRANCH   1   2
BRANCH   1   5
ATOM      5  C   UNL     1      30.512  59.080 -12.911  1.00  0.00     0.008 C 
BRANCH   5   6
ATOM      6  C   UNL     1      30.596  59.311 -11.397  1.00  0.00     0.072 C 
BRANCH   6   7
ATOM      7  C   UNL     1      29.303  59.870 -10.883  1.00  0.00     0.224 C 
ATOM      8  O   UNL     1      28.314  59.161 -10.794  1.00  0.00    -0.303 OA
ENDBRANCH   6   7
ENDBRANCH   5   6
ENDBRANCH   1   5
TORSDOF 5
ENDMDL
MODEL 9
REMARK VINA RESULT:    -3.268     16.904     18.172
REMARK INTER + INTRA:          -4.271
REMARK INTER:                  -3.899
REMARK INTRA:                  -0.373
REMARK UNBOUND:                -0.049
REMARK SMILES CCCCCCC=O
REMARK SMILES IDX 4 1 3 2 2 3 1 4 5 5 6 6 7 7 8 8
REMARK H PARENT
REMARK Flexibility Score: inf
ROOT
ATOM      1  C   UNL     1      17.981  45.745  -0.468  1.00  0.00     0.000 C 
ENDROOT
BRANCH   1   2
ATOM      2  C   UNL     1      19.256  45.011  -0.002  1.00  0.00    -0.000 C 
BRANCH   2   3
ATOM      3  C   UNL     1      19.010  43.801   0.915  1.00  0.00    -0.003 C 
ATOM      4  C   UNL     1      19.193  44.130   2.397  1.00  0.00     0.004 C 
ENDBRANCH   2   3
ENDBRANCH   1   2
BRANCH   1   5
ATOM      5  C   UNL     1      16.685  44.918  -0.387  1.00  0.00     0.008 C 
BRANCH   5   6
ATOM      6  C   UNL     1      15.616  45.572   0.498  1.00  0.00     0.072 C 
BRANCH   6   7
ATOM      7  C   UNL     1      15.522  44.859   1.814  1.00  0.00     0.224 C 
ATOM      8  O   UNL     1      15.469  43.641   1.856  1.00  0.00    -0.303 OA
ENDBRANCH   6   7
ENDBRANCH   5   6
ENDBRANCH   1   5
TORSDOF 5
ENDMDL
