MODEL 1
REMARK VINA RESULT:    -4.144      0.000      0.000
REMARK INTER + INTRA:          -4.597
REMARK INTER:                  -4.749
REMARK INTRA:                   0.152
REMARK UNBOUND:                 0.152
REMARK SMILES COc1cc(C(=O)[O-])ccc1O
REMARK SMILES IDX 5 1 9 2 4 3 10 4 3 5 11 6 6 7 7 8 8 9 2 10 1 11 12 12
REMARK H PARENT 12 13
REMARK Flexibility Score: inf
ROOT
ATOM      1  C   UNL     1     104.140 118.337 120.624  1.00  0.00     0.001 A 
ATOM      2  C   UNL     1     105.255 119.181 120.491  1.00  0.00     0.014 A 
ATOM      3  C   UNL     1     103.010 118.567 119.819  1.00  0.00     0.060 A 
ATOM      4  C   UNL     1     105.241 120.232 119.573  1.00  0.00     0.051 A 
ATOM      5  C   UNL     1     102.990 119.628 118.889  1.00  0.00     0.161 A 
ATOM      6  C   UNL     1     104.117 120.459 118.773  1.00  0.00     0.157 A 
ENDROOT
BRANCH   1   7
ATOM      7  C   UNL     1     104.162 117.225 121.599  1.00  0.00     0.072 C 
ATOM      8  O   UNL     1     104.565 116.080 121.257  1.00  0.00    -0.545 OA
ATOM      9  O   UNL     1     103.737 117.425 122.908  1.00  0.00    -0.545 OA
ENDBRANCH   1   7
BRANCH   5  10
ATOM     10  O   UNL     1     101.875 119.880 118.074  1.00  0.00    -0.493 OA
ATOM     11  C   UNL     1     101.882 119.815 116.651  1.00  0.00     0.278 C 
ENDBRANCH   5  10
BRANCH   6  12
ATOM     12  O   UNL     1     104.140 121.520 117.867  1.00  0.00    -0.504 OA
ATOM     13  H   UNL     1     104.048 122.484 118.162  1.00  0.00     0.293 HD
ENDBRANCH   6  12
TORSDOF 3
ENDMDL
MODEL 2
REMARK VINA RESULT:    -3.038     20.135     21.991
REMARK INTER + INTRA:          -3.330
REMARK INTER:                  -3.807
REMARK INTRA:                   0.477
REMARK UNBOUND:                 0.152
REMARK SMILES COc1cc(C(=O)[O-])ccc1O
REMARK SMILES IDX 5 1 9 2 4 3 10 4 3 5 11 6 6 7 7 8 8 9 2 10 1 11 12 12
REMARK H PARENT 12 13
REMARK Flexibility Score: inf
ROOT
ATOM      1  C   UNL     1     120.968 104.605 119.324  1.00  0.00     0.001 A 
ATOM      2  C   UNL     1     122.125 104.814 120.092  1.00  0.00     0.014 A 
ATOM      3  C   UNL     1     119.751 105.165 119.753  1.00  0.00     0.060 A 
ATOM      4  C   UNL     1     122.066 105.568 121.266  1.00  0.00     0.051 A 
ATOM      5  C   UNL     1     119.687 105.927 120.938  1.00  0.00     0.161 A 
ATOM      6  C   UNL     1     120.857 106.125 121.692  1.00  0.00     0.157 A 
ENDROOT
BRANCH   1   7
ATOM      7  C   UNL     1     121.037 103.806 118.080  1.00  0.00     0.072 C 
ATOM      8  O   UNL     1     120.371 102.742 117.965  1.00  0.00    -0.545 OA
ATOM      9  O   UNL     1     121.838 104.216 117.020  1.00  0.00    -0.545 OA
ENDBRANCH   1   7
BRANCH   5  10
ATOM     10  O   UNL     1     118.486 106.497 121.390  1.00  0.00    -0.493 OA
ATOM     11  C   UNL     1     118.067 106.529 122.751  1.00  0.00     0.278 C 
ENDBRANCH   5  10
BRANCH   6  12
ATOM     12  O   UNL     1     120.838 106.871 122.870  1.00  0.00    -0.504 OA
ATOM     13  H   UNL     1     121.582 107.514 123.114  1.00  0.00     0.293 HD
ENDBRANCH   6  12
TORSDOF 3
ENDMDL
MODEL 3
REMARK VINA RESULT:    -3.001      1.237      4.980
REMARK INTER + INTRA:          -3.287
REMARK INTER:                  -3.691
REMARK INTRA:                   0.404
REMARK UNBOUND:                 0.152
REMARK SMILES COc1cc(C(=O)[O-])ccc1O
REMARK SMILES IDX 5 1 9 2 4 3 10 4 3 5 11 6 6 7 7 8 8 9 2 10 1 11 12 12
REMARK H PARENT 12 13
REMARK Flexibility Score: inf
ROOT
ATOM      1  C   UNL     1     103.043 119.436 119.314  1.00  0.00     0.001 A 
ATOM      2  C   UNL     1     101.875 119.164 120.045  1.00  0.00     0.014 A 
ATOM      3  C   UNL     1     104.265 118.891 119.749  1.00  0.00     0.060 A 
ATOM      4  C   UNL     1     101.927 118.364 121.187  1.00  0.00     0.051 A 
ATOM      5  C   UNL     1     104.323 118.082 120.903  1.00  0.00     0.161 A 
ATOM      6  C   UNL     1     103.141 117.822 121.619  1.00  0.00     0.157 A 
ENDROOT
BRANCH   1   7
ATOM      7  C   UNL     1     102.981 120.286 118.104  1.00  0.00     0.072 C 
ATOM      8  O   UNL     1     103.633 121.363 118.043  1.00  0.00    -0.545 OA
ATOM      9  O   UNL     1     102.203 119.908 117.015  1.00  0.00    -0.545 OA
ENDBRANCH   1   7
BRANCH   5  10
ATOM     10  O   UNL     1     105.528 117.525 121.360  1.00  0.00    -0.493 OA
ATOM     11  C   UNL     1     105.955 117.524 122.718  1.00  0.00     0.278 C 
ENDBRANCH   5  10
BRANCH   6  12
ATOM     12  O   UNL     1     103.153 117.027 122.765  1.00  0.00    -0.504 OA
ATOM     13  H   UNL     1     102.302 116.685 123.194  1.00  0.00     0.293 HD
ENDBRANCH   6  12
TORSDOF 3
ENDMDL
MODEL 4
REMARK VINA RESULT:    -2.999     20.458     22.394
REMARK INTER + INTRA:          -3.285
REMARK INTER:                  -3.212
REMARK INTRA:                  -0.073
REMARK UNBOUND:                 0.152
REMARK SMILES COc1cc(C(=O)[O-])ccc1O
REMARK SMILES IDX 5 1 9 2 4 3 10 4 3 5 11 6 6 7 7 8 8 9 2 10 1 11 12 12
REMARK H PARENT 12 13
REMARK Flexibility Score: inf
ROOT
ATOM      1  C   UNL     1     120.742 104.430 118.685  1.00  0.00     0.001 A 
ATOM      2  C   UNL     1     119.351 104.618 118.687  1.00  0.00     0.014 A 
ATOM      3  C   UNL     1     121.501 104.931 119.759  1.00  0.00     0.060 A 
ATOM      4  C   UNL     1     118.730 105.292 119.740  1.00  0.00     0.051 A 
ATOM      5  C   UNL     1     120.879 105.613 120.825  1.00  0.00     0.161 A 
ATOM      6  C   UNL     1     119.485 105.789 120.807  1.00  0.00     0.157 A 
ENDROOT
BRANCH   1   7
ATOM      7  C   UNL     1     121.395 103.714 117.566  1.00  0.00     0.072 C 
ATOM      8  O   UNL     1     121.390 102.454 117.522  1.00  0.00    -0.545 OA
ATOM      9  O   UNL     1     122.023 104.421 116.547  1.00  0.00    -0.545 OA
ENDBRANCH   1   7
BRANCH   5  10
ATOM     10  O   UNL     1     121.611 106.123 121.909  1.00  0.00    -0.493 OA
ATOM     11  C   UNL     1     121.853 105.422 123.125  1.00  0.00     0.278 C 
ENDBRANCH   5  10
BRANCH   6  12
ATOM     12  O   UNL     1     118.828 106.457 121.841  1.00  0.00    -0.504 OA
ATOM     13  H   UNL     1     118.177 105.989 122.459  1.00  0.00     0.293 HD
ENDBRANCH   6  12
TORSDOF 3
ENDMDL
MODEL 5
REMARK VINA RESULT:    -2.282      1.426      2.368
REMARK INTER + INTRA:          -2.464
REMARK INTER:                  -3.066
REMARK INTRA:                   0.603
REMARK UNBOUND:                 0.152
REMARK SMILES COc1cc(C(=O)[O-])ccc1O
REMARK SMILES IDX 5 1 9 2 4 3 10 4 3 5 11 6 6 7 7 8 8 9 2 10 1 11 12 12
REMARK H PARENT 12 13
REMARK Flexibility Score: inf
ROOT
ATOM      1  C   UNL     1     103.975 117.894 121.465  1.00  0.00     0.001 A 
ATOM      2  C   UNL     1     102.576 118.012 121.513  1.00  0.00     0.014 A 
ATOM      3  C   UNL     1     104.678 118.512 120.415  1.00  0.00     0.060 A 
ATOM      4  C   UNL     1     101.894 118.734 120.532  1.00  0.00     0.051 A 
ATOM      5  C   UNL     1     103.994 119.243 119.421  1.00  0.00     0.161 A 
ATOM      6  C   UNL     1     102.594 119.349 119.489  1.00  0.00     0.157 A 
ENDROOT
BRANCH   1   7
ATOM      7  C   UNL     1     104.692 117.129 122.509  1.00  0.00     0.072 C 
ATOM      8  O   UNL     1     104.129 116.167 123.099  1.00  0.00    -0.545 OA
ATOM      9  O   UNL     1     105.998 117.458 122.854  1.00  0.00    -0.545 OA
ENDBRANCH   1   7
BRANCH   5  10
ATOM     10  O   UNL     1     104.670 119.869 118.362  1.00  0.00    -0.493 OA
ATOM     11  C   UNL     1     104.250 121.077 117.735  1.00  0.00     0.278 C 
ENDBRANCH   5  10
BRANCH   6  12
ATOM     12  O   UNL     1     101.877 120.061 118.526  1.00  0.00    -0.504 OA
ATOM     13  H   UNL     1     101.534 120.999 118.693  1.00  0.00     0.293 HD
ENDBRANCH   6  12
TORSDOF 3
ENDMDL
