MODEL 1
REMARK VINA RESULT:    -3.250      0.000      0.000
REMARK INTER + INTRA:          -3.657
REMARK INTER:                  -3.630
REMARK INTRA:                  -0.028
REMARK UNBOUND:                -0.028
REMARK SMILES CCCC(=O)[O-]
REMARK SMILES IDX 3 1 4 2 5 3 6 4 2 5 1 6
REMARK H PARENT
REMARK Flexibility Score: inf
ROOT
ATOM      1  C   UNL     1      23.646  35.021 147.190  1.00  0.00     0.052 C 
ENDROOT
BRANCH   1   2
ATOM      2  C   UNL     1      23.938  33.883 148.117  1.00  0.00     0.041 C 
ATOM      3  O   UNL     1      24.017  32.708 147.673  1.00  0.00    -0.550 OA
ATOM      4  O   UNL     1      24.169  34.127 149.465  1.00  0.00    -0.550 OA
ENDBRANCH   1   2
BRANCH   1   5
ATOM      5  C   UNL     1      24.518  36.231 147.536  1.00  0.00     0.003 C 
ATOM      6  C   UNL     1      23.692  37.512 147.576  1.00  0.00     0.004 C 
ENDBRANCH   1   5
TORSDOF 2
ENDMDL
MODEL 2
REMARK VINA RESULT:    -3.198      1.391      2.074
REMARK INTER + INTRA:          -3.599
REMARK INTER:                  -3.574
REMARK INTRA:                  -0.026
REMARK UNBOUND:                -0.028
REMARK SMILES CCCC(=O)[O-]
REMARK SMILES IDX 3 1 4 2 5 3 6 4 2 5 1 6
REMARK H PARENT
REMARK Flexibility Score: inf
ROOT
ATOM      1  C   UNL     1      23.710  36.417 147.646  1.00  0.00     0.052 C 
ENDROOT
BRANCH   1   2
ATOM      2  C   UNL     1      24.559  35.584 148.554  1.00  0.00     0.041 C 
ATOM      3  O   UNL     1      25.677  36.011 148.947  1.00  0.00    -0.550 OA
ATOM      4  O   UNL     1      24.094  34.355 149.006  1.00  0.00    -0.550 OA
ENDBRANCH   1   2
BRANCH   1   5
ATOM      5  C   UNL     1      24.333  37.802 147.452  1.00  0.00     0.003 C 
ATOM      6  C   UNL     1      23.308  38.906 147.695  1.00  0.00     0.004 C 
ENDBRANCH   1   5
TORSDOF 2
ENDMDL
MODEL 3
REMARK VINA RESULT:    -3.181      1.298      1.453
REMARK INTER + INTRA:          -3.581
REMARK INTER:                  -3.574
REMARK INTRA:                  -0.007
REMARK UNBOUND:                -0.028
REMARK SMILES CCCC(=O)[O-]
REMARK SMILES IDX 3 1 4 2 5 3 6 4 2 5 1 6
REMARK H PARENT
REMARK Flexibility Score: inf
ROOT
ATOM      1  C   UNL     1      23.569  36.241 147.412  1.00  0.00     0.052 C 
ENDROOT
BRANCH   1   2
ATOM      2  C   UNL     1      24.416  35.138 147.962  1.00  0.00     0.041 C 
ATOM      3  O   UNL     1      25.292  34.591 147.242  1.00  0.00    -0.550 OA
ATOM      4  O   UNL     1      24.271  34.746 149.287  1.00  0.00    -0.550 OA
ENDBRANCH   1   2
BRANCH   1   5
ATOM      5  C   UNL     1      24.305  37.580 147.507  1.00  0.00     0.003 C 
ATOM      6  C   UNL     1      23.326  38.735 147.697  1.00  0.00     0.004 C 
ENDBRANCH   1   5
TORSDOF 2
ENDMDL
MODEL 4
REMARK VINA RESULT:    -3.174      1.703      2.335
REMARK INTER + INTRA:          -3.572
REMARK INTER:                  -3.567
REMARK INTRA:                  -0.005
REMARK UNBOUND:                -0.028
REMARK SMILES CCCC(=O)[O-]
REMARK SMILES IDX 3 1 4 2 5 3 6 4 2 5 1 6
REMARK H PARENT
REMARK Flexibility Score: inf
ROOT
ATOM      1  C   UNL     1      24.393  37.403 147.448  1.00  0.00     0.052 C 
ENDROOT
BRANCH   1   2
ATOM      2  C   UNL     1      23.952  36.018 147.801  1.00  0.00     0.041 C 
ATOM      3  O   UNL     1      23.262  35.346 146.991  1.00  0.00    -0.550 OA
ATOM      4  O   UNL     1      24.345  35.450 149.007  1.00  0.00    -0.550 OA
ENDBRANCH   1   2
BRANCH   1   5
ATOM      5  C   UNL     1      23.273  38.409 147.727  1.00  0.00     0.003 C 
ATOM      6  C   UNL     1      23.795  39.842 147.678  1.00  0.00     0.004 C 
ENDBRANCH   1   5
TORSDOF 2
ENDMDL
MODEL 5
REMARK VINA RESULT:    -3.136      3.521      4.439
REMARK INTER + INTRA:          -3.530
REMARK INTER:                  -3.461
REMARK INTRA:                  -0.069
REMARK UNBOUND:                -0.028
REMARK SMILES CCCC(=O)[O-]
REMARK SMILES IDX 3 1 4 2 5 3 6 4 2 5 1 6
REMARK H PARENT
REMARK Flexibility Score: inf
ROOT
ATOM      1  C   UNL     1      23.440  38.606 147.747  1.00  0.00     0.052 C 
ENDROOT
BRANCH   1   2
ATOM      2  C   UNL     1      23.702  38.953 149.179  1.00  0.00     0.041 C 
ATOM      3  O   UNL     1      24.564  39.821 149.474  1.00  0.00    -0.550 OA
ATOM      4  O   UNL     1      22.958  38.350 150.186  1.00  0.00    -0.550 OA
ENDBRANCH   1   2
BRANCH   1   5
ATOM      5  C   UNL     1      23.662  37.110 147.509  1.00  0.00     0.003 C 
ATOM      6  C   UNL     1      25.144  36.755 147.574  1.00  0.00     0.004 C 
ENDBRANCH   1   5
TORSDOF 2
ENDMDL
MODEL 6
REMARK VINA RESULT:    -3.134      3.295      4.249
REMARK INTER + INTRA:          -3.528
REMARK INTER:                  -3.473
REMARK INTRA:                  -0.056
REMARK UNBOUND:                -0.028
REMARK SMILES CCCC(=O)[O-]
REMARK SMILES IDX 3 1 4 2 5 3 6 4 2 5 1 6
REMARK H PARENT
REMARK Flexibility Score: inf
ROOT
ATOM      1  C   UNL     1      23.543  38.536 147.792  1.00  0.00     0.052 C 
ENDROOT
BRANCH   1   2
ATOM      2  C   UNL     1      23.531  38.737 149.275  1.00  0.00     0.041 C 
ATOM      3  O   UNL     1      22.874  37.960 150.015  1.00  0.00    -0.550 OA
ATOM      4  O   UNL     1      24.286  39.756 149.843  1.00  0.00    -0.550 OA
ENDBRANCH   1   2
BRANCH   1   5
ATOM      5  C   UNL     1      23.683  37.049 147.455  1.00  0.00     0.003 C 
ATOM      6  C   UNL     1      25.139  36.601 147.537  1.00  0.00     0.004 C 
ENDBRANCH   1   5
TORSDOF 2
ENDMDL
MODEL 7
REMARK VINA RESULT:    -3.059      4.163      5.532
REMARK INTER + INTRA:          -3.444
REMARK INTER:                  -3.410
REMARK INTRA:                  -0.035
REMARK UNBOUND:                -0.028
REMARK SMILES CCCC(=O)[O-]
REMARK SMILES IDX 3 1 4 2 5 3 6 4 2 5 1 6
REMARK H PARENT
REMARK Flexibility Score: inf
ROOT
ATOM      1  C   UNL     1      24.496  39.564 147.874  1.00  0.00     0.052 C 
ENDROOT
BRANCH   1   2
ATOM      2  C   UNL     1      24.331  40.317 149.157  1.00  0.00     0.041 C 
ATOM      3  O   UNL     1      24.164  41.565 149.143  1.00  0.00    -0.550 OA
ATOM      4  O   UNL     1      24.312  39.632 150.366  1.00  0.00    -0.550 OA
ENDBRANCH   1   2
BRANCH   1   5
ATOM      5  C   UNL     1      23.305  38.629 147.644  1.00  0.00     0.003 C 
ATOM      6  C   UNL     1      23.756  37.174 147.563  1.00  0.00     0.004 C 
ENDBRANCH   1   5
TORSDOF 2
ENDMDL
MODEL 8
REMARK VINA RESULT:    -3.029      2.835      3.602
REMARK INTER + INTRA:          -3.411
REMARK INTER:                  -3.367
REMARK INTRA:                  -0.044
REMARK UNBOUND:                -0.028
REMARK SMILES CCCC(=O)[O-]
REMARK SMILES IDX 3 1 4 2 5 3 6 4 2 5 1 6
REMARK H PARENT
REMARK Flexibility Score: inf
ROOT
ATOM      1  C   UNL     1      23.523  38.231 147.546  1.00  0.00     0.052 C 
ENDROOT
BRANCH   1   2
ATOM      2  C   UNL     1      23.480  37.510 148.857  1.00  0.00     0.041 C 
ATOM      3  O   UNL     1      23.984  36.361 148.965  1.00  0.00    -0.550 OA
ATOM      4  O   UNL     1      22.927  38.128 149.972  1.00  0.00    -0.550 OA
ENDBRANCH   1   2
BRANCH   1   5
ATOM      5  C   UNL     1      23.994  39.675 147.744  1.00  0.00     0.003 C 
ATOM      6  C   UNL     1      25.503  39.793 147.552  1.00  0.00     0.004 C 
ENDBRANCH   1   5
TORSDOF 2
ENDMDL
MODEL 9
REMARK VINA RESULT:    -2.958      2.255      3.344
REMARK INTER + INTRA:          -3.331
REMARK INTER:                  -3.265
REMARK INTRA:                  -0.067
REMARK UNBOUND:                -0.028
REMARK SMILES CCCC(=O)[O-]
REMARK SMILES IDX 3 1 4 2 5 3 6 4 2 5 1 6
REMARK H PARENT
REMARK Flexibility Score: inf
ROOT
ATOM      1  C   UNL     1      25.521  34.372 149.405  1.00  0.00     0.052 C 
ENDROOT
BRANCH   1   2
ATOM      2  C   UNL     1      25.057  35.458 148.486  1.00  0.00     0.041 C 
ATOM      3  O   UNL     1      25.594  35.606 147.357  1.00  0.00    -0.550 OA
ATOM      4  O   UNL     1      23.997  36.276 148.857  1.00  0.00    -0.550 OA
ENDBRANCH   1   2
BRANCH   1   5
ATOM      5  C   UNL     1      24.400  33.356 149.643  1.00  0.00     0.003 C 
ATOM      6  C   UNL     1      24.128  32.532 148.389  1.00  0.00     0.004 C 
ENDBRANCH   1   5
TORSDOF 2
ENDMDL
