MODEL 1
REMARK VINA RESULT:    -3.289      0.000      0.000
REMARK INTER + INTRA:          -5.967
REMARK INTER:                  -5.020
REMARK INTRA:                  -0.947
REMARK UNBOUND:                -0.947
REMARK SMILES O=C([O-])CCCCCCCCC(=O)[O-]
REMARK SMILES IDX 7 1 6 2 5 3 4 4 2 5 1 6 3 7 8 8 9 9 10 10 11 11 12 12 13 13
REMARK SMILES IDX 14 14
REMARK H PARENT
REMARK Flexibility Score: inf
ROOT
ATOM      1  C   UNL     1      56.531  27.305  51.743  1.00  0.00     0.000 C 
ENDROOT
BRANCH   1   2
ATOM      2  C   UNL     1      55.975  28.142  50.577  1.00  0.00     0.000 C 
BRANCH   2   3
ATOM      3  C   UNL     1      54.494  28.506  50.767  1.00  0.00     0.006 C 
BRANCH   3   4
ATOM      4  C   UNL     1      53.592  27.901  49.683  1.00  0.00     0.053 C 
BRANCH   4   5
ATOM      5  C   UNL     1      53.562  26.410  49.804  1.00  0.00     0.041 C 
ATOM      6  O   UNL     1      53.021  25.865  50.803  1.00  0.00    -0.550 OA
ATOM      7  O   UNL     1      54.175  25.622  48.838  1.00  0.00    -0.550 OA
ENDBRANCH   4   5
ENDBRANCH   3   4
ENDBRANCH   2   3
ENDBRANCH   1   2
BRANCH   1   8
ATOM      8  C   UNL     1      56.963  25.896  51.303  1.00  0.00     0.000 C 
BRANCH   8   9
ATOM      9  C   UNL     1      57.701  25.896  49.953  1.00  0.00     0.000 C 
BRANCH   9  10
ATOM     10  C   UNL     1      59.228  25.965  50.114  1.00  0.00     0.006 C 
BRANCH  10  11
ATOM     11  C   UNL     1      59.867  27.034  49.219  1.00  0.00     0.053 C 
BRANCH  11  12
ATOM     12  C   UNL     1      59.527  28.403  49.718  1.00  0.00     0.041 C 
ATOM     13  O   UNL     1      59.907  28.774  50.859  1.00  0.00    -0.550 OA
ATOM     14  O   UNL     1      58.830  29.287  48.904  1.00  0.00    -0.550 OA
ENDBRANCH  11  12
ENDBRANCH  10  11
ENDBRANCH   9  10
ENDBRANCH   8   9
ENDBRANCH   1   8
TORSDOF 9
ENDMDL
MODEL 2
REMARK VINA RESULT:    -3.271     12.177     14.231
REMARK INTER + INTRA:          -5.939
REMARK INTER:                  -5.098
REMARK INTRA:                  -0.841
REMARK UNBOUND:                -0.947
REMARK SMILES O=C([O-])CCCCCCCCC(=O)[O-]
REMARK SMILES IDX 7 1 6 2 5 3 4 4 2 5 1 6 3 7 8 8 9 9 10 10 11 11 12 12 13 13
REMARK SMILES IDX 14 14
REMARK H PARENT
REMARK Flexibility Score: inf
ROOT
ATOM      1  C   UNL     1      61.082  32.230  59.490  1.00  0.00     0.000 C 
ENDROOT
BRANCH   1   2
ATOM      2  C   UNL     1      61.542  33.303  60.492  1.00  0.00     0.000 C 
BRANCH   2   3
ATOM      3  C   UNL     1      62.779  34.075  60.004  1.00  0.00     0.006 C 
BRANCH   3   4
ATOM      4  C   UNL     1      63.904  34.108  61.045  1.00  0.00     0.053 C 
BRANCH   4   5
ATOM      5  C   UNL     1      64.080  35.494  61.580  1.00  0.00     0.041 C 
ATOM      6  O   UNL     1      63.100  36.284  61.629  1.00  0.00    -0.550 OA
ATOM      7  O   UNL     1      65.337  35.932  61.977  1.00  0.00    -0.550 OA
ENDBRANCH   4   5
ENDBRANCH   3   4
ENDBRANCH   2   3
ENDBRANCH   1   2
BRANCH   1   8
ATOM      8  C   UNL     1      60.834  30.868  60.157  1.00  0.00     0.000 C 
BRANCH   8   9
ATOM      9  C   UNL     1      61.160  30.875  61.661  1.00  0.00     0.000 C 
BRANCH   9  10
ATOM     10  C   UNL     1      62.290  29.899  62.026  1.00  0.00     0.006 C 
BRANCH  10  11
ATOM     11  C   UNL     1      63.674  30.425  61.623  1.00  0.00     0.053 C 
BRANCH  11  12
ATOM     12  C   UNL     1      64.346  29.464  60.693  1.00  0.00     0.041 C 
ATOM     13  O   UNL     1      65.155  28.610  61.141  1.00  0.00    -0.550 OA
ATOM     14  O   UNL     1      64.042  29.481  59.338  1.00  0.00    -0.550 OA
ENDBRANCH  11  12
ENDBRANCH  10  11
ENDBRANCH   9  10
ENDBRANCH   8   9
ENDBRANCH   1   8
TORSDOF 9
ENDMDL
MODEL 3
REMARK VINA RESULT:    -3.236      2.109      2.721
REMARK INTER + INTRA:          -5.887
REMARK INTER:                  -5.379
REMARK INTRA:                  -0.508
REMARK UNBOUND:                -0.947
REMARK SMILES O=C([O-])CCCCCCCCC(=O)[O-]
REMARK SMILES IDX 7 1 6 2 5 3 4 4 2 5 1 6 3 7 8 8 9 9 10 10 11 11 12 12 13 13
REMARK SMILES IDX 14 14
REMARK H PARENT
REMARK Flexibility Score: inf
ROOT
ATOM      1  C   UNL     1      57.432  29.065  51.420  1.00  0.00     0.000 C 
ENDROOT
BRANCH   1   2
ATOM      2  C   UNL     1      55.919  28.922  51.657  1.00  0.00     0.000 C 
BRANCH   2   3
ATOM      3  C   UNL     1      55.147  28.606  50.365  1.00  0.00     0.006 C 
BRANCH   3   4
ATOM      4  C   UNL     1      54.280  27.346  50.487  1.00  0.00     0.053 C 
BRANCH   4   5
ATOM      5  C   UNL     1      54.883  26.221  49.706  1.00  0.00     0.041 C 
ATOM      6  O   UNL     1      54.177  25.558  48.901  1.00  0.00    -0.550 OA
ATOM      7  O   UNL     1      56.213  25.872  49.904  1.00  0.00    -0.550 OA
ENDBRANCH   4   5
ENDBRANCH   3   4
ENDBRANCH   2   3
ENDBRANCH   1   2
BRANCH   1   8
ATOM      8  C   UNL     1      57.817  28.892  49.942  1.00  0.00     0.000 C 
BRANCH   8   9
ATOM      9  C   UNL     1      59.337  28.957  49.712  1.00  0.00     0.000 C 
BRANCH   9  10
ATOM     10  C   UNL     1      59.898  27.663  49.100  1.00  0.00     0.006 C 
BRANCH  10  11
ATOM     11  C   UNL     1      60.765  26.872  50.088  1.00  0.00     0.053 C 
BRANCH  11  12
ATOM     12  C   UNL     1      62.159  26.733  49.563  1.00  0.00     0.041 C 
ATOM     13  O   UNL     1      62.635  27.606  48.791  1.00  0.00    -0.550 OA
ATOM     14  O   UNL     1      62.950  25.664  49.965  1.00  0.00    -0.550 OA
ENDBRANCH  11  12
ENDBRANCH  10  11
ENDBRANCH   9  10
ENDBRANCH   8   9
ENDBRANCH   1   8
TORSDOF 9
ENDMDL
MODEL 4
REMARK VINA RESULT:    -3.216     13.399     14.679
REMARK INTER + INTRA:          -5.856
REMARK INTER:                  -5.212
REMARK INTRA:                  -0.644
REMARK UNBOUND:                -0.947
REMARK SMILES O=C([O-])CCCCCCCCC(=O)[O-]
REMARK SMILES IDX 7 1 6 2 5 3 4 4 2 5 1 6 3 7 8 8 9 9 10 10 11 11 12 12 13 13
REMARK SMILES IDX 14 14
REMARK H PARENT
REMARK Flexibility Score: inf
ROOT
ATOM      1  C   UNL     1      61.771  30.177  61.764  1.00  0.00     0.000 C 
ENDROOT
BRANCH   1   2
ATOM      2  C   UNL     1      62.769  29.593  60.748  1.00  0.00     0.000 C 
BRANCH   2   3
ATOM      3  C   UNL     1      64.137  29.283  61.376  1.00  0.00     0.006 C 
BRANCH   3   4
ATOM      4  C   UNL     1      65.272  30.110  60.760  1.00  0.00     0.053 C 
BRANCH   4   5
ATOM      5  C   UNL     1      66.534  29.307  60.708  1.00  0.00     0.041 C 
ATOM      6  O   UNL     1      66.761  28.425  61.578  1.00  0.00    -0.550 OA
ATOM      7  O   UNL     1      67.483  29.567  59.727  1.00  0.00    -0.550 OA
ENDBRANCH   4   5
ENDBRANCH   3   4
ENDBRANCH   2   3
ENDBRANCH   1   2
BRANCH   1   8
ATOM      8  C   UNL     1      61.227  31.549  61.334  1.00  0.00     0.000 C 
BRANCH   8   9
ATOM      9  C   UNL     1      62.138  32.256  60.315  1.00  0.00     0.000 C 
BRANCH   9  10
ATOM     10  C   UNL     1      62.452  33.708  60.711  1.00  0.00     0.006 C 
BRANCH  10  11
ATOM     11  C   UNL     1      63.936  33.923  61.034  1.00  0.00     0.053 C 
BRANCH  11  12
ATOM     12  C   UNL     1      64.163  35.310  61.547  1.00  0.00     0.041 C 
ATOM     13  O   UNL     1      65.332  35.718  61.774  1.00  0.00    -0.550 OA
ATOM     14  O   UNL     1      63.086  36.169  61.728  1.00  0.00    -0.550 OA
ENDBRANCH  11  12
ENDBRANCH  10  11
ENDBRANCH   9  10
ENDBRANCH   8   9
ENDBRANCH   1   8
TORSDOF 9
ENDMDL
MODEL 5
REMARK VINA RESULT:    -3.216      1.987      2.664
REMARK INTER + INTRA:          -5.856
REMARK INTER:                  -5.001
REMARK INTRA:                  -0.855
REMARK UNBOUND:                -0.947
REMARK SMILES O=C([O-])CCCCCCCCC(=O)[O-]
REMARK SMILES IDX 7 1 6 2 5 3 4 4 2 5 1 6 3 7 8 8 9 9 10 10 11 11 12 12 13 13
REMARK SMILES IDX 14 14
REMARK H PARENT
REMARK Flexibility Score: inf
ROOT
ATOM      1  C   UNL     1      58.347  29.210  51.050  1.00  0.00     0.000 C 
ENDROOT
BRANCH   1   2
ATOM      2  C   UNL     1      56.998  28.676  51.563  1.00  0.00     0.000 C 
BRANCH   2   3
ATOM      3  C   UNL     1      56.013  28.369  50.423  1.00  0.00     0.006 C 
BRANCH   3   4
ATOM      4  C   UNL     1      55.634  26.884  50.352  1.00  0.00     0.053 C 
BRANCH   4   5
ATOM      5  C   UNL     1      54.360  26.707  49.589  1.00  0.00     0.041 C 
ATOM      6  O   UNL     1      53.529  27.650  49.513  1.00  0.00    -0.550 OA
ATOM      7  O   UNL     1      54.066  25.482  49.003  1.00  0.00    -0.550 OA
ENDBRANCH   4   5
ENDBRANCH   3   4
ENDBRANCH   2   3
ENDBRANCH   1   2
BRANCH   1   8
ATOM      8  C   UNL     1      58.452  29.172  49.517  1.00  0.00     0.000 C 
BRANCH   8   9
ATOM      9  C   UNL     1      59.619  28.298  49.023  1.00  0.00     0.000 C 
BRANCH   9  10
ATOM     10  C   UNL     1      59.428  26.811  49.363  1.00  0.00     0.006 C 
BRANCH  10  11
ATOM     11  C   UNL     1      60.611  26.230  50.147  1.00  0.00     0.053 C 
BRANCH  11  12
ATOM     12  C   UNL     1      60.169  25.790  51.508  1.00  0.00     0.041 C 
ATOM     13  O   UNL     1      61.018  25.590  52.415  1.00  0.00    -0.550 OA
ATOM     14  O   UNL     1      58.816  25.648  51.787  1.00  0.00    -0.550 OA
ENDBRANCH  11  12
ENDBRANCH  10  11
ENDBRANCH   9  10
ENDBRANCH   8   9
ENDBRANCH   1   8
TORSDOF 9
ENDMDL
MODEL 6
REMARK VINA RESULT:    -3.203      1.820      5.761
REMARK INTER + INTRA:          -5.836
REMARK INTER:                  -5.200
REMARK INTRA:                  -0.636
REMARK UNBOUND:                -0.947
REMARK SMILES O=C([O-])CCCCCCCCC(=O)[O-]
REMARK SMILES IDX 7 1 6 2 5 3 4 4 2 5 1 6 3 7 8 8 9 9 10 10 11 11 12 12 13 13
REMARK SMILES IDX 14 14
REMARK H PARENT
REMARK Flexibility Score: inf
ROOT
ATOM      1  C   UNL     1      57.768  28.442  51.445  1.00  0.00     0.000 C 
ENDROOT
BRANCH   1   2
ATOM      2  C   UNL     1      57.773  28.932  49.986  1.00  0.00     0.000 C 
BRANCH   2   3
ATOM      3  C   UNL     1      59.176  28.899  49.358  1.00  0.00     0.006 C 
BRANCH   3   4
ATOM      4  C   UNL     1      59.709  27.472  49.175  1.00  0.00     0.053 C 
BRANCH   4   5
ATOM      5  C   UNL     1      61.163  27.410  49.523  1.00  0.00     0.041 C 
ATOM      6  O   UNL     1      61.816  28.469  49.712  1.00  0.00    -0.550 OA
ATOM      7  O   UNL     1      61.809  26.182  49.589  1.00  0.00    -0.550 OA
ENDBRANCH   4   5
ENDBRANCH   3   4
ENDBRANCH   2   3
ENDBRANCH   1   2
BRANCH   1   8
ATOM      8  C   UNL     1      56.617  29.048  52.266  1.00  0.00     0.000 C 
BRANCH   8   9
ATOM      9  C   UNL     1      55.334  29.239  51.438  1.00  0.00     0.000 C 
BRANCH   9  10
ATOM     10  C   UNL     1      54.484  27.960  51.363  1.00  0.00     0.006 C 
BRANCH  10  11
ATOM     11  C   UNL     1      54.093  27.597  49.926  1.00  0.00     0.053 C 
BRANCH  11  12
ATOM     12  C   UNL     1      54.640  26.252  49.560  1.00  0.00     0.041 C 
ATOM     13  O   UNL     1      53.985  25.485  48.807  1.00  0.00    -0.550 OA
ATOM     14  O   UNL     1      55.895  25.866  50.013  1.00  0.00    -0.550 OA
ENDBRANCH  11  12
ENDBRANCH  10  11
ENDBRANCH   9  10
ENDBRANCH   8   9
ENDBRANCH   1   8
TORSDOF 9
ENDMDL
MODEL 7
REMARK VINA RESULT:    -3.171      2.091      5.241
REMARK INTER + INTRA:          -5.787
REMARK INTER:                  -4.914
REMARK INTRA:                  -0.873
REMARK UNBOUND:                -0.947
REMARK SMILES O=C([O-])CCCCCCCCC(=O)[O-]
REMARK SMILES IDX 7 1 6 2 5 3 4 4 2 5 1 6 3 7 8 8 9 9 10 10 11 11 12 12 13 13
REMARK SMILES IDX 14 14
REMARK H PARENT
REMARK Flexibility Score: inf
ROOT
ATOM      1  C   UNL     1      58.568  29.301  51.001  1.00  0.00     0.000 C 
ENDROOT
BRANCH   1   2
ATOM      2  C   UNL     1      58.906  28.934  49.546  1.00  0.00     0.000 C 
BRANCH   2   3
ATOM      3  C   UNL     1      59.960  27.819  49.448  1.00  0.00     0.006 C 
BRANCH   3   4
ATOM      4  C   UNL     1      59.335  26.425  49.311  1.00  0.00     0.053 C 
BRANCH   4   5
ATOM      5  C   UNL     1      59.352  25.714  50.627  1.00  0.00     0.041 C 
ATOM      6  O   UNL     1      58.454  24.877  50.908  1.00  0.00    -0.550 OA
ATOM      7  O   UNL     1      60.332  26.012  51.565  1.00  0.00    -0.550 OA
ENDBRANCH   4   5
ENDBRANCH   3   4
ENDBRANCH   2   3
ENDBRANCH   1   2
BRANCH   1   8
ATOM      8  C   UNL     1      57.255  28.662  51.481  1.00  0.00     0.000 C 
BRANCH   8   9
ATOM      9  C   UNL     1      56.248  28.444  50.337  1.00  0.00     0.000 C 
BRANCH   9  10
ATOM     10  C   UNL     1      55.631  27.036  50.354  1.00  0.00     0.006 C 
BRANCH  10  11
ATOM     11  C   UNL     1      54.225  27.003  49.743  1.00  0.00     0.053 C 
BRANCH  11  12
ATOM     12  C   UNL     1      53.325  27.965  50.453  1.00  0.00     0.041 C 
ATOM     13  O   UNL     1      52.993  27.757  51.650  1.00  0.00    -0.550 OA
ATOM     14  O   UNL     1      52.892  29.117  49.809  1.00  0.00    -0.550 OA
ENDBRANCH  11  12
ENDBRANCH  10  11
ENDBRANCH   9  10
ENDBRANCH   8   9
ENDBRANCH   1   8
TORSDOF 9
ENDMDL
MODEL 8
REMARK VINA RESULT:    -3.144      1.859      2.625
REMARK INTER + INTRA:          -5.746
REMARK INTER:                  -4.981
REMARK INTRA:                  -0.765
REMARK UNBOUND:                -0.947
REMARK SMILES O=C([O-])CCCCCCCCC(=O)[O-]
REMARK SMILES IDX 7 1 6 2 5 3 4 4 2 5 1 6 3 7 8 8 9 9 10 10 11 11 12 12 13 13
REMARK SMILES IDX 14 14
REMARK H PARENT
REMARK Flexibility Score: inf
ROOT
ATOM      1  C   UNL     1      54.905  29.281  51.775  1.00  0.00     0.000 C 
ENDROOT
BRANCH   1   2
ATOM      2  C   UNL     1      54.369  28.965  50.368  1.00  0.00     0.000 C 
BRANCH   2   3
ATOM      3  C   UNL     1      53.594  27.637  50.316  1.00  0.00     0.006 C 
BRANCH   3   4
ATOM      4  C   UNL     1      54.340  26.547  49.538  1.00  0.00     0.053 C 
BRANCH   4   5
ATOM      5  C   UNL     1      55.448  25.978  50.368  1.00  0.00     0.041 C 
ATOM      6  O   UNL     1      56.591  25.805  49.869  1.00  0.00    -0.550 OA
ATOM      7  O   UNL     1      55.204  25.592  51.680  1.00  0.00    -0.550 OA
ENDBRANCH   4   5
ENDBRANCH   3   4
ENDBRANCH   2   3
ENDBRANCH   1   2
BRANCH   1   8
ATOM      8  C   UNL     1      56.439  29.210  51.851  1.00  0.00     0.000 C 
BRANCH   8   9
ATOM      9  C   UNL     1      57.101  29.156  50.463  1.00  0.00     0.000 C 
BRANCH   9  10
ATOM     10  C   UNL     1      58.594  28.798  50.534  1.00  0.00     0.006 C 
BRANCH  10  11
ATOM     11  C   UNL     1      59.162  28.371  49.175  1.00  0.00     0.053 C 
BRANCH  11  12
ATOM     12  C   UNL     1      60.190  27.298  49.353  1.00  0.00     0.041 C 
ATOM     13  O   UNL     1      59.860  26.086  49.272  1.00  0.00    -0.550 OA
ATOM     14  O   UNL     1      61.521  27.637  49.561  1.00  0.00    -0.550 OA
ENDBRANCH  11  12
ENDBRANCH  10  11
ENDBRANCH   9  10
ENDBRANCH   8   9
ENDBRANCH   1   8
TORSDOF 9
ENDMDL
MODEL 9
REMARK VINA RESULT:    -3.125     12.339     14.085
REMARK INTER + INTRA:          -5.716
REMARK INTER:                  -5.034
REMARK INTRA:                  -0.683
REMARK UNBOUND:                -0.947
REMARK SMILES O=C([O-])CCCCCCCCC(=O)[O-]
REMARK SMILES IDX 7 1 6 2 5 3 4 4 2 5 1 6 3 7 8 8 9 9 10 10 11 11 12 12 13 13
REMARK SMILES IDX 14 14
REMARK H PARENT
REMARK Flexibility Score: inf
ROOT
ATOM      1  C   UNL     1      61.210  31.584  59.991  1.00  0.00     0.000 C 
ENDROOT
BRANCH   1   2
ATOM      2  C   UNL     1      61.103  31.404  61.516  1.00  0.00     0.000 C 
BRANCH   2   3
ATOM      3  C   UNL     1      61.827  30.143  62.013  1.00  0.00     0.006 C 
BRANCH   3   4
ATOM      4  C   UNL     1      63.324  30.148  61.677  1.00  0.00     0.053 C 
BRANCH   4   5
ATOM      5  C   UNL     1      63.717  28.859  61.027  1.00  0.00     0.041 C 
ATOM      6  O   UNL     1      63.460  27.761  61.588  1.00  0.00    -0.550 OA
ATOM      7  O   UNL     1      64.414  28.871  59.825  1.00  0.00    -0.550 OA
ENDBRANCH   4   5
ENDBRANCH   3   4
ENDBRANCH   2   3
ENDBRANCH   1   2
BRANCH   1   8
ATOM      8  C   UNL     1      61.881  32.911  59.599  1.00  0.00     0.000 C 
BRANCH   8   9
ATOM      9  C   UNL     1      62.347  33.723  60.820  1.00  0.00     0.000 C 
BRANCH   9  10
ATOM     10  C   UNL     1      63.879  33.785  60.938  1.00  0.00     0.006 C 
BRANCH  10  11
ATOM     11  C   UNL     1      64.363  35.043  61.670  1.00  0.00     0.053 C 
BRANCH  11  12
ATOM     12  C   UNL     1      63.744  36.266  61.069  1.00  0.00     0.041 C 
ATOM     13  O   UNL     1      62.951  36.972  61.745  1.00  0.00    -0.550 OA
ATOM     14  O   UNL     1      64.080  36.653  59.778  1.00  0.00    -0.550 OA
ENDBRANCH  11  12
ENDBRANCH  10  11
ENDBRANCH   9  10
ENDBRANCH   8   9
ENDBRANCH   1   8
TORSDOF 9
ENDMDL
