MODEL 1
REMARK VINA RESULT:     1.726      0.000      0.000
REMARK INTER + INTRA:           2.229
REMARK INTER:                   2.634
REMARK INTRA:                  -0.405
REMARK UNBOUND:                -0.405
REMARK SMILES O=C([O-])CCCCCCCCC(=O)[O-]
REMARK SMILES IDX 7 1 6 2 5 3 4 4 2 5 1 6 3 7 8 8 9 9 10 10 11 11 12 12 13 13
REMARK SMILES IDX 14 14
REMARK H PARENT
REMARK Flexibility Score: inf
ROOT
ATOM      1  C   UNL     1      18.841 -19.059  25.623  1.00  0.00     0.000 C 
ENDROOT
BRANCH   1   2
ATOM      2  C   UNL     1      17.450 -18.760  26.208  1.00  0.00     0.000 C 
BRANCH   2   3
ATOM      3  C   UNL     1      16.971 -19.832  27.203  1.00  0.00     0.006 C 
BRANCH   3   4
ATOM      4  C   UNL     1      16.010 -19.298  28.279  1.00  0.00     0.053 C 
BRANCH   4   5
ATOM      5  C   UNL     1      16.589 -18.149  29.048  1.00  0.00     0.041 C 
ATOM      6  O   UNL     1      16.055 -17.010  28.981  1.00  0.00    -0.550 OA
ATOM      7  O   UNL     1      17.697 -18.342  29.863  1.00  0.00    -0.550 OA
ENDBRANCH   4   5
ENDBRANCH   3   4
ENDBRANCH   2   3
ENDBRANCH   1   2
BRANCH   1   8
ATOM      8  C   UNL     1      19.704 -19.920  26.558  1.00  0.00     0.000 C 
BRANCH   8   9
ATOM      9  C   UNL     1      21.193 -19.891  26.180  1.00  0.00     0.000 C 
BRANCH   9  10
ATOM     10  C   UNL     1      21.534 -21.029  25.206  1.00  0.00     0.006 C 
BRANCH  10  11
ATOM     11  C   UNL     1      23.038 -21.330  25.170  1.00  0.00     0.053 C 
BRANCH  11  12
ATOM     12  C   UNL     1      23.639 -21.005  23.837  1.00  0.00     0.041 C 
ATOM     13  O   UNL     1      23.757 -19.806  23.471  1.00  0.00    -0.550 OA
ATOM     14  O   UNL     1      24.101 -22.024  23.013  1.00  0.00    -0.550 OA
ENDBRANCH  11  12
ENDBRANCH  10  11
ENDBRANCH   9  10
ENDBRANCH   8   9
ENDBRANCH   1   8
TORSDOF 9
ENDMDL
MODEL 2
REMARK VINA RESULT:     1.760      1.676      1.956
REMARK INTER + INTRA:           2.281
REMARK INTER:                   2.609
REMARK INTRA:                  -0.328
REMARK UNBOUND:                -0.405
REMARK SMILES O=C([O-])CCCCCCCCC(=O)[O-]
REMARK SMILES IDX 7 1 6 2 5 3 4 4 2 5 1 6 3 7 8 8 9 9 10 10 11 11 12 12 13 13
REMARK SMILES IDX 14 14
REMARK H PARENT
REMARK Flexibility Score: inf
ROOT
ATOM      1  C   UNL     1      18.690 -19.092  25.638  1.00  0.00     0.000 C 
ENDROOT
BRANCH   1   2
ATOM      2  C   UNL     1      17.378 -18.691  26.334  1.00  0.00     0.000 C 
BRANCH   2   3
ATOM      3  C   UNL     1      17.219 -19.318  27.730  1.00  0.00     0.006 C 
BRANCH   3   4
ATOM      4  C   UNL     1      15.882 -20.053  27.934  1.00  0.00     0.053 C 
BRANCH   4   5
ATOM      5  C   UNL     1      16.022 -21.271  28.796  1.00  0.00     0.041 C 
ATOM      6  O   UNL     1      16.242 -21.151  30.031  1.00  0.00    -0.550 OA
ATOM      7  O   UNL     1      15.875 -22.537  28.245  1.00  0.00    -0.550 OA
ENDBRANCH   4   5
ENDBRANCH   3   4
ENDBRANCH   2   3
ENDBRANCH   1   2
BRANCH   1   8
ATOM      8  C   UNL     1      19.639 -19.867  26.566  1.00  0.00     0.000 C 
BRANCH   8   9
ATOM      9  C   UNL     1      21.094 -19.843  26.076  1.00  0.00     0.000 C 
BRANCH   9  10
ATOM     10  C   UNL     1      21.424 -21.110  25.274  1.00  0.00     0.006 C 
BRANCH  10  11
ATOM     11  C   UNL     1      22.924 -21.432  25.288  1.00  0.00     0.053 C 
BRANCH  11  12
ATOM     12  C   UNL     1      23.589 -21.046  24.002  1.00  0.00     0.041 C 
ATOM     13  O   UNL     1      23.818 -19.835  23.748  1.00  0.00    -0.550 OA
ATOM     14  O   UNL     1      23.988 -22.025  23.102  1.00  0.00    -0.550 OA
ENDBRANCH  11  12
ENDBRANCH  10  11
ENDBRANCH   9  10
ENDBRANCH   8   9
ENDBRANCH   1   8
TORSDOF 9
ENDMDL
MODEL 3
REMARK VINA RESULT:     1.764      0.121      7.512
REMARK INTER + INTRA:           2.287
REMARK INTER:                   2.720
REMARK INTRA:                  -0.433
REMARK UNBOUND:                -0.405
REMARK SMILES O=C([O-])CCCCCCCCC(=O)[O-]
REMARK SMILES IDX 7 1 6 2 5 3 4 4 2 5 1 6 3 7 8 8 9 9 10 10 11 11 12 12 13 13
REMARK SMILES IDX 14 14
REMARK H PARENT
REMARK Flexibility Score: inf
ROOT
ATOM      1  C   UNL     1      19.736 -19.791  26.720  1.00  0.00     0.000 C 
ENDROOT
BRANCH   1   2
ATOM      2  C   UNL     1      21.203 -19.859  26.260  1.00  0.00     0.000 C 
BRANCH   2   3
ATOM      3  C   UNL     1      21.456 -20.957  25.211  1.00  0.00     0.006 C 
BRANCH   3   4
ATOM      4  C   UNL     1      22.923 -21.414  25.130  1.00  0.00     0.053 C 
BRANCH   4   5
ATOM      5  C   UNL     1      23.570 -21.043  23.830  1.00  0.00     0.041 C 
ATOM      6  O   UNL     1      23.694 -19.831  23.508  1.00  0.00    -0.550 OA
ATOM      7  O   UNL     1      24.067 -22.031  22.990  1.00  0.00    -0.550 OA
ENDBRANCH   4   5
ENDBRANCH   3   4
ENDBRANCH   2   3
ENDBRANCH   1   2
BRANCH   1   8
ATOM      8  C   UNL     1      18.823 -19.113  25.687  1.00  0.00     0.000 C 
BRANCH   8   9
ATOM      9  C   UNL     1      17.420 -18.821  26.240  1.00  0.00     0.000 C 
BRANCH   9  10
ATOM     10  C   UNL     1      17.037 -19.838  27.326  1.00  0.00     0.006 C 
BRANCH  10  11
ATOM     11  C   UNL     1      16.008 -19.272  28.314  1.00  0.00     0.053 C 
BRANCH  11  12
ATOM     12  C   UNL     1      16.553 -18.106  29.079  1.00  0.00     0.041 C 
ATOM     13  O   UNL     1      17.598 -18.235  29.770  1.00  0.00    -0.550 OA
ATOM     14  O   UNL     1      15.928 -16.868  29.002  1.00  0.00    -0.550 OA
ENDBRANCH  11  12
ENDBRANCH  10  11
ENDBRANCH   9  10
ENDBRANCH   8   9
ENDBRANCH   1   8
TORSDOF 9
ENDMDL
MODEL 4
REMARK VINA RESULT:     3.212      2.040      7.714
REMARK INTER + INTRA:           4.497
REMARK INTER:                   4.736
REMARK INTRA:                  -0.239
REMARK UNBOUND:                -0.405
REMARK SMILES O=C([O-])CCCCCCCCC(=O)[O-]
REMARK SMILES IDX 7 1 6 2 5 3 4 4 2 5 1 6 3 7 8 8 9 9 10 10 11 11 12 12 13 13
REMARK SMILES IDX 14 14
REMARK H PARENT
REMARK Flexibility Score: inf
ROOT
ATOM      1  C   UNL     1      21.693 -21.351  25.494  1.00  0.00     0.000 C 
ENDROOT
BRANCH   1   2
ATOM      2  C   UNL     1      22.502 -20.990  24.236  1.00  0.00     0.000 C 
BRANCH   2   3
ATOM      3  C   UNL     1      23.994 -20.747  24.527  1.00  0.00     0.006 C 
BRANCH   3   4
ATOM      4  C   UNL     1      24.826 -22.038  24.631  1.00  0.00     0.053 C 
BRANCH   4   5
ATOM      5  C   UNL     1      25.320 -22.293  26.022  1.00  0.00     0.041 C 
ATOM      6  O   UNL     1      24.551 -22.130  27.007  1.00  0.00    -0.550 OA
ATOM      7  O   UNL     1      26.617 -22.744  26.232  1.00  0.00    -0.550 OA
ENDBRANCH   4   5
ENDBRANCH   3   4
ENDBRANCH   2   3
ENDBRANCH   1   2
BRANCH   1   8
ATOM      8  C   UNL     1      21.084 -20.119  26.181  1.00  0.00     0.000 C 
BRANCH   8   9
ATOM      9  C   UNL     1      19.591 -19.946  25.864  1.00  0.00     0.000 C 
BRANCH   9  10
ATOM     10  C   UNL     1      18.871 -19.209  27.003  1.00  0.00     0.006 C 
BRANCH  10  11
ATOM     11  C   UNL     1      17.365 -19.065  26.742  1.00  0.00     0.053 C 
BRANCH  11  12
ATOM     12  C   UNL     1      16.577 -19.055  28.015  1.00  0.00     0.041 C 
ATOM     13  O   UNL     1      16.492 -18.001  28.698  1.00  0.00    -0.550 OA
ATOM     14  O   UNL     1      15.908 -20.199  28.430  1.00  0.00    -0.550 OA
ENDBRANCH  11  12
ENDBRANCH  10  11
ENDBRANCH   9  10
ENDBRANCH   8   9
ENDBRANCH   1   8
TORSDOF 9
ENDMDL
MODEL 5
REMARK VINA RESULT:     3.269     10.962     11.989
REMARK INTER + INTRA:           4.584
REMARK INTER:                   3.440
REMARK INTRA:                   1.144
REMARK UNBOUND:                -0.405
REMARK SMILES O=C([O-])CCCCCCCCC(=O)[O-]
REMARK SMILES IDX 7 1 6 2 5 3 4 4 2 5 1 6 3 7 8 8 9 9 10 10 11 11 12 12 13 13
REMARK SMILES IDX 14 14
REMARK H PARENT
REMARK Flexibility Score: inf
ROOT
ATOM      1  C   UNL     1      16.266  -7.856  27.615  1.00  0.00     0.000 C 
ENDROOT
BRANCH   1   2
ATOM      2  C   UNL     1      15.875  -7.588  29.078  1.00  0.00     0.000 C 
BRANCH   2   3
ATOM      3  C   UNL     1      17.090  -7.363  29.996  1.00  0.00     0.006 C 
BRANCH   3   4
ATOM      4  C   UNL     1      18.240  -8.359  29.763  1.00  0.00     0.053 C 
BRANCH   4   5
ATOM      5  C   UNL     1      17.815  -9.783  29.959  1.00  0.00     0.041 C 
ATOM      6  O   UNL     1      16.598 -10.063  30.124  1.00  0.00    -0.550 OA
ATOM      7  O   UNL     1      18.756 -10.804  29.925  1.00  0.00    -0.550 OA
ENDBRANCH   4   5
ENDBRANCH   3   4
ENDBRANCH   2   3
ENDBRANCH   1   2
BRANCH   1   8
ATOM      8  C   UNL     1      16.334  -9.355  27.284  1.00  0.00     0.000 C 
BRANCH   8   9
ATOM      9  C   UNL     1      16.313  -9.628  25.773  1.00  0.00     0.000 C 
BRANCH   9  10
ATOM     10  C   UNL     1      16.167  -8.320  24.981  1.00  0.00     0.006 C 
BRANCH  10  11
ATOM     11  C   UNL     1      17.164  -8.231  23.818  1.00  0.00     0.053 C 
BRANCH  11  12
ATOM     12  C   UNL     1      18.518  -7.783  24.277  1.00  0.00     0.041 C 
ATOM     13  O   UNL     1      19.541  -8.453  23.978  1.00  0.00    -0.550 OA
ATOM     14  O   UNL     1      18.653  -6.608  25.004  1.00  0.00    -0.550 OA
ENDBRANCH  11  12
ENDBRANCH  10  11
ENDBRANCH   9  10
ENDBRANCH   8   9
ENDBRANCH   1   8
TORSDOF 9
ENDMDL
MODEL 6
REMARK VINA RESULT:     3.452      3.176      6.565
REMARK INTER + INTRA:           4.864
REMARK INTER:                   5.315
REMARK INTRA:                  -0.451
REMARK UNBOUND:                -0.405
REMARK SMILES O=C([O-])CCCCCCCCC(=O)[O-]
REMARK SMILES IDX 7 1 6 2 5 3 4 4 2 5 1 6 3 7 8 8 9 9 10 10 11 11 12 12 13 13
REMARK SMILES IDX 14 14
REMARK H PARENT
REMARK Flexibility Score: inf
ROOT
ATOM      1  C   UNL     1      19.772 -20.145  26.049  1.00  0.00     0.000 C 
ENDROOT
BRANCH   1   2
ATOM      2  C   UNL     1      21.243 -19.916  26.434  1.00  0.00     0.000 C 
BRANCH   2   3
ATOM      3  C   UNL     1      22.194 -20.970  25.839  1.00  0.00     0.006 C 
BRANCH   3   4
ATOM      4  C   UNL     1      22.174 -21.029  24.301  1.00  0.00     0.053 C 
BRANCH   4   5
ATOM      5  C   UNL     1      23.542 -20.899  23.704  1.00  0.00     0.041 C 
ATOM      6  O   UNL     1      24.127 -19.783  23.698  1.00  0.00    -0.550 OA
ATOM      7  O   UNL     1      24.187 -22.014  23.184  1.00  0.00    -0.550 OA
ENDBRANCH   4   5
ENDBRANCH   3   4
ENDBRANCH   2   3
ENDBRANCH   1   2
BRANCH   1   8
ATOM      8  C   UNL     1      18.792 -19.495  27.039  1.00  0.00     0.000 C 
BRANCH   8   9
ATOM      9  C   UNL     1      17.640 -18.762  26.334  1.00  0.00     0.000 C 
BRANCH   9  10
ATOM     10  C   UNL     1      17.879 -18.695  24.819  1.00  0.00     0.006 C 
BRANCH  10  11
ATOM     11  C   UNL     1      16.717 -19.304  24.021  1.00  0.00     0.053 C 
BRANCH  11  12
ATOM     12  C   UNL     1      17.204 -20.107  22.854  1.00  0.00     0.041 C 
ATOM     13  O   UNL     1      18.218 -19.734  22.208  1.00  0.00    -0.550 OA
ATOM     14  O   UNL     1      16.560 -21.286  22.502  1.00  0.00    -0.550 OA
ENDBRANCH  11  12
ENDBRANCH  10  11
ENDBRANCH   9  10
ENDBRANCH   8   9
ENDBRANCH   1   8
TORSDOF 9
ENDMDL
MODEL 7
REMARK VINA RESULT:     3.732      4.567      5.177
REMARK INTER + INTRA:           5.290
REMARK INTER:                   5.552
REMARK INTRA:                  -0.261
REMARK UNBOUND:                -0.405
REMARK SMILES O=C([O-])CCCCCCCCC(=O)[O-]
REMARK SMILES IDX 7 1 6 2 5 3 4 4 2 5 1 6 3 7 8 8 9 9 10 10 11 11 12 12 13 13
REMARK SMILES IDX 14 14
REMARK H PARENT
REMARK Flexibility Score: inf
ROOT
ATOM      1  C   UNL     1      16.941 -19.434  23.364  1.00  0.00     0.000 C 
ENDROOT
BRANCH   1   2
ATOM      2  C   UNL     1      18.051 -19.257  24.414  1.00  0.00     0.000 C 
BRANCH   2   3
ATOM      3  C   UNL     1      17.563 -18.552  25.693  1.00  0.00     0.006 C 
BRANCH   3   4
ATOM      4  C   UNL     1      17.781 -19.372  26.977  1.00  0.00     0.053 C 
BRANCH   4   5
ATOM      5  C   UNL     1      16.709 -19.138  27.997  1.00  0.00     0.041 C 
ATOM      6  O   UNL     1      16.057 -20.109  28.465  1.00  0.00    -0.550 OA
ATOM      7  O   UNL     1      16.452 -17.853  28.458  1.00  0.00    -0.550 OA
ENDBRANCH   4   5
ENDBRANCH   3   4
ENDBRANCH   2   3
ENDBRANCH   1   2
BRANCH   1   8
ATOM      8  C   UNL     1      17.259 -20.543  22.348  1.00  0.00     0.000 C 
BRANCH   8   9
ATOM      9  C   UNL     1      16.459 -21.828  22.607  1.00  0.00     0.000 C 
BRANCH   9  10
ATOM     10  C   UNL     1      16.378 -22.689  21.337  1.00  0.00     0.006 C 
BRANCH  10  11
ATOM     11  C   UNL     1      17.595 -23.610  21.182  1.00  0.00     0.053 C 
BRANCH  11  12
ATOM     12  C   UNL     1      18.043 -23.705  19.756  1.00  0.00     0.041 C 
ATOM     13  O   UNL     1      18.053 -24.819  19.169  1.00  0.00    -0.550 OA
ATOM     14  O   UNL     1      18.415 -22.560  19.064  1.00  0.00    -0.550 OA
ENDBRANCH  11  12
ENDBRANCH  10  11
ENDBRANCH   9  10
ENDBRANCH   8   9
ENDBRANCH   1   8
TORSDOF 9
ENDMDL
MODEL 8
REMARK VINA RESULT:     3.743      2.022      2.752
REMARK INTER + INTRA:           5.308
REMARK INTER:                   5.421
REMARK INTRA:                  -0.112
REMARK UNBOUND:                -0.405
REMARK SMILES O=C([O-])CCCCCCCCC(=O)[O-]
REMARK SMILES IDX 7 1 6 2 5 3 4 4 2 5 1 6 3 7 8 8 9 9 10 10 11 11 12 12 13 13
REMARK SMILES IDX 14 14
REMARK H PARENT
REMARK Flexibility Score: inf
ROOT
ATOM      1  C   UNL     1      20.471 -20.661  25.592  1.00  0.00     0.000 C 
ENDROOT
BRANCH   1   2
ATOM      2  C   UNL     1      19.861 -19.518  26.421  1.00  0.00     0.000 C 
BRANCH   2   3
ATOM      3  C   UNL     1      18.481 -19.866  27.006  1.00  0.00     0.006 C 
BRANCH   3   4
ATOM      4  C   UNL     1      17.475 -18.702  26.963  1.00  0.00     0.053 C 
BRANCH   4   5
ATOM      5  C   UNL     1      16.579 -18.673  28.164  1.00  0.00     0.041 C 
ATOM      6  O   UNL     1      16.074 -19.740  28.604  1.00  0.00    -0.550 OA
ATOM      7  O   UNL     1      16.328 -17.474  28.819  1.00  0.00    -0.550 OA
ENDBRANCH   4   5
ENDBRANCH   3   4
ENDBRANCH   2   3
ENDBRANCH   1   2
BRANCH   1   8
ATOM      8  C   UNL     1      22.008 -20.669  25.635  1.00  0.00     0.000 C 
BRANCH   8   9
ATOM      9  C   UNL     1      22.631 -21.163  24.321  1.00  0.00     0.000 C 
BRANCH   9  10
ATOM     10  C   UNL     1      24.150 -20.931  24.313  1.00  0.00     0.006 C 
BRANCH  10  11
ATOM     11  C   UNL     1      24.936 -22.227  24.554  1.00  0.00     0.053 C 
BRANCH  11  12
ATOM     12  C   UNL     1      25.418 -22.331  25.969  1.00  0.00     0.041 C 
ATOM     13  O   UNL     1      26.630 -22.573  26.208  1.00  0.00    -0.550 OA
ATOM     14  O   UNL     1      24.536 -22.127  27.022  1.00  0.00    -0.550 OA
ENDBRANCH  11  12
ENDBRANCH  10  11
ENDBRANCH   9  10
ENDBRANCH   8   9
ENDBRANCH   1   8
TORSDOF 9
ENDMDL
